MODEL 1
REMARK VINA RESULT:      -9.7      0.000      0.000
REMARK SMILES O=C(OCCOCCOCCOC(=O)c1cc(Br)ccc1NC(=O)c1ccc(Br)s1)c1ccc(-c2c3nc(c(-c4ccc(S(=O)(=O)[O-])cc4)c4ccc([nH]4)c(-c4ccc(S(=O)(=O)[O-])cc4)c4nc(c(-c5ccc(S(=O)(=O)[O-])cc5)c5ccc2[nH]5)C=C4)C=C3)cc1
REMARK SMILES IDX 7 1 6 2 5 3 4 4 3 5 2 6 1 7 31 8 32 9 90 10 33 11 89 12
REMARK SMILES IDX 34 13 35 14 36 15 83 16 37 17 88 18 82 19 84 20 38 21 87 22
REMARK SMILES IDX 81 23 80 24 39 26 69 27 50 28 68 29 51 30 54 31 67 32 85 33
REMARK SMILES IDX 52 34 53 35 66 37 86 38 55 39 40 40 41 41 49 42 42 43 48 44
REMARK SMILES IDX 43 45 44 46 45 47 46 48 47 49 70 50 71 51 79 52 72 53 78 54
REMARK SMILES IDX 73 55 74 56 75 57 76 58 77 59 56 60 57 61 65 62 58 63 64 64
REMARK SMILES IDX 59 65 60 66 61 67 62 68 63 69 8 70 9 71 10 72 11 73 12 74
REMARK SMILES IDX 13 75 14 76 15 77 16 78 21 79 17 80 20 81 18 82 19 83 22 84
REMARK SMILES IDX 23 85 24 87 25 88 26 89 30 90 27 91 28 92 29 93
REMARK H PARENT 84 25 54 36 22 86
REMARK Flexibility Score: inf
ROOT
ATOM      1  C   UNL A   1      35.852  33.701  28.391  1.00  0.00     0.188 C 
ENDROOT
BRANCH   1   2
ATOM      2  O   UNL A   1      34.682  34.200  27.732  1.00  0.00    -0.376 OA
BRANCH   2   3
ATOM      3  C   UNL A   1      34.406  35.574  28.020  1.00  0.00     0.202 C 
BRANCH   3   4
ATOM      4  C   UNL A   1      33.074  35.802  28.743  1.00  0.00     0.261 C 
BRANCH   4   5
ATOM      5  O   UNL A   1      32.827  34.800  29.741  1.00  0.00    -0.460 OA
BRANCH   5   6
ATOM      6  C   UNL A   1      33.027  34.891  31.081  1.00  0.00     0.338 C 
ATOM      7  O   UNL A   1      32.105  35.321  31.772  1.00  0.00    -0.246 OA
BRANCH   6   8
ATOM      8  C   UNL A   1      34.279  34.434  31.769  1.00  0.00     0.060 A 
ATOM      9  C   UNL A   1      35.405  35.223  32.012  1.00  0.00     0.016 A 
ATOM     10  C   UNL A   1      34.312  33.104  32.225  1.00  0.00     0.016 A 
ATOM     11  C   UNL A   1      36.579  34.678  32.531  1.00  0.00     0.010 A 
ATOM     12  C   UNL A   1      35.464  32.568  32.818  1.00  0.00     0.010 A 
ATOM     13  C   UNL A   1      36.625  33.340  32.923  1.00  0.00    -0.014 A 
BRANCH  13  14
ATOM     14  C   UNL A   1      37.919  32.754  33.345  1.00  0.00     0.031 A 
ATOM     15  C   UNL A   1      38.418  33.011  34.740  1.00  0.00     0.074 A 
ATOM     16  C   UNL A   1      38.591  31.921  32.528  1.00  0.00     0.049 A 
ATOM     17  N   UNL A   1      39.525  32.605  35.303  1.00  0.00    -0.248 NA
ATOM     18  C   UNL A   1      37.544  33.800  35.626  1.00  0.00     0.031 C 
ATOM     19  C   UNL A   1      38.146  31.499  31.198  1.00  0.00     0.029 A 
ATOM     20  N   UNL A   1      39.785  31.267  32.696  1.00  0.00    -0.354 N 
ATOM     21  C   UNL A   1      39.482  33.088  36.606  1.00  0.00     0.074 A 
ATOM     22  C   UNL A   1      38.253  33.838  36.744  1.00  0.00     0.031 C 
ATOM     23  C   UNL A   1      39.065  30.680  30.664  1.00  0.00     0.029 A 
ATOM     24  C   UNL A   1      40.179  30.551  31.591  1.00  0.00     0.049 A 
ATOM     25  H   UNL A   1      40.309  31.307  33.528  1.00  0.00     0.167 HD
ATOM     26  C   UNL A   1      40.381  32.910  37.601  1.00  0.00     0.031 A 
ATOM     27  C   UNL A   1      41.323  29.890  31.335  1.00  0.00     0.031 A 
ATOM     28  C   UNL A   1      41.606  32.174  37.453  1.00  0.00     0.049 A 
ATOM     29  C   UNL A   1      42.365  29.821  32.408  1.00  0.00     0.074 A 
ATOM     30  C   UNL A   1      42.601  31.957  38.389  1.00  0.00     0.029 A 
ATOM     31  N   UNL A   1      42.005  31.537  36.288  1.00  0.00    -0.354 N 
ATOM     32  N   UNL A   1      42.321  30.313  33.622  1.00  0.00    -0.248 NA
ATOM     33  C   UNL A   1      43.600  29.098  32.085  1.00  0.00     0.031 C 
ATOM     34  C   UNL A   1      43.625  31.226  37.774  1.00  0.00     0.029 A 
ATOM     35  C   UNL A   1      43.244  30.950  36.471  1.00  0.00     0.049 A 
ATOM     36  H   UNL A   1      41.484  31.508  35.453  1.00  0.00     0.167 HD
ATOM     37  C   UNL A   1      43.519  29.943  34.218  1.00  0.00     0.074 A 
ATOM     38  C   UNL A   1      44.259  29.179  33.233  1.00  0.00     0.031 C 
ATOM     39  C   UNL A   1      43.963  30.208  35.469  1.00  0.00     0.031 A 
BRANCH  26  40
ATOM     40  C   UNL A   1      40.086  33.564  38.921  1.00  0.00    -0.014 A 
ATOM     41  C   UNL A   1      40.566  34.852  39.218  1.00  0.00     0.010 A 
ATOM     42  C   UNL A   1      39.300  32.888  39.870  1.00  0.00     0.010 A 
ATOM     43  C   UNL A   1      40.289  35.441  40.456  1.00  0.00     0.020 A 
ATOM     44  C   UNL A   1      39.006  33.480  41.101  1.00  0.00     0.020 A 
ATOM     45  C   UNL A   1      39.514  34.747  41.391  1.00  0.00     0.054 A 
BRANCH  45  46
ATOM     46  S   UNL A   1      39.152  35.540  42.982  1.00  0.00     0.124 S 
ATOM     47  O   UNL A   1      39.952  34.738  43.906  1.00  0.00    -0.237 OA
ATOM     48  O   UNL A   1      39.619  36.908  42.773  1.00  0.00    -0.237 OA
ATOM     49  O   UNL A   1      37.705  35.392  43.121  1.00  0.00    -0.744 OA
ENDBRANCH  45  46
ENDBRANCH  26  40
BRANCH  27  50
ATOM     50  C   UNL A   1      41.577  29.309  29.991  1.00  0.00    -0.014 A 
ATOM     51  C   UNL A   1      42.188  30.062  28.976  1.00  0.00     0.010 A 
ATOM     52  C   UNL A   1      41.169  27.990  29.719  1.00  0.00     0.010 A 
ATOM     53  C   UNL A   1      42.373  29.510  27.703  1.00  0.00     0.020 A 
ATOM     54  C   UNL A   1      41.357  27.434  28.451  1.00  0.00     0.020 A 
ATOM     55  C   UNL A   1      41.950  28.201  27.447  1.00  0.00     0.054 A 
BRANCH  55  56
ATOM     56  S   UNL A   1      42.246  27.474  25.810  1.00  0.00     0.124 S 
ATOM     57  O   UNL A   1      43.530  26.810  26.004  1.00  0.00    -0.237 OA
ATOM     58  O   UNL A   1      41.096  26.588  25.637  1.00  0.00    -0.237 OA
ATOM     59  O   UNL A   1      42.266  28.635  24.923  1.00  0.00    -0.744 OA
ENDBRANCH  55  56
ENDBRANCH  27  50
BRANCH  39  60
ATOM     60  C   UNL A   1      45.304  29.649  35.840  1.00  0.00    -0.014 A 
ATOM     61  C   UNL A   1      46.476  30.402  35.650  1.00  0.00     0.010 A 
ATOM     62  C   UNL A   1      45.385  28.369  36.414  1.00  0.00     0.010 A 
ATOM     63  C   UNL A   1      47.715  29.869  36.007  1.00  0.00     0.020 A 
ATOM     64  C   UNL A   1      46.621  27.844  36.793  1.00  0.00     0.020 A 
ATOM     65  C   UNL A   1      47.780  28.592  36.574  1.00  0.00     0.054 A 
BRANCH  65  66
ATOM     66  S   UNL A   1      49.395  27.937  37.072  1.00  0.00     0.124 S 
ATOM     67  O   UNL A   1      49.117  27.441  38.417  1.00  0.00    -0.237 OA
ATOM     68  O   UNL A   1      49.653  26.913  36.063  1.00  0.00    -0.237 OA
ATOM     69  O   UNL A   1      50.274  29.103  37.005  1.00  0.00    -0.744 OA
ENDBRANCH  65  66
ENDBRANCH  39  60
ENDBRANCH  13  14
ENDBRANCH   6   8
ENDBRANCH   5   6
ENDBRANCH   4   5
ENDBRANCH   3   4
ENDBRANCH   2   3
ENDBRANCH   1   2
BRANCH   1  70
ATOM     70  C   UNL A   1      35.755  32.188  28.593  1.00  0.00     0.188 C 
BRANCH  70  71
ATOM     71  O   UNL A   1      34.453  31.635  28.387  1.00  0.00    -0.376 OA
BRANCH  71  72
ATOM     72  C   UNL A   1      34.385  30.385  27.705  1.00  0.00     0.202 C 
BRANCH  72  73
ATOM     73  C   UNL A   1      33.058  30.050  27.016  1.00  0.00     0.261 C 
BRANCH  73  74
ATOM     74  O   UNL A   1      32.918  28.701  26.535  1.00  0.00    -0.460 OA
BRANCH  74  75
ATOM     75  C   UNL A   1      31.790  28.070  26.943  1.00  0.00     0.340 C 
ATOM     76  O   UNL A   1      31.481  27.766  28.086  1.00  0.00    -0.246 OA
BRANCH  75  77
ATOM     77  C   UNL A   1      31.042  27.602  25.771  1.00  0.00     0.084 A 
ATOM     78  C   UNL A   1      30.951  28.545  24.740  1.00  0.00     0.033 A 
ATOM     79  C   UNL A   1      30.566  26.286  25.607  1.00  0.00     0.056 A 
ATOM     80  C   UNL A   1      30.363  28.192  23.537  1.00  0.00     0.018 A 
ATOM     81  C   UNL A   1      29.865  26.006  24.427  1.00  0.00     0.028 A 
ATOM     82  Br  UNL A   1      30.351  29.435  22.126  1.00  0.00    -0.051 Br
ATOM     83  C   UNL A   1      29.795  26.936  23.383  1.00  0.00     0.018 A 
BRANCH  79  84
ATOM     84  N   UNL A   1      30.813  25.314  26.599  1.00  0.00    -0.320 N 
ATOM     85  C   UNL A   1      31.556  24.148  26.624  1.00  0.00     0.265 C 
ATOM     86  H   UNL A   1      30.363  25.507  27.453  1.00  0.00     0.170 HD
ATOM     87  O   UNL A   1      31.496  23.489  27.664  1.00  0.00    -0.268 OA
BRANCH  85  88
ATOM     88  C   UNL A   1      32.410  23.772  25.516  1.00  0.00     0.093 A 
ATOM     89  C   UNL A   1      32.088  23.175  24.308  1.00  0.00     0.027 A 
ATOM     90  S   UNL A   1      34.090  24.108  25.615  1.00  0.00    -0.123 S 
ATOM     91  C   UNL A   1      33.247  22.870  23.530  1.00  0.00     0.028 A 
ATOM     92  C   UNL A   1      34.388  23.316  24.148  1.00  0.00     0.071 A 
ATOM     93  Br  UNL A   1      36.107  23.076  23.447  1.00  0.00    -0.039 Br
ENDBRANCH  85  88
ENDBRANCH  79  84
ENDBRANCH  75  77
ENDBRANCH  74  75
ENDBRANCH  73  74
ENDBRANCH  72  73
ENDBRANCH  71  72
ENDBRANCH  70  71
ENDBRANCH   1  70
TORSDOF 22
ENDMDL
MODEL 2
REMARK VINA RESULT:      -9.7      6.964      9.321
REMARK SMILES O=C(OCCOCCOCCOC(=O)c1cc(Br)ccc1NC(=O)c1ccc(Br)s1)c1ccc(-c2c3nc(c(-c4ccc(S(=O)(=O)[O-])cc4)c4ccc([nH]4)c(-c4ccc(S(=O)(=O)[O-])cc4)c4nc(c(-c5ccc(S(=O)(=O)[O-])cc5)c5ccc2[nH]5)C=C4)C=C3)cc1
REMARK SMILES IDX 7 1 6 2 5 3 4 4 3 5 2 6 1 7 31 8 32 9 90 10 33 11 89 12
REMARK SMILES IDX 34 13 35 14 36 15 83 16 37 17 88 18 82 19 84 20 38 21 87 22
REMARK SMILES IDX 81 23 80 24 39 26 69 27 50 28 68 29 51 30 54 31 67 32 85 33
REMARK SMILES IDX 52 34 53 35 66 37 86 38 55 39 40 40 41 41 49 42 42 43 48 44
REMARK SMILES IDX 43 45 44 46 45 47 46 48 47 49 70 50 71 51 79 52 72 53 78 54
REMARK SMILES IDX 73 55 74 56 75 57 76 58 77 59 56 60 57 61 65 62 58 63 64 64
REMARK SMILES IDX 59 65 60 66 61 67 62 68 63 69 8 70 9 71 10 72 11 73 12 74
REMARK SMILES IDX 13 75 14 76 15 77 16 78 21 79 17 80 20 81 18 82 19 83 22 84
REMARK SMILES IDX 23 85 24 87 25 88 26 89 30 90 27 91 28 92 29 93
REMARK H PARENT 84 25 54 36 22 86
REMARK Flexibility Score: inf
ROOT
ATOM      1  C   UNL A   1      32.799  29.329  26.435  1.00  0.00     0.188 C 
ENDROOT
BRANCH   1   2
ATOM      2  O   UNL A   1      33.136  29.926  27.693  1.00  0.00    -0.376 OA
BRANCH   2   3
ATOM      3  C   UNL A   1      33.936  31.105  27.568  1.00  0.00     0.202 C 
BRANCH   3   4
ATOM      4  C   UNL A   1      35.446  30.841  27.624  1.00  0.00     0.261 C 
BRANCH   4   5
ATOM      5  O   UNL A   1      35.756  29.665  28.387  1.00  0.00    -0.460 OA
BRANCH   5   6
ATOM      6  C   UNL A   1      36.741  29.504  29.306  1.00  0.00     0.338 C 
ATOM      7  O   UNL A   1      36.452  29.649  30.492  1.00  0.00    -0.246 OA
BRANCH   6   8
ATOM      8  C   UNL A   1      38.143  29.093  28.961  1.00  0.00     0.060 A 
ATOM      9  C   UNL A   1      39.040  28.465  29.827  1.00  0.00     0.016 A 
ATOM     10  C   UNL A   1      38.580  29.344  27.648  1.00  0.00     0.016 A 
ATOM     11  C   UNL A   1      40.368  28.246  29.466  1.00  0.00     0.010 A 
ATOM     12  C   UNL A   1      39.894  29.056  27.253  1.00  0.00     0.010 A 
ATOM     13  C   UNL A   1      40.813  28.555  28.180  1.00  0.00    -0.014 A 
BRANCH  13  14
ATOM     14  C   UNL A   1      42.257  28.437  27.866  1.00  0.00     0.031 A 
ATOM     15  C   UNL A   1      43.155  29.619  28.104  1.00  0.00     0.074 A 
ATOM     16  C   UNL A   1      42.777  27.259  27.471  1.00  0.00     0.049 A 
ATOM     17  N   UNL A   1      44.439  29.731  27.885  1.00  0.00    -0.248 NA
ATOM     18  C   UNL A   1      42.536  30.820  28.692  1.00  0.00     0.031 C 
ATOM     19  C   UNL A   1      42.026  26.011  27.323  1.00  0.00     0.029 A 
ATOM     20  N   UNL A   1      44.060  26.912  27.132  1.00  0.00    -0.354 N 
ATOM     21  C   UNL A   1      44.781  31.010  28.307  1.00  0.00     0.074 A 
ATOM     22  C   UNL A   1      43.568  31.646  28.771  1.00  0.00     0.031 C 
ATOM     23  C   UNL A   1      42.856  25.044  26.901  1.00  0.00     0.029 A 
ATOM     24  C   UNL A   1      44.182  25.610  26.708  1.00  0.00     0.049 A 
ATOM     25  H   UNL A   1      44.819  27.536  27.187  1.00  0.00     0.167 HD
ATOM     26  C   UNL A   1      46.000  31.596  28.318  1.00  0.00     0.031 A 
ATOM     27  C   UNL A   1      45.234  24.951  26.191  1.00  0.00     0.031 A 
ATOM     28  C   UNL A   1      47.199  30.963  27.844  1.00  0.00     0.049 A 
ATOM     29  C   UNL A   1      46.547  25.666  26.087  1.00  0.00     0.074 A 
ATOM     30  C   UNL A   1      48.482  31.477  27.783  1.00  0.00     0.029 A 
ATOM     31  N   UNL A   1      47.261  29.671  27.342  1.00  0.00    -0.354 N 
ATOM     32  N   UNL A   1      46.843  26.887  26.460  1.00  0.00    -0.248 NA
ATOM     33  C   UNL A   1      47.666  24.913  25.510  1.00  0.00     0.031 C 
ATOM     34  C   UNL A   1      49.311  30.511  27.202  1.00  0.00     0.029 A 
ATOM     35  C   UNL A   1      48.553  29.380  26.945  1.00  0.00     0.049 A 
ATOM     36  H   UNL A   1      46.497  29.053  27.278  1.00  0.00     0.167 HD
ATOM     37  C   UNL A   1      48.192  27.046  26.177  1.00  0.00     0.074 A 
ATOM     38  C   UNL A   1      48.654  25.792  25.614  1.00  0.00     0.031 C 
ATOM     39  C   UNL A   1      48.980  28.130  26.373  1.00  0.00     0.031 A 
BRANCH  26  40
ATOM     40  C   UNL A   1      46.081  33.010  28.820  1.00  0.00    -0.014 A 
ATOM     41  C   UNL A   1      45.887  34.102  27.955  1.00  0.00     0.010 A 
ATOM     42  C   UNL A   1      46.334  33.249  30.182  1.00  0.00     0.010 A 
ATOM     43  C   UNL A   1      45.975  35.411  28.438  1.00  0.00     0.020 A 
ATOM     44  C   UNL A   1      46.405  34.556  30.673  1.00  0.00     0.020 A 
ATOM     45  C   UNL A   1      46.238  35.628  29.795  1.00  0.00     0.054 A 
BRANCH  45  46
ATOM     46  S   UNL A   1      46.328  37.335  30.402  1.00  0.00     0.124 S 
ATOM     47  O   UNL A   1      45.586  37.247  31.658  1.00  0.00    -0.237 OA
ATOM     48  O   UNL A   1      47.767  37.552  30.538  1.00  0.00    -0.237 OA
ATOM     49  O   UNL A   1      45.680  38.112  29.349  1.00  0.00    -0.744 OA
ENDBRANCH  45  46
ENDBRANCH  26  40
BRANCH  27  50
ATOM     50  C   UNL A   1      45.078  23.571  25.663  1.00  0.00    -0.014 A 
ATOM     51  C   UNL A   1      45.404  22.451  26.445  1.00  0.00     0.010 A 
ATOM     52  C   UNL A   1      44.627  23.382  24.344  1.00  0.00     0.010 A 
ATOM     53  C   UNL A   1      45.296  21.162  25.909  1.00  0.00     0.020 A 
ATOM     54  C   UNL A   1      44.513  22.097  23.808  1.00  0.00     0.020 A 
ATOM     55  C   UNL A   1      44.857  20.994  24.592  1.00  0.00     0.054 A 
BRANCH  55  56
ATOM     56  S   UNL A   1      44.665  19.316  23.925  1.00  0.00     0.124 S 
ATOM     57  O   UNL A   1      44.485  19.577  22.501  1.00  0.00    -0.237 OA
ATOM     58  O   UNL A   1      45.926  18.674  24.295  1.00  0.00    -0.237 OA
ATOM     59  O   UNL A   1      43.488  18.807  24.624  1.00  0.00    -0.744 OA
ENDBRANCH  55  56
ENDBRANCH  27  50
BRANCH  39  60
ATOM     60  C   UNL A   1      50.422  27.993  25.987  1.00  0.00    -0.014 A 
ATOM     61  C   UNL A   1      51.384  27.581  26.926  1.00  0.00     0.010 A 
ATOM     62  C   UNL A   1      50.811  28.248  24.660  1.00  0.00     0.010 A 
ATOM     63  C   UNL A   1      52.720  27.452  26.549  1.00  0.00     0.020 A 
ATOM     64  C   UNL A   1      52.143  28.097  24.275  1.00  0.00     0.020 A 
ATOM     65  C   UNL A   1      53.092  27.713  25.226  1.00  0.00     0.054 A 
BRANCH  65  66
ATOM     66  S   UNL A   1      54.826  27.495  24.746  1.00  0.00     0.124 S 
ATOM     67  O   UNL A   1      54.878  26.068  24.443  1.00  0.00    -0.237 OA
ATOM     68  O   UNL A   1      54.957  28.387  23.597  1.00  0.00    -0.237 OA
ATOM     69  O   UNL A   1      55.567  27.910  25.935  1.00  0.00    -0.744 OA
ENDBRANCH  65  66
ENDBRANCH  39  60
ENDBRANCH  13  14
ENDBRANCH   6   8
ENDBRANCH   5   6
ENDBRANCH   4   5
ENDBRANCH   3   4
ENDBRANCH   2   3
ENDBRANCH   1   2
BRANCH   1  70
ATOM     70  C   UNL A   1      32.461  27.847  26.614  1.00  0.00     0.188 C 
BRANCH  70  71
ATOM     71  O   UNL A   1      31.154  27.470  26.176  1.00  0.00    -0.376 OA
BRANCH  71  72
ATOM     72  C   UNL A   1      30.857  26.076  26.162  1.00  0.00     0.202 C 
BRANCH  72  73
ATOM     73  C   UNL A   1      31.427  25.263  24.994  1.00  0.00     0.261 C 
BRANCH  73  74
ATOM     74  O   UNL A   1      32.707  24.646  25.219  1.00  0.00    -0.460 OA
BRANCH  74  75
ATOM     75  C   UNL A   1      33.729  25.191  24.515  1.00  0.00     0.340 C 
ATOM     76  O   UNL A   1      33.735  26.260  23.921  1.00  0.00    -0.246 OA
BRANCH  75  77
ATOM     77  C   UNL A   1      34.810  24.209  24.382  1.00  0.00     0.084 A 
ATOM     78  C   UNL A   1      35.900  24.445  25.230  1.00  0.00     0.033 A 
ATOM     79  C   UNL A   1      34.735  23.046  23.590  1.00  0.00     0.056 A 
ATOM     80  C   UNL A   1      36.940  23.533  25.280  1.00  0.00     0.018 A 
ATOM     81  C   UNL A   1      35.861  22.215  23.573  1.00  0.00     0.028 A 
ATOM     82  Br  UNL A   1      38.340  23.809  26.505  1.00  0.00    -0.051 Br
ATOM     83  C   UNL A   1      36.941  22.431  24.437  1.00  0.00     0.018 A 
BRANCH  79  84
ATOM     84  N   UNL A   1      33.557  22.755  22.871  1.00  0.00    -0.320 N 
ATOM     85  C   UNL A   1      32.639  21.722  22.926  1.00  0.00     0.265 C 
ATOM     86  H   UNL A   1      33.344  23.429  22.185  1.00  0.00     0.170 HD
ATOM     87  O   UNL A   1      31.741  21.749  22.082  1.00  0.00    -0.268 OA
BRANCH  85  88
ATOM     88  C   UNL A   1      32.695  20.716  23.967  1.00  0.00     0.093 A 
ATOM     89  C   UNL A   1      32.852  20.861  25.336  1.00  0.00     0.027 A 
ATOM     90  S   UNL A   1      32.516  19.065  23.532  1.00  0.00    -0.123 S 
ATOM     91  C   UNL A   1      32.965  19.601  26.002  1.00  0.00     0.028 A 
ATOM     92  C   UNL A   1      32.814  18.561  25.121  1.00  0.00     0.071 A 
ATOM     93  Br  UNL A   1      32.927  16.759  25.618  1.00  0.00    -0.039 Br
ENDBRANCH  85  88
ENDBRANCH  79  84
ENDBRANCH  75  77
ENDBRANCH  74  75
ENDBRANCH  73  74
ENDBRANCH  72  73
ENDBRANCH  71  72
ENDBRANCH  70  71
ENDBRANCH   1  70
TORSDOF 22
ENDMDL
MODEL 3
REMARK VINA RESULT:      -9.6      2.724      9.056
REMARK SMILES O=C(OCCOCCOCCOC(=O)c1cc(Br)ccc1NC(=O)c1ccc(Br)s1)c1ccc(-c2c3nc(c(-c4ccc(S(=O)(=O)[O-])cc4)c4ccc([nH]4)c(-c4ccc(S(=O)(=O)[O-])cc4)c4nc(c(-c5ccc(S(=O)(=O)[O-])cc5)c5ccc2[nH]5)C=C4)C=C3)cc1
REMARK SMILES IDX 7 1 6 2 5 3 4 4 3 5 2 6 1 7 31 8 32 9 90 10 33 11 89 12
REMARK SMILES IDX 34 13 35 14 36 15 83 16 37 17 88 18 82 19 84 20 38 21 87 22
REMARK SMILES IDX 81 23 80 24 39 26 69 27 50 28 68 29 51 30 54 31 67 32 85 33
REMARK SMILES IDX 52 34 53 35 66 37 86 38 55 39 40 40 41 41 49 42 42 43 48 44
REMARK SMILES IDX 43 45 44 46 45 47 46 48 47 49 70 50 71 51 79 52 72 53 78 54
REMARK SMILES IDX 73 55 74 56 75 57 76 58 77 59 56 60 57 61 65 62 58 63 64 64
REMARK SMILES IDX 59 65 60 66 61 67 62 68 63 69 8 70 9 71 10 72 11 73 12 74
REMARK SMILES IDX 13 75 14 76 15 77 16 78 21 79 17 80 20 81 18 82 19 83 22 84
REMARK SMILES IDX 23 85 24 87 25 88 26 89 30 90 27 91 28 92 29 93
REMARK H PARENT 84 25 54 36 22 86
REMARK Flexibility Score: inf
ROOT
ATOM      1  C   UNL A   1      39.028  23.029  26.054  1.00  0.00     0.188 C 
ENDROOT
BRANCH   1   2
ATOM      2  O   UNL A   1      40.008  22.445  26.920  1.00  0.00    -0.376 OA
BRANCH   2   3
ATOM      3  C   UNL A   1      41.225  22.099  26.254  1.00  0.00     0.202 C 
BRANCH   3   4
ATOM      4  C   UNL A   1      42.430  22.947  26.679  1.00  0.00     0.261 C 
BRANCH   4   5
ATOM      5  O   UNL A   1      42.547  24.142  25.891  1.00  0.00    -0.460 OA
BRANCH   5   6
ATOM      6  C   UNL A   1      41.856  25.302  26.029  1.00  0.00     0.338 C 
ATOM      7  O   UNL A   1      41.272  25.745  25.042  1.00  0.00    -0.246 OA
BRANCH   6   8
ATOM      8  C   UNL A   1      41.710  26.034  27.332  1.00  0.00     0.060 A 
ATOM      9  C   UNL A   1      40.713  25.805  28.283  1.00  0.00     0.016 A 
ATOM     10  C   UNL A   1      42.670  27.019  27.626  1.00  0.00     0.016 A 
ATOM     11  C   UNL A   1      40.570  26.627  29.399  1.00  0.00     0.010 A 
ATOM     12  C   UNL A   1      42.576  27.800  28.786  1.00  0.00     0.010 A 
ATOM     13  C   UNL A   1      41.490  27.644  29.653  1.00  0.00    -0.014 A 
BRANCH  13  14
ATOM     14  C   UNL A   1      41.238  28.584  30.770  1.00  0.00     0.031 A 
ATOM     15  C   UNL A   1      42.101  28.508  31.999  1.00  0.00     0.074 A 
ATOM     16  C   UNL A   1      40.319  29.561  30.648  1.00  0.00     0.049 A 
ATOM     17  N   UNL A   1      42.041  29.224  33.091  1.00  0.00    -0.248 NA
ATOM     18  C   UNL A   1      43.192  27.517  31.987  1.00  0.00     0.031 C 
ATOM     19  C   UNL A   1      39.506  29.812  29.456  1.00  0.00     0.029 A 
ATOM     20  N   UNL A   1      39.919  30.533  31.529  1.00  0.00    -0.354 N 
ATOM     21  C   UNL A   1      43.082  28.774  33.893  1.00  0.00     0.074 A 
ATOM     22  C   UNL A   1      43.743  27.705  33.177  1.00  0.00     0.031 C 
ATOM     23  C   UNL A   1      38.689  30.851  29.691  1.00  0.00     0.029 A 
ATOM     24  C   UNL A   1      38.889  31.312  31.056  1.00  0.00     0.049 A 
ATOM     25  H   UNL A   1      40.329  30.661  32.414  1.00  0.00     0.167 HD
ATOM     26  C   UNL A   1      43.461  29.220  35.113  1.00  0.00     0.031 A 
ATOM     27  C   UNL A   1      38.163  32.269  31.661  1.00  0.00     0.031 A 
ATOM     28  C   UNL A   1      42.792  30.275  35.824  1.00  0.00     0.049 A 
ATOM     29  C   UNL A   1      38.515  32.654  33.066  1.00  0.00     0.074 A 
ATOM     30  C   UNL A   1      43.076  30.786  37.078  1.00  0.00     0.029 A 
ATOM     31  N   UNL A   1      41.699  30.978  35.342  1.00  0.00    -0.354 N 
ATOM     32  N   UNL A   1      39.481  32.193  33.821  1.00  0.00    -0.248 NA
ATOM     33  C   UNL A   1      37.692  33.696  33.691  1.00  0.00     0.031 C 
ATOM     34  C   UNL A   1      42.124  31.768  37.372  1.00  0.00     0.029 A 
ATOM     35  C   UNL A   1      41.278  31.900  36.282  1.00  0.00     0.049 A 
ATOM     36  H   UNL A   1      41.283  30.841  34.459  1.00  0.00     0.167 HD
ATOM     37  C   UNL A   1      39.395  32.902  35.011  1.00  0.00     0.074 A 
ATOM     38  C   UNL A   1      38.289  33.829  34.868  1.00  0.00     0.031 C 
ATOM     39  C   UNL A   1      40.166  32.799  36.119  1.00  0.00     0.031 A 
BRANCH  26  40
ATOM     40  C   UNL A   1      44.626  28.534  35.767  1.00  0.00    -0.014 A 
ATOM     41  C   UNL A   1      45.945  28.972  35.550  1.00  0.00     0.010 A 
ATOM     42  C   UNL A   1      44.396  27.446  36.628  1.00  0.00     0.010 A 
ATOM     43  C   UNL A   1      47.017  28.314  36.160  1.00  0.00     0.020 A 
ATOM     44  C   UNL A   1      45.464  26.797  37.254  1.00  0.00     0.020 A 
ATOM     45  C   UNL A   1      46.768  27.227  37.005  1.00  0.00     0.054 A 
BRANCH  45  46
ATOM     46  S   UNL A   1      48.175  26.402  37.800  1.00  0.00     0.124 S 
ATOM     47  O   UNL A   1      48.413  27.264  38.957  1.00  0.00    -0.237 OA
ATOM     48  O   UNL A   1      47.639  25.077  38.106  1.00  0.00    -0.237 OA
ATOM     49  O   UNL A   1      49.216  26.430  36.777  1.00  0.00    -0.744 OA
ENDBRANCH  45  46
ENDBRANCH  26  40
BRANCH  27  50
ATOM     50  C   UNL A   1      36.989  32.874  30.980  1.00  0.00    -0.014 A 
ATOM     51  C   UNL A   1      35.682  32.450  31.267  1.00  0.00     0.010 A 
ATOM     52  C   UNL A   1      37.192  33.868  30.005  1.00  0.00     0.010 A 
ATOM     53  C   UNL A   1      34.595  32.999  30.577  1.00  0.00     0.020 A 
ATOM     54  C   UNL A   1      36.109  34.422  29.318  1.00  0.00     0.020 A 
ATOM     55  C   UNL A   1      34.816  33.977  29.602  1.00  0.00     0.054 A 
BRANCH  55  56
ATOM     56  S   UNL A   1      33.396  34.725  28.753  1.00  0.00     0.124 S 
ATOM     57  O   UNL A   1      33.999  35.905  28.142  1.00  0.00    -0.237 OA
ATOM     58  O   UNL A   1      32.984  33.674  27.824  1.00  0.00    -0.237 OA
ATOM     59  O   UNL A   1      32.455  34.990  29.837  1.00  0.00    -0.744 OA
ENDBRANCH  55  56
ENDBRANCH  27  50
BRANCH  39  60
ATOM     60  C   UNL A   1      39.843  33.726  37.253  1.00  0.00    -0.014 A 
ATOM     61  C   UNL A   1      39.144  33.267  38.383  1.00  0.00     0.010 A 
ATOM     62  C   UNL A   1      40.274  35.063  37.196  1.00  0.00     0.010 A 
ATOM     63  C   UNL A   1      38.857  34.142  39.431  1.00  0.00     0.020 A 
ATOM     64  C   UNL A   1      40.009  35.933  38.254  1.00  0.00     0.020 A 
ATOM     65  C   UNL A   1      39.290  35.470  39.359  1.00  0.00     0.054 A 
BRANCH  65  66
ATOM     66  S   UNL A   1      38.947  36.578  40.751  1.00  0.00     0.124 S 
ATOM     67  O   UNL A   1      40.248  36.644  41.412  1.00  0.00    -0.237 OA
ATOM     68  O   UNL A   1      38.514  37.806  40.089  1.00  0.00    -0.237 OA
ATOM     69  O   UNL A   1      37.902  35.880  41.497  1.00  0.00    -0.744 OA
ENDBRANCH  65  66
ENDBRANCH  39  60
ENDBRANCH  13  14
ENDBRANCH   6   8
ENDBRANCH   5   6
ENDBRANCH   4   5
ENDBRANCH   3   4
ENDBRANCH   2   3
ENDBRANCH   1   2
BRANCH   1  70
ATOM     70  C   UNL A   1      37.901  22.034  25.764  1.00  0.00     0.188 C 
BRANCH  70  71
ATOM     71  O   UNL A   1      36.582  22.575  25.857  1.00  0.00    -0.376 OA
BRANCH  71  72
ATOM     72  C   UNL A   1      35.851  22.705  24.640  1.00  0.00     0.202 C 
BRANCH  72  73
ATOM     73  C   UNL A   1      35.340  24.106  24.291  1.00  0.00     0.261 C 
BRANCH  73  74
ATOM     74  O   UNL A   1      34.950  24.932  25.403  1.00  0.00    -0.460 OA
BRANCH  74  75
ATOM     75  C   UNL A   1      33.655  25.334  25.381  1.00  0.00     0.340 C 
ATOM     76  O   UNL A   1      32.662  24.633  25.257  1.00  0.00    -0.246 OA
BRANCH  75  77
ATOM     77  C   UNL A   1      33.600  26.799  25.324  1.00  0.00     0.084 A 
ATOM     78  C   UNL A   1      34.111  27.432  26.464  1.00  0.00     0.033 A 
ATOM     79  C   UNL A   1      33.207  27.536  24.190  1.00  0.00     0.056 A 
ATOM     80  C   UNL A   1      34.215  28.812  26.495  1.00  0.00     0.018 A 
ATOM     81  C   UNL A   1      33.207  28.931  24.307  1.00  0.00     0.028 A 
ATOM     82  Br  UNL A   1      35.007  29.637  27.988  1.00  0.00    -0.051 Br
ATOM     83  C   UNL A   1      33.740  29.568  25.433  1.00  0.00     0.018 A 
BRANCH  79  84
ATOM     84  N   UNL A   1      32.849  26.868  23.000  1.00  0.00    -0.320 N 
ATOM     85  C   UNL A   1      31.658  26.723  22.312  1.00  0.00     0.265 C 
ATOM     86  H   UNL A   1      33.606  26.408  22.569  1.00  0.00     0.170 HD
ATOM     87  O   UNL A   1      31.692  25.997  21.316  1.00  0.00    -0.268 OA
BRANCH  85  88
ATOM     88  C   UNL A   1      30.466  27.447  22.702  1.00  0.00     0.093 A 
ATOM     89  C   UNL A   1      29.355  27.015  23.408  1.00  0.00     0.027 A 
ATOM     90  S   UNL A   1      30.338  29.110  22.297  1.00  0.00    -0.123 S 
ATOM     91  C   UNL A   1      28.342  28.021  23.489  1.00  0.00     0.028 A 
ATOM     92  C   UNL A   1      28.760  29.190  22.908  1.00  0.00     0.071 A 
ATOM     93  Br  UNL A   1      27.697  30.728  22.793  1.00  0.00    -0.039 Br
ENDBRANCH  85  88
ENDBRANCH  79  84
ENDBRANCH  75  77
ENDBRANCH  74  75
ENDBRANCH  73  74
ENDBRANCH  72  73
ENDBRANCH  71  72
ENDBRANCH  70  71
ENDBRANCH   1  70
TORSDOF 22
ENDMDL
