MODEL 1
REMARK VINA RESULT:      -8.3      0.000      0.000
REMARK SMILES CCNC(=O)c1ccc(N2CC[C@@H](CC(=O)OCCOCCOCCOC(=O)c3ccc(-c4c5nc(c(-c6ccc(S(=O)(=O)[O-])cc6)c6ccc([nH]6)c(-c6ccc(S(=O)(=O)[O-])cc6)c6nc(c(-c7ccc(S(=O)(=O)[O-])cc7)c7ccc4[nH]7)C=C6)C=C5)cc3)C2)nn1
REMARK SMILES IDX 21 1 20 2 19 3 18 4 17 5 15 6 16 7 14 8 13 9 10 10 11 11
REMARK SMILES IDX 89 12 12 13 9 14 6 15 7 16 91 17 8 18 90 19 4 20 3 21 5 23
REMARK SMILES IDX 2 24 1 25 22 26 23 27 24 28 25 29 26 30 27 31 28 32 29 33
REMARK SMILES IDX 30 34 88 35 31 36 87 37 32 38 33 39 34 40 81 41 35 42 86 43
REMARK SMILES IDX 80 44 82 45 36 46 85 47 79 48 78 49 37 51 67 52 48 53 66 54
REMARK SMILES IDX 49 55 52 56 65 57 83 58 50 59 51 60 64 62 84 63 53 64 38 65
REMARK SMILES IDX 39 66 47 67 40 68 46 69 41 70 42 71 43 72 44 73 45 74 68 75
REMARK SMILES IDX 69 76 77 77 70 78 76 79 71 80 72 81 73 82 74 83 75 84 54 85
REMARK SMILES IDX 55 86 63 87 56 88 62 89 57 90 58 91 59 92 60 93 61 94
REMARK H PARENT 3 22 82 50 52 61
REMARK Flexibility Score: inf
ROOT
ATOM      1  C   UNL A   1      43.875  23.052  29.730  1.00  0.00     0.188 C 
ENDROOT
BRANCH   1   2
ATOM      2  O   UNL A   1      44.559  24.007  30.532  1.00  0.00    -0.376 OA
BRANCH   2   3
ATOM      3  C   UNL A   1      44.460  23.904  31.951  1.00  0.00     0.202 C 
BRANCH   3   4
ATOM      4  C   UNL A   1      45.531  24.632  32.777  1.00  0.00     0.261 C 
BRANCH   4   5
ATOM      5  O   UNL A   1      45.187  24.721  34.176  1.00  0.00    -0.463 OA
BRANCH   5   6
ATOM      6  C   UNL A   1      45.997  24.058  35.042  1.00  0.00     0.306 C 
ATOM      7  O   UNL A   1      47.182  24.321  35.209  1.00  0.00    -0.252 OA
BRANCH   6   8
ATOM      8  C   UNL A   1      45.227  23.094  35.939  1.00  0.00     0.128 C 
BRANCH   8   9
ATOM      9  C   UNL A   1      45.683  21.640  36.176  1.00  0.00     0.021 C 
ATOM     10  N   UNL A   1      47.915  20.768  35.984  1.00  0.00    -0.355 N 
ATOM     11  C   UNL A   1      47.707  20.966  37.397  1.00  0.00     0.118 C 
ATOM     12  C   UNL A   1      46.804  21.243  35.171  1.00  0.00     0.122 C 
ATOM     13  C   UNL A   1      46.214  21.221  37.550  1.00  0.00     0.027 C 
BRANCH  10  14
ATOM     14  C   UNL A   1      49.154  20.506  35.437  1.00  0.00     0.151 A 
ATOM     15  C   UNL A   1      51.637  19.913  34.372  1.00  0.00     0.150 A 
ATOM     16  C   UNL A   1      50.630  20.300  33.516  1.00  0.00     0.040 A 
ATOM     17  N   UNL A   1      51.429  19.786  35.695  1.00  0.00    -0.143 NA
ATOM     18  C   UNL A   1      49.393  20.626  34.068  1.00  0.00     0.051 A 
ATOM     19  N   UNL A   1      50.173  20.083  36.220  1.00  0.00    -0.132 NA
BRANCH  15  20
ATOM     20  C   UNL A   1      53.004  19.682  33.854  1.00  0.00     0.271 C 
ATOM     21  N   UNL A   1      53.821  20.769  33.602  1.00  0.00    -0.351 N 
ATOM     22  H   UNL A   1      54.669  20.568  33.145  1.00  0.00     0.163 HD
ATOM     23  O   UNL A   1      53.388  18.544  33.605  1.00  0.00    -0.267 OA
BRANCH  21  24
ATOM     24  C   UNL A   1      53.595  22.168  33.923  1.00  0.00     0.113 C 
ATOM     25  C   UNL A   1      54.256  23.086  32.915  1.00  0.00     0.027 C 
ENDBRANCH  21  24
ENDBRANCH  15  20
ENDBRANCH  10  14
ENDBRANCH   8   9
ENDBRANCH   6   8
ENDBRANCH   5   6
ENDBRANCH   4   5
ENDBRANCH   3   4
ENDBRANCH   2   3
ENDBRANCH   1   2
BRANCH   1  26
ATOM     26  C   UNL A   1      42.682  23.529  28.895  1.00  0.00     0.188 C 
BRANCH  26  27
ATOM     27  O   UNL A   1      42.101  22.505  28.110  1.00  0.00    -0.376 OA
BRANCH  27  28
ATOM     28  C   UNL A   1      41.629  22.837  26.816  1.00  0.00     0.202 C 
BRANCH  28  29
ATOM     29  C   UNL A   1      42.296  24.089  26.235  1.00  0.00     0.261 C 
BRANCH  29  30
ATOM     30  O   UNL A   1      41.384  25.109  25.791  1.00  0.00    -0.460 OA
BRANCH  30  31
ATOM     31  C   UNL A   1      41.824  26.386  25.842  1.00  0.00     0.338 C 
ATOM     32  O   UNL A   1      42.165  27.073  24.885  1.00  0.00    -0.246 OA
BRANCH  31  33
ATOM     33  C   UNL A   1      41.617  26.880  27.219  1.00  0.00     0.060 A 
ATOM     34  C   UNL A   1      40.575  26.362  28.005  1.00  0.00     0.016 A 
ATOM     35  C   UNL A   1      42.484  27.834  27.746  1.00  0.00     0.016 A 
ATOM     36  C   UNL A   1      40.368  26.828  29.306  1.00  0.00     0.010 A 
ATOM     37  C   UNL A   1      42.276  28.300  29.043  1.00  0.00     0.010 A 
ATOM     38  C   UNL A   1      41.204  27.822  29.821  1.00  0.00    -0.014 A 
BRANCH  38  39
ATOM     39  C   UNL A   1      40.902  28.520  31.093  1.00  0.00     0.031 A 
ATOM     40  C   UNL A   1      39.810  29.552  31.077  1.00  0.00     0.074 A 
ATOM     41  C   UNL A   1      41.637  28.320  32.202  1.00  0.00     0.049 A 
ATOM     42  N   UNL A   1      39.561  30.509  31.929  1.00  0.00    -0.248 NA
ATOM     43  C   UNL A   1      38.895  29.508  29.926  1.00  0.00     0.031 C 
ATOM     44  C   UNL A   1      42.665  27.294  32.370  1.00  0.00     0.029 A 
ATOM     45  N   UNL A   1      41.647  29.006  33.391  1.00  0.00    -0.354 N 
ATOM     46  C   UNL A   1      38.492  31.216  31.389  1.00  0.00     0.074 A 
ATOM     47  C   UNL A   1      38.141  30.576  30.141  1.00  0.00     0.031 C 
ATOM     48  C   UNL A   1      43.226  27.436  33.586  1.00  0.00     0.029 A 
ATOM     49  C   UNL A   1      42.642  28.600  34.250  1.00  0.00     0.049 A 
ATOM     50  H   UNL A   1      41.004  29.719  33.609  1.00  0.00     0.167 HD
ATOM     51  C   UNL A   1      37.870  32.308  31.890  1.00  0.00     0.031 A 
ATOM     52  C   UNL A   1      43.065  29.140  35.412  1.00  0.00     0.031 A 
ATOM     53  C   UNL A   1      38.214  32.911  33.150  1.00  0.00     0.049 A 
ATOM     54  C   UNL A   1      42.403  30.397  35.922  1.00  0.00     0.074 A 
ATOM     55  C   UNL A   1      37.631  34.003  33.768  1.00  0.00     0.029 A 
ATOM     56  N   UNL A   1      39.224  32.465  33.989  1.00  0.00    -0.354 N 
ATOM     57  N   UNL A   1      41.414  31.080  35.396  1.00  0.00    -0.248 NA
ATOM     58  C   UNL A   1      42.918  30.962  37.179  1.00  0.00     0.031 C 
ATOM     59  C   UNL A   1      38.328  34.252  34.954  1.00  0.00     0.029 A 
ATOM     60  C   UNL A   1      39.296  33.273  35.109  1.00  0.00     0.049 A 
ATOM     61  H   UNL A   1      39.804  31.689  33.813  1.00  0.00     0.167 HD
ATOM     62  C   UNL A   1      41.157  32.123  36.281  1.00  0.00     0.074 A 
ATOM     63  C   UNL A   1      42.099  31.989  37.372  1.00  0.00     0.031 C 
ATOM     64  C   UNL A   1      40.220  33.099  36.202  1.00  0.00     0.031 A 
BRANCH  51  65
ATOM     65  C   UNL A   1      36.793  32.954  31.059  1.00  0.00    -0.014 A 
ATOM     66  C   UNL A   1      37.097  33.805  29.983  1.00  0.00     0.010 A 
ATOM     67  C   UNL A   1      35.445  32.654  31.333  1.00  0.00     0.010 A 
ATOM     68  C   UNL A   1      36.073  34.364  29.212  1.00  0.00     0.020 A 
ATOM     69  C   UNL A   1      34.419  33.189  30.549  1.00  0.00     0.020 A 
ATOM     70  C   UNL A   1      34.740  34.051  29.500  1.00  0.00     0.054 A 
BRANCH  70  71
ATOM     71  S   UNL A   1      33.434  34.759  28.458  1.00  0.00     0.124 S 
ATOM     72  O   UNL A   1      32.758  35.662  29.387  1.00  0.00    -0.237 OA
ATOM     73  O   UNL A   1      34.191  35.410  27.391  1.00  0.00    -0.237 OA
ATOM     74  O   UNL A   1      32.651  33.598  28.043  1.00  0.00    -0.744 OA
ENDBRANCH  70  71
ENDBRANCH  51  65
BRANCH  52  75
ATOM     75  C   UNL A   1      44.195  28.523  36.162  1.00  0.00    -0.014 A 
ATOM     76  C   UNL A   1      45.512  28.979  35.968  1.00  0.00     0.010 A 
ATOM     77  C   UNL A   1      43.968  27.467  37.065  1.00  0.00     0.010 A 
ATOM     78  C   UNL A   1      46.579  28.378  36.643  1.00  0.00     0.020 A 
ATOM     79  C   UNL A   1      45.030  26.884  37.765  1.00  0.00     0.020 A 
ATOM     80  C   UNL A   1      46.332  27.335  37.538  1.00  0.00     0.054 A 
BRANCH  80  81
ATOM     81  S   UNL A   1      47.729  26.596  38.429  1.00  0.00     0.124 S 
ATOM     82  O   UNL A   1      48.740  26.496  37.381  1.00  0.00    -0.237 OA
ATOM     83  O   UNL A   1      47.994  27.582  39.473  1.00  0.00    -0.237 OA
ATOM     84  O   UNL A   1      47.196  25.322  38.908  1.00  0.00    -0.744 OA
ENDBRANCH  80  81
ENDBRANCH  52  75
BRANCH  64  85
ATOM     85  C   UNL A   1      40.092  34.057  37.357  1.00  0.00    -0.014 A 
ATOM     86  C   UNL A   1      40.733  35.307  37.353  1.00  0.00     0.010 A 
ATOM     87  C   UNL A   1      39.211  33.740  38.409  1.00  0.00     0.010 A 
ATOM     88  C   UNL A   1      40.496  36.223  38.383  1.00  0.00     0.020 A 
ATOM     89  C   UNL A   1      38.951  34.662  39.425  1.00  0.00     0.020 A 
ATOM     90  C   UNL A   1      39.600  35.897  39.407  1.00  0.00     0.054 A 
BRANCH  90  91
ATOM     91  S   UNL A   1      39.235  37.141  40.677  1.00  0.00     0.124 S 
ATOM     92  O   UNL A   1      38.692  36.323  41.758  1.00  0.00    -0.237 OA
ATOM     93  O   UNL A   1      40.546  37.731  40.934  1.00  0.00    -0.237 OA
ATOM     94  O   UNL A   1      38.275  38.031  40.027  1.00  0.00    -0.744 OA
ENDBRANCH  90  91
ENDBRANCH  64  85
ENDBRANCH  38  39
ENDBRANCH  31  33
ENDBRANCH  30  31
ENDBRANCH  29  30
ENDBRANCH  28  29
ENDBRANCH  27  28
ENDBRANCH  26  27
ENDBRANCH   1  26
TORSDOF 24
ENDMDL
MODEL 2
REMARK VINA RESULT:      -7.4      8.511     16.226
REMARK SMILES CCNC(=O)c1ccc(N2CC[C@@H](CC(=O)OCCOCCOCCOC(=O)c3ccc(-c4c5nc(c(-c6ccc(S(=O)(=O)[O-])cc6)c6ccc([nH]6)c(-c6ccc(S(=O)(=O)[O-])cc6)c6nc(c(-c7ccc(S(=O)(=O)[O-])cc7)c7ccc4[nH]7)C=C6)C=C5)cc3)C2)nn1
REMARK SMILES IDX 21 1 20 2 19 3 18 4 17 5 15 6 16 7 14 8 13 9 10 10 11 11
REMARK SMILES IDX 89 12 12 13 9 14 6 15 7 16 91 17 8 18 90 19 4 20 3 21 5 23
REMARK SMILES IDX 2 24 1 25 22 26 23 27 24 28 25 29 26 30 27 31 28 32 29 33
REMARK SMILES IDX 30 34 88 35 31 36 87 37 32 38 33 39 34 40 81 41 35 42 86 43
REMARK SMILES IDX 80 44 82 45 36 46 85 47 79 48 78 49 37 51 67 52 48 53 66 54
REMARK SMILES IDX 49 55 52 56 65 57 83 58 50 59 51 60 64 62 84 63 53 64 38 65
REMARK SMILES IDX 39 66 47 67 40 68 46 69 41 70 42 71 43 72 44 73 45 74 68 75
REMARK SMILES IDX 69 76 77 77 70 78 76 79 71 80 72 81 73 82 74 83 75 84 54 85
REMARK SMILES IDX 55 86 63 87 56 88 62 89 57 90 58 91 59 92 60 93 61 94
REMARK H PARENT 3 22 82 50 52 61
REMARK Flexibility Score: inf
ROOT
ATOM      1  C   UNL A   1      40.132  34.976  29.227  1.00  0.00     0.188 C 
ENDROOT
BRANCH   1   2
ATOM      2  O   UNL A   1      41.529  34.721  29.146  1.00  0.00    -0.376 OA
BRANCH   2   3
ATOM      3  C   UNL A   1      42.405  35.805  28.841  1.00  0.00     0.202 C 
BRANCH   3   4
ATOM      4  C   UNL A   1      41.774  37.047  28.195  1.00  0.00     0.261 C 
BRANCH   4   5
ATOM      5  O   UNL A   1      42.490  37.486  27.021  1.00  0.00    -0.463 OA
BRANCH   5   6
ATOM      6  C   UNL A   1      43.639  38.177  27.235  1.00  0.00     0.306 C 
ATOM      7  O   UNL A   1      44.666  38.018  26.586  1.00  0.00    -0.252 OA
BRANCH   6   8
ATOM      8  C   UNL A   1      43.454  39.321  28.228  1.00  0.00     0.128 C 
BRANCH   8   9
ATOM      9  C   UNL A   1      42.767  40.648  27.844  1.00  0.00     0.021 C 
ATOM     10  N   UNL A   1      42.845  41.761  25.715  1.00  0.00    -0.355 N 
ATOM     11  C   UNL A   1      41.578  41.074  25.735  1.00  0.00     0.118 C 
ATOM     12  C   UNL A   1      43.668  41.477  26.882  1.00  0.00     0.122 C 
ATOM     13  C   UNL A   1      41.388  40.629  27.178  1.00  0.00     0.027 C 
BRANCH  10  14
ATOM     14  C   UNL A   1      43.377  42.321  24.571  1.00  0.00     0.151 A 
ATOM     15  C   UNL A   1      44.373  43.458  22.254  1.00  0.00     0.150 A 
ATOM     16  C   UNL A   1      44.798  43.955  23.466  1.00  0.00     0.040 A 
ATOM     17  N   UNL A   1      43.468  42.465  22.177  1.00  0.00    -0.143 NA
ATOM     18  C   UNL A   1      44.313  43.353  24.626  1.00  0.00     0.051 A 
ATOM     19  N   UNL A   1      42.970  41.904  23.351  1.00  0.00    -0.132 NA
BRANCH  15  20
ATOM     20  C   UNL A   1      44.956  43.972  20.995  1.00  0.00     0.271 C 
ATOM     21  N   UNL A   1      45.994  43.279  20.401  1.00  0.00    -0.351 N 
ATOM     22  H   UNL A   1      46.425  43.727  19.638  1.00  0.00     0.163 HD
ATOM     23  O   UNL A   1      44.556  45.026  20.513  1.00  0.00    -0.267 OA
BRANCH  21  24
ATOM     24  C   UNL A   1      46.533  41.975  20.752  1.00  0.00     0.113 C 
ATOM     25  C   UNL A   1      47.445  42.055  21.961  1.00  0.00     0.027 C 
ENDBRANCH  21  24
ENDBRANCH  15  20
ENDBRANCH  10  14
ENDBRANCH   8   9
ENDBRANCH   6   8
ENDBRANCH   5   6
ENDBRANCH   4   5
ENDBRANCH   3   4
ENDBRANCH   2   3
ENDBRANCH   1   2
BRANCH   1  26
ATOM     26  C   UNL A   1      39.201  33.806  29.562  1.00  0.00     0.188 C 
BRANCH  26  27
ATOM     27  O   UNL A   1      37.902  33.948  29.018  1.00  0.00    -0.376 OA
BRANCH  27  28
ATOM     28  C   UNL A   1      36.796  33.912  29.903  1.00  0.00     0.202 C 
BRANCH  28  29
ATOM     29  C   UNL A   1      36.437  32.494  30.359  1.00  0.00     0.261 C 
BRANCH  29  30
ATOM     30  O   UNL A   1      37.134  32.042  31.534  1.00  0.00    -0.460 OA
BRANCH  30  31
ATOM     31  C   UNL A   1      37.280  30.706  31.681  1.00  0.00     0.338 C 
ATOM     32  O   UNL A   1      36.439  29.929  32.118  1.00  0.00    -0.246 OA
BRANCH  31  33
ATOM     33  C   UNL A   1      38.543  30.316  31.021  1.00  0.00     0.060 A 
ATOM     34  C   UNL A   1      39.764  30.848  31.464  1.00  0.00     0.016 A 
ATOM     35  C   UNL A   1      38.519  29.389  29.982  1.00  0.00     0.016 A 
ATOM     36  C   UNL A   1      40.963  30.490  30.842  1.00  0.00     0.010 A 
ATOM     37  C   UNL A   1      39.715  29.034  29.359  1.00  0.00     0.010 A 
ATOM     38  C   UNL A   1      40.939  29.600  29.765  1.00  0.00    -0.014 A 
BRANCH  38  39
ATOM     39  C   UNL A   1      42.131  29.359  28.919  1.00  0.00     0.031 A 
ATOM     40  C   UNL A   1      42.322  27.974  28.368  1.00  0.00     0.074 A 
ATOM     41  C   UNL A   1      43.066  30.306  28.727  1.00  0.00     0.049 A 
ATOM     42  N   UNL A   1      43.399  27.415  27.886  1.00  0.00    -0.248 NA
ATOM     43  C   UNL A   1      41.141  27.098  28.392  1.00  0.00     0.031 C 
ATOM     44  C   UNL A   1      42.961  31.705  29.136  1.00  0.00     0.029 A 
ATOM     45  N   UNL A   1      44.315  30.214  28.161  1.00  0.00    -0.354 N 
ATOM     46  C   UNL A   1      43.038  26.102  27.598  1.00  0.00     0.074 A 
ATOM     47  C   UNL A   1      41.645  25.953  27.958  1.00  0.00     0.031 C 
ATOM     48  C   UNL A   1      44.110  32.336  28.831  1.00  0.00     0.029 A 
ATOM     49  C   UNL A   1      45.052  31.370  28.267  1.00  0.00     0.049 A 
ATOM     50  H   UNL A   1      44.650  29.399  27.721  1.00  0.00     0.167 HD
ATOM     51  C   UNL A   1      43.807  25.113  27.090  1.00  0.00     0.031 A 
ATOM     52  C   UNL A   1      46.352  31.605  27.990  1.00  0.00     0.031 A 
ATOM     53  C   UNL A   1      45.183  25.291  26.708  1.00  0.00     0.049 A 
ATOM     54  C   UNL A   1      47.212  30.471  27.487  1.00  0.00     0.074 A 
ATOM     55  C   UNL A   1      46.049  24.364  26.157  1.00  0.00     0.029 A 
ATOM     56  N   UNL A   1      45.887  26.479  26.829  1.00  0.00    -0.354 N 
ATOM     57  N   UNL A   1      46.876  29.226  27.245  1.00  0.00    -0.248 NA
ATOM     58  C   UNL A   1      48.628  30.771  27.225  1.00  0.00     0.031 C 
ATOM     59  C   UNL A   1      47.294  24.977  25.997  1.00  0.00     0.029 A 
ATOM     60  C   UNL A   1      47.185  26.304  26.383  1.00  0.00     0.049 A 
ATOM     61  H   UNL A   1      45.519  27.322  27.181  1.00  0.00     0.167 HD
ATOM     62  C   UNL A   1      48.024  28.609  26.757  1.00  0.00     0.074 A 
ATOM     63  C   UNL A   1      49.067  29.613  26.746  1.00  0.00     0.031 C 
ATOM     64  C   UNL A   1      48.197  27.328  26.347  1.00  0.00     0.031 A 
BRANCH  51  65
ATOM     65  C   UNL A   1      43.202  23.740  26.964  1.00  0.00    -0.014 A 
ATOM     66  C   UNL A   1      43.303  22.787  27.992  1.00  0.00     0.010 A 
ATOM     67  C   UNL A   1      42.469  23.419  25.806  1.00  0.00     0.010 A 
ATOM     68  C   UNL A   1      42.705  21.531  27.854  1.00  0.00     0.020 A 
ATOM     69  C   UNL A   1      41.845  22.175  25.675  1.00  0.00     0.020 A 
ATOM     70  C   UNL A   1      41.977  21.234  26.696  1.00  0.00     0.054 A 
BRANCH  70  71
ATOM     71  S   UNL A   1      41.176  19.611  26.562  1.00  0.00     0.124 S 
ATOM     72  O   UNL A   1      39.932  19.941  25.870  1.00  0.00    -0.237 OA
ATOM     73  O   UNL A   1      42.141  18.840  25.781  1.00  0.00    -0.237 OA
ATOM     74  O   UNL A   1      41.019  19.183  27.949  1.00  0.00    -0.744 OA
ENDBRANCH  70  71
ENDBRANCH  51  65
BRANCH  52  75
ATOM     75  C   UNL A   1      46.937  32.957  28.214  1.00  0.00    -0.014 A 
ATOM     76  C   UNL A   1      47.499  33.292  29.459  1.00  0.00     0.010 A 
ATOM     77  C   UNL A   1      46.926  33.924  27.191  1.00  0.00     0.010 A 
ATOM     78  C   UNL A   1      48.018  34.571  29.684  1.00  0.00     0.020 A 
ATOM     79  C   UNL A   1      47.471  35.195  27.403  1.00  0.00     0.020 A 
ATOM     80  C   UNL A   1      48.001  35.515  28.654  1.00  0.00     0.054 A 
BRANCH  80  81
ATOM     81  S   UNL A   1      48.712  37.156  28.959  1.00  0.00     0.124 S 
ATOM     82  O   UNL A   1      49.814  36.848  29.864  1.00  0.00    -0.237 OA
ATOM     83  O   UNL A   1      49.096  37.588  27.617  1.00  0.00    -0.237 OA
ATOM     84  O   UNL A   1      47.605  37.904  29.552  1.00  0.00    -0.744 OA
ENDBRANCH  80  81
ENDBRANCH  52  75
BRANCH  64  85
ATOM     85  C   UNL A   1      49.533  26.943  25.766  1.00  0.00    -0.014 A 
ATOM     86  C   UNL A   1      49.854  27.201  24.424  1.00  0.00     0.010 A 
ATOM     87  C   UNL A   1      50.523  26.425  26.623  1.00  0.00     0.010 A 
ATOM     88  C   UNL A   1      51.144  26.944  23.947  1.00  0.00     0.020 A 
ATOM     89  C   UNL A   1      51.818  26.192  26.158  1.00  0.00     0.020 A 
ATOM     90  C   UNL A   1      52.120  26.450  24.820  1.00  0.00     0.054 A 
BRANCH  90  91
ATOM     91  S   UNL A   1      53.810  26.219  24.202  1.00  0.00     0.124 S 
ATOM     92  O   UNL A   1      53.578  25.869  22.804  1.00  0.00    -0.237 OA
ATOM     93  O   UNL A   1      54.416  27.529  24.428  1.00  0.00    -0.237 OA
ATOM     94  O   UNL A   1      54.341  25.142  25.034  1.00  0.00    -0.744 OA
ENDBRANCH  90  91
ENDBRANCH  64  85
ENDBRANCH  38  39
ENDBRANCH  31  33
ENDBRANCH  30  31
ENDBRANCH  29  30
ENDBRANCH  28  29
ENDBRANCH  27  28
ENDBRANCH  26  27
ENDBRANCH   1  26
TORSDOF 24
ENDMDL
MODEL 3
REMARK VINA RESULT:      -7.4      9.644     13.401
REMARK SMILES CCNC(=O)c1ccc(N2CC[C@@H](CC(=O)OCCOCCOCCOC(=O)c3ccc(-c4c5nc(c(-c6ccc(S(=O)(=O)[O-])cc6)c6ccc([nH]6)c(-c6ccc(S(=O)(=O)[O-])cc6)c6nc(c(-c7ccc(S(=O)(=O)[O-])cc7)c7ccc4[nH]7)C=C6)C=C5)cc3)C2)nn1
REMARK SMILES IDX 21 1 20 2 19 3 18 4 17 5 15 6 16 7 14 8 13 9 10 10 11 11
REMARK SMILES IDX 89 12 12 13 9 14 6 15 7 16 91 17 8 18 90 19 4 20 3 21 5 23
REMARK SMILES IDX 2 24 1 25 22 26 23 27 24 28 25 29 26 30 27 31 28 32 29 33
REMARK SMILES IDX 30 34 88 35 31 36 87 37 32 38 33 39 34 40 81 41 35 42 86 43
REMARK SMILES IDX 80 44 82 45 36 46 85 47 79 48 78 49 37 51 67 52 48 53 66 54
REMARK SMILES IDX 49 55 52 56 65 57 83 58 50 59 51 60 64 62 84 63 53 64 38 65
REMARK SMILES IDX 39 66 47 67 40 68 46 69 41 70 42 71 43 72 44 73 45 74 68 75
REMARK SMILES IDX 69 76 77 77 70 78 76 79 71 80 72 81 73 82 74 83 75 84 54 85
REMARK SMILES IDX 55 86 63 87 56 88 62 89 57 90 58 91 59 92 60 93 61 94
REMARK H PARENT 3 22 82 50 52 61
REMARK Flexibility Score: inf
ROOT
ATOM      1  C   UNL A   1      34.836  30.004  27.138  1.00  0.00     0.188 C 
ENDROOT
BRANCH   1   2
ATOM      2  O   UNL A   1      34.076  28.803  27.084  1.00  0.00    -0.376 OA
BRANCH   2   3
ATOM      3  C   UNL A   1      32.942  28.749  26.221  1.00  0.00     0.202 C 
BRANCH   3   4
ATOM      4  C   UNL A   1      33.203  28.941  24.720  1.00  0.00     0.261 C 
BRANCH   4   5
ATOM      5  O   UNL A   1      32.395  28.068  23.901  1.00  0.00    -0.463 OA
BRANCH   5   6
ATOM      6  C   UNL A   1      31.096  28.426  23.733  1.00  0.00     0.306 C 
ATOM      7  O   UNL A   1      30.670  29.562  23.908  1.00  0.00    -0.252 OA
BRANCH   6   8
ATOM      8  C   UNL A   1      30.263  27.317  23.098  1.00  0.00     0.128 C 
BRANCH   8   9
ATOM      9  C   UNL A   1      29.803  26.073  23.885  1.00  0.00     0.021 C 
ATOM     10  N   UNL A   1      31.188  24.311  24.755  1.00  0.00    -0.355 N 
ATOM     11  C   UNL A   1      30.912  25.165  25.882  1.00  0.00     0.118 C 
ATOM     12  C   UNL A   1      30.659  24.830  23.501  1.00  0.00     0.122 C 
ATOM     13  C   UNL A   1      29.802  26.096  25.416  1.00  0.00     0.027 C 
BRANCH  10  14
ATOM     14  C   UNL A   1      32.145  23.318  24.782  1.00  0.00     0.151 A 
ATOM     15  C   UNL A   1      34.013  21.278  24.860  1.00  0.00     0.150 A 
ATOM     16  C   UNL A   1      33.840  21.967  23.680  1.00  0.00     0.040 A 
ATOM     17  N   UNL A   1      33.275  21.553  25.951  1.00  0.00    -0.143 NA
ATOM     18  C   UNL A   1      32.919  23.012  23.662  1.00  0.00     0.051 A 
ATOM     19  N   UNL A   1      32.334  22.579  25.899  1.00  0.00    -0.132 NA
BRANCH  15  20
ATOM     20  C   UNL A   1      35.069  20.248  24.970  1.00  0.00     0.271 C 
ATOM     21  N   UNL A   1      34.738  18.920  24.779  1.00  0.00    -0.351 N 
ATOM     22  H   UNL A   1      35.447  18.269  24.984  1.00  0.00     0.163 HD
ATOM     23  O   UNL A   1      36.213  20.565  25.278  1.00  0.00    -0.267 OA
BRANCH  21  24
ATOM     24  C   UNL A   1      33.482  18.356  24.312  1.00  0.00     0.113 C 
ATOM     25  C   UNL A   1      32.662  17.794  25.456  1.00  0.00     0.027 C 
ENDBRANCH  21  24
ENDBRANCH  15  20
ENDBRANCH  10  14
ENDBRANCH   8   9
ENDBRANCH   6   8
ENDBRANCH   5   6
ENDBRANCH   4   5
ENDBRANCH   3   4
ENDBRANCH   2   3
ENDBRANCH   1   2
BRANCH   1  26
ATOM     26  C   UNL A   1      36.339  29.899  27.413  1.00  0.00     0.188 C 
BRANCH  26  27
ATOM     27  O   UNL A   1      36.711  30.381  28.691  1.00  0.00    -0.376 OA
BRANCH  27  28
ATOM     28  C   UNL A   1      36.287  29.655  29.831  1.00  0.00     0.202 C 
BRANCH  28  29
ATOM     29  C   UNL A   1      36.505  30.416  31.144  1.00  0.00     0.261 C 
BRANCH  29  30
ATOM     30  O   UNL A   1      36.200  31.821  31.086  1.00  0.00    -0.460 OA
BRANCH  30  31
ATOM     31  C   UNL A   1      35.393  32.312  32.053  1.00  0.00     0.338 C 
ATOM     32  O   UNL A   1      34.168  32.273  32.063  1.00  0.00    -0.246 OA
BRANCH  31  33
ATOM     33  C   UNL A   1      36.246  32.703  33.195  1.00  0.00     0.060 A 
ATOM     34  C   UNL A   1      36.023  33.921  33.857  1.00  0.00     0.016 A 
ATOM     35  C   UNL A   1      37.247  31.840  33.634  1.00  0.00     0.016 A 
ATOM     36  C   UNL A   1      36.829  34.302  34.933  1.00  0.00     0.010 A 
ATOM     37  C   UNL A   1      38.052  32.221  34.706  1.00  0.00     0.010 A 
ATOM     38  C   UNL A   1      37.868  33.463  35.344  1.00  0.00    -0.014 A 
BRANCH  38  39
ATOM     39  C   UNL A   1      38.896  33.904  36.317  1.00  0.00     0.031 A 
ATOM     40  C   UNL A   1      38.618  33.670  37.775  1.00  0.00     0.074 A 
ATOM     41  C   UNL A   1      39.993  34.579  35.930  1.00  0.00     0.049 A 
ATOM     42  N   UNL A   1      39.167  34.222  38.822  1.00  0.00    -0.248 NA
ATOM     43  C   UNL A   1      37.556  32.700  38.084  1.00  0.00     0.031 C 
ATOM     44  C   UNL A   1      40.417  34.798  34.548  1.00  0.00     0.029 A 
ATOM     45  N   UNL A   1      40.936  35.239  36.680  1.00  0.00    -0.354 N 
ATOM     46  C   UNL A   1      38.480  33.705  39.916  1.00  0.00     0.074 A 
ATOM     47  C   UNL A   1      37.479  32.797  39.403  1.00  0.00     0.031 C 
ATOM     48  C   UNL A   1      41.524  35.564  34.549  1.00  0.00     0.029 A 
ATOM     49  C   UNL A   1      41.844  35.942  35.925  1.00  0.00     0.049 A 
ATOM     50  H   UNL A   1      40.959  35.210  37.664  1.00  0.00     0.167 HD
ATOM     51  C   UNL A   1      38.666  33.977  41.228  1.00  0.00     0.031 A 
ATOM     52  C   UNL A   1      42.790  36.829  36.299  1.00  0.00     0.031 A 
ATOM     53  C   UNL A   1      39.690  34.860  41.720  1.00  0.00     0.049 A 
ATOM     54  C   UNL A   1      42.939  37.170  37.762  1.00  0.00     0.074 A 
ATOM     55  C   UNL A   1      39.986  35.186  43.031  1.00  0.00     0.029 A 
ATOM     56  N   UNL A   1      40.590  35.547  40.920  1.00  0.00    -0.354 N 
ATOM     57  N   UNL A   1      42.268  36.704  38.790  1.00  0.00    -0.248 NA
ATOM     58  C   UNL A   1      43.965  38.162  38.117  1.00  0.00     0.031 C 
ATOM     59  C   UNL A   1      41.030  36.115  43.021  1.00  0.00     0.029 A 
ATOM     60  C   UNL A   1      41.430  36.313  41.709  1.00  0.00     0.049 A 
ATOM     61  H   UNL A   1      40.627  35.497  39.937  1.00  0.00     0.167 HD
ATOM     62  C   UNL A   1      42.826  37.307  39.914  1.00  0.00     0.074 A 
ATOM     63  C   UNL A   1      43.881  38.179  39.442  1.00  0.00     0.031 C 
ATOM     64  C   UNL A   1      42.498  37.147  41.220  1.00  0.00     0.031 A 
BRANCH  51  65
ATOM     65  C   UNL A   1      37.717  33.359  42.220  1.00  0.00    -0.014 A 
ATOM     66  C   UNL A   1      37.991  32.129  42.841  1.00  0.00     0.010 A 
ATOM     67  C   UNL A   1      36.548  34.057  42.576  1.00  0.00     0.010 A 
ATOM     68  C   UNL A   1      37.103  31.596  43.780  1.00  0.00     0.020 A 
ATOM     69  C   UNL A   1      35.669  33.543  43.534  1.00  0.00     0.020 A 
ATOM     70  C   UNL A   1      35.948  32.309  44.122  1.00  0.00     0.054 A 
BRANCH  70  71
ATOM     71  S   UNL A   1      34.833  31.614  45.373  1.00  0.00     0.124 S 
ATOM     72  O   UNL A   1      35.175  30.194  45.333  1.00  0.00    -0.237 OA
ATOM     73  O   UNL A   1      35.233  32.320  46.588  1.00  0.00    -0.237 OA
ATOM     74  O   UNL A   1      33.500  31.944  44.876  1.00  0.00    -0.744 OA
ENDBRANCH  70  71
ENDBRANCH  51  65
BRANCH  52  75
ATOM     75  C   UNL A   1      43.651  37.489  35.278  1.00  0.00    -0.014 A 
ATOM     76  C   UNL A   1      43.200  38.636  34.601  1.00  0.00     0.010 A 
ATOM     77  C   UNL A   1      44.922  36.970  34.964  1.00  0.00     0.010 A 
ATOM     78  C   UNL A   1      43.990  39.237  33.616  1.00  0.00     0.020 A 
ATOM     79  C   UNL A   1      45.728  37.586  34.001  1.00  0.00     0.020 A 
ATOM     80  C   UNL A   1      45.250  38.709  33.322  1.00  0.00     0.054 A 
BRANCH  80  81
ATOM     81  S   UNL A   1      46.271  39.528  32.066  1.00  0.00     0.124 S 
ATOM     82  O   UNL A   1      47.227  38.481  31.719  1.00  0.00    -0.237 OA
ATOM     83  O   UNL A   1      45.293  39.859  31.032  1.00  0.00    -0.237 OA
ATOM     84  O   UNL A   1      46.830  40.678  32.774  1.00  0.00    -0.744 OA
ENDBRANCH  80  81
ENDBRANCH  52  75
BRANCH  64  85
ATOM     85  C   UNL A   1      43.335  37.855  42.253  1.00  0.00    -0.014 A 
ATOM     86  C   UNL A   1      44.507  37.282  42.770  1.00  0.00     0.010 A 
ATOM     87  C   UNL A   1      42.996  39.173  42.615  1.00  0.00     0.010 A 
ATOM     88  C   UNL A   1      45.327  38.014  43.635  1.00  0.00     0.020 A 
ATOM     89  C   UNL A   1      43.825  39.918  43.457  1.00  0.00     0.020 A 
ATOM     90  C   UNL A   1      44.985  39.331  43.965  1.00  0.00     0.054 A 
BRANCH  90  91
ATOM     91  S   UNL A   1      46.115  40.292  45.008  1.00  0.00     0.124 S 
ATOM     92  O   UNL A   1      45.888  41.653  44.531  1.00  0.00    -0.237 OA
ATOM     93  O   UNL A   1      45.626  40.011  46.356  1.00  0.00    -0.237 OA
ATOM     94  O   UNL A   1      47.431  39.736  44.701  1.00  0.00    -0.744 OA
ENDBRANCH  90  91
ENDBRANCH  64  85
ENDBRANCH  38  39
ENDBRANCH  31  33
ENDBRANCH  30  31
ENDBRANCH  29  30
ENDBRANCH  28  29
ENDBRANCH  27  28
ENDBRANCH  26  27
ENDBRANCH   1  26
TORSDOF 24
ENDMDL
