MODEL 1
REMARK VINA RESULT:      -9.9      0.000      0.000
REMARK SMILES O=C(/C=C\c1ccc([N+](=O)[O-])cc1)OCCOCCOCCOC(=O)c1ccc(-c2c3nc(c(-c4ccc(S(=O)(=O)[O-])cc4)c4ccc([nH]4)c(-c4ccc(S(=O)(=O)[O-])cc4)c4nc(c(-c5ccc(S(=O)(=O)[O-])cc5)c5ccc2[nH]5)C=C4)C=C3)cc1
REMARK SMILES IDX 19 1 18 2 17 3 16 4 15 5 14 6 2 7 1 8 3 9 4 10 5 11 6 12
REMARK SMILES IDX 13 13 7 14 12 15 8 16 9 17 10 18 11 19 20 20 21 21 22 22
REMARK SMILES IDX 23 23 24 24 25 25 26 26 27 27 85 28 28 29 84 30 29 31 30 32
REMARK SMILES IDX 31 33 78 34 32 35 83 36 77 37 79 38 33 39 82 40 76 41 75 42
REMARK SMILES IDX 34 44 64 45 45 46 63 47 46 48 49 49 62 50 80 51 47 52 48 53
REMARK SMILES IDX 61 55 81 56 50 57 35 58 36 59 44 60 37 61 43 62 38 63 39 64
REMARK SMILES IDX 40 65 41 66 42 67 65 68 66 69 74 70 67 71 73 72 68 73 69 74
REMARK SMILES IDX 70 75 71 76 72 77 51 78 52 79 60 80 53 81 59 82 54 83 55 84
REMARK SMILES IDX 56 85 57 86 58 87
REMARK H PARENT 79 43 49 54
REMARK Flexibility Score: inf
ROOT
ATOM      1  C   UNL A   1      43.962  21.109  25.456  1.00  0.00     0.188 C 
ENDROOT
BRANCH   1   2
ATOM      2  C   UNL A   1      42.859  20.320  26.192  1.00  0.00     0.188 C 
BRANCH   2   3
ATOM      3  O   UNL A   1      41.585  20.292  25.556  1.00  0.00    -0.376 OA
BRANCH   3   4
ATOM      4  C   UNL A   1      40.460  20.451  26.418  1.00  0.00     0.202 C 
BRANCH   4   5
ATOM      5  C   UNL A   1      39.447  21.548  26.029  1.00  0.00     0.261 C 
BRANCH   5   6
ATOM      6  O   UNL A   1      38.352  21.082  25.244  1.00  0.00    -0.460 OA
BRANCH   6   7
ATOM      7  C   UNL A   1      37.169  21.700  25.127  1.00  0.00     0.330 C 
ATOM      8  O   UNL A   1      36.384  21.666  26.074  1.00  0.00    -0.247 OA
BRANCH   7   9
ATOM      9  C   UNL A   1      36.705  22.329  23.868  1.00  0.00     0.094 C 
ATOM     10  C   UNL A   1      35.823  23.219  23.367  1.00  0.00     0.015 C 
BRANCH  10  11
ATOM     11  C   UNL A   1      34.735  24.099  23.846  1.00  0.00    -0.025 A 
ATOM     12  C   UNL A   1      34.837  24.575  25.162  1.00  0.00     0.015 A 
ATOM     13  C   UNL A   1      33.527  24.343  23.182  1.00  0.00     0.015 A 
ATOM     14  C   UNL A   1      33.825  25.355  25.741  1.00  0.00     0.086 A 
ATOM     15  C   UNL A   1      32.544  25.192  23.704  1.00  0.00     0.086 A 
ATOM     16  C   UNL A   1      32.702  25.702  24.988  1.00  0.00     0.269 A 
BRANCH  16  17
ATOM     17  N   UNL A   1      31.672  26.581  25.552  1.00  0.00     0.062 N 
ATOM     18  O   UNL A   1      31.288  27.537  24.864  1.00  0.00    -0.258 OA
ATOM     19  O   UNL A   1      31.242  26.312  26.684  1.00  0.00    -0.258 OA
ENDBRANCH  16  17
ENDBRANCH  10  11
ENDBRANCH   7   9
ENDBRANCH   6   7
ENDBRANCH   5   6
ENDBRANCH   4   5
ENDBRANCH   3   4
ENDBRANCH   2   3
ENDBRANCH   1   2
BRANCH   1  20
ATOM     20  O   UNL A   1      43.413  22.104  24.609  1.00  0.00    -0.376 OA
BRANCH  20  21
ATOM     21  C   UNL A   1      43.484  23.479  24.962  1.00  0.00     0.202 C 
BRANCH  21  22
ATOM     22  C   UNL A   1      42.928  24.074  26.275  1.00  0.00     0.261 C 
BRANCH  22  23
ATOM     23  O   UNL A   1      41.685  24.771  26.207  1.00  0.00    -0.460 OA
BRANCH  23  24
ATOM     24  C   UNL A   1      41.780  26.096  25.933  1.00  0.00     0.338 C 
ATOM     25  O   UNL A   1      41.981  26.615  24.845  1.00  0.00    -0.246 OA
BRANCH  24  26
ATOM     26  C   UNL A   1      41.430  26.850  27.141  1.00  0.00     0.060 A 
ATOM     27  C   UNL A   1      42.154  28.010  27.437  1.00  0.00     0.016 A 
ATOM     28  C   UNL A   1      40.408  26.408  27.979  1.00  0.00     0.016 A 
ATOM     29  C   UNL A   1      41.800  28.788  28.535  1.00  0.00     0.010 A 
ATOM     30  C   UNL A   1      40.098  27.154  29.117  1.00  0.00     0.010 A 
ATOM     31  C   UNL A   1      40.786  28.349  29.391  1.00  0.00    -0.014 A 
BRANCH  31  32
ATOM     32  C   UNL A   1      40.554  29.049  30.671  1.00  0.00     0.031 A 
ATOM     33  C   UNL A   1      39.454  30.068  30.729  1.00  0.00     0.074 A 
ATOM     34  C   UNL A   1      41.327  28.798  31.743  1.00  0.00     0.049 A 
ATOM     35  N   UNL A   1      39.141  30.887  31.695  1.00  0.00    -0.248 NA
ATOM     36  C   UNL A   1      38.595  30.181  29.536  1.00  0.00     0.031 C 
ATOM     37  C   UNL A   1      42.378  27.782  31.811  1.00  0.00     0.029 A 
ATOM     38  N   UNL A   1      41.359  29.399  32.976  1.00  0.00    -0.354 N 
ATOM     39  C   UNL A   1      38.062  31.623  31.224  1.00  0.00     0.074 A 
ATOM     40  C   UNL A   1      37.770  31.156  29.888  1.00  0.00     0.031 C 
ATOM     41  C   UNL A   1      42.980  27.858  33.011  1.00  0.00     0.029 A 
ATOM     42  C   UNL A   1      42.384  28.951  33.777  1.00  0.00     0.049 A 
ATOM     43  H   UNL A   1      40.712  30.084  33.259  1.00  0.00     0.167 HD
ATOM     44  C   UNL A   1      37.387  32.613  31.850  1.00  0.00     0.031 A 
ATOM     45  C   UNL A   1      42.815  29.409  34.971  1.00  0.00     0.031 A 
ATOM     46  C   UNL A   1      37.704  33.085  33.169  1.00  0.00     0.049 A 
ATOM     47  C   UNL A   1      42.099  30.579  35.603  1.00  0.00     0.074 A 
ATOM     48  C   UNL A   1      37.063  34.065  33.904  1.00  0.00     0.029 A 
ATOM     49  N   UNL A   1      38.761  32.628  33.940  1.00  0.00    -0.354 N 
ATOM     50  N   UNL A   1      41.044  31.232  35.173  1.00  0.00    -0.248 NA
ATOM     51  C   UNL A   1      42.633  31.078  36.879  1.00  0.00     0.031 C 
ATOM     52  C   UNL A   1      37.779  34.254  35.088  1.00  0.00     0.029 A 
ATOM     53  C   UNL A   1      38.822  33.342  35.123  1.00  0.00     0.049 A 
ATOM     54  H   UNL A   1      39.376  31.904  33.684  1.00  0.00     0.167 HD
ATOM     55  C   UNL A   1      40.779  32.202  36.135  1.00  0.00     0.074 A 
ATOM     56  C   UNL A   1      41.766  32.033  37.181  1.00  0.00     0.031 C 
ATOM     57  C   UNL A   1      39.812  33.152  36.152  1.00  0.00     0.031 A 
BRANCH  44  58
ATOM     58  C   UNL A   1      36.276  33.293  31.102  1.00  0.00    -0.014 A 
ATOM     59  C   UNL A   1      34.994  33.432  31.662  1.00  0.00     0.010 A 
ATOM     60  C   UNL A   1      36.548  33.881  29.853  1.00  0.00     0.010 A 
ATOM     61  C   UNL A   1      34.003  34.147  30.983  1.00  0.00     0.020 A 
ATOM     62  C   UNL A   1      35.568  34.617  29.184  1.00  0.00     0.020 A 
ATOM     63  C   UNL A   1      34.300  34.743  29.753  1.00  0.00     0.054 A 
BRANCH  63  64
ATOM     64  S   UNL A   1      33.020  35.737  28.939  1.00  0.00     0.124 S 
ATOM     65  O   UNL A   1      32.232  36.205  30.076  1.00  0.00    -0.237 OA
ATOM     66  O   UNL A   1      33.803  36.762  28.253  1.00  0.00    -0.237 OA
ATOM     67  O   UNL A   1      32.344  34.783  28.064  1.00  0.00    -0.744 OA
ENDBRANCH  63  64
ENDBRANCH  44  58
BRANCH  45  68
ATOM     68  C   UNL A   1      44.026  28.826  35.616  1.00  0.00    -0.014 A 
ATOM     69  C   UNL A   1      45.314  29.292  35.299  1.00  0.00     0.010 A 
ATOM     70  C   UNL A   1      43.898  27.751  36.516  1.00  0.00     0.010 A 
ATOM     71  C   UNL A   1      46.448  28.671  35.836  1.00  0.00     0.020 A 
ATOM     72  C   UNL A   1      45.025  27.149  37.082  1.00  0.00     0.020 A 
ATOM     73  C   UNL A   1      46.295  27.600  36.722  1.00  0.00     0.054 A 
BRANCH  73  74
ATOM     74  S   UNL A   1      47.777  26.811  37.411  1.00  0.00     0.124 S 
ATOM     75  O   UNL A   1      47.637  27.094  38.835  1.00  0.00    -0.237 OA
ATOM     76  O   UNL A   1      47.602  25.415  37.020  1.00  0.00    -0.237 OA
ATOM     77  O   UNL A   1      48.875  27.504  36.739  1.00  0.00    -0.744 OA
ENDBRANCH  73  74
ENDBRANCH  45  68
BRANCH  57  78
ATOM     78  C   UNL A   1      39.755  34.072  37.343  1.00  0.00    -0.014 A 
ATOM     79  C   UNL A   1      40.360  35.341  37.310  1.00  0.00     0.010 A 
ATOM     80  C   UNL A   1      39.013  33.695  38.478  1.00  0.00     0.010 A 
ATOM     81  C   UNL A   1      40.241  36.208  38.400  1.00  0.00     0.020 A 
ATOM     82  C   UNL A   1      38.864  34.572  39.556  1.00  0.00     0.020 A 
ATOM     83  C   UNL A   1      39.490  35.820  39.513  1.00  0.00     0.054 A 
BRANCH  83  84
ATOM     84  S   UNL A   1      39.298  36.990  40.885  1.00  0.00     0.124 S 
ATOM     85  O   UNL A   1      38.426  38.005  40.299  1.00  0.00    -0.237 OA
ATOM     86  O   UNL A   1      38.690  36.164  41.926  1.00  0.00    -0.237 OA
ATOM     87  O   UNL A   1      40.664  37.427  41.163  1.00  0.00    -0.744 OA
ENDBRANCH  83  84
ENDBRANCH  57  78
ENDBRANCH  31  32
ENDBRANCH  24  26
ENDBRANCH  23  24
ENDBRANCH  22  23
ENDBRANCH  21  22
ENDBRANCH  20  21
ENDBRANCH   1  20
TORSDOF 22
ENDMDL
MODEL 2
REMARK VINA RESULT:      -9.8      6.296     11.606
REMARK SMILES O=C(/C=C\c1ccc([N+](=O)[O-])cc1)OCCOCCOCCOC(=O)c1ccc(-c2c3nc(c(-c4ccc(S(=O)(=O)[O-])cc4)c4ccc([nH]4)c(-c4ccc(S(=O)(=O)[O-])cc4)c4nc(c(-c5ccc(S(=O)(=O)[O-])cc5)c5ccc2[nH]5)C=C4)C=C3)cc1
REMARK SMILES IDX 19 1 18 2 17 3 16 4 15 5 14 6 2 7 1 8 3 9 4 10 5 11 6 12
REMARK SMILES IDX 13 13 7 14 12 15 8 16 9 17 10 18 11 19 20 20 21 21 22 22
REMARK SMILES IDX 23 23 24 24 25 25 26 26 27 27 85 28 28 29 84 30 29 31 30 32
REMARK SMILES IDX 31 33 78 34 32 35 83 36 77 37 79 38 33 39 82 40 76 41 75 42
REMARK SMILES IDX 34 44 64 45 45 46 63 47 46 48 49 49 62 50 80 51 47 52 48 53
REMARK SMILES IDX 61 55 81 56 50 57 35 58 36 59 44 60 37 61 43 62 38 63 39 64
REMARK SMILES IDX 40 65 41 66 42 67 65 68 66 69 74 70 67 71 73 72 68 73 69 74
REMARK SMILES IDX 70 75 71 76 72 77 51 78 52 79 60 80 53 81 59 82 54 83 55 84
REMARK SMILES IDX 56 85 57 86 58 87
REMARK H PARENT 79 43 49 54
REMARK Flexibility Score: inf
ROOT
ATOM      1  C   UNL A   1      37.194  20.674  24.999  1.00  0.00     0.188 C 
ENDROOT
BRANCH   1   2
ATOM      2  C   UNL A   1      35.782  21.252  25.230  1.00  0.00     0.188 C 
BRANCH   2   3
ATOM      3  O   UNL A   1      35.539  21.807  26.519  1.00  0.00    -0.376 OA
BRANCH   3   4
ATOM      4  C   UNL A   1      34.408  22.668  26.620  1.00  0.00     0.202 C 
BRANCH   4   5
ATOM      5  C   UNL A   1      33.108  22.176  25.950  1.00  0.00     0.261 C 
BRANCH   5   6
ATOM      6  O   UNL A   1      32.741  22.904  24.780  1.00  0.00    -0.460 OA
BRANCH   6   7
ATOM      7  C   UNL A   1      32.993  22.517  23.521  1.00  0.00     0.330 C 
ATOM      8  O   UNL A   1      33.867  23.104  22.883  1.00  0.00    -0.247 OA
BRANCH   7   9
ATOM      9  C   UNL A   1      32.192  21.492  22.813  1.00  0.00     0.094 C 
ATOM     10  C   UNL A   1      31.993  20.162  22.707  1.00  0.00     0.015 C 
BRANCH  10  11
ATOM     11  C   UNL A   1      32.534  18.906  23.270  1.00  0.00    -0.025 A 
ATOM     12  C   UNL A   1      32.870  18.915  24.633  1.00  0.00     0.015 A 
ATOM     13  C   UNL A   1      32.921  17.779  22.536  1.00  0.00     0.015 A 
ATOM     14  C   UNL A   1      33.459  17.802  25.252  1.00  0.00     0.086 A 
ATOM     15  C   UNL A   1      33.427  16.625  23.146  1.00  0.00     0.086 A 
ATOM     16  C   UNL A   1      33.690  16.640  24.512  1.00  0.00     0.269 A 
BRANCH  16  17
ATOM     17  N   UNL A   1      34.234  15.443  25.161  1.00  0.00     0.062 N 
ATOM     18  O   UNL A   1      35.446  15.426  25.419  1.00  0.00    -0.258 OA
ATOM     19  O   UNL A   1      33.448  14.519  25.416  1.00  0.00    -0.258 OA
ENDBRANCH  16  17
ENDBRANCH  10  11
ENDBRANCH   7   9
ENDBRANCH   6   7
ENDBRANCH   5   6
ENDBRANCH   4   5
ENDBRANCH   3   4
ENDBRANCH   2   3
ENDBRANCH   1   2
BRANCH   1  20
ATOM     20  O   UNL A   1      38.201  21.575  25.426  1.00  0.00    -0.376 OA
BRANCH  20  21
ATOM     21  C   UNL A   1      39.399  21.095  26.021  1.00  0.00     0.202 C 
BRANCH  21  22
ATOM     22  C   UNL A   1      39.963  19.670  25.826  1.00  0.00     0.261 C 
BRANCH  22  23
ATOM     23  O   UNL A   1      41.038  19.266  26.673  1.00  0.00    -0.460 OA
BRANCH  23  24
ATOM     24  C   UNL A   1      42.272  19.337  26.112  1.00  0.00     0.338 C 
ATOM     25  O   UNL A   1      42.846  18.467  25.474  1.00  0.00    -0.246 OA
BRANCH  24  26
ATOM     26  C   UNL A   1      42.766  20.712  26.240  1.00  0.00     0.060 A 
ATOM     27  C   UNL A   1      42.779  21.300  27.510  1.00  0.00     0.016 A 
ATOM     28  C   UNL A   1      43.197  21.416  25.118  1.00  0.00     0.016 A 
ATOM     29  C   UNL A   1      43.308  22.575  27.679  1.00  0.00     0.010 A 
ATOM     30  C   UNL A   1      43.666  22.720  25.279  1.00  0.00     0.010 A 
ATOM     31  C   UNL A   1      43.732  23.298  26.560  1.00  0.00    -0.014 A 
BRANCH  31  32
ATOM     32  C   UNL A   1      44.087  24.725  26.701  1.00  0.00     0.031 A 
ATOM     33  C   UNL A   1      45.521  25.118  26.500  1.00  0.00     0.074 A 
ATOM     34  C   UNL A   1      43.155  25.637  27.029  1.00  0.00     0.049 A 
ATOM     35  N   UNL A   1      46.090  26.277  26.685  1.00  0.00    -0.248 NA
ATOM     36  C   UNL A   1      46.435  24.063  26.029  1.00  0.00     0.031 C 
ATOM     37  C   UNL A   1      41.724  25.370  27.184  1.00  0.00     0.029 A 
ATOM     38  N   UNL A   1      43.280  26.973  27.315  1.00  0.00    -0.354 N 
ATOM     39  C   UNL A   1      47.430  26.090  26.371  1.00  0.00     0.074 A 
ATOM     40  C   UNL A   1      47.592  24.707  25.981  1.00  0.00     0.031 C 
ATOM     41  C   UNL A   1      41.110  26.500  27.576  1.00  0.00     0.029 A 
ATOM     42  C   UNL A   1      42.108  27.556  27.738  1.00  0.00     0.049 A 
ATOM     43  H   UNL A   1      44.127  27.466  27.226  1.00  0.00     0.167 HD
ATOM     44  C   UNL A   1      48.435  26.990  26.421  1.00  0.00     0.031 A 
ATOM     45  C   UNL A   1      41.884  28.787  28.243  1.00  0.00     0.031 A 
ATOM     46  C   UNL A   1      48.265  28.356  26.835  1.00  0.00     0.049 A 
ATOM     47  C   UNL A   1      43.046  29.742  28.375  1.00  0.00     0.074 A 
ATOM     48  C   UNL A   1      49.215  29.357  26.894  1.00  0.00     0.029 A 
ATOM     49  N   UNL A   1      47.072  28.904  27.279  1.00  0.00    -0.354 N 
ATOM     50  N   UNL A   1      44.300  29.571  28.023  1.00  0.00    -0.248 NA
ATOM     51  C   UNL A   1      42.767  31.054  28.976  1.00  0.00     0.031 C 
ATOM     52  C   UNL A   1      48.615  30.491  27.447  1.00  0.00     0.029 A 
ATOM     53  C   UNL A   1      47.274  30.218  27.664  1.00  0.00     0.049 A 
ATOM     54  H   UNL A   1      46.210  28.430  27.316  1.00  0.00     0.167 HD
ATOM     55  C   UNL A   1      44.950  30.759  28.342  1.00  0.00     0.074 A 
ATOM     56  C   UNL A   1      43.948  31.650  28.889  1.00  0.00     0.031 C 
ATOM     57  C   UNL A   1      46.258  31.086  28.202  1.00  0.00     0.031 A 
BRANCH  44  58
ATOM     58  C   UNL A   1      49.821  26.524  26.074  1.00  0.00    -0.014 A 
ATOM     59  C   UNL A   1      50.365  26.733  24.795  1.00  0.00     0.010 A 
ATOM     60  C   UNL A   1      50.621  25.946  27.076  1.00  0.00     0.010 A 
ATOM     61  C   UNL A   1      51.687  26.369  24.526  1.00  0.00     0.020 A 
ATOM     62  C   UNL A   1      51.950  25.604  26.817  1.00  0.00     0.020 A 
ATOM     63  C   UNL A   1      52.474  25.816  25.542  1.00  0.00     0.054 A 
BRANCH  63  64
ATOM     64  S   UNL A   1      54.211  25.435  25.185  1.00  0.00     0.124 S 
ATOM     65  O   UNL A   1      54.212  23.975  25.216  1.00  0.00    -0.237 OA
ATOM     66  O   UNL A   1      54.403  26.035  23.867  1.00  0.00    -0.237 OA
ATOM     67  O   UNL A   1      54.939  26.081  26.273  1.00  0.00    -0.744 OA
ENDBRANCH  63  64
ENDBRANCH  44  58
BRANCH  45  68
ATOM     68  C   UNL A   1      40.531  29.170  28.737  1.00  0.00    -0.014 A 
ATOM     69  C   UNL A   1      39.522  29.583  27.848  1.00  0.00     0.010 A 
ATOM     70  C   UNL A   1      40.261  29.180  30.119  1.00  0.00     0.010 A 
ATOM     71  C   UNL A   1      38.289  30.034  28.332  1.00  0.00     0.020 A 
ATOM     72  C   UNL A   1      39.020  29.598  30.606  1.00  0.00     0.020 A 
ATOM     73  C   UNL A   1      38.047  30.043  29.710  1.00  0.00     0.054 A 
BRANCH  73  74
ATOM     74  S   UNL A   1      36.441  30.628  30.317  1.00  0.00     0.124 S 
ATOM     75  O   UNL A   1      35.573  30.376  29.172  1.00  0.00    -0.237 OA
ATOM     76  O   UNL A   1      36.215  29.779  31.483  1.00  0.00    -0.237 OA
ATOM     77  O   UNL A   1      36.685  32.037  30.620  1.00  0.00    -0.744 OA
ENDBRANCH  73  74
ENDBRANCH  45  68
BRANCH  57  78
ATOM     78  C   UNL A   1      46.685  32.467  28.625  1.00  0.00    -0.014 A 
ATOM     79  C   UNL A   1      47.190  32.707  29.915  1.00  0.00     0.010 A 
ATOM     80  C   UNL A   1      46.658  33.520  27.692  1.00  0.00     0.010 A 
ATOM     81  C   UNL A   1      47.642  33.981  30.270  1.00  0.00     0.020 A 
ATOM     82  C   UNL A   1      47.140  34.786  28.033  1.00  0.00     0.020 A 
ATOM     83  C   UNL A   1      47.619  35.011  29.325  1.00  0.00     0.054 A 
BRANCH  83  84
ATOM     84  S   UNL A   1      48.273  36.636  29.793  1.00  0.00     0.124 S 
ATOM     85  O   UNL A   1      47.320  37.542  29.157  1.00  0.00    -0.237 OA
ATOM     86  O   UNL A   1      48.221  36.592  31.253  1.00  0.00    -0.237 OA
ATOM     87  O   UNL A   1      49.617  36.647  29.223  1.00  0.00    -0.744 OA
ENDBRANCH  83  84
ENDBRANCH  57  78
ENDBRANCH  31  32
ENDBRANCH  24  26
ENDBRANCH  23  24
ENDBRANCH  22  23
ENDBRANCH  21  22
ENDBRANCH  20  21
ENDBRANCH   1  20
TORSDOF 22
ENDMDL
MODEL 3
REMARK VINA RESULT:      -9.4      6.824     12.313
REMARK SMILES O=C(/C=C\c1ccc([N+](=O)[O-])cc1)OCCOCCOCCOC(=O)c1ccc(-c2c3nc(c(-c4ccc(S(=O)(=O)[O-])cc4)c4ccc([nH]4)c(-c4ccc(S(=O)(=O)[O-])cc4)c4nc(c(-c5ccc(S(=O)(=O)[O-])cc5)c5ccc2[nH]5)C=C4)C=C3)cc1
REMARK SMILES IDX 19 1 18 2 17 3 16 4 15 5 14 6 2 7 1 8 3 9 4 10 5 11 6 12
REMARK SMILES IDX 13 13 7 14 12 15 8 16 9 17 10 18 11 19 20 20 21 21 22 22
REMARK SMILES IDX 23 23 24 24 25 25 26 26 27 27 85 28 28 29 84 30 29 31 30 32
REMARK SMILES IDX 31 33 78 34 32 35 83 36 77 37 79 38 33 39 82 40 76 41 75 42
REMARK SMILES IDX 34 44 64 45 45 46 63 47 46 48 49 49 62 50 80 51 47 52 48 53
REMARK SMILES IDX 61 55 81 56 50 57 35 58 36 59 44 60 37 61 43 62 38 63 39 64
REMARK SMILES IDX 40 65 41 66 42 67 65 68 66 69 74 70 67 71 73 72 68 73 69 74
REMARK SMILES IDX 70 75 71 76 72 77 51 78 52 79 60 80 53 81 59 82 54 83 55 84
REMARK SMILES IDX 56 85 57 86 58 87
REMARK H PARENT 79 43 49 54
REMARK Flexibility Score: inf
ROOT
ATOM      1  C   UNL A   1      32.581  28.821  25.503  1.00  0.00     0.188 C 
ENDROOT
BRANCH   1   2
ATOM      2  C   UNL A   1      31.461  27.809  25.824  1.00  0.00     0.188 C 
BRANCH   2   3
ATOM      3  O   UNL A   1      30.913  27.113  24.710  1.00  0.00    -0.376 OA
BRANCH   3   4
ATOM      4  C   UNL A   1      29.986  26.076  25.023  1.00  0.00     0.202 C 
BRANCH   4   5
ATOM      5  C   UNL A   1      30.451  25.028  26.056  1.00  0.00     0.261 C 
BRANCH   5   6
ATOM      6  O   UNL A   1      31.402  24.093  25.553  1.00  0.00    -0.460 OA
BRANCH   6   7
ATOM      7  C   UNL A   1      32.291  23.421  26.299  1.00  0.00     0.330 C 
ATOM      8  O   UNL A   1      31.995  23.129  27.457  1.00  0.00    -0.247 OA
BRANCH   7   9
ATOM      9  C   UNL A   1      33.665  23.112  25.838  1.00  0.00     0.094 C 
ATOM     10  C   UNL A   1      34.435  22.132  25.320  1.00  0.00     0.015 C 
BRANCH  10  11
ATOM     11  C   UNL A   1      34.314  20.711  24.928  1.00  0.00    -0.025 A 
ATOM     12  C   UNL A   1      33.017  20.221  24.709  1.00  0.00     0.015 A 
ATOM     13  C   UNL A   1      35.347  19.767  24.942  1.00  0.00     0.015 A 
ATOM     14  C   UNL A   1      32.783  18.872  24.405  1.00  0.00     0.086 A 
ATOM     15  C   UNL A   1      35.151  18.436  24.555  1.00  0.00     0.086 A 
ATOM     16  C   UNL A   1      33.861  17.993  24.280  1.00  0.00     0.269 A 
BRANCH  16  17
ATOM     17  N   UNL A   1      33.641  16.598  23.888  1.00  0.00     0.062 N 
ATOM     18  O   UNL A   1      34.124  16.217  22.813  1.00  0.00    -0.258 OA
ATOM     19  O   UNL A   1      32.986  15.879  24.659  1.00  0.00    -0.258 OA
ENDBRANCH  16  17
ENDBRANCH  10  11
ENDBRANCH   7   9
ENDBRANCH   6   7
ENDBRANCH   5   6
ENDBRANCH   4   5
ENDBRANCH   3   4
ENDBRANCH   2   3
ENDBRANCH   1   2
BRANCH   1  20
ATOM     20  O   UNL A   1      32.796  29.718  26.580  1.00  0.00    -0.376 OA
BRANCH  20  21
ATOM     21  C   UNL A   1      34.110  30.137  26.924  1.00  0.00     0.202 C 
BRANCH  21  22
ATOM     22  C   UNL A   1      35.140  29.261  27.672  1.00  0.00     0.261 C 
BRANCH  22  23
ATOM     23  O   UNL A   1      36.433  29.818  27.903  1.00  0.00    -0.460 OA
BRANCH  23  24
ATOM     24  C   UNL A   1      37.026  29.439  29.063  1.00  0.00     0.338 C 
ATOM     25  O   UNL A   1      36.483  29.230  30.137  1.00  0.00    -0.246 OA
BRANCH  24  26
ATOM     26  C   UNL A   1      38.437  29.143  28.793  1.00  0.00     0.060 A 
ATOM     27  C   UNL A   1      39.250  28.741  29.858  1.00  0.00     0.016 A 
ATOM     28  C   UNL A   1      38.952  29.274  27.505  1.00  0.00     0.016 A 
ATOM     29  C   UNL A   1      40.573  28.383  29.623  1.00  0.00     0.010 A 
ATOM     30  C   UNL A   1      40.298  28.978  27.283  1.00  0.00     0.010 A 
ATOM     31  C   UNL A   1      41.107  28.523  28.339  1.00  0.00    -0.014 A 
BRANCH  31  32
ATOM     32  C   UNL A   1      42.560  28.357  28.128  1.00  0.00     0.031 A 
ATOM     33  C   UNL A   1      43.451  29.535  28.388  1.00  0.00     0.074 A 
ATOM     34  C   UNL A   1      43.061  27.189  27.688  1.00  0.00     0.049 A 
ATOM     35  N   UNL A   1      44.729  29.667  28.163  1.00  0.00    -0.248 NA
ATOM     36  C   UNL A   1      42.814  30.727  28.978  1.00  0.00     0.031 C 
ATOM     37  C   UNL A   1      42.291  25.964  27.467  1.00  0.00     0.029 A 
ATOM     38  N   UNL A   1      44.341  26.852  27.326  1.00  0.00    -0.354 N 
ATOM     39  C   UNL A   1      45.049  30.956  28.567  1.00  0.00     0.074 A 
ATOM     40  C   UNL A   1      43.833  31.570  29.053  1.00  0.00     0.031 C 
ATOM     41  C   UNL A   1      43.109  25.020  26.968  1.00  0.00     0.029 A 
ATOM     42  C   UNL A   1      44.446  25.585  26.798  1.00  0.00     0.049 A 
ATOM     43  H   UNL A   1      45.109  27.458  27.433  1.00  0.00     0.167 HD
ATOM     44  C   UNL A   1      46.248  31.575  28.519  1.00  0.00     0.031 A 
ATOM     45  C   UNL A   1      45.493  24.977  26.204  1.00  0.00     0.031 A 
ATOM     46  C   UNL A   1      47.444  30.962  28.010  1.00  0.00     0.049 A 
ATOM     47  C   UNL A   1      46.797  25.729  26.079  1.00  0.00     0.074 A 
ATOM     48  C   UNL A   1      48.717  31.494  27.943  1.00  0.00     0.029 A 
ATOM     49  N   UNL A   1      47.508  29.691  27.462  1.00  0.00    -0.354 N 
ATOM     50  N   UNL A   1      47.103  26.930  26.515  1.00  0.00    -0.248 NA
ATOM     51  C   UNL A   1      47.897  25.048  25.381  1.00  0.00     0.031 C 
ATOM     52  C   UNL A   1      49.537  30.575  27.284  1.00  0.00     0.029 A 
ATOM     53  C   UNL A   1      48.790  29.440  27.006  1.00  0.00     0.049 A 
ATOM     54  H   UNL A   1      46.755  29.060  27.404  1.00  0.00     0.167 HD
ATOM     55  C   UNL A   1      48.432  27.136  26.160  1.00  0.00     0.074 A 
ATOM     56  C   UNL A   1      48.881  25.928  25.499  1.00  0.00     0.031 C 
ATOM     57  C   UNL A   1      49.214  28.227  26.355  1.00  0.00     0.031 A 
BRANCH  44  58
ATOM     58  C   UNL A   1      46.326  33.005  28.976  1.00  0.00    -0.014 A 
ATOM     59  C   UNL A   1      46.664  33.333  30.300  1.00  0.00     0.010 A 
ATOM     60  C   UNL A   1      46.142  34.036  28.037  1.00  0.00     0.010 A 
ATOM     61  C   UNL A   1      46.816  34.670  30.676  1.00  0.00     0.020 A 
ATOM     62  C   UNL A   1      46.317  35.372  28.403  1.00  0.00     0.020 A 
ATOM     63  C   UNL A   1      46.651  35.680  29.722  1.00  0.00     0.054 A 
BRANCH  63  64
ATOM     64  S   UNL A   1      46.941  37.400  30.221  1.00  0.00     0.124 S 
ATOM     65  O   UNL A   1      48.056  37.781  29.358  1.00  0.00    -0.237 OA
ATOM     66  O   UNL A   1      45.663  38.038  29.913  1.00  0.00    -0.237 OA
ATOM     67  O   UNL A   1      47.259  37.302  31.643  1.00  0.00    -0.744 OA
ENDBRANCH  63  64
ENDBRANCH  44  58
BRANCH  45  68
ATOM     68  C   UNL A   1      45.345  23.619  25.607  1.00  0.00    -0.014 A 
ATOM     69  C   UNL A   1      44.738  23.440  24.350  1.00  0.00     0.010 A 
ATOM     70  C   UNL A   1      45.761  22.482  26.326  1.00  0.00     0.010 A 
ATOM     71  C   UNL A   1      44.516  22.154  23.845  1.00  0.00     0.020 A 
ATOM     72  C   UNL A   1      45.571  21.197  25.810  1.00  0.00     0.020 A 
ATOM     73  C   UNL A   1      44.931  21.040  24.581  1.00  0.00     0.054 A 
BRANCH  73  74
ATOM     74  S   UNL A   1      44.636  19.381  23.907  1.00  0.00     0.124 S 
ATOM     75  O   UNL A   1      43.456  18.956  24.652  1.00  0.00    -0.237 OA
ATOM     76  O   UNL A   1      44.428  19.650  22.487  1.00  0.00    -0.237 OA
ATOM     77  O   UNL A   1      45.869  18.662  24.223  1.00  0.00    -0.744 OA
ENDBRANCH  73  74
ENDBRANCH  45  68
BRANCH  57  78
ATOM     78  C   UNL A   1      50.638  28.165  25.871  1.00  0.00    -0.014 A 
ATOM     79  C   UNL A   1      50.968  28.495  24.545  1.00  0.00     0.010 A 
ATOM     80  C   UNL A   1      51.668  27.853  26.777  1.00  0.00     0.010 A 
ATOM     81  C   UNL A   1      52.303  28.495  24.129  1.00  0.00     0.020 A 
ATOM     82  C   UNL A   1      53.005  27.885  26.374  1.00  0.00     0.020 A 
ATOM     83  C   UNL A   1      53.313  28.195  25.048  1.00  0.00     0.054 A 
BRANCH  83  84
ATOM     84  S   UNL A   1      55.039  28.267  24.498  1.00  0.00     0.124 S 
ATOM     85  O   UNL A   1      55.373  26.852  24.358  1.00  0.00    -0.237 OA
ATOM     86  O   UNL A   1      54.944  29.017  23.247  1.00  0.00    -0.237 OA
ATOM     87  O   UNL A   1      55.722  28.963  25.585  1.00  0.00    -0.744 OA
ENDBRANCH  83  84
ENDBRANCH  57  78
ENDBRANCH  31  32
ENDBRANCH  24  26
ENDBRANCH  23  24
ENDBRANCH  22  23
ENDBRANCH  21  22
ENDBRANCH  20  21
ENDBRANCH   1  20
TORSDOF 22
ENDMDL
