MODEL 1
REMARK VINA RESULT:     -11.1      0.000      0.000
REMARK SMILES Cc1ccc(C)c(N2C(=O)S[C@H](CC(=O)Nc3ccc(C(=O)OCCOCCOCCOC(=O)c4ccc(-c5c6nc(c(-c7ccc(S(=O)(=O)[O-])cc7)c7ccc([nH]7)c(-c7ccc(S(=O)(=O)[O-])cc7)c7nc(c(-c8ccc(S(=O)(=O)[O-])cc8)c8ccc5[nH]8)C=C7)C=C6)cc4)c(O)c3)C2=O)c1
REMARK SMILES IDX 27 1 26 2 25 3 24 4 23 5 21 6 22 7 20 8 17 9 18 10 97 11
REMARK SMILES IDX 19 12 95 13 16 14 14 15 15 16 13 18 12 19 8 20 9 21 98 22
REMARK SMILES IDX 10 23 11 24 99 25 7 26 1 27 2 28 3 29 100 30 4 31 5 32 6 33
REMARK SMILES IDX 96 34 28 36 29 37 30 38 31 39 32 40 33 41 34 42 35 43 36 44
REMARK SMILES IDX 94 45 37 46 93 47 38 48 39 49 40 50 87 51 41 52 92 53 86 54
REMARK SMILES IDX 88 55 42 56 91 57 85 58 84 59 43 61 73 62 54 63 72 64 55 65
REMARK SMILES IDX 58 66 71 67 89 68 56 69 57 70 70 72 90 73 59 74 44 75 45 76
REMARK SMILES IDX 53 77 46 78 52 79 47 80 48 81 49 82 50 83 51 84 74 85 75 86
REMARK SMILES IDX 83 87 76 88 82 89 77 90 78 91 79 92 80 93 81 94 60 95 61 96
REMARK SMILES IDX 69 97 62 98 68 99 63 100 64 101 65 102 66 103 67 104
REMARK H PARENT 16 17 96 35 88 60 58 71
REMARK Flexibility Score: inf
ROOT
ATOM      1  C   UNL A   1      40.387  21.898  26.559  1.00  0.00     0.188 C 
ENDROOT
BRANCH   1   2
ATOM      2  O   UNL A   1      39.399  21.204  25.796  1.00  0.00    -0.376 OA
BRANCH   2   3
ATOM      3  C   UNL A   1      38.166  21.901  25.594  1.00  0.00     0.202 C 
BRANCH   3   4
ATOM      4  C   UNL A   1      37.102  21.169  24.751  1.00  0.00     0.261 C 
BRANCH   4   5
ATOM      5  O   UNL A   1      36.032  20.565  25.519  1.00  0.00    -0.460 OA
BRANCH   5   6
ATOM      6  C   UNL A   1      34.802  20.640  24.944  1.00  0.00     0.341 C 
ATOM      7  O   UNL A   1      34.220  19.739  24.364  1.00  0.00    -0.246 OA
BRANCH   6   8
ATOM      8  C   UNL A   1      34.123  21.933  25.218  1.00  0.00     0.101 A 
ATOM      9  C   UNL A   1      32.574  24.266  25.547  1.00  0.00     0.044 A 
ATOM     10  C   UNL A   1      32.731  23.681  24.296  1.00  0.00     0.027 A 
ATOM     11  C   UNL A   1      33.381  23.829  26.583  1.00  0.00     0.073 A 
ATOM     12  C   UNL A   1      33.454  22.497  24.137  1.00  0.00     0.022 A 
ATOM     13  C   UNL A   1      34.177  22.683  26.398  1.00  0.00     0.132 A 
BRANCH   9  14
ATOM     14  N   UNL A   1      31.663  25.322  25.712  1.00  0.00    -0.326 N 
ATOM     15  C   UNL A   1      31.930  26.508  26.369  1.00  0.00     0.226 C 
ATOM     16  O   UNL A   1      31.043  27.124  26.957  1.00  0.00    -0.275 OA
ATOM     17  H   UNL A   1      30.763  25.208  25.329  1.00  0.00     0.169 HD
BRANCH  15  18
ATOM     18  C   UNL A   1      33.298  27.142  26.117  1.00  0.00     0.125 C 
BRANCH  18  19
ATOM     19  C   UNL A   1      33.355  28.343  25.176  1.00  0.00     0.156 C 
ATOM     20  N   UNL A   1      31.365  28.200  23.846  1.00  0.00    -0.240 N 
ATOM     21  C   UNL A   1      32.221  27.442  23.080  1.00  0.00     0.293 C 
ATOM     22  C   UNL A   1      31.936  28.859  24.925  1.00  0.00     0.248 C 
ATOM     23  O   UNL A   1      31.958  26.605  22.252  1.00  0.00    -0.261 OA
ATOM     24  S   UNL A   1      33.866  27.914  23.490  1.00  0.00    -0.050 SA
ATOM     25  O   UNL A   1      31.423  29.745  25.601  1.00  0.00    -0.273 OA
BRANCH  20  26
ATOM     26  C   UNL A   1      30.143  28.598  23.261  1.00  0.00     0.056 A 
ATOM     27  C   UNL A   1      28.626  31.667  21.550  1.00  0.00     0.044 C 
ATOM     28  C   UNL A   1      28.794  30.323  22.195  1.00  0.00    -0.049 A 
ATOM     29  C   UNL A   1      27.657  29.532  22.390  1.00  0.00     0.004 A 
ATOM     30  C   UNL A   1      30.042  29.852  22.635  1.00  0.00     0.030 A 
ATOM     31  C   UNL A   1      27.754  28.290  23.011  1.00  0.00     0.006 A 
ATOM     32  C   UNL A   1      28.990  27.809  23.462  1.00  0.00    -0.027 A 
ATOM     33  C   UNL A   1      28.989  26.486  24.177  1.00  0.00     0.046 C 
ENDBRANCH  20  26
ENDBRANCH  18  19
ENDBRANCH  15  18
ENDBRANCH   9  14
BRANCH  13  34
ATOM     34  O   UNL A   1      35.035  22.429  27.422  1.00  0.00    -0.507 OA
ATOM     35  H   UNL A   1      35.919  22.180  27.241  1.00  0.00     0.293 HD
ENDBRANCH  13  34
ENDBRANCH   6   8
ENDBRANCH   5   6
ENDBRANCH   4   5
ENDBRANCH   3   4
ENDBRANCH   2   3
ENDBRANCH   1   2
BRANCH   1  36
ATOM     36  C   UNL A   1      41.830  21.479  26.233  1.00  0.00     0.188 C 
BRANCH  36  37
ATOM     37  O   UNL A   1      42.126  20.216  26.798  1.00  0.00    -0.376 OA
BRANCH  37  38
ATOM     38  C   UNL A   1      42.311  19.143  25.901  1.00  0.00     0.202 C 
BRANCH  38  39
ATOM     39  C   UNL A   1      43.713  18.527  25.810  1.00  0.00     0.261 C 
BRANCH  39  40
ATOM     40  O   UNL A   1      44.753  19.076  24.954  1.00  0.00    -0.460 OA
BRANCH  40  41
ATOM     41  C   UNL A   1      44.736  20.060  24.027  1.00  0.00     0.338 C 
ATOM     42  O   UNL A   1      44.598  19.821  22.833  1.00  0.00    -0.246 OA
BRANCH  41  43
ATOM     43  C   UNL A   1      45.050  21.412  24.483  1.00  0.00     0.060 A 
ATOM     44  C   UNL A   1      45.729  21.478  25.686  1.00  0.00     0.016 A 
ATOM     45  C   UNL A   1      44.524  22.565  23.880  1.00  0.00     0.016 A 
ATOM     46  C   UNL A   1      45.641  22.658  26.390  1.00  0.00     0.010 A 
ATOM     47  C   UNL A   1      44.492  23.768  24.601  1.00  0.00     0.010 A 
ATOM     48  C   UNL A   1      44.976  23.785  25.906  1.00  0.00    -0.014 A 
BRANCH  48  49
ATOM     49  C   UNL A   1      45.029  24.940  26.815  1.00  0.00     0.031 A 
ATOM     50  C   UNL A   1      46.361  25.603  26.819  1.00  0.00     0.074 A 
ATOM     51  C   UNL A   1      44.053  25.352  27.652  1.00  0.00     0.049 A 
ATOM     52  N   UNL A   1      47.197  25.724  27.807  1.00  0.00    -0.248 NA
ATOM     53  C   UNL A   1      46.897  26.005  25.509  1.00  0.00     0.031 C 
ATOM     54  C   UNL A   1      42.671  24.881  27.703  1.00  0.00     0.029 A 
ATOM     55  N   UNL A   1      44.075  26.350  28.597  1.00  0.00    -0.354 N 
ATOM     56  C   UNL A   1      48.265  26.442  27.279  1.00  0.00     0.074 A 
ATOM     57  C   UNL A   1      48.119  26.406  25.844  1.00  0.00     0.031 C 
ATOM     58  C   UNL A   1      41.937  25.740  28.446  1.00  0.00     0.029 A 
ATOM     59  C   UNL A   1      42.807  26.771  28.992  1.00  0.00     0.049 A 
ATOM     60  H   UNL A   1      44.907  26.730  28.960  1.00  0.00     0.167 HD
ATOM     61  C   UNL A   1      49.080  27.236  28.021  1.00  0.00     0.031 A 
ATOM     62  C   UNL A   1      42.467  27.930  29.620  1.00  0.00     0.031 A 
ATOM     63  C   UNL A   1      49.084  26.928  29.417  1.00  0.00     0.049 A 
ATOM     64  C   UNL A   1      43.672  28.464  30.293  1.00  0.00     0.074 A 
ATOM     65  C   UNL A   1      49.442  25.835  30.180  1.00  0.00     0.029 A 
ATOM     66  N   UNL A   1      48.394  27.764  30.260  1.00  0.00    -0.354 N 
ATOM     67  N   UNL A   1      44.206  27.940  31.359  1.00  0.00    -0.248 NA
ATOM     68  C   UNL A   1      44.524  29.377  29.549  1.00  0.00     0.031 C 
ATOM     69  C   UNL A   1      48.584  25.866  31.316  1.00  0.00     0.029 A 
ATOM     70  C   UNL A   1      47.768  26.989  31.203  1.00  0.00     0.049 A 
ATOM     71  H   UNL A   1      48.356  28.745  30.198  1.00  0.00     0.167 HD
ATOM     72  C   UNL A   1      45.572  28.126  31.198  1.00  0.00     0.074 A 
ATOM     73  C   UNL A   1      45.700  29.086  30.107  1.00  0.00     0.031 C 
ATOM     74  C   UNL A   1      46.477  27.292  31.784  1.00  0.00     0.031 A 
BRANCH  61  75
ATOM     75  C   UNL A   1      49.558  28.536  27.440  1.00  0.00    -0.014 A 
ATOM     76  C   UNL A   1      50.887  28.717  27.031  1.00  0.00     0.010 A 
ATOM     77  C   UNL A   1      48.729  29.682  27.475  1.00  0.00     0.010 A 
ATOM     78  C   UNL A   1      51.342  29.985  26.634  1.00  0.00     0.020 A 
ATOM     79  C   UNL A   1      49.149  30.926  27.026  1.00  0.00     0.020 A 
ATOM     80  C   UNL A   1      50.463  31.075  26.624  1.00  0.00     0.054 A 
BRANCH  80  81
ATOM     81  S   UNL A   1      51.043  32.711  26.118  1.00  0.00     0.124 S 
ATOM     82  O   UNL A   1      49.959  33.569  26.583  1.00  0.00    -0.237 OA
ATOM     83  O   UNL A   1      52.307  32.831  26.840  1.00  0.00    -0.237 OA
ATOM     84  O   UNL A   1      51.173  32.593  24.667  1.00  0.00    -0.744 OA
ENDBRANCH  80  81
ENDBRANCH  61  75
BRANCH  62  85
ATOM     85  C   UNL A   1      41.265  28.775  29.356  1.00  0.00    -0.014 A 
ATOM     86  C   UNL A   1      40.028  28.212  28.976  1.00  0.00     0.010 A 
ATOM     87  C   UNL A   1      41.259  30.128  29.754  1.00  0.00     0.010 A 
ATOM     88  C   UNL A   1      38.833  28.956  29.056  1.00  0.00     0.020 A 
ATOM     89  C   UNL A   1      40.081  30.877  29.821  1.00  0.00     0.020 A 
ATOM     90  C   UNL A   1      38.868  30.281  29.499  1.00  0.00     0.054 A 
BRANCH  90  91
ATOM     91  S   UNL A   1      37.320  31.186  29.797  1.00  0.00     0.124 S 
ATOM     92  O   UNL A   1      37.407  32.280  28.835  1.00  0.00    -0.237 OA
ATOM     93  O   UNL A   1      36.302  30.177  29.522  1.00  0.00    -0.237 OA
ATOM     94  O   UNL A   1      37.423  31.586  31.201  1.00  0.00    -0.744 OA
ENDBRANCH  90  91
ENDBRANCH  62  85
BRANCH  74  95
ATOM     95  C   UNL A   1      46.042  26.449  32.960  1.00  0.00    -0.014 A 
ATOM     96  C   UNL A   1      45.407  25.197  32.854  1.00  0.00     0.010 A 
ATOM     97  C   UNL A   1      46.415  26.904  34.239  1.00  0.00     0.010 A 
ATOM     98  C   UNL A   1      45.142  24.430  34.002  1.00  0.00     0.020 A 
ATOM     99  C   UNL A   1      46.166  26.141  35.382  1.00  0.00     0.020 A 
ATOM    100  C   UNL A   1      45.525  24.909  35.259  1.00  0.00     0.054 A 
BRANCH 100 101
ATOM    101  S   UNL A   1      45.219  23.898  36.737  1.00  0.00     0.124 S 
ATOM    102  O   UNL A   1      46.449  24.080  37.504  1.00  0.00    -0.237 OA
ATOM    103  O   UNL A   1      44.025  24.512  37.312  1.00  0.00    -0.237 OA
ATOM    104  O   UNL A   1      45.020  22.551  36.205  1.00  0.00    -0.744 OA
ENDBRANCH 100 101
ENDBRANCH  74  95
ENDBRANCH  48  49
ENDBRANCH  41  43
ENDBRANCH  40  41
ENDBRANCH  39  40
ENDBRANCH  38  39
ENDBRANCH  37  38
ENDBRANCH  36  37
ENDBRANCH   1  36
TORSDOF 25
ENDMDL
MODEL 2
REMARK VINA RESULT:     -11.0      3.187      9.406
REMARK SMILES Cc1ccc(C)c(N2C(=O)S[C@H](CC(=O)Nc3ccc(C(=O)OCCOCCOCCOC(=O)c4ccc(-c5c6nc(c(-c7ccc(S(=O)(=O)[O-])cc7)c7ccc([nH]7)c(-c7ccc(S(=O)(=O)[O-])cc7)c7nc(c(-c8ccc(S(=O)(=O)[O-])cc8)c8ccc5[nH]8)C=C7)C=C6)cc4)c(O)c3)C2=O)c1
REMARK SMILES IDX 27 1 26 2 25 3 24 4 23 5 21 6 22 7 20 8 17 9 18 10 97 11
REMARK SMILES IDX 19 12 95 13 16 14 14 15 15 16 13 18 12 19 8 20 9 21 98 22
REMARK SMILES IDX 10 23 11 24 99 25 7 26 1 27 2 28 3 29 100 30 4 31 5 32 6 33
REMARK SMILES IDX 96 34 28 36 29 37 30 38 31 39 32 40 33 41 34 42 35 43 36 44
REMARK SMILES IDX 94 45 37 46 93 47 38 48 39 49 40 50 87 51 41 52 92 53 86 54
REMARK SMILES IDX 88 55 42 56 91 57 85 58 84 59 43 61 73 62 54 63 72 64 55 65
REMARK SMILES IDX 58 66 71 67 89 68 56 69 57 70 70 72 90 73 59 74 44 75 45 76
REMARK SMILES IDX 53 77 46 78 52 79 47 80 48 81 49 82 50 83 51 84 74 85 75 86
REMARK SMILES IDX 83 87 76 88 82 89 77 90 78 91 79 92 80 93 81 94 60 95 61 96
REMARK SMILES IDX 69 97 62 98 68 99 63 100 64 101 65 102 66 103 67 104
REMARK H PARENT 16 17 96 35 88 60 58 71
REMARK Flexibility Score: inf
ROOT
ATOM      1  C   UNL A   1      33.870  21.862  25.937  1.00  0.00     0.188 C 
ENDROOT
BRANCH   1   2
ATOM      2  O   UNL A   1      32.849  22.593  26.617  1.00  0.00    -0.376 OA
BRANCH   2   3
ATOM      3  C   UNL A   1      31.560  22.586  25.997  1.00  0.00     0.202 C 
BRANCH   3   4
ATOM      4  C   UNL A   1      30.567  23.664  26.479  1.00  0.00     0.261 C 
BRANCH   4   5
ATOM      5  O   UNL A   1      31.182  24.907  26.898  1.00  0.00    -0.460 OA
BRANCH   5   6
ATOM      6  C   UNL A   1      31.386  25.809  25.901  1.00  0.00     0.341 C 
ATOM      7  O   UNL A   1      30.889  25.781  24.788  1.00  0.00    -0.246 OA
BRANCH   6   8
ATOM      8  C   UNL A   1      32.194  26.974  26.345  1.00  0.00     0.101 A 
ATOM      9  C   UNL A   1      33.844  29.201  26.862  1.00  0.00     0.044 A 
ATOM     10  C   UNL A   1      34.322  28.105  26.154  1.00  0.00     0.027 A 
ATOM     11  C   UNL A   1      32.630  29.083  27.516  1.00  0.00     0.073 A 
ATOM     12  C   UNL A   1      33.493  27.024  25.850  1.00  0.00     0.022 A 
ATOM     13  C   UNL A   1      31.828  27.952  27.278  1.00  0.00     0.132 A 
BRANCH   9  14
ATOM     14  N   UNL A   1      34.627  30.363  26.958  1.00  0.00    -0.326 N 
ATOM     15  C   UNL A   1      35.240  30.818  28.110  1.00  0.00     0.226 C 
ATOM     16  O   UNL A   1      35.421  32.019  28.304  1.00  0.00    -0.275 OA
ATOM     17  H   UNL A   1      34.748  30.896  26.139  1.00  0.00     0.169 HD
BRANCH  15  18
ATOM     18  C   UNL A   1      35.904  29.766  28.998  1.00  0.00     0.125 C 
BRANCH  18  19
ATOM     19  C   UNL A   1      37.013  30.236  29.936  1.00  0.00     0.156 C 
ATOM     20  N   UNL A   1      39.029  29.265  29.072  1.00  0.00    -0.240 N 
ATOM     21  C   UNL A   1      38.617  28.257  29.913  1.00  0.00     0.293 C 
ATOM     22  C   UNL A   1      38.301  30.445  29.135  1.00  0.00     0.248 C 
ATOM     23  O   UNL A   1      38.912  27.087  29.895  1.00  0.00    -0.261 OA
ATOM     24  S   UNL A   1      37.547  28.966  31.116  1.00  0.00    -0.050 SA
ATOM     25  O   UNL A   1      38.611  31.528  28.650  1.00  0.00    -0.273 OA
BRANCH  20  26
ATOM     26  C   UNL A   1      40.346  29.200  28.569  1.00  0.00     0.056 A 
ATOM     27  C   UNL A   1      42.175  28.046  25.411  1.00  0.00     0.044 C 
ATOM     28  C   UNL A   1      41.881  28.541  26.796  1.00  0.00    -0.049 A 
ATOM     29  C   UNL A   1      42.954  28.755  27.667  1.00  0.00     0.004 A 
ATOM     30  C   UNL A   1      40.571  28.764  27.252  1.00  0.00     0.030 A 
ATOM     31  C   UNL A   1      42.733  29.186  28.972  1.00  0.00     0.006 A 
ATOM     32  C   UNL A   1      41.434  29.406  29.445  1.00  0.00    -0.027 A 
ATOM     33  C   UNL A   1      41.288  29.809  30.887  1.00  0.00     0.046 C 
ENDBRANCH  20  26
ENDBRANCH  18  19
ENDBRANCH  15  18
ENDBRANCH   9  14
BRANCH  13  34
ATOM     34  O   UNL A   1      30.731  27.867  28.077  1.00  0.00    -0.507 OA
ATOM     35  H   UNL A   1      30.063  28.521  28.027  1.00  0.00     0.293 HD
ENDBRANCH  13  34
ENDBRANCH   6   8
ENDBRANCH   5   6
ENDBRANCH   4   5
ENDBRANCH   3   4
ENDBRANCH   2   3
ENDBRANCH   1   2
BRANCH   1  36
ATOM     36  C   UNL A   1      34.465  22.605  24.729  1.00  0.00     0.188 C 
BRANCH  36  37
ATOM     37  O   UNL A   1      35.711  22.043  24.358  1.00  0.00    -0.376 OA
BRANCH  37  38
ATOM     38  C   UNL A   1      36.463  21.427  25.380  1.00  0.00     0.202 C 
BRANCH  38  39
ATOM     39  C   UNL A   1      37.983  21.344  25.192  1.00  0.00     0.261 C 
BRANCH  39  40
ATOM     40  O   UNL A   1      38.920  21.914  26.148  1.00  0.00    -0.460 OA
BRANCH  40  41
ATOM     41  C   UNL A   1      39.131  23.183  26.561  1.00  0.00     0.338 C 
ATOM     42  O   UNL A   1      38.412  24.108  26.202  1.00  0.00    -0.246 OA
BRANCH  41  43
ATOM     43  C   UNL A   1      40.349  23.443  27.326  1.00  0.00     0.060 A 
ATOM     44  C   UNL A   1      40.433  24.710  27.874  1.00  0.00     0.016 A 
ATOM     45  C   UNL A   1      41.449  22.573  27.332  1.00  0.00     0.016 A 
ATOM     46  C   UNL A   1      41.691  25.176  28.183  1.00  0.00     0.010 A 
ATOM     47  C   UNL A   1      42.712  23.059  27.699  1.00  0.00     0.010 A 
ATOM     48  C   UNL A   1      42.844  24.403  28.041  1.00  0.00    -0.014 A 
BRANCH  48  49
ATOM     49  C   UNL A   1      44.075  25.095  28.452  1.00  0.00     0.031 A 
ATOM     50  C   UNL A   1      44.282  25.066  29.925  1.00  0.00     0.074 A 
ATOM     51  C   UNL A   1      44.919  25.782  27.653  1.00  0.00     0.049 A 
ATOM     52  N   UNL A   1      44.321  26.067  30.753  1.00  0.00    -0.248 NA
ATOM     53  C   UNL A   1      44.244  23.741  30.567  1.00  0.00     0.031 C 
ATOM     54  C   UNL A   1      44.917  25.828  26.192  1.00  0.00     0.029 A 
ATOM     55  N   UNL A   1      46.019  26.535  27.984  1.00  0.00    -0.354 N 
ATOM     56  C   UNL A   1      44.560  25.490  31.995  1.00  0.00     0.074 A 
ATOM     57  C   UNL A   1      44.303  24.077  31.851  1.00  0.00     0.031 C 
ATOM     58  C   UNL A   1      46.084  26.360  25.764  1.00  0.00     0.029 A 
ATOM     59  C   UNL A   1      46.878  26.768  26.913  1.00  0.00     0.049 A 
ATOM     60  H   UNL A   1      46.185  26.878  28.892  1.00  0.00     0.167 HD
ATOM     61  C   UNL A   1      45.188  26.130  33.015  1.00  0.00     0.031 A 
ATOM     62  C   UNL A   1      48.182  27.158  26.954  1.00  0.00     0.031 A 
ATOM     63  C   UNL A   1      45.162  27.556  32.916  1.00  0.00     0.049 A 
ATOM     64  C   UNL A   1      48.433  27.802  28.263  1.00  0.00     0.074 A 
ATOM     65  C   UNL A   1      44.175  28.521  32.907  1.00  0.00     0.029 A 
ATOM     66  N   UNL A   1      46.313  28.192  32.522  1.00  0.00    -0.354 N 
ATOM     67  N   UNL A   1      47.980  28.975  28.600  1.00  0.00    -0.248 NA
ATOM     68  C   UNL A   1      48.881  26.963  29.363  1.00  0.00     0.031 C 
ATOM     69  C   UNL A   1      44.683  29.577  32.098  1.00  0.00     0.029 A 
ATOM     70  C   UNL A   1      45.962  29.215  31.679  1.00  0.00     0.049 A 
ATOM     71  H   UNL A   1      47.228  27.955  32.796  1.00  0.00     0.167 HD
ATOM     72  C   UNL A   1      47.701  28.870  29.955  1.00  0.00     0.074 A 
ATOM     73  C   UNL A   1      48.351  27.637  30.384  1.00  0.00     0.031 C 
ATOM     74  C   UNL A   1      46.752  29.651  30.547  1.00  0.00     0.031 A 
BRANCH  61  75
ATOM     75  C   UNL A   1      46.142  25.360  33.883  1.00  0.00    -0.014 A 
ATOM     76  C   UNL A   1      47.449  25.070  33.466  1.00  0.00     0.010 A 
ATOM     77  C   UNL A   1      45.685  24.731  35.066  1.00  0.00     0.010 A 
ATOM     78  C   UNL A   1      48.267  24.222  34.230  1.00  0.00     0.020 A 
ATOM     79  C   UNL A   1      46.503  23.943  35.861  1.00  0.00     0.020 A 
ATOM     80  C   UNL A   1      47.789  23.677  35.428  1.00  0.00     0.054 A 
BRANCH  80  81
ATOM     81  S   UNL A   1      48.836  22.581  36.415  1.00  0.00     0.124 S 
ATOM     82  O   UNL A   1      47.952  21.441  36.632  1.00  0.00    -0.237 OA
ATOM     83  O   UNL A   1      49.971  22.350  35.526  1.00  0.00    -0.237 OA
ATOM     84  O   UNL A   1      49.138  23.377  37.603  1.00  0.00    -0.744 OA
ENDBRANCH  80  81
ENDBRANCH  61  75
BRANCH  62  85
ATOM     85  C   UNL A   1      49.292  26.674  26.082  1.00  0.00    -0.014 A 
ATOM     86  C   UNL A   1      49.680  27.369  24.915  1.00  0.00     0.010 A 
ATOM     87  C   UNL A   1      50.164  25.670  26.549  1.00  0.00     0.010 A 
ATOM     88  C   UNL A   1      50.917  27.109  24.290  1.00  0.00     0.020 A 
ATOM     89  C   UNL A   1      51.385  25.395  25.926  1.00  0.00     0.020 A 
ATOM     90  C   UNL A   1      51.770  26.136  24.815  1.00  0.00     0.054 A 
BRANCH  90  91
ATOM     91  S   UNL A   1      53.447  25.930  24.143  1.00  0.00     0.124 S 
ATOM     92  O   UNL A   1      54.117  27.144  24.597  1.00  0.00    -0.237 OA
ATOM     93  O   UNL A   1      53.890  24.687  24.766  1.00  0.00    -0.237 OA
ATOM     94  O   UNL A   1      53.228  25.848  22.698  1.00  0.00    -0.744 OA
ENDBRANCH  90  91
ENDBRANCH  62  85
BRANCH  74  95
ATOM     95  C   UNL A   1      46.322  30.927  29.864  1.00  0.00    -0.014 A 
ATOM     96  C   UNL A   1      46.615  32.222  30.332  1.00  0.00     0.010 A 
ATOM     97  C   UNL A   1      45.692  30.795  28.611  1.00  0.00     0.010 A 
ATOM     98  C   UNL A   1      46.272  33.352  29.570  1.00  0.00     0.020 A 
ATOM     99  C   UNL A   1      45.361  31.914  27.844  1.00  0.00     0.020 A 
ATOM    100  C   UNL A   1      45.647  33.189  28.329  1.00  0.00     0.054 A 
BRANCH 100 101
ATOM    101  S   UNL A   1      45.244  34.650  27.327  1.00  0.00     0.124 S 
ATOM    102  O   UNL A   1      44.441  35.451  28.246  1.00  0.00    -0.237 OA
ATOM    103  O   UNL A   1      46.560  35.196  27.003  1.00  0.00    -0.237 OA
ATOM    104  O   UNL A   1      44.511  34.101  26.188  1.00  0.00    -0.744 OA
ENDBRANCH 100 101
ENDBRANCH  74  95
ENDBRANCH  48  49
ENDBRANCH  41  43
ENDBRANCH  40  41
ENDBRANCH  39  40
ENDBRANCH  38  39
ENDBRANCH  37  38
ENDBRANCH  36  37
ENDBRANCH   1  36
TORSDOF 25
ENDMDL
MODEL 3
REMARK VINA RESULT:     -10.4      3.155      8.138
REMARK SMILES Cc1ccc(C)c(N2C(=O)S[C@H](CC(=O)Nc3ccc(C(=O)OCCOCCOCCOC(=O)c4ccc(-c5c6nc(c(-c7ccc(S(=O)(=O)[O-])cc7)c7ccc([nH]7)c(-c7ccc(S(=O)(=O)[O-])cc7)c7nc(c(-c8ccc(S(=O)(=O)[O-])cc8)c8ccc5[nH]8)C=C7)C=C6)cc4)c(O)c3)C2=O)c1
REMARK SMILES IDX 27 1 26 2 25 3 24 4 23 5 21 6 22 7 20 8 17 9 18 10 97 11
REMARK SMILES IDX 19 12 95 13 16 14 14 15 15 16 13 18 12 19 8 20 9 21 98 22
REMARK SMILES IDX 10 23 11 24 99 25 7 26 1 27 2 28 3 29 100 30 4 31 5 32 6 33
REMARK SMILES IDX 96 34 28 36 29 37 30 38 31 39 32 40 33 41 34 42 35 43 36 44
REMARK SMILES IDX 94 45 37 46 93 47 38 48 39 49 40 50 87 51 41 52 92 53 86 54
REMARK SMILES IDX 88 55 42 56 91 57 85 58 84 59 43 61 73 62 54 63 72 64 55 65
REMARK SMILES IDX 58 66 71 67 89 68 56 69 57 70 70 72 90 73 59 74 44 75 45 76
REMARK SMILES IDX 53 77 46 78 52 79 47 80 48 81 49 82 50 83 51 84 74 85 75 86
REMARK SMILES IDX 83 87 76 88 82 89 77 90 78 91 79 92 80 93 81 94 60 95 61 96
REMARK SMILES IDX 69 97 62 98 68 99 63 100 64 101 65 102 66 103 67 104
REMARK H PARENT 16 17 96 35 88 60 58 71
REMARK Flexibility Score: inf
ROOT
ATOM      1  C   UNL A   1      35.849  20.752  25.143  1.00  0.00     0.188 C 
ENDROOT
BRANCH   1   2
ATOM      2  O   UNL A   1      34.572  20.262  25.554  1.00  0.00    -0.376 OA
BRANCH   2   3
ATOM      3  C   UNL A   1      34.048  19.172  24.790  1.00  0.00     0.202 C 
BRANCH   3   4
ATOM      4  C   UNL A   1      32.518  19.157  24.588  1.00  0.00     0.261 C 
BRANCH   4   5
ATOM      5  O   UNL A   1      31.831  20.330  25.088  1.00  0.00    -0.460 OA
BRANCH   5   6
ATOM      6  C   UNL A   1      31.981  21.448  24.330  1.00  0.00     0.341 C 
ATOM      7  O   UNL A   1      32.095  21.489  23.117  1.00  0.00    -0.246 OA
BRANCH   6   8
ATOM      8  C   UNL A   1      31.844  22.697  25.125  1.00  0.00     0.101 A 
ATOM      9  C   UNL A   1      31.732  25.227  26.363  1.00  0.00     0.044 A 
ATOM     10  C   UNL A   1      32.891  24.787  25.736  1.00  0.00     0.027 A 
ATOM     11  C   UNL A   1      30.716  24.313  26.581  1.00  0.00     0.073 A 
ATOM     12  C   UNL A   1      32.935  23.558  25.076  1.00  0.00     0.022 A 
ATOM     13  C   UNL A   1      30.796  23.041  25.987  1.00  0.00     0.132 A 
BRANCH   9  14
ATOM     14  N   UNL A   1      31.647  26.552  26.821  1.00  0.00    -0.326 N 
ATOM     15  C   UNL A   1      32.683  27.467  26.805  1.00  0.00     0.226 C 
ATOM     16  O   UNL A   1      32.763  28.354  27.654  1.00  0.00    -0.275 OA
ATOM     17  H   UNL A   1      30.781  26.853  27.181  1.00  0.00     0.169 HD
BRANCH  15  18
ATOM     18  C   UNL A   1      33.565  27.488  25.557  1.00  0.00     0.125 C 
BRANCH  18  19
ATOM     19  C   UNL A   1      33.460  28.705  24.641  1.00  0.00     0.156 C 
ATOM     20  N   UNL A   1      31.402  28.421  23.442  1.00  0.00    -0.240 N 
ATOM     21  C   UNL A   1      32.264  27.750  22.605  1.00  0.00     0.293 C 
ATOM     22  C   UNL A   1      31.989  29.106  24.496  1.00  0.00     0.248 C 
ATOM     23  O   UNL A   1      32.014  26.908  21.778  1.00  0.00    -0.261 OA
ATOM     24  S   UNL A   1      33.889  28.349  22.915  1.00  0.00    -0.050 SA
ATOM     25  O   UNL A   1      31.454  29.935  25.225  1.00  0.00    -0.273 OA
BRANCH  20  26
ATOM     26  C   UNL A   1      30.116  28.726  22.949  1.00  0.00     0.056 A 
ATOM     27  C   UNL A   1      28.339  31.547  21.070  1.00  0.00     0.044 C 
ATOM     28  C   UNL A   1      28.613  30.291  21.842  1.00  0.00    -0.049 A 
ATOM     29  C   UNL A   1      27.526  29.508  22.245  1.00  0.00     0.004 A 
ATOM     30  C   UNL A   1      29.913  29.897  22.198  1.00  0.00     0.030 A 
ATOM     31  C   UNL A   1      27.724  28.348  22.989  1.00  0.00     0.006 A 
ATOM     32  C   UNL A   1      29.013  27.945  23.359  1.00  0.00    -0.027 A 
ATOM     33  C   UNL A   1      29.126  26.714  24.216  1.00  0.00     0.046 C 
ENDBRANCH  20  26
ENDBRANCH  18  19
ENDBRANCH  15  18
ENDBRANCH   9  14
BRANCH  13  34
ATOM     34  O   UNL A   1      29.823  22.177  26.383  1.00  0.00    -0.507 OA
ATOM     35  H   UNL A   1      29.970  21.253  26.337  1.00  0.00     0.293 HD
ENDBRANCH  13  34
ENDBRANCH   6   8
ENDBRANCH   5   6
ENDBRANCH   4   5
ENDBRANCH   3   4
ENDBRANCH   2   3
ENDBRANCH   1   2
BRANCH   1  36
ATOM     36  C   UNL A   1      36.817  19.651  24.681  1.00  0.00     0.188 C 
BRANCH  36  37
ATOM     37  O   UNL A   1      38.123  19.893  25.170  1.00  0.00    -0.376 OA
BRANCH  37  38
ATOM     38  C   UNL A   1      38.485  21.239  25.384  1.00  0.00     0.202 C 
BRANCH  38  39
ATOM     39  C   UNL A   1      39.783  21.511  26.155  1.00  0.00     0.261 C 
BRANCH  39  40
ATOM     40  O   UNL A   1      39.861  22.486  27.232  1.00  0.00    -0.460 OA
BRANCH  40  41
ATOM     41  C   UNL A   1      39.859  23.837  27.231  1.00  0.00     0.338 C 
ATOM     42  O   UNL A   1      38.912  24.482  26.796  1.00  0.00    -0.246 OA
BRANCH  41  43
ATOM     43  C   UNL A   1      41.099  24.507  27.619  1.00  0.00     0.060 A 
ATOM     44  C   UNL A   1      42.248  23.761  27.431  1.00  0.00     0.016 A 
ATOM     45  C   UNL A   1      41.124  25.717  28.330  1.00  0.00     0.016 A 
ATOM     46  C   UNL A   1      43.350  24.109  28.179  1.00  0.00     0.010 A 
ATOM     47  C   UNL A   1      42.278  26.073  29.044  1.00  0.00     0.010 A 
ATOM     48  C   UNL A   1      43.369  25.208  29.038  1.00  0.00    -0.014 A 
BRANCH  48  49
ATOM     49  C   UNL A   1      44.657  25.405  29.720  1.00  0.00     0.031 A 
ATOM     50  C   UNL A   1      44.629  24.952  31.137  1.00  0.00     0.074 A 
ATOM     51  C   UNL A   1      45.753  26.008  29.212  1.00  0.00     0.049 A 
ATOM     52  N   UNL A   1      44.791  25.663  32.213  1.00  0.00    -0.248 NA
ATOM     53  C   UNL A   1      44.171  23.573  31.376  1.00  0.00     0.031 C 
ATOM     54  C   UNL A   1      45.980  26.417  27.828  1.00  0.00     0.029 A 
ATOM     55  N   UNL A   1      46.944  26.318  29.825  1.00  0.00    -0.354 N 
ATOM     56  C   UNL A   1      44.693  24.750  33.257  1.00  0.00     0.074 A 
ATOM     57  C   UNL A   1      44.120  23.547  32.703  1.00  0.00     0.031 C 
ATOM     58  C   UNL A   1      47.293  26.694  27.657  1.00  0.00     0.029 A 
ATOM     59  C   UNL A   1      47.983  26.564  28.931  1.00  0.00     0.049 A 
ATOM     60  H   UNL A   1      47.052  26.363  30.803  1.00  0.00     0.167 HD
ATOM     61  C   UNL A   1      45.300  24.913  34.461  1.00  0.00     0.031 A 
ATOM     62  C   UNL A   1      49.322  26.553  29.179  1.00  0.00     0.031 A 
ATOM     63  C   UNL A   1      45.641  26.268  34.765  1.00  0.00     0.049 A 
ATOM     64  C   UNL A   1      49.526  26.753  30.631  1.00  0.00     0.074 A 
ATOM     65  C   UNL A   1      44.936  27.439  34.952  1.00  0.00     0.029 A 
ATOM     66  N   UNL A   1      46.959  26.637  34.654  1.00  0.00    -0.354 N 
ATOM     67  N   UNL A   1      49.332  27.883  31.249  1.00  0.00    -0.248 NA
ATOM     68  C   UNL A   1      49.585  25.575  31.482  1.00  0.00     0.031 C 
ATOM     69  C   UNL A   1      45.803  28.481  34.514  1.00  0.00     0.029 A 
ATOM     70  C   UNL A   1      47.000  27.895  34.109  1.00  0.00     0.049 A 
ATOM     71  H   UNL A   1      47.736  26.095  34.919  1.00  0.00     0.167 HD
ATOM     72  C   UNL A   1      48.837  27.524  32.494  1.00  0.00     0.074 A 
ATOM     73  C   UNL A   1      49.091  26.092  32.608  1.00  0.00     0.031 C 
ATOM     74  C   UNL A   1      48.033  28.363  33.208  1.00  0.00     0.031 A 
BRANCH  61  75
ATOM     75  C   UNL A   1      45.895  23.717  35.147  1.00  0.00    -0.014 A 
ATOM     76  C   UNL A   1      45.344  23.190  36.323  1.00  0.00     0.010 A 
ATOM     77  C   UNL A   1      47.150  23.208  34.735  1.00  0.00     0.010 A 
ATOM     78  C   UNL A   1      46.007  22.169  37.024  1.00  0.00     0.020 A 
ATOM     79  C   UNL A   1      47.783  22.157  35.382  1.00  0.00     0.020 A 
ATOM     80  C   UNL A   1      47.215  21.654  36.538  1.00  0.00     0.054 A 
BRANCH  80  81
ATOM     81  S   UNL A   1      48.075  20.342  37.436  1.00  0.00     0.124 S 
ATOM     82  O   UNL A   1      47.028  19.336  37.571  1.00  0.00    -0.237 OA
ATOM     83  O   UNL A   1      49.170  20.008  36.529  1.00  0.00    -0.237 OA
ATOM     84  O   UNL A   1      48.485  20.993  38.679  1.00  0.00    -0.744 OA
ENDBRANCH  80  81
ENDBRANCH  61  75
BRANCH  62  85
ATOM     85  C   UNL A   1      50.395  26.015  28.293  1.00  0.00    -0.014 A 
ATOM     86  C   UNL A   1      50.106  25.446  27.034  1.00  0.00     0.010 A 
ATOM     87  C   UNL A   1      51.745  26.315  28.566  1.00  0.00     0.010 A 
ATOM     88  C   UNL A   1      51.119  25.252  26.072  1.00  0.00     0.020 A 
ATOM     89  C   UNL A   1      52.758  26.111  27.624  1.00  0.00     0.020 A 
ATOM     90  C   UNL A   1      52.437  25.606  26.369  1.00  0.00     0.054 A 
BRANCH  90  91
ATOM     91  S   UNL A   1      53.713  25.549  25.076  1.00  0.00     0.124 S 
ATOM     92  O   UNL A   1      53.952  24.117  24.936  1.00  0.00    -0.237 OA
ATOM     93  O   UNL A   1      53.053  26.197  23.947  1.00  0.00    -0.237 OA
ATOM     94  O   UNL A   1      54.822  26.308  25.656  1.00  0.00    -0.744 OA
ENDBRANCH  90  91
ENDBRANCH  62  85
BRANCH  74  95
ATOM     95  C   UNL A   1      48.037  29.837  32.880  1.00  0.00    -0.014 A 
ATOM     96  C   UNL A   1      48.901  30.783  33.465  1.00  0.00     0.010 A 
ATOM     97  C   UNL A   1      47.199  30.256  31.829  1.00  0.00     0.010 A 
ATOM     98  C   UNL A   1      48.912  32.115  33.016  1.00  0.00     0.020 A 
ATOM     99  C   UNL A   1      47.215  31.575  31.370  1.00  0.00     0.020 A 
ATOM    100  C   UNL A   1      48.067  32.501  31.969  1.00  0.00     0.054 A 
BRANCH 100 101
ATOM    101  S   UNL A   1      48.114  34.212  31.361  1.00  0.00     0.124 S 
ATOM    102  O   UNL A   1      49.461  34.641  31.728  1.00  0.00    -0.237 OA
ATOM    103  O   UNL A   1      47.873  34.056  29.928  1.00  0.00    -0.237 OA
ATOM    104  O   UNL A   1      47.037  34.874  32.095  1.00  0.00    -0.744 OA
ENDBRANCH 100 101
ENDBRANCH  74  95
ENDBRANCH  48  49
ENDBRANCH  41  43
ENDBRANCH  40  41
ENDBRANCH  39  40
ENDBRANCH  38  39
ENDBRANCH  37  38
ENDBRANCH  36  37
ENDBRANCH   1  36
TORSDOF 25
ENDMDL
