MODEL 1
REMARK VINA RESULT:      -9.0      0.000      0.000
REMARK SMILES O=C(C[C@H](c1ccsc1)n1cccc1)OCCOCCOCCOC(=O)c1ccc(-c2c3nc(c(-c4ccc(S(=O)(=O)[O-])cc4)c4ccc([nH]4)c(-c4ccc(S(=O)(=O)[O-])cc4)c4nc(c(-c5ccc(S(=O)(=O)[O-])cc5)c5ccc2[nH]5)C=C4)C=C3)cc1
REMARK SMILES IDX 20 1 19 2 18 3 17 4 16 5 15 6 2 7 1 8 3 9 4 10 10 11 11 12
REMARK SMILES IDX 14 13 12 14 13 15 5 16 6 17 9 18 7 19 8 20 21 21 22 22 23 23
REMARK SMILES IDX 24 24 25 25 26 26 27 27 28 28 86 29 29 30 85 31 30 32 31 33
REMARK SMILES IDX 32 34 79 35 33 36 84 37 78 38 80 39 34 40 83 41 77 42 76 43
REMARK SMILES IDX 35 45 65 46 46 47 64 48 47 49 50 50 63 51 81 52 48 53 49 54
REMARK SMILES IDX 62 56 82 57 51 58 36 59 37 60 45 61 38 62 44 63 39 64 40 65
REMARK SMILES IDX 41 66 42 67 43 68 66 69 67 70 75 71 68 72 74 73 69 74 70 75
REMARK SMILES IDX 71 76 72 77 73 78 52 79 53 80 61 81 54 82 60 83 55 84 56 85
REMARK SMILES IDX 57 86 58 87 59 88
REMARK H PARENT 80 44 50 55
REMARK Flexibility Score: inf
ROOT
ATOM      1  C   UNL A   1      33.397  28.972  26.654  1.00  0.00     0.188 C 
ENDROOT
BRANCH   1   2
ATOM      2  C   UNL A   1      32.494  27.768  26.323  1.00  0.00     0.188 C 
BRANCH   2   3
ATOM      3  O   UNL A   1      31.322  27.902  25.536  1.00  0.00    -0.376 OA
BRANCH   3   4
ATOM      4  C   UNL A   1      31.389  27.919  24.121  1.00  0.00     0.202 C 
BRANCH   4   5
ATOM      5  C   UNL A   1      30.894  26.718  23.309  1.00  0.00     0.261 C 
BRANCH   5   6
ATOM      6  O   UNL A   1      31.599  26.374  22.104  1.00  0.00    -0.463 OA
BRANCH   6   7
ATOM      7  C   UNL A   1      32.756  25.694  21.998  1.00  0.00     0.308 C 
ATOM      8  O   UNL A   1      33.689  26.189  21.370  1.00  0.00    -0.252 OA
BRANCH   7   9
ATOM      9  C   UNL A   1      32.866  24.330  22.611  1.00  0.00     0.153 C 
BRANCH   9  10
ATOM     10  C   UNL A   1      33.313  24.375  24.075  1.00  0.00     0.128 C 
BRANCH  10  11
ATOM     11  N   UNL A   1      32.308  23.828  25.004  1.00  0.00    -0.346 N 
ATOM     12  C   UNL A   1      31.296  22.938  24.754  1.00  0.00     0.086 A 
ATOM     13  C   UNL A   1      32.287  24.135  26.351  1.00  0.00     0.086 A 
ATOM     14  C   UNL A   1      30.553  22.788  25.904  1.00  0.00     0.019 A 
ATOM     15  C   UNL A   1      31.180  23.544  26.915  1.00  0.00     0.019 A 
ENDBRANCH  10  11
BRANCH  10  16
ATOM     16  C   UNL A   1      34.735  23.849  24.240  1.00  0.00    -0.014 A 
ATOM     17  C   UNL A   1      35.466  23.036  23.297  1.00  0.00     0.017 A 
ATOM     18  C   UNL A   1      35.564  24.208  25.291  1.00  0.00     0.070 A 
ATOM     19  C   UNL A   1      36.773  22.817  23.673  1.00  0.00     0.065 A 
ATOM     20  S   UNL A   1      37.145  23.574  25.156  1.00  0.00    -0.152 S 
ENDBRANCH  10  16
ENDBRANCH   9  10
ENDBRANCH   7   9
ENDBRANCH   6   7
ENDBRANCH   5   6
ENDBRANCH   4   5
ENDBRANCH   3   4
ENDBRANCH   2   3
ENDBRANCH   1   2
BRANCH   1  21
ATOM     21  O   UNL A   1      34.693  28.657  27.147  1.00  0.00    -0.376 OA
BRANCH  21  22
ATOM     22  C   UNL A   1      35.310  29.660  27.948  1.00  0.00     0.202 C 
BRANCH  22  23
ATOM     23  C   UNL A   1      34.911  31.078  27.529  1.00  0.00     0.261 C 
BRANCH  23  24
ATOM     24  O   UNL A   1      33.805  31.616  28.252  1.00  0.00    -0.460 OA
BRANCH  24  25
ATOM     25  C   UNL A   1      33.819  32.947  28.362  1.00  0.00     0.338 C 
ATOM     26  O   UNL A   1      33.266  33.767  27.613  1.00  0.00    -0.246 OA
BRANCH  25  27
ATOM     27  C   UNL A   1      34.702  33.379  29.428  1.00  0.00     0.060 A 
ATOM     28  C   UNL A   1      35.862  34.055  29.036  1.00  0.00     0.016 A 
ATOM     29  C   UNL A   1      34.595  32.693  30.644  1.00  0.00     0.016 A 
ATOM     30  C   UNL A   1      37.010  33.845  29.763  1.00  0.00     0.010 A 
ATOM     31  C   UNL A   1      35.755  32.444  31.340  1.00  0.00     0.010 A 
ATOM     32  C   UNL A   1      36.959  32.958  30.845  1.00  0.00    -0.014 A 
BRANCH  32  33
ATOM     33  C   UNL A   1      38.226  32.546  31.452  1.00  0.00     0.031 A 
ATOM     34  C   UNL A   1      38.833  31.361  30.738  1.00  0.00     0.074 A 
ATOM     35  C   UNL A   1      38.602  33.240  32.566  1.00  0.00     0.049 A 
ATOM     36  N   UNL A   1      39.627  30.449  31.200  1.00  0.00    -0.248 NA
ATOM     37  C   UNL A   1      38.428  31.083  29.332  1.00  0.00     0.031 C 
ATOM     38  C   UNL A   1      37.845  34.377  33.144  1.00  0.00     0.029 A 
ATOM     39  N   UNL A   1      39.661  33.143  33.440  1.00  0.00    -0.354 N 
ATOM     40  C   UNL A   1      39.953  29.610  30.123  1.00  0.00     0.074 A 
ATOM     41  C   UNL A   1      39.097  29.972  29.034  1.00  0.00     0.031 C 
ATOM     42  C   UNL A   1      38.424  34.809  34.283  1.00  0.00     0.029 A 
ATOM     43  C   UNL A   1      39.612  34.023  34.548  1.00  0.00     0.049 A 
ATOM     44  H   UNL A   1      40.399  32.506  33.304  1.00  0.00     0.167 HD
ATOM     45  C   UNL A   1      41.007  28.751  30.139  1.00  0.00     0.031 A 
ATOM     46  C   UNL A   1      40.447  34.093  35.626  1.00  0.00     0.031 A 
ATOM     47  C   UNL A   1      41.654  28.754  31.408  1.00  0.00     0.049 A 
ATOM     48  C   UNL A   1      41.536  33.129  35.377  1.00  0.00     0.074 A 
ATOM     49  C   UNL A   1      41.312  28.261  32.641  1.00  0.00     0.029 A 
ATOM     50  N   UNL A   1      42.699  29.636  31.561  1.00  0.00    -0.354 N 
ATOM     51  N   UNL A   1      42.472  33.267  34.488  1.00  0.00    -0.248 NA
ATOM     52  C   UNL A   1      41.556  31.870  36.133  1.00  0.00     0.031 C 
ATOM     53  C   UNL A   1      41.892  29.172  33.556  1.00  0.00     0.029 A 
ATOM     54  C   UNL A   1      42.628  30.124  32.846  1.00  0.00     0.049 A 
ATOM     55  H   UNL A   1      43.371  29.871  30.881  1.00  0.00     0.167 HD
ATOM     56  C   UNL A   1      42.933  31.983  34.325  1.00  0.00     0.074 A 
ATOM     57  C   UNL A   1      42.573  31.264  35.526  1.00  0.00     0.031 C 
ATOM     58  C   UNL A   1      43.090  31.477  33.075  1.00  0.00     0.031 A 
BRANCH  45  59
ATOM     59  C   UNL A   1      41.680  28.066  28.990  1.00  0.00    -0.014 A 
ATOM     60  C   UNL A   1      41.707  26.653  29.009  1.00  0.00     0.010 A 
ATOM     61  C   UNL A   1      42.533  28.727  28.091  1.00  0.00     0.010 A 
ATOM     62  C   UNL A   1      42.636  25.934  28.258  1.00  0.00     0.020 A 
ATOM     63  C   UNL A   1      43.442  28.009  27.303  1.00  0.00     0.020 A 
ATOM     64  C   UNL A   1      43.524  26.622  27.437  1.00  0.00     0.054 A 
BRANCH  64  65
ATOM     65  S   UNL A   1      44.844  25.690  26.620  1.00  0.00     0.124 S 
ATOM     66  O   UNL A   1      46.038  26.231  27.260  1.00  0.00    -0.237 OA
ATOM     67  O   UNL A   1      44.519  24.308  26.967  1.00  0.00    -0.237 OA
ATOM     68  O   UNL A   1      44.675  26.024  25.208  1.00  0.00    -0.744 OA
ENDBRANCH  64  65
ENDBRANCH  45  59
BRANCH  46  69
ATOM     69  C   UNL A   1      40.451  34.777  36.971  1.00  0.00    -0.014 A 
ATOM     70  C   UNL A   1      41.303  35.817  37.362  1.00  0.00     0.010 A 
ATOM     71  C   UNL A   1      39.418  34.445  37.892  1.00  0.00     0.010 A 
ATOM     72  C   UNL A   1      41.052  36.571  38.530  1.00  0.00     0.020 A 
ATOM     73  C   UNL A   1      39.128  35.211  39.022  1.00  0.00     0.020 A 
ATOM     74  C   UNL A   1      39.936  36.294  39.325  1.00  0.00     0.054 A 
BRANCH  74  75
ATOM     75  S   UNL A   1      39.438  37.409  40.667  1.00  0.00     0.124 S 
ATOM     76  O   UNL A   1      40.660  38.166  40.915  1.00  0.00    -0.237 OA
ATOM     77  O   UNL A   1      38.336  38.166  40.076  1.00  0.00    -0.237 OA
ATOM     78  O   UNL A   1      39.042  36.490  41.732  1.00  0.00    -0.744 OA
ENDBRANCH  74  75
ENDBRANCH  46  69
BRANCH  58  79
ATOM     79  C   UNL A   1      43.275  32.524  31.984  1.00  0.00    -0.014 A 
ATOM     80  C   UNL A   1      44.484  33.232  31.875  1.00  0.00     0.010 A 
ATOM     81  C   UNL A   1      42.228  32.895  31.117  1.00  0.00     0.010 A 
ATOM     82  C   UNL A   1      44.636  34.275  30.947  1.00  0.00     0.020 A 
ATOM     83  C   UNL A   1      42.368  33.932  30.182  1.00  0.00     0.020 A 
ATOM     84  C   UNL A   1      43.577  34.621  30.106  1.00  0.00     0.054 A 
BRANCH  84  85
ATOM     85  S   UNL A   1      43.789  35.999  28.939  1.00  0.00     0.124 S 
ATOM     86  O   UNL A   1      44.703  35.445  27.945  1.00  0.00    -0.237 OA
ATOM     87  O   UNL A   1      42.425  36.231  28.473  1.00  0.00    -0.237 OA
ATOM     88  O   UNL A   1      44.353  37.071  29.761  1.00  0.00    -0.744 OA
ENDBRANCH  84  85
ENDBRANCH  58  79
ENDBRANCH  32  33
ENDBRANCH  25  27
ENDBRANCH  24  25
ENDBRANCH  23  24
ENDBRANCH  22  23
ENDBRANCH  21  22
ENDBRANCH   1  21
TORSDOF 23
ENDMDL
MODEL 2
REMARK VINA RESULT:      -9.0      4.177      7.795
REMARK SMILES O=C(C[C@H](c1ccsc1)n1cccc1)OCCOCCOCCOC(=O)c1ccc(-c2c3nc(c(-c4ccc(S(=O)(=O)[O-])cc4)c4ccc([nH]4)c(-c4ccc(S(=O)(=O)[O-])cc4)c4nc(c(-c5ccc(S(=O)(=O)[O-])cc5)c5ccc2[nH]5)C=C4)C=C3)cc1
REMARK SMILES IDX 20 1 19 2 18 3 17 4 16 5 15 6 2 7 1 8 3 9 4 10 10 11 11 12
REMARK SMILES IDX 14 13 12 14 13 15 5 16 6 17 9 18 7 19 8 20 21 21 22 22 23 23
REMARK SMILES IDX 24 24 25 25 26 26 27 27 28 28 86 29 29 30 85 31 30 32 31 33
REMARK SMILES IDX 32 34 79 35 33 36 84 37 78 38 80 39 34 40 83 41 77 42 76 43
REMARK SMILES IDX 35 45 65 46 46 47 64 48 47 49 50 50 63 51 81 52 48 53 49 54
REMARK SMILES IDX 62 56 82 57 51 58 36 59 37 60 45 61 38 62 44 63 39 64 40 65
REMARK SMILES IDX 41 66 42 67 43 68 66 69 67 70 75 71 68 72 74 73 69 74 70 75
REMARK SMILES IDX 71 76 72 77 73 78 52 79 53 80 61 81 54 82 60 83 55 84 56 85
REMARK SMILES IDX 57 86 58 87 59 88
REMARK H PARENT 80 44 50 55
REMARK Flexibility Score: inf
ROOT
ATOM      1  C   UNL A   1      40.309  20.745  26.488  1.00  0.00     0.188 C 
ENDROOT
BRANCH   1   2
ATOM      2  C   UNL A   1      39.564  22.067  26.762  1.00  0.00     0.188 C 
BRANCH   2   3
ATOM      3  O   UNL A   1      38.775  22.702  25.769  1.00  0.00    -0.376 OA
BRANCH   3   4
ATOM      4  C   UNL A   1      37.768  23.634  26.120  1.00  0.00     0.202 C 
BRANCH   4   5
ATOM      5  C   UNL A   1      36.400  23.591  25.431  1.00  0.00     0.261 C 
BRANCH   5   6
ATOM      6  O   UNL A   1      35.222  23.670  26.252  1.00  0.00    -0.463 OA
BRANCH   6   7
ATOM      7  C   UNL A   1      33.939  23.587  25.852  1.00  0.00     0.308 C 
ATOM      8  O   UNL A   1      33.555  22.576  25.269  1.00  0.00    -0.252 OA
BRANCH   7   9
ATOM      9  C   UNL A   1      33.019  24.748  26.088  1.00  0.00     0.153 C 
BRANCH   9  10
ATOM     10  C   UNL A   1      33.423  25.993  25.293  1.00  0.00     0.128 C 
BRANCH  10  11
ATOM     11  N   UNL A   1      33.024  25.929  23.875  1.00  0.00    -0.346 N 
ATOM     12  C   UNL A   1      32.103  25.111  23.274  1.00  0.00     0.086 A 
ATOM     13  C   UNL A   1      33.538  26.776  22.913  1.00  0.00     0.086 A 
ATOM     14  C   UNL A   1      32.131  25.345  21.917  1.00  0.00     0.019 A 
ATOM     15  C   UNL A   1      33.039  26.399  21.688  1.00  0.00     0.019 A 
ENDBRANCH  10  11
BRANCH  10  16
ATOM     16  C   UNL A   1      33.055  27.272  26.036  1.00  0.00    -0.014 A 
ATOM     17  C   UNL A   1      31.803  27.552  26.698  1.00  0.00     0.017 A 
ATOM     18  C   UNL A   1      33.955  28.298  26.280  1.00  0.00     0.070 A 
ATOM     19  C   UNL A   1      31.811  28.746  27.384  1.00  0.00     0.065 A 
ATOM     20  S   UNL A   1      33.308  29.552  27.246  1.00  0.00    -0.152 S 
ENDBRANCH  10  16
ENDBRANCH   9  10
ENDBRANCH   7   9
ENDBRANCH   6   7
ENDBRANCH   5   6
ENDBRANCH   4   5
ENDBRANCH   3   4
ENDBRANCH   2   3
ENDBRANCH   1   2
BRANCH   1  21
ATOM     21  O   UNL A   1      41.554  20.586  27.158  1.00  0.00    -0.376 OA
BRANCH  21  22
ATOM     22  C   UNL A   1      42.670  20.291  26.324  1.00  0.00     0.202 C 
BRANCH  22  23
ATOM     23  C   UNL A   1      43.209  21.528  25.600  1.00  0.00     0.261 C 
BRANCH  23  24
ATOM     24  O   UNL A   1      43.058  22.747  26.326  1.00  0.00    -0.460 OA
BRANCH  24  25
ATOM     25  C   UNL A   1      43.040  23.841  25.560  1.00  0.00     0.338 C 
ATOM     26  O   UNL A   1      43.762  24.084  24.582  1.00  0.00    -0.246 OA
BRANCH  25  27
ATOM     27  C   UNL A   1      42.130  24.839  26.090  1.00  0.00     0.060 A 
ATOM     28  C   UNL A   1      42.228  26.122  25.540  1.00  0.00     0.016 A 
ATOM     29  C   UNL A   1      41.612  24.597  27.367  1.00  0.00     0.016 A 
ATOM     30  C   UNL A   1      42.026  27.199  26.370  1.00  0.00     0.010 A 
ATOM     31  C   UNL A   1      41.459  25.674  28.209  1.00  0.00     0.010 A 
ATOM     32  C   UNL A   1      41.746  26.954  27.719  1.00  0.00    -0.014 A 
BRANCH  32  33
ATOM     33  C   UNL A   1      41.782  28.091  28.642  1.00  0.00     0.031 A 
ATOM     34  C   UNL A   1      43.005  28.055  29.529  1.00  0.00     0.074 A 
ATOM     35  C   UNL A   1      40.706  28.929  28.591  1.00  0.00     0.049 A 
ATOM     36  N   UNL A   1      43.168  28.552  30.714  1.00  0.00    -0.248 NA
ATOM     37  C   UNL A   1      44.193  27.275  29.087  1.00  0.00     0.031 C 
ATOM     38  C   UNL A   1      39.567  28.780  27.653  1.00  0.00     0.029 A 
ATOM     39  N   UNL A   1      40.333  30.049  29.299  1.00  0.00    -0.354 N 
ATOM     40  C   UNL A   1      44.501  28.305  31.078  1.00  0.00     0.074 A 
ATOM     41  C   UNL A   1      45.047  27.416  30.098  1.00  0.00     0.031 C 
ATOM     42  C   UNL A   1      38.624  29.715  27.891  1.00  0.00     0.029 A 
ATOM     43  C   UNL A   1      39.056  30.569  28.979  1.00  0.00     0.049 A 
ATOM     44  H   UNL A   1      40.915  30.460  29.980  1.00  0.00     0.167 HD
ATOM     45  C   UNL A   1      45.129  28.956  32.093  1.00  0.00     0.031 A 
ATOM     46  C   UNL A   1      38.372  31.591  29.571  1.00  0.00     0.031 A 
ATOM     47  C   UNL A   1      44.233  29.827  32.778  1.00  0.00     0.049 A 
ATOM     48  C   UNL A   1      39.280  32.177  30.577  1.00  0.00     0.074 A 
ATOM     49  C   UNL A   1      43.189  29.616  33.641  1.00  0.00     0.029 A 
ATOM     50  N   UNL A   1      44.174  31.125  32.325  1.00  0.00    -0.354 N 
ATOM     51  N   UNL A   1      40.341  32.876  30.313  1.00  0.00    -0.248 NA
ATOM     52  C   UNL A   1      39.029  31.912  31.999  1.00  0.00     0.031 C 
ATOM     53  C   UNL A   1      42.288  30.672  33.367  1.00  0.00     0.029 A 
ATOM     54  C   UNL A   1      42.860  31.523  32.417  1.00  0.00     0.049 A 
ATOM     55  H   UNL A   1      44.929  31.666  31.998  1.00  0.00     0.167 HD
ATOM     56  C   UNL A   1      41.060  32.797  31.481  1.00  0.00     0.074 A 
ATOM     57  C   UNL A   1      40.111  32.481  32.525  1.00  0.00     0.031 C 
ATOM     58  C   UNL A   1      42.380  32.478  31.440  1.00  0.00     0.031 A 
BRANCH  45  59
ATOM     59  C   UNL A   1      46.595  29.064  32.377  1.00  0.00    -0.014 A 
ATOM     60  C   UNL A   1      47.381  29.772  31.439  1.00  0.00     0.010 A 
ATOM     61  C   UNL A   1      47.260  28.261  33.318  1.00  0.00     0.010 A 
ATOM     62  C   UNL A   1      48.761  29.586  31.360  1.00  0.00     0.020 A 
ATOM     63  C   UNL A   1      48.651  28.102  33.271  1.00  0.00     0.020 A 
ATOM     64  C   UNL A   1      49.382  28.721  32.255  1.00  0.00     0.054 A 
BRANCH  64  65
ATOM     65  S   UNL A   1      51.137  28.345  32.017  1.00  0.00     0.124 S 
ATOM     66  O   UNL A   1      51.666  29.632  31.575  1.00  0.00    -0.237 OA
ATOM     67  O   UNL A   1      51.555  27.922  33.352  1.00  0.00    -0.237 OA
ATOM     68  O   UNL A   1      51.127  27.286  31.012  1.00  0.00    -0.744 OA
ENDBRANCH  64  65
ENDBRANCH  45  59
BRANCH  46  69
ATOM     69  C   UNL A   1      36.968  32.141  29.536  1.00  0.00    -0.014 A 
ATOM     70  C   UNL A   1      36.253  32.644  30.630  1.00  0.00     0.010 A 
ATOM     71  C   UNL A   1      36.345  32.300  28.265  1.00  0.00     0.010 A 
ATOM     72  C   UNL A   1      35.062  33.383  30.452  1.00  0.00     0.020 A 
ATOM     73  C   UNL A   1      35.197  33.069  28.069  1.00  0.00     0.020 A 
ATOM     74  C   UNL A   1      34.570  33.633  29.167  1.00  0.00     0.054 A 
BRANCH  74  75
ATOM     75  S   UNL A   1      33.208  34.800  28.895  1.00  0.00     0.124 S 
ATOM     76  O   UNL A   1      32.602  34.890  30.219  1.00  0.00    -0.237 OA
ATOM     77  O   UNL A   1      33.892  36.004  28.430  1.00  0.00    -0.237 OA
ATOM     78  O   UNL A   1      32.397  34.131  27.877  1.00  0.00    -0.744 OA
ENDBRANCH  74  75
ENDBRANCH  46  69
BRANCH  58  79
ATOM     79  C   UNL A   1      43.065  32.777  30.114  1.00  0.00    -0.014 A 
ATOM     80  C   UNL A   1      43.358  34.102  29.747  1.00  0.00     0.010 A 
ATOM     81  C   UNL A   1      43.338  31.769  29.168  1.00  0.00     0.010 A 
ATOM     82  C   UNL A   1      43.890  34.408  28.484  1.00  0.00     0.020 A 
ATOM     83  C   UNL A   1      43.875  32.060  27.904  1.00  0.00     0.020 A 
ATOM     84  C   UNL A   1      44.144  33.385  27.567  1.00  0.00     0.054 A 
BRANCH  84  85
ATOM     85  S   UNL A   1      44.799  33.812  25.926  1.00  0.00     0.124 S 
ATOM     86  O   UNL A   1      43.685  33.488  25.038  1.00  0.00    -0.237 OA
ATOM     87  O   UNL A   1      45.093  35.235  26.064  1.00  0.00    -0.237 OA
ATOM     88  O   UNL A   1      45.971  32.949  25.779  1.00  0.00    -0.744 OA
ENDBRANCH  84  85
ENDBRANCH  58  79
ENDBRANCH  32  33
ENDBRANCH  25  27
ENDBRANCH  24  25
ENDBRANCH  23  24
ENDBRANCH  22  23
ENDBRANCH  21  22
ENDBRANCH   1  21
TORSDOF 23
ENDMDL
MODEL 3
REMARK VINA RESULT:      -9.0      1.656      2.352
REMARK SMILES O=C(C[C@H](c1ccsc1)n1cccc1)OCCOCCOCCOC(=O)c1ccc(-c2c3nc(c(-c4ccc(S(=O)(=O)[O-])cc4)c4ccc([nH]4)c(-c4ccc(S(=O)(=O)[O-])cc4)c4nc(c(-c5ccc(S(=O)(=O)[O-])cc5)c5ccc2[nH]5)C=C4)C=C3)cc1
REMARK SMILES IDX 20 1 19 2 18 3 17 4 16 5 15 6 2 7 1 8 3 9 4 10 10 11 11 12
REMARK SMILES IDX 14 13 12 14 13 15 5 16 6 17 9 18 7 19 8 20 21 21 22 22 23 23
REMARK SMILES IDX 24 24 25 25 26 26 27 27 28 28 86 29 29 30 85 31 30 32 31 33
REMARK SMILES IDX 32 34 79 35 33 36 84 37 78 38 80 39 34 40 83 41 77 42 76 43
REMARK SMILES IDX 35 45 65 46 46 47 64 48 47 49 50 50 63 51 81 52 48 53 49 54
REMARK SMILES IDX 62 56 82 57 51 58 36 59 37 60 45 61 38 62 44 63 39 64 40 65
REMARK SMILES IDX 41 66 42 67 43 68 66 69 67 70 75 71 68 72 74 73 69 74 70 75
REMARK SMILES IDX 71 76 72 77 73 78 52 79 53 80 61 81 54 82 60 83 55 84 56 85
REMARK SMILES IDX 57 86 58 87 59 88
REMARK H PARENT 80 44 50 55
REMARK Flexibility Score: inf
ROOT
ATOM      1  C   UNL A   1      33.570  28.371  26.534  1.00  0.00     0.188 C 
ENDROOT
BRANCH   1   2
ATOM      2  C   UNL A   1      33.211  26.893  26.284  1.00  0.00     0.188 C 
BRANCH   2   3
ATOM      3  O   UNL A   1      32.262  26.507  25.303  1.00  0.00    -0.376 OA
BRANCH   3   4
ATOM      4  C   UNL A   1      30.886  26.395  25.619  1.00  0.00     0.202 C 
BRANCH   4   5
ATOM      5  C   UNL A   1      30.284  25.032  25.979  1.00  0.00     0.261 C 
BRANCH   5   6
ATOM      6  O   UNL A   1      30.840  24.315  27.094  1.00  0.00    -0.463 OA
BRANCH   6   7
ATOM      7  C   UNL A   1      31.620  23.219  27.055  1.00  0.00     0.308 C 
ATOM      8  O   UNL A   1      32.419  23.016  27.966  1.00  0.00    -0.252 OA
BRANCH   7   9
ATOM      9  C   UNL A   1      31.528  22.292  25.880  1.00  0.00     0.153 C 
BRANCH   9  10
ATOM     10  C   UNL A   1      32.867  22.120  25.156  1.00  0.00     0.128 C 
BRANCH  10  11
ATOM     11  N   UNL A   1      33.087  20.749  24.664  1.00  0.00    -0.346 N 
ATOM     12  C   UNL A   1      32.286  19.982  23.858  1.00  0.00     0.086 A 
ATOM     13  C   UNL A   1      34.232  20.027  24.942  1.00  0.00     0.086 A 
ATOM     14  C   UNL A   1      32.855  18.734  23.737  1.00  0.00     0.019 A 
ATOM     15  C   UNL A   1      34.087  18.762  24.422  1.00  0.00     0.019 A 
ENDBRANCH  10  11
BRANCH  10  16
ATOM     16  C   UNL A   1      33.104  23.240  24.149  1.00  0.00    -0.014 A 
ATOM     17  C   UNL A   1      34.311  24.016  23.994  1.00  0.00     0.017 A 
ATOM     18  C   UNL A   1      32.203  23.568  23.148  1.00  0.00     0.070 A 
ATOM     19  C   UNL A   1      34.265  24.876  22.919  1.00  0.00     0.065 A 
ATOM     20  S   UNL A   1      32.782  24.773  22.083  1.00  0.00    -0.152 S 
ENDBRANCH  10  16
ENDBRANCH   9  10
ENDBRANCH   7   9
ENDBRANCH   6   7
ENDBRANCH   5   6
ENDBRANCH   4   5
ENDBRANCH   3   4
ENDBRANCH   2   3
ENDBRANCH   1   2
BRANCH   1  21
ATOM     21  O   UNL A   1      34.342  28.632  27.699  1.00  0.00    -0.376 OA
BRANCH  21  22
ATOM     22  C   UNL A   1      35.150  29.804  27.655  1.00  0.00     0.202 C 
BRANCH  22  23
ATOM     23  C   UNL A   1      34.355  31.054  27.266  1.00  0.00     0.261 C 
BRANCH  23  24
ATOM     24  O   UNL A   1      33.657  31.668  28.348  1.00  0.00    -0.460 OA
BRANCH  24  25
ATOM     25  C   UNL A   1      33.778  32.998  28.393  1.00  0.00     0.338 C 
ATOM     26  O   UNL A   1      33.318  33.820  27.587  1.00  0.00    -0.246 OA
BRANCH  25  27
ATOM     27  C   UNL A   1      34.663  33.410  29.466  1.00  0.00     0.060 A 
ATOM     28  C   UNL A   1      35.856  34.031  29.082  1.00  0.00     0.016 A 
ATOM     29  C   UNL A   1      34.510  32.749  30.690  1.00  0.00     0.016 A 
ATOM     30  C   UNL A   1      36.983  33.786  29.830  1.00  0.00     0.010 A 
ATOM     31  C   UNL A   1      35.647  32.464  31.409  1.00  0.00     0.010 A 
ATOM     32  C   UNL A   1      36.879  32.919  30.924  1.00  0.00    -0.014 A 
BRANCH  32  33
ATOM     33  C   UNL A   1      38.118  32.466  31.558  1.00  0.00     0.031 A 
ATOM     34  C   UNL A   1      38.650  31.206  30.914  1.00  0.00     0.074 A 
ATOM     35  C   UNL A   1      38.538  33.198  32.631  1.00  0.00     0.049 A 
ATOM     36  N   UNL A   1      39.387  30.275  31.430  1.00  0.00    -0.248 NA
ATOM     37  C   UNL A   1      38.228  30.873  29.526  1.00  0.00     0.031 C 
ATOM     38  C   UNL A   1      37.853  34.411  33.140  1.00  0.00     0.029 A 
ATOM     39  N   UNL A   1      39.589  33.086  33.512  1.00  0.00    -0.354 N 
ATOM     40  C   UNL A   1      39.659  29.356  30.404  1.00  0.00     0.074 A 
ATOM     41  C   UNL A   1      38.827  29.707  29.294  1.00  0.00     0.031 C 
ATOM     42  C   UNL A   1      38.459  34.872  34.254  1.00  0.00     0.029 A 
ATOM     43  C   UNL A   1      39.596  34.030  34.566  1.00  0.00     0.049 A 
ATOM     44  H   UNL A   1      40.287  32.398  33.415  1.00  0.00     0.167 HD
ATOM     45  C   UNL A   1      40.658  28.437  30.473  1.00  0.00     0.031 A 
ATOM     46  C   UNL A   1      40.435  34.110  35.641  1.00  0.00     0.031 A 
ATOM     47  C   UNL A   1      41.305  28.473  31.741  1.00  0.00     0.049 A 
ATOM     48  C   UNL A   1      41.462  33.068  35.451  1.00  0.00     0.074 A 
ATOM     49  C   UNL A   1      40.935  28.074  32.999  1.00  0.00     0.029 A 
ATOM     50  N   UNL A   1      42.403  29.295  31.846  1.00  0.00    -0.354 N 
ATOM     51  N   UNL A   1      42.403  33.096  34.559  1.00  0.00    -0.248 NA
ATOM     52  C   UNL A   1      41.405  31.856  36.279  1.00  0.00     0.031 C 
ATOM     53  C   UNL A   1      41.570  28.998  33.862  1.00  0.00     0.029 A 
ATOM     54  C   UNL A   1      42.364  29.860  33.100  1.00  0.00     0.049 A 
ATOM     55  H   UNL A   1      43.087  29.450  31.155  1.00  0.00     0.167 HD
ATOM     56  C   UNL A   1      42.784  31.779  34.471  1.00  0.00     0.074 A 
ATOM     57  C   UNL A   1      42.382  31.154  35.710  1.00  0.00     0.031 C 
ATOM     58  C   UNL A   1      42.908  31.194  33.252  1.00  0.00     0.031 A 
BRANCH  45  59
ATOM     59  C   UNL A   1      41.287  27.647  29.367  1.00  0.00    -0.014 A 
ATOM     60  C   UNL A   1      42.672  27.831  29.151  1.00  0.00     0.010 A 
ATOM     61  C   UNL A   1      40.547  26.999  28.364  1.00  0.00     0.010 A 
ATOM     62  C   UNL A   1      43.268  27.502  27.934  1.00  0.00     0.020 A 
ATOM     63  C   UNL A   1      41.149  26.628  27.154  1.00  0.00     0.020 A 
ATOM     64  C   UNL A   1      42.492  26.935  26.929  1.00  0.00     0.054 A 
BRANCH  64  65
ATOM     65  S   UNL A   1      43.235  26.692  25.296  1.00  0.00     0.124 S 
ATOM     66  O   UNL A   1      42.602  27.749  24.514  1.00  0.00    -0.237 OA
ATOM     67  O   UNL A   1      44.660  26.879  25.565  1.00  0.00    -0.237 OA
ATOM     68  O   UNL A   1      42.850  25.327  24.945  1.00  0.00    -0.744 OA
ENDBRANCH  64  65
ENDBRANCH  45  59
BRANCH  46  69
ATOM     69  C   UNL A   1      40.483  34.869  36.945  1.00  0.00    -0.014 A 
ATOM     70  C   UNL A   1      39.693  34.615  38.073  1.00  0.00     0.010 A 
ATOM     71  C   UNL A   1      41.508  35.842  37.113  1.00  0.00     0.010 A 
ATOM     72  C   UNL A   1      39.998  35.192  39.327  1.00  0.00     0.020 A 
ATOM     73  C   UNL A   1      41.851  36.381  38.355  1.00  0.00     0.020 A 
ATOM     74  C   UNL A   1      41.107  36.032  39.468  1.00  0.00     0.054 A 
BRANCH  74  75
ATOM     75  S   UNL A   1      41.679  36.563  41.106  1.00  0.00     0.124 S 
ATOM     76  O   UNL A   1      42.446  37.765  40.796  1.00  0.00    -0.237 OA
ATOM     77  O   UNL A   1      40.433  36.781  41.837  1.00  0.00    -0.237 OA
ATOM     78  O   UNL A   1      42.464  35.419  41.569  1.00  0.00    -0.744 OA
ENDBRANCH  74  75
ENDBRANCH  46  69
BRANCH  58  79
ATOM     79  C   UNL A   1      43.157  32.162  32.104  1.00  0.00    -0.014 A 
ATOM     80  C   UNL A   1      44.396  32.813  31.977  1.00  0.00     0.010 A 
ATOM     81  C   UNL A   1      42.142  32.520  31.194  1.00  0.00     0.010 A 
ATOM     82  C   UNL A   1      44.609  33.789  30.990  1.00  0.00     0.020 A 
ATOM     83  C   UNL A   1      42.343  33.490  30.200  1.00  0.00     0.020 A 
ATOM     84  C   UNL A   1      43.580  34.125  30.107  1.00  0.00     0.054 A 
BRANCH  84  85
ATOM     85  S   UNL A   1      43.871  35.418  28.863  1.00  0.00     0.124 S 
ATOM     86  O   UNL A   1      42.517  35.827  28.498  1.00  0.00    -0.237 OA
ATOM     87  O   UNL A   1      44.642  36.407  29.610  1.00  0.00    -0.237 OA
ATOM     88  O   UNL A   1      44.609  34.729  27.804  1.00  0.00    -0.744 OA
ENDBRANCH  84  85
ENDBRANCH  58  79
ENDBRANCH  32  33
ENDBRANCH  25  27
ENDBRANCH  24  25
ENDBRANCH  23  24
ENDBRANCH  22  23
ENDBRANCH  21  22
ENDBRANCH   1  21
TORSDOF 23
ENDMDL
