MODEL 1
REMARK VINA RESULT:     -10.1      0.000      0.000
REMARK SMILES O=C(OCCOCCOCCOC(=O)[C@@H]1CCCN1S(=O)(=O)c1ccc2c3c(cccc13)C(=O)N2)c1ccc(-c2c3nc(c(-c4ccc(S(=O)(=O)[O-])cc4)c4ccc([nH]4)c(-c4ccc(S(=O)(=O)[O-])cc4)c4nc(c(-c5ccc(S(=O)(=O)[O-])cc5)c5ccc2[nH]5)C=C4)C=C3)cc1
REMARK SMILES IDX 7 1 6 2 5 3 4 4 3 5 2 6 1 7 36 8 37 9 95 10 38 11 94 12
REMARK SMILES IDX 39 13 40 14 41 15 88 16 42 17 93 18 87 19 89 20 43 21 92 22
REMARK SMILES IDX 86 23 85 24 44 26 74 27 55 28 73 29 56 30 59 31 72 32 90 33
REMARK SMILES IDX 57 34 58 35 71 37 91 38 60 39 45 40 46 41 54 42 47 43 53 44
REMARK SMILES IDX 48 45 49 46 50 47 51 48 52 49 75 50 76 51 84 52 77 53 83 54
REMARK SMILES IDX 78 55 79 56 80 57 81 58 82 59 61 60 62 61 70 62 63 63 69 64
REMARK SMILES IDX 64 65 65 66 66 67 67 68 68 69 8 70 9 71 10 72 11 73 12 74
REMARK SMILES IDX 13 75 14 76 15 77 16 78 19 79 17 80 18 81 20 82 21 83 22 84
REMARK SMILES IDX 23 85 24 86 32 87 25 88 27 89 31 90 26 91 28 92 30 93 35 94
REMARK SMILES IDX 29 95 33 96 34 98
REMARK H PARENT 89 25 59 36 35 97
REMARK Flexibility Score: inf
ROOT
ATOM      1  C   UNL A   1      33.762  28.136  26.459  1.00  0.00     0.188 C 
ENDROOT
BRANCH   1   2
ATOM      2  O   UNL A   1      34.182  28.925  27.576  1.00  0.00    -0.376 OA
BRANCH   2   3
ATOM      3  C   UNL A   1      34.718  30.211  27.280  1.00  0.00     0.202 C 
BRANCH   3   4
ATOM      4  C   UNL A   1      35.264  30.946  28.508  1.00  0.00     0.261 C 
BRANCH   4   5
ATOM      5  O   UNL A   1      36.696  31.032  28.443  1.00  0.00    -0.460 OA
BRANCH   5   6
ATOM      6  C   UNL A   1      37.435  30.450  29.421  1.00  0.00     0.338 C 
ATOM      7  O   UNL A   1      37.299  30.758  30.598  1.00  0.00    -0.246 OA
BRANCH   6   8
ATOM      8  C   UNL A   1      38.633  29.678  28.965  1.00  0.00     0.060 A 
ATOM      9  C   UNL A   1      39.602  29.173  29.838  1.00  0.00     0.016 A 
ATOM     10  C   UNL A   1      38.831  29.521  27.583  1.00  0.00     0.016 A 
ATOM     11  C   UNL A   1      40.746  28.542  29.355  1.00  0.00     0.010 A 
ATOM     12  C   UNL A   1      40.011  28.947  27.089  1.00  0.00     0.010 A 
ATOM     13  C   UNL A   1      40.996  28.506  27.980  1.00  0.00    -0.014 A 
BRANCH  13  14
ATOM     14  C   UNL A   1      42.410  28.345  27.561  1.00  0.00     0.031 A 
ATOM     15  C   UNL A   1      43.323  29.517  27.811  1.00  0.00     0.074 A 
ATOM     16  C   UNL A   1      42.909  27.185  27.100  1.00  0.00     0.049 A 
ATOM     17  N   UNL A   1      44.626  29.563  27.778  1.00  0.00    -0.248 NA
ATOM     18  C   UNL A   1      42.685  30.783  28.224  1.00  0.00     0.031 C 
ATOM     19  C   UNL A   1      42.148  25.959  26.906  1.00  0.00     0.029 A 
ATOM     20  N   UNL A   1      44.185  26.840  26.737  1.00  0.00    -0.354 N 
ATOM     21  C   UNL A   1      44.961  30.819  28.266  1.00  0.00     0.074 A 
ATOM     22  C   UNL A   1      43.733  31.518  28.560  1.00  0.00     0.031 C 
ATOM     23  C   UNL A   1      42.964  24.987  26.464  1.00  0.00     0.029 A 
ATOM     24  C   UNL A   1      44.308  25.535  26.319  1.00  0.00     0.049 A 
ATOM     25  H   UNL A   1      44.942  27.467  26.773  1.00  0.00     0.167 HD
ATOM     26  C   UNL A   1      46.189  31.346  28.446  1.00  0.00     0.031 A 
ATOM     27  C   UNL A   1      45.385  24.870  25.858  1.00  0.00     0.031 A 
ATOM     28  C   UNL A   1      47.392  30.725  27.983  1.00  0.00     0.049 A 
ATOM     29  C   UNL A   1      46.702  25.593  25.795  1.00  0.00     0.074 A 
ATOM     30  C   UNL A   1      48.676  31.234  27.978  1.00  0.00     0.029 A 
ATOM     31  N   UNL A   1      47.445  29.477  27.383  1.00  0.00    -0.354 N 
ATOM     32  N   UNL A   1      47.006  26.780  26.266  1.00  0.00    -0.248 NA
ATOM     33  C   UNL A   1      47.814  24.900  25.133  1.00  0.00     0.031 C 
ATOM     34  C   UNL A   1      49.497  30.318  27.313  1.00  0.00     0.029 A 
ATOM     35  C   UNL A   1      48.732  29.218  26.956  1.00  0.00     0.049 A 
ATOM     36  H   UNL A   1      46.680  28.867  27.277  1.00  0.00     0.167 HD
ATOM     37  C   UNL A   1      48.352  26.967  25.976  1.00  0.00     0.074 A 
ATOM     38  C   UNL A   1      48.803  25.773  25.290  1.00  0.00     0.031 C 
ATOM     39  C   UNL A   1      49.145  28.026  26.262  1.00  0.00     0.031 A 
BRANCH  26  40
ATOM     40  C   UNL A   1      46.272  32.683  29.113  1.00  0.00    -0.014 A 
ATOM     41  C   UNL A   1      46.484  32.764  30.500  1.00  0.00     0.010 A 
ATOM     42  C   UNL A   1      46.171  33.861  28.355  1.00  0.00     0.010 A 
ATOM     43  C   UNL A   1      46.604  34.010  31.120  1.00  0.00     0.020 A 
ATOM     44  C   UNL A   1      46.295  35.108  28.971  1.00  0.00     0.020 A 
ATOM     45  C   UNL A   1      46.516  35.174  30.350  1.00  0.00     0.054 A 
BRANCH  45  46
ATOM     46  S   UNL A   1      46.713  36.773  31.179  1.00  0.00     0.124 S 
ATOM     47  O   UNL A   1      46.671  37.708  30.057  1.00  0.00    -0.237 OA
ATOM     48  O   UNL A   1      45.556  36.807  32.070  1.00  0.00    -0.237 OA
ATOM     49  O   UNL A   1      48.010  36.664  31.843  1.00  0.00    -0.744 OA
ENDBRANCH  45  46
ENDBRANCH  26  40
BRANCH  27  50
ATOM     50  C   UNL A   1      45.262  23.468  25.378  1.00  0.00    -0.014 A 
ATOM     51  C   UNL A   1      44.733  23.183  24.107  1.00  0.00     0.010 A 
ATOM     52  C   UNL A   1      45.652  22.401  26.210  1.00  0.00     0.010 A 
ATOM     53  C   UNL A   1      44.587  21.859  23.682  1.00  0.00     0.020 A 
ATOM     54  C   UNL A   1      45.525  21.077  25.781  1.00  0.00     0.020 A 
ATOM     55  C   UNL A   1      44.988  20.814  24.521  1.00  0.00     0.054 A 
BRANCH  55  56
ATOM     56  S   UNL A   1      44.799  19.106  23.938  1.00  0.00     0.124 S 
ATOM     57  O   UNL A   1      43.671  18.631  24.734  1.00  0.00    -0.237 OA
ATOM     58  O   UNL A   1      44.535  19.296  22.514  1.00  0.00    -0.237 OA
ATOM     59  O   UNL A   1      46.087  18.492  24.252  1.00  0.00    -0.744 OA
ENDBRANCH  55  56
ENDBRANCH  27  50
BRANCH  39  60
ATOM     60  C   UNL A   1      50.584  27.947  25.848  1.00  0.00    -0.014 A 
ATOM     61  C   UNL A   1      51.005  28.465  24.612  1.00  0.00     0.010 A 
ATOM     62  C   UNL A   1      51.534  27.442  26.752  1.00  0.00     0.010 A 
ATOM     63  C   UNL A   1      52.361  28.472  24.285  1.00  0.00     0.020 A 
ATOM     64  C   UNL A   1      52.893  27.468  26.437  1.00  0.00     0.020 A 
ATOM     65  C   UNL A   1      53.297  27.981  25.203  1.00  0.00     0.054 A 
BRANCH  65  66
ATOM     66  S   UNL A   1      55.055  28.062  24.772  1.00  0.00     0.124 S 
ATOM     67  O   UNL A   1      55.618  26.983  25.581  1.00  0.00    -0.237 OA
ATOM     68  O   UNL A   1      55.037  27.823  23.331  1.00  0.00    -0.237 OA
ATOM     69  O   UNL A   1      55.451  29.410  25.172  1.00  0.00    -0.744 OA
ENDBRANCH  65  66
ENDBRANCH  39  60
ENDBRANCH  13  14
ENDBRANCH   6   8
ENDBRANCH   5   6
ENDBRANCH   4   5
ENDBRANCH   3   4
ENDBRANCH   2   3
ENDBRANCH   1   2
BRANCH   1  70
ATOM     70  C   UNL A   1      32.707  27.090  26.790  1.00  0.00     0.188 C 
BRANCH  70  71
ATOM     71  O   UNL A   1      32.828  25.781  26.228  1.00  0.00    -0.376 OA
BRANCH  71  72
ATOM     72  C   UNL A   1      31.854  24.792  26.555  1.00  0.00     0.202 C 
BRANCH  72  73
ATOM     73  C   UNL A   1      30.436  25.108  26.068  1.00  0.00     0.261 C 
BRANCH  73  74
ATOM     74  O   UNL A   1      30.277  26.491  25.698  1.00  0.00    -0.462 OA
BRANCH  74  75
ATOM     75  C   UNL A   1      29.901  26.711  24.404  1.00  0.00     0.324 C 
ATOM     76  O   UNL A   1      28.956  26.149  23.860  1.00  0.00    -0.250 OA
BRANCH  75  77
ATOM     77  C   UNL A   1      30.763  27.724  23.701  1.00  0.00     0.183 C 
ATOM     78  C   UNL A   1      30.136  28.491  22.545  1.00  0.00     0.034 C 
ATOM     79  N   UNL A   1      32.156  27.438  23.209  1.00  0.00    -0.184 NA
ATOM     80  C   UNL A   1      31.247  29.465  22.179  1.00  0.00     0.019 C 
ATOM     81  C   UNL A   1      32.552  28.772  22.597  1.00  0.00     0.103 C 
BRANCH  79  82
ATOM     82  S   UNL A   1      32.498  26.153  22.114  1.00  0.00     0.244 S 
ATOM     83  O   UNL A   1      31.420  26.114  21.144  1.00  0.00    -0.207 OA
ATOM     84  O   UNL A   1      33.850  26.382  21.648  1.00  0.00    -0.207 OA
BRANCH  82  85
ATOM     85  C   UNL A   1      32.462  24.580  22.958  1.00  0.00     0.090 A 
ATOM     86  C   UNL A   1      31.249  23.864  22.861  1.00  0.00     0.024 A 
ATOM     87  C   UNL A   1      33.627  23.906  23.443  1.00  0.00     0.005 A 
ATOM     88  C   UNL A   1      31.064  22.556  23.326  1.00  0.00     0.028 A 
ATOM     89  C   UNL A   1      33.406  22.614  23.849  1.00  0.00     0.019 A 
ATOM     90  C   UNL A   1      34.991  24.292  23.529  1.00  0.00     0.010 A 
ATOM     91  C   UNL A   1      32.195  21.959  23.817  1.00  0.00     0.050 A 
ATOM     92  C   UNL A   1      34.357  21.700  24.282  1.00  0.00     0.050 A 
ATOM     93  C   UNL A   1      35.991  23.391  23.959  1.00  0.00     0.002 A 
ATOM     94  N   UNL A   1      32.389  20.670  24.264  1.00  0.00    -0.321 N 
ATOM     95  C   UNL A   1      35.693  22.074  24.341  1.00  0.00     0.014 A 
ATOM     96  C   UNL A   1      33.729  20.423  24.571  1.00  0.00     0.256 C 
ATOM     97  H   UNL A   1      31.670  20.003  24.355  1.00  0.00     0.170 HD
ATOM     98  O   UNL A   1      34.167  19.350  24.959  1.00  0.00    -0.269 OA
ENDBRANCH  82  85
ENDBRANCH  79  82
ENDBRANCH  75  77
ENDBRANCH  74  75
ENDBRANCH  73  74
ENDBRANCH  72  73
ENDBRANCH  71  72
ENDBRANCH  70  71
ENDBRANCH   1  70
TORSDOF 22
ENDMDL
MODEL 2
REMARK VINA RESULT:     -10.0      6.143     10.856
REMARK SMILES O=C(OCCOCCOCCOC(=O)[C@@H]1CCCN1S(=O)(=O)c1ccc2c3c(cccc13)C(=O)N2)c1ccc(-c2c3nc(c(-c4ccc(S(=O)(=O)[O-])cc4)c4ccc([nH]4)c(-c4ccc(S(=O)(=O)[O-])cc4)c4nc(c(-c5ccc(S(=O)(=O)[O-])cc5)c5ccc2[nH]5)C=C4)C=C3)cc1
REMARK SMILES IDX 7 1 6 2 5 3 4 4 3 5 2 6 1 7 36 8 37 9 95 10 38 11 94 12
REMARK SMILES IDX 39 13 40 14 41 15 88 16 42 17 93 18 87 19 89 20 43 21 92 22
REMARK SMILES IDX 86 23 85 24 44 26 74 27 55 28 73 29 56 30 59 31 72 32 90 33
REMARK SMILES IDX 57 34 58 35 71 37 91 38 60 39 45 40 46 41 54 42 47 43 53 44
REMARK SMILES IDX 48 45 49 46 50 47 51 48 52 49 75 50 76 51 84 52 77 53 83 54
REMARK SMILES IDX 78 55 79 56 80 57 81 58 82 59 61 60 62 61 70 62 63 63 69 64
REMARK SMILES IDX 64 65 65 66 66 67 67 68 68 69 8 70 9 71 10 72 11 73 12 74
REMARK SMILES IDX 13 75 14 76 15 77 16 78 19 79 17 80 18 81 20 82 21 83 22 84
REMARK SMILES IDX 23 85 24 86 32 87 25 88 27 89 31 90 26 91 28 92 30 93 35 94
REMARK SMILES IDX 29 95 33 96 34 98
REMARK H PARENT 89 25 59 36 35 97
REMARK Flexibility Score: inf
ROOT
ATOM      1  C   UNL A   1      33.944  28.294  26.692  1.00  0.00     0.188 C 
ENDROOT
BRANCH   1   2
ATOM      2  O   UNL A   1      34.086  29.306  27.695  1.00  0.00    -0.376 OA
BRANCH   2   3
ATOM      3  C   UNL A   1      34.460  30.602  27.240  1.00  0.00     0.202 C 
BRANCH   3   4
ATOM      4  C   UNL A   1      33.497  31.709  27.681  1.00  0.00     0.261 C 
BRANCH   4   5
ATOM      5  O   UNL A   1      34.230  32.863  28.121  1.00  0.00    -0.460 OA
BRANCH   5   6
ATOM      6  C   UNL A   1      33.793  33.544  29.210  1.00  0.00     0.338 C 
ATOM      7  O   UNL A   1      32.901  34.379  29.130  1.00  0.00    -0.246 OA
BRANCH   6   8
ATOM      8  C   UNL A   1      34.668  33.472  30.423  1.00  0.00     0.060 A 
ATOM      9  C   UNL A   1      35.141  34.601  31.098  1.00  0.00     0.016 A 
ATOM     10  C   UNL A   1      35.094  32.205  30.855  1.00  0.00     0.016 A 
ATOM     11  C   UNL A   1      36.027  34.480  32.166  1.00  0.00     0.010 A 
ATOM     12  C   UNL A   1      36.038  32.080  31.885  1.00  0.00     0.010 A 
ATOM     13  C   UNL A   1      36.547  33.227  32.505  1.00  0.00    -0.014 A 
BRANCH  13  14
ATOM     14  C   UNL A   1      37.842  33.213  33.227  1.00  0.00     0.031 A 
ATOM     15  C   UNL A   1      39.085  33.138  32.378  1.00  0.00     0.074 A 
ATOM     16  C   UNL A   1      37.940  33.384  34.557  1.00  0.00     0.049 A 
ATOM     17  N   UNL A   1      40.325  33.358  32.718  1.00  0.00    -0.248 NA
ATOM     18  C   UNL A   1      38.895  32.852  30.942  1.00  0.00     0.031 C 
ATOM     19  C   UNL A   1      36.819  33.561  35.468  1.00  0.00     0.029 A 
ATOM     20  N   UNL A   1      39.041  33.466  35.370  1.00  0.00    -0.354 N 
ATOM     21  C   UNL A   1      41.039  33.341  31.528  1.00  0.00     0.074 A 
ATOM     22  C   UNL A   1      40.110  33.062  30.460  1.00  0.00     0.031 C 
ATOM     23  C   UNL A   1      37.278  33.737  36.718  1.00  0.00     0.029 A 
ATOM     24  C   UNL A   1      38.735  33.658  36.698  1.00  0.00     0.049 A 
ATOM     25  H   UNL A   1      39.963  33.394  35.036  1.00  0.00     0.167 HD
ATOM     26  C   UNL A   1      42.361  33.536  31.344  1.00  0.00     0.031 A 
ATOM     27  C   UNL A   1      39.545  33.745  37.771  1.00  0.00     0.031 A 
ATOM     28  C   UNL A   1      43.304  33.628  32.416  1.00  0.00     0.049 A 
ATOM     29  C   UNL A   1      41.031  33.661  37.556  1.00  0.00     0.074 A 
ATOM     30  C   UNL A   1      44.683  33.678  32.347  1.00  0.00     0.029 A 
ATOM     31  N   UNL A   1      42.962  33.621  33.759  1.00  0.00    -0.354 N 
ATOM     32  N   UNL A   1      41.694  33.652  36.424  1.00  0.00    -0.248 NA
ATOM     33  C   UNL A   1      41.876  33.588  38.755  1.00  0.00     0.031 C 
ATOM     34  C   UNL A   1      45.179  33.633  33.654  1.00  0.00     0.029 A 
ATOM     35  C   UNL A   1      44.106  33.613  34.532  1.00  0.00     0.049 A 
ATOM     36  H   UNL A   1      42.042  33.622  34.109  1.00  0.00     0.167 HD
ATOM     37  C   UNL A   1      43.037  33.594  36.774  1.00  0.00     0.074 A 
ATOM     38  C   UNL A   1      43.092  33.570  38.223  1.00  0.00     0.031 C 
ATOM     39  C   UNL A   1      44.126  33.574  35.970  1.00  0.00     0.031 A 
BRANCH  26  40
ATOM     40  C   UNL A   1      42.857  33.594  29.933  1.00  0.00    -0.014 A 
ATOM     41  C   UNL A   1      42.820  34.807  29.225  1.00  0.00     0.010 A 
ATOM     42  C   UNL A   1      43.390  32.447  29.322  1.00  0.00     0.010 A 
ATOM     43  C   UNL A   1      43.320  34.875  27.922  1.00  0.00     0.020 A 
ATOM     44  C   UNL A   1      43.895  32.513  28.022  1.00  0.00     0.020 A 
ATOM     45  C   UNL A   1      43.862  33.728  27.332  1.00  0.00     0.054 A 
BRANCH  45  46
ATOM     46  S   UNL A   1      44.536  33.859  25.655  1.00  0.00     0.124 S 
ATOM     47  O   UNL A   1      44.968  32.488  25.390  1.00  0.00    -0.237 OA
ATOM     48  O   UNL A   1      43.379  34.314  24.889  1.00  0.00    -0.237 OA
ATOM     49  O   UNL A   1      45.618  34.831  25.789  1.00  0.00    -0.744 OA
ENDBRANCH  45  46
ENDBRANCH  26  40
BRANCH  27  50
ATOM     50  C   UNL A   1      38.978  33.872  39.140  1.00  0.00    -0.014 A 
ATOM     51  C   UNL A   1      38.445  32.756  39.807  1.00  0.00     0.010 A 
ATOM     52  C   UNL A   1      38.945  35.128  39.776  1.00  0.00     0.010 A 
ATOM     53  C   UNL A   1      37.880  32.895  41.080  1.00  0.00     0.020 A 
ATOM     54  C   UNL A   1      38.399  35.268  41.055  1.00  0.00     0.020 A 
ATOM     55  C   UNL A   1      37.864  34.150  41.697  1.00  0.00     0.054 A 
BRANCH  55  56
ATOM     56  S   UNL A   1      37.137  34.299  43.353  1.00  0.00     0.124 S 
ATOM     57  O   UNL A   1      37.750  33.180  44.061  1.00  0.00    -0.237 OA
ATOM     58  O   UNL A   1      37.580  35.629  43.762  1.00  0.00    -0.237 OA
ATOM     59  O   UNL A   1      35.701  34.173  43.109  1.00  0.00    -0.744 OA
ENDBRANCH  55  56
ENDBRANCH  27  50
BRANCH  39  60
ATOM     60  C   UNL A   1      45.473  33.534  36.629  1.00  0.00    -0.014 A 
ATOM     61  C   UNL A   1      46.119  32.311  36.870  1.00  0.00     0.010 A 
ATOM     62  C   UNL A   1      46.137  34.741  36.910  1.00  0.00     0.010 A 
ATOM     63  C   UNL A   1      47.413  32.296  37.393  1.00  0.00     0.020 A 
ATOM     64  C   UNL A   1      47.439  34.729  37.413  1.00  0.00     0.020 A 
ATOM     65  C   UNL A   1      48.067  33.506  37.653  1.00  0.00     0.054 A 
BRANCH  65  66
ATOM     66  S   UNL A   1      49.769  33.452  38.272  1.00  0.00     0.124 S 
ATOM     67  O   UNL A   1      49.575  33.610  39.711  1.00  0.00    -0.237 OA
ATOM     68  O   UNL A   1      50.219  32.131  37.841  1.00  0.00    -0.237 OA
ATOM     69  O   UNL A   1      50.419  34.577  37.605  1.00  0.00    -0.744 OA
ENDBRANCH  65  66
ENDBRANCH  39  60
ENDBRANCH  13  14
ENDBRANCH   6   8
ENDBRANCH   5   6
ENDBRANCH   4   5
ENDBRANCH   3   4
ENDBRANCH   2   3
ENDBRANCH   1   2
BRANCH   1  70
ATOM     70  C   UNL A   1      32.825  27.298  26.960  1.00  0.00     0.188 C 
BRANCH  70  71
ATOM     71  O   UNL A   1      32.738  26.121  26.154  1.00  0.00    -0.376 OA
BRANCH  71  72
ATOM     72  C   UNL A   1      31.916  25.040  26.590  1.00  0.00     0.202 C 
BRANCH  72  73
ATOM     73  C   UNL A   1      30.576  24.921  25.855  1.00  0.00     0.261 C 
BRANCH  73  74
ATOM     74  O   UNL A   1      29.974  26.204  25.598  1.00  0.00    -0.462 OA
BRANCH  74  75
ATOM     75  C   UNL A   1      29.747  26.490  24.283  1.00  0.00     0.324 C 
ATOM     76  O   UNL A   1      28.870  25.962  23.607  1.00  0.00    -0.250 OA
BRANCH  75  77
ATOM     77  C   UNL A   1      30.684  27.532  23.733  1.00  0.00     0.183 C 
ATOM     78  C   UNL A   1      30.178  28.386  22.580  1.00  0.00     0.034 C 
ATOM     79  N   UNL A   1      32.114  27.253  23.355  1.00  0.00    -0.184 NA
ATOM     80  C   UNL A   1      31.331  29.361  22.386  1.00  0.00     0.019 C 
ATOM     81  C   UNL A   1      32.583  28.617  22.874  1.00  0.00     0.103 C 
BRANCH  79  82
ATOM     82  S   UNL A   1      32.541  26.038  22.211  1.00  0.00     0.244 S 
ATOM     83  O   UNL A   1      31.484  25.987  21.219  1.00  0.00    -0.207 OA
ATOM     84  O   UNL A   1      33.887  26.356  21.783  1.00  0.00    -0.207 OA
BRANCH  82  85
ATOM     85  C   UNL A   1      32.572  24.429  22.984  1.00  0.00     0.090 A 
ATOM     86  C   UNL A   1      31.459  23.602  22.716  1.00  0.00     0.024 A 
ATOM     87  C   UNL A   1      33.737  23.848  23.578  1.00  0.00     0.005 A 
ATOM     88  C   UNL A   1      31.359  22.260  23.106  1.00  0.00     0.028 A 
ATOM     89  C   UNL A   1      33.607  22.523  23.905  1.00  0.00     0.019 A 
ATOM     90  C   UNL A   1      35.036  24.363  23.839  1.00  0.00     0.010 A 
ATOM     91  C   UNL A   1      32.482  21.754  23.704  1.00  0.00     0.050 A 
ATOM     92  C   UNL A   1      34.591  21.687  24.413  1.00  0.00     0.050 A 
ATOM     93  C   UNL A   1      36.068  23.544  24.351  1.00  0.00     0.002 A 
ATOM     94  N   UNL A   1      32.756  20.469  24.121  1.00  0.00    -0.321 N 
ATOM     95  C   UNL A   1      35.866  22.186  24.644  1.00  0.00     0.014 A 
ATOM     96  C   UNL A   1      34.071  20.341  24.576  1.00  0.00     0.256 C 
ATOM     97  H   UNL A   1      32.104  19.731  24.100  1.00  0.00     0.170 HD
ATOM     98  O   UNL A   1      34.570  19.298  24.972  1.00  0.00    -0.269 OA
ENDBRANCH  82  85
ENDBRANCH  79  82
ENDBRANCH  75  77
ENDBRANCH  74  75
ENDBRANCH  73  74
ENDBRANCH  72  73
ENDBRANCH  71  72
ENDBRANCH  70  71
ENDBRANCH   1  70
TORSDOF 22
ENDMDL
MODEL 3
REMARK VINA RESULT:      -9.9      2.879      8.849
REMARK SMILES O=C(OCCOCCOCCOC(=O)[C@@H]1CCCN1S(=O)(=O)c1ccc2c3c(cccc13)C(=O)N2)c1ccc(-c2c3nc(c(-c4ccc(S(=O)(=O)[O-])cc4)c4ccc([nH]4)c(-c4ccc(S(=O)(=O)[O-])cc4)c4nc(c(-c5ccc(S(=O)(=O)[O-])cc5)c5ccc2[nH]5)C=C4)C=C3)cc1
REMARK SMILES IDX 7 1 6 2 5 3 4 4 3 5 2 6 1 7 36 8 37 9 95 10 38 11 94 12
REMARK SMILES IDX 39 13 40 14 41 15 88 16 42 17 93 18 87 19 89 20 43 21 92 22
REMARK SMILES IDX 86 23 85 24 44 26 74 27 55 28 73 29 56 30 59 31 72 32 90 33
REMARK SMILES IDX 57 34 58 35 71 37 91 38 60 39 45 40 46 41 54 42 47 43 53 44
REMARK SMILES IDX 48 45 49 46 50 47 51 48 52 49 75 50 76 51 84 52 77 53 83 54
REMARK SMILES IDX 78 55 79 56 80 57 81 58 82 59 61 60 62 61 70 62 63 63 69 64
REMARK SMILES IDX 64 65 65 66 66 67 67 68 68 69 8 70 9 71 10 72 11 73 12 74
REMARK SMILES IDX 13 75 14 76 15 77 16 78 19 79 17 80 18 81 20 82 21 83 22 84
REMARK SMILES IDX 23 85 24 86 32 87 25 88 27 89 31 90 26 91 28 92 30 93 35 94
REMARK SMILES IDX 29 95 33 96 34 98
REMARK H PARENT 89 25 59 36 35 97
REMARK Flexibility Score: inf
ROOT
ATOM      1  C   UNL A   1      32.930  33.469  27.441  1.00  0.00     0.188 C 
ENDROOT
BRANCH   1   2
ATOM      2  O   UNL A   1      32.849  34.416  28.511  1.00  0.00    -0.376 OA
BRANCH   2   3
ATOM      3  C   UNL A   1      34.065  34.713  29.189  1.00  0.00     0.202 C 
BRANCH   3   4
ATOM      4  C   UNL A   1      34.015  34.430  30.694  1.00  0.00     0.261 C 
BRANCH   4   5
ATOM      5  O   UNL A   1      34.043  33.015  30.938  1.00  0.00    -0.460 OA
BRANCH   5   6
ATOM      6  C   UNL A   1      34.780  32.540  31.973  1.00  0.00     0.338 C 
ATOM      7  O   UNL A   1      34.530  32.846  33.132  1.00  0.00    -0.246 OA
BRANCH   6   8
ATOM      8  C   UNL A   1      36.090  31.913  31.612  1.00  0.00     0.060 A 
ATOM      9  C   UNL A   1      37.002  31.436  32.558  1.00  0.00     0.016 A 
ATOM     10  C   UNL A   1      36.450  31.871  30.255  1.00  0.00     0.016 A 
ATOM     11  C   UNL A   1      38.247  30.945  32.173  1.00  0.00     0.010 A 
ATOM     12  C   UNL A   1      37.727  31.440  29.866  1.00  0.00     0.010 A 
ATOM     13  C   UNL A   1      38.648  31.028  30.836  1.00  0.00    -0.014 A 
BRANCH  13  14
ATOM     14  C   UNL A   1      40.107  31.024  30.574  1.00  0.00     0.031 A 
ATOM     15  C   UNL A   1      40.705  29.715  30.125  1.00  0.00     0.074 A 
ATOM     16  C   UNL A   1      40.859  32.137  30.601  1.00  0.00     0.049 A 
ATOM     17  N   UNL A   1      41.875  29.486  29.597  1.00  0.00    -0.248 NA
ATOM     18  C   UNL A   1      39.841  28.521  30.215  1.00  0.00     0.031 C 
ATOM     19  C   UNL A   1      40.377  33.471  30.927  1.00  0.00     0.029 A 
ATOM     20  N   UNL A   1      42.188  32.327  30.322  1.00  0.00    -0.354 N 
ATOM     21  C   UNL A   1      41.845  28.158  29.199  1.00  0.00     0.074 A 
ATOM     22  C   UNL A   1      40.559  27.617  29.569  1.00  0.00     0.031 C 
ATOM     23  C   UNL A   1      41.386  34.352  30.827  1.00  0.00     0.029 A 
ATOM     24  C   UNL A   1      42.600  33.633  30.454  1.00  0.00     0.049 A 
ATOM     25  H   UNL A   1      42.791  31.598  30.053  1.00  0.00     0.167 HD
ATOM     26  C   UNL A   1      42.811  27.447  28.582  1.00  0.00     0.031 A 
ATOM     27  C   UNL A   1      43.823  34.177  30.301  1.00  0.00     0.031 A 
ATOM     28  C   UNL A   1      44.144  27.929  28.384  1.00  0.00     0.049 A 
ATOM     29  C   UNL A   1      44.960  33.282  29.891  1.00  0.00     0.074 A 
ATOM     30  C   UNL A   1      45.244  27.244  27.906  1.00  0.00     0.029 A 
ATOM     31  N   UNL A   1      44.569  29.205  28.716  1.00  0.00    -0.354 N 
ATOM     32  N   UNL A   1      44.915  32.026  29.512  1.00  0.00    -0.248 NA
ATOM     33  C   UNL A   1      46.307  33.866  29.899  1.00  0.00     0.031 C 
ATOM     34  C   UNL A   1      46.353  28.089  28.011  1.00  0.00     0.029 A 
ATOM     35  C   UNL A   1      45.928  29.315  28.502  1.00  0.00     0.049 A 
ATOM     36  H   UNL A   1      43.988  29.925  29.053  1.00  0.00     0.167 HD
ATOM     37  C   UNL A   1      46.226  31.676  29.214  1.00  0.00     0.074 A 
ATOM     38  C   UNL A   1      47.040  32.850  29.457  1.00  0.00     0.031 C 
ATOM     39  C   UNL A   1      46.711  30.493  28.769  1.00  0.00     0.031 A 
BRANCH  26  40
ATOM     40  C   UNL A   1      42.469  26.056  28.145  1.00  0.00    -0.014 A 
ATOM     41  C   UNL A   1      41.938  25.834  26.863  1.00  0.00     0.010 A 
ATOM     42  C   UNL A   1      42.705  24.967  28.999  1.00  0.00     0.010 A 
ATOM     43  C   UNL A   1      41.656  24.535  26.436  1.00  0.00     0.020 A 
ATOM     44  C   UNL A   1      42.429  23.666  28.573  1.00  0.00     0.020 A 
ATOM     45  C   UNL A   1      41.911  23.458  27.291  1.00  0.00     0.054 A 
BRANCH  45  46
ATOM     46  S   UNL A   1      41.570  21.782  26.692  1.00  0.00     0.124 S 
ATOM     47  O   UNL A   1      40.108  21.745  26.699  1.00  0.00    -0.237 OA
ATOM     48  O   UNL A   1      42.192  21.790  25.371  1.00  0.00    -0.237 OA
ATOM     49  O   UNL A   1      42.213  20.921  27.681  1.00  0.00    -0.744 OA
ENDBRANCH  45  46
ENDBRANCH  26  40
BRANCH  27  50
ATOM     50  C   UNL A   1      44.052  35.620  30.580  1.00  0.00    -0.014 A 
ATOM     51  C   UNL A   1      44.334  36.068  31.882  1.00  0.00     0.010 A 
ATOM     52  C   UNL A   1      43.960  36.563  29.538  1.00  0.00     0.010 A 
ATOM     53  C   UNL A   1      44.510  37.432  32.139  1.00  0.00     0.020 A 
ATOM     54  C   UNL A   1      44.153  37.924  29.787  1.00  0.00     0.020 A 
ATOM     55  C   UNL A   1      44.422  38.351  31.088  1.00  0.00     0.054 A 
BRANCH  55  56
ATOM     56  S   UNL A   1      44.666  40.113  31.448  1.00  0.00     0.124 S 
ATOM     57  O   UNL A   1      45.881  40.097  32.257  1.00  0.00    -0.237 OA
ATOM     58  O   UNL A   1      44.803  40.682  30.109  1.00  0.00    -0.237 OA
ATOM     59  O   UNL A   1      43.446  40.491  32.158  1.00  0.00    -0.744 OA
ENDBRANCH  55  56
ENDBRANCH  27  50
BRANCH  39  60
ATOM     60  C   UNL A   1      48.184  30.403  28.503  1.00  0.00    -0.014 A 
ATOM     61  C   UNL A   1      49.035  29.734  29.397  1.00  0.00     0.010 A 
ATOM     62  C   UNL A   1      48.697  30.904  27.294  1.00  0.00     0.010 A 
ATOM     63  C   UNL A   1      50.387  29.574  29.087  1.00  0.00     0.020 A 
ATOM     64  C   UNL A   1      50.043  30.727  26.972  1.00  0.00     0.020 A 
ATOM     65  C   UNL A   1      50.879  30.064  27.872  1.00  0.00     0.054 A 
BRANCH  65  66
ATOM     66  S   UNL A   1      52.625  29.786  27.472  1.00  0.00     0.124 S 
ATOM     67  O   UNL A   1      53.117  29.136  28.684  1.00  0.00    -0.237 OA
ATOM     68  O   UNL A   1      52.544  28.932  26.290  1.00  0.00    -0.237 OA
ATOM     69  O   UNL A   1      53.146  31.129  27.231  1.00  0.00    -0.744 OA
ENDBRANCH  65  66
ENDBRANCH  39  60
ENDBRANCH  13  14
ENDBRANCH   6   8
ENDBRANCH   5   6
ENDBRANCH   4   5
ENDBRANCH   3   4
ENDBRANCH   2   3
ENDBRANCH   1   2
BRANCH   1  70
ATOM     70  C   UNL A   1      33.165  32.033  27.890  1.00  0.00     0.188 C 
BRANCH  70  71
ATOM     71  O   UNL A   1      33.470  31.041  26.907  1.00  0.00    -0.376 OA
BRANCH  71  72
ATOM     72  C   UNL A   1      34.334  29.961  27.254  1.00  0.00     0.202 C 
BRANCH  72  73
ATOM     73  C   UNL A   1      33.759  28.569  26.973  1.00  0.00     0.261 C 
BRANCH  73  74
ATOM     74  O   UNL A   1      32.724  28.593  25.972  1.00  0.00    -0.462 OA
BRANCH  74  75
ATOM     75  C   UNL A   1      32.973  27.847  24.855  1.00  0.00     0.324 C 
ATOM     76  O   UNL A   1      34.085  27.711  24.356  1.00  0.00    -0.250 OA
BRANCH  75  77
ATOM     77  C   UNL A   1      31.739  27.195  24.292  1.00  0.00     0.183 C 
ATOM     78  C   UNL A   1      30.396  27.813  24.654  1.00  0.00     0.034 C 
ATOM     79  N   UNL A   1      31.468  25.716  24.364  1.00  0.00    -0.184 NA
ATOM     80  C   UNL A   1      29.433  26.968  23.832  1.00  0.00     0.019 C 
ATOM     81  C   UNL A   1      30.125  25.608  23.661  1.00  0.00     0.103 C 
BRANCH  79  82
ATOM     82  S   UNL A   1      31.430  24.862  25.860  1.00  0.00     0.244 S 
ATOM     83  O   UNL A   1      31.429  25.849  26.922  1.00  0.00    -0.207 OA
ATOM     84  O   UNL A   1      30.315  23.942  25.759  1.00  0.00    -0.207 OA
BRANCH  82  85
ATOM     85  C   UNL A   1      32.920  23.903  26.076  1.00  0.00     0.090 A 
ATOM     86  C   UNL A   1      32.951  23.073  27.218  1.00  0.00     0.024 A 
ATOM     87  C   UNL A   1      33.903  23.710  25.055  1.00  0.00     0.005 A 
ATOM     88  C   UNL A   1      33.960  22.141  27.491  1.00  0.00     0.028 A 
ATOM     89  C   UNL A   1      34.848  22.759  25.348  1.00  0.00     0.019 A 
ATOM     90  C   UNL A   1      34.060  24.270  23.758  1.00  0.00     0.010 A 
ATOM     91  C   UNL A   1      34.902  22.013  26.505  1.00  0.00     0.050 A 
ATOM     92  C   UNL A   1      35.863  22.305  24.518  1.00  0.00     0.050 A 
ATOM     93  C   UNL A   1      35.077  23.832  22.880  1.00  0.00     0.002 A 
ATOM     94  N   UNL A   1      35.963  21.140  26.406  1.00  0.00    -0.321 N 
ATOM     95  C   UNL A   1      35.997  22.837  23.242  1.00  0.00     0.014 A 
ATOM     96  C   UNL A   1      36.618  21.255  25.178  1.00  0.00     0.256 C 
ATOM     97  H   UNL A   1      36.227  20.510  27.116  1.00  0.00     0.170 HD
ATOM     98  O   UNL A   1      37.571  20.573  24.832  1.00  0.00    -0.269 OA
ENDBRANCH  82  85
ENDBRANCH  79  82
ENDBRANCH  75  77
ENDBRANCH  74  75
ENDBRANCH  73  74
ENDBRANCH  72  73
ENDBRANCH  71  72
ENDBRANCH  70  71
ENDBRANCH   1  70
TORSDOF 22
ENDMDL
