MODEL 1
REMARK VINA RESULT:     -10.8      0.000      0.000
REMARK SMILES COc1ccc(N2C(=O)/C(=C/c3c(C(=O)OCCOCCOCCOC(=O)c4ccc(-c5c6nc(c(-c7ccc(S(=O)(=O)[O-])cc7)c7ccc([nH]7)c(-c7ccc(S(=O)(=O)[O-])cc7)c7nc(c(-c8ccc(S(=O)(=O)[O-])cc8)c8ccc5[nH]8)C=C7)C=C6)cc4)[nH]c4cc(OC)ccc34)SC2=S)cc1
REMARK SMILES IDX 20 1 19 2 18 3 17 4 16 5 14 6 15 7 13 8 12 9 96 10 88 11
REMARK SMILES IDX 89 12 95 13 90 15 94 16 91 17 11 18 7 19 8 20 98 21 9 22
REMARK SMILES IDX 10 23 97 24 99 25 6 26 3 27 4 28 101 29 5 30 100 31 2 32
REMARK SMILES IDX 1 33 92 34 93 35 21 36 22 37 23 38 24 39 25 40 26 41 27 42
REMARK SMILES IDX 28 43 29 44 87 45 30 46 86 47 31 48 32 49 33 50 80 51 34 52
REMARK SMILES IDX 85 53 79 54 81 55 35 56 84 57 78 58 77 59 36 61 66 62 47 63
REMARK SMILES IDX 65 64 48 65 51 66 64 67 82 68 49 69 50 70 63 72 83 73 52 74
REMARK SMILES IDX 37 75 38 76 46 77 39 78 45 79 40 80 41 81 42 82 43 83 44 84
REMARK SMILES IDX 67 85 68 86 76 87 69 88 75 89 70 90 71 91 72 92 73 93 74 94
REMARK SMILES IDX 53 95 54 96 62 97 55 98 61 99 56 100 57 101 58 102 59 103
REMARK SMILES IDX 60 104
REMARK H PARENT 88 14 81 60 51 71
REMARK Flexibility Score: inf
ROOT
ATOM      1  C   UNL A   1      35.548  23.637  25.373  1.00  0.00     0.188 C 
ENDROOT
BRANCH   1   2
ATOM      2  O   UNL A   1      34.781  24.626  26.048  1.00  0.00    -0.376 OA
BRANCH   2   3
ATOM      3  C   UNL A   1      34.400  25.774  25.268  1.00  0.00     0.202 C 
BRANCH   3   4
ATOM      4  C   UNL A   1      34.016  27.042  26.059  1.00  0.00     0.261 C 
BRANCH   4   5
ATOM      5  O   UNL A   1      33.715  28.121  25.149  1.00  0.00    -0.459 OA
BRANCH   5   6
ATOM      6  C   UNL A   1      32.780  28.998  25.580  1.00  0.00     0.355 C 
ATOM      7  O   UNL A   1      33.034  29.978  26.271  1.00  0.00    -0.244 OA
BRANCH   6   8
ATOM      8  C   UNL A   1      31.551  28.847  24.828  1.00  0.00     0.133 A 
ATOM      9  C   UNL A   1      30.612  27.845  24.556  1.00  0.00     0.016 A 
ATOM     10  C   UNL A   1      29.547  28.480  23.791  1.00  0.00     0.008 A 
ATOM     11  N   UNL A   1      31.149  29.970  24.129  1.00  0.00    -0.348 N 
ATOM     12  C   UNL A   1      29.971  29.771  23.474  1.00  0.00     0.050 A 
ATOM     13  C   UNL A   1      28.269  28.098  23.314  1.00  0.00     0.015 A 
ATOM     14  H   UNL A   1      31.655  30.814  24.106  1.00  0.00     0.167 HD
ATOM     15  C   UNL A   1      29.261  30.658  22.655  1.00  0.00     0.073 A 
ATOM     16  C   UNL A   1      27.506  28.996  22.539  1.00  0.00     0.047 A 
ATOM     17  C   UNL A   1      28.009  30.250  22.208  1.00  0.00     0.120 A 
BRANCH   9  18
ATOM     18  C   UNL A   1      30.586  26.464  25.022  1.00  0.00     0.032 C 
ATOM     19  N   UNL A   1      31.835  23.121  24.129  1.00  0.00    -0.261 N 
ATOM     20  C   UNL A   1      31.032  23.933  24.939  1.00  0.00     0.270 C 
ATOM     21  C   UNL A   1      32.460  23.730  23.058  1.00  0.00     0.152 C 
ATOM     22  O   UNL A   1      30.383  23.593  25.919  1.00  0.00    -0.268 OA
ATOM     23  C   UNL A   1      31.060  25.352  24.420  1.00  0.00     0.081 C 
ATOM     24  S   UNL A   1      31.788  25.311  22.881  1.00  0.00    -0.054 SA
ATOM     25  S   UNL A   1      33.690  23.164  22.069  1.00  0.00    -0.051 S 
BRANCH  19  26
ATOM     26  C   UNL A   1      32.035  21.736  24.352  1.00  0.00     0.051 A 
ATOM     27  C   UNL A   1      33.272  19.211  24.415  1.00  0.00     0.119 A 
ATOM     28  C   UNL A   1      32.536  19.608  23.296  1.00  0.00     0.048 A 
ATOM     29  C   UNL A   1      33.345  20.061  25.522  1.00  0.00     0.048 A 
ATOM     30  C   UNL A   1      31.922  20.862  23.260  1.00  0.00     0.030 A 
ATOM     31  C   UNL A   1      32.722  21.318  25.495  1.00  0.00     0.030 A 
BRANCH  27  32
ATOM     32  O   UNL A   1      33.897  18.002  24.279  1.00  0.00    -0.497 OA
ATOM     33  C   UNL A   1      33.392  17.121  23.284  1.00  0.00     0.278 C 
ENDBRANCH  27  32
ENDBRANCH  19  26
ENDBRANCH   9  18
BRANCH  17  34
ATOM     34  O   UNL A   1      27.327  31.070  21.351  1.00  0.00    -0.497 OA
ATOM     35  C   UNL A   1      28.211  31.896  20.594  1.00  0.00     0.278 C 
ENDBRANCH  17  34
ENDBRANCH   6   8
ENDBRANCH   5   6
ENDBRANCH   4   5
ENDBRANCH   3   4
ENDBRANCH   2   3
ENDBRANCH   1   2
BRANCH   1  36
ATOM     36  C   UNL A   1      36.972  23.321  25.868  1.00  0.00     0.188 C 
BRANCH  36  37
ATOM     37  O   UNL A   1      37.498  22.012  25.698  1.00  0.00    -0.376 OA
BRANCH  37  38
ATOM     38  C   UNL A   1      38.858  21.788  26.058  1.00  0.00     0.202 C 
BRANCH  38  39
ATOM     39  C   UNL A   1      39.417  20.405  25.718  1.00  0.00     0.261 C 
BRANCH  39  40
ATOM     40  O   UNL A   1      40.315  19.963  26.752  1.00  0.00    -0.460 OA
BRANCH  40  41
ATOM     41  C   UNL A   1      41.585  19.707  26.357  1.00  0.00     0.338 C 
ATOM     42  O   UNL A   1      41.987  18.725  25.758  1.00  0.00    -0.246 OA
BRANCH  41  43
ATOM     43  C   UNL A   1      42.392  20.931  26.535  1.00  0.00     0.060 A 
ATOM     44  C   UNL A   1      42.629  21.386  27.841  1.00  0.00     0.016 A 
ATOM     45  C   UNL A   1      42.870  21.643  25.435  1.00  0.00     0.016 A 
ATOM     46  C   UNL A   1      43.304  22.585  28.050  1.00  0.00     0.010 A 
ATOM     47  C   UNL A   1      43.513  22.864  25.643  1.00  0.00     0.010 A 
ATOM     48  C   UNL A   1      43.692  23.356  26.948  1.00  0.00    -0.014 A 
BRANCH  48  49
ATOM     49  C   UNL A   1      44.050  24.777  27.144  1.00  0.00     0.031 A 
ATOM     50  C   UNL A   1      45.494  25.166  26.971  1.00  0.00     0.074 A 
ATOM     51  C   UNL A   1      43.125  25.696  27.471  1.00  0.00     0.049 A 
ATOM     52  N   UNL A   1      46.065  26.327  27.149  1.00  0.00    -0.248 NA
ATOM     53  C   UNL A   1      46.414  24.100  26.539  1.00  0.00     0.031 C 
ATOM     54  C   UNL A   1      41.693  25.445  27.617  1.00  0.00     0.029 A 
ATOM     55  N   UNL A   1      43.267  27.031  27.751  1.00  0.00    -0.354 N 
ATOM     56  C   UNL A   1      47.409  26.132  26.849  1.00  0.00     0.074 A 
ATOM     57  C   UNL A   1      47.572  24.741  26.496  1.00  0.00     0.031 C 
ATOM     58  C   UNL A   1      41.088  26.592  27.978  1.00  0.00     0.029 A 
ATOM     59  C   UNL A   1      42.094  27.643  28.117  1.00  0.00     0.049 A 
ATOM     60  H   UNL A   1      44.128  27.504  27.694  1.00  0.00     0.167 HD
ATOM     61  C   UNL A   1      48.419  27.032  26.867  1.00  0.00     0.031 A 
ATOM     62  C   UNL A   1      41.870  28.902  28.539  1.00  0.00     0.031 A 
ATOM     63  C   UNL A   1      48.265  28.405  27.261  1.00  0.00     0.049 A 
ATOM     64  C   UNL A   1      43.027  29.864  28.641  1.00  0.00     0.074 A 
ATOM     65  C   UNL A   1      49.228  29.393  27.338  1.00  0.00     0.029 A 
ATOM     66  N   UNL A   1      47.066  28.978  27.656  1.00  0.00    -0.354 N 
ATOM     67  N   UNL A   1      44.290  29.668  28.348  1.00  0.00    -0.248 NA
ATOM     68  C   UNL A   1      42.724  31.216  29.132  1.00  0.00     0.031 C 
ATOM     69  C   UNL A   1      48.619  30.557  27.818  1.00  0.00     0.029 A 
ATOM     70  C   UNL A   1      47.266  30.304  27.994  1.00  0.00     0.049 A 
ATOM     71  H   UNL A   1      46.200  28.511  27.690  1.00  0.00     0.167 HD
ATOM     72  C   UNL A   1      44.927  30.881  28.590  1.00  0.00     0.074 A 
ATOM     73  C   UNL A   1      43.910  31.804  29.049  1.00  0.00     0.031 C 
ATOM     74  C   UNL A   1      46.236  31.205  28.443  1.00  0.00     0.031 A 
BRANCH  61  75
ATOM     75  C   UNL A   1      49.785  26.535  26.488  1.00  0.00    -0.014 A 
ATOM     76  C   UNL A   1      50.253  26.650  25.166  1.00  0.00     0.010 A 
ATOM     77  C   UNL A   1      50.612  25.950  27.462  1.00  0.00     0.010 A 
ATOM     78  C   UNL A   1      51.513  26.156  24.818  1.00  0.00     0.020 A 
ATOM     79  C   UNL A   1      51.881  25.473  27.121  1.00  0.00     0.020 A 
ATOM     80  C   UNL A   1      52.316  25.564  25.797  1.00  0.00     0.054 A 
BRANCH  80  81
ATOM     81  S   UNL A   1      53.952  24.940  25.325  1.00  0.00     0.124 S 
ATOM     82  O   UNL A   1      54.394  25.951  24.366  1.00  0.00    -0.237 OA
ATOM     83  O   UNL A   1      54.671  24.925  26.597  1.00  0.00    -0.237 OA
ATOM     84  O   UNL A   1      53.670  23.625  24.757  1.00  0.00    -0.744 OA
ENDBRANCH  80  81
ENDBRANCH  61  75
BRANCH  62  85
ATOM     85  C   UNL A   1      40.497  29.328  28.922  1.00  0.00    -0.014 A 
ATOM     86  C   UNL A   1      39.541  29.629  27.936  1.00  0.00     0.010 A 
ATOM     87  C   UNL A   1      40.144  29.446  30.278  1.00  0.00     0.010 A 
ATOM     88  C   UNL A   1      38.262  30.061  28.299  1.00  0.00     0.020 A 
ATOM     89  C   UNL A   1      38.858  29.855  30.646  1.00  0.00     0.020 A 
ATOM     90  C   UNL A   1      37.929  30.173  29.653  1.00  0.00     0.054 A 
BRANCH  90  91
ATOM     91  S   UNL A   1      36.251  30.694  30.105  1.00  0.00     0.124 S 
ATOM     92  O   UNL A   1      36.043  29.984  31.363  1.00  0.00    -0.237 OA
ATOM     93  O   UNL A   1      36.386  32.145  30.212  1.00  0.00    -0.237 OA
ATOM     94  O   UNL A   1      35.438  30.234  28.981  1.00  0.00    -0.744 OA
ENDBRANCH  90  91
ENDBRANCH  62  85
BRANCH  74  95
ATOM     95  C   UNL A   1      46.637  32.623  28.738  1.00  0.00    -0.014 A 
ATOM     96  C   UNL A   1      47.089  33.002  30.013  1.00  0.00     0.010 A 
ATOM     97  C   UNL A   1      46.621  33.575  27.702  1.00  0.00     0.010 A 
ATOM     98  C   UNL A   1      47.494  34.318  30.255  1.00  0.00     0.020 A 
ATOM     99  C   UNL A   1      47.046  34.885  27.934  1.00  0.00     0.020 A 
ATOM    100  C   UNL A   1      47.469  35.251  29.214  1.00  0.00     0.054 A 
BRANCH 100 101
ATOM    101  S   UNL A   1      48.045  36.941  29.536  1.00  0.00     0.124 S 
ATOM    102  O   UNL A   1      48.585  37.330  28.236  1.00  0.00    -0.237 OA
ATOM    103  O   UNL A   1      46.822  37.629  29.941  1.00  0.00    -0.237 OA
ATOM    104  O   UNL A   1      49.036  36.771  30.598  1.00  0.00    -0.744 OA
ENDBRANCH 100 101
ENDBRANCH  74  95
ENDBRANCH  48  49
ENDBRANCH  41  43
ENDBRANCH  40  41
ENDBRANCH  39  40
ENDBRANCH  38  39
ENDBRANCH  37  38
ENDBRANCH  36  37
ENDBRANCH   1  36
TORSDOF 24
ENDMDL
MODEL 2
REMARK VINA RESULT:      -9.4      1.163      7.678
REMARK SMILES COc1ccc(N2C(=O)/C(=C/c3c(C(=O)OCCOCCOCCOC(=O)c4ccc(-c5c6nc(c(-c7ccc(S(=O)(=O)[O-])cc7)c7ccc([nH]7)c(-c7ccc(S(=O)(=O)[O-])cc7)c7nc(c(-c8ccc(S(=O)(=O)[O-])cc8)c8ccc5[nH]8)C=C7)C=C6)cc4)[nH]c4cc(OC)ccc34)SC2=S)cc1
REMARK SMILES IDX 20 1 19 2 18 3 17 4 16 5 14 6 15 7 13 8 12 9 96 10 88 11
REMARK SMILES IDX 89 12 95 13 90 15 94 16 91 17 11 18 7 19 8 20 98 21 9 22
REMARK SMILES IDX 10 23 97 24 99 25 6 26 3 27 4 28 101 29 5 30 100 31 2 32
REMARK SMILES IDX 1 33 92 34 93 35 21 36 22 37 23 38 24 39 25 40 26 41 27 42
REMARK SMILES IDX 28 43 29 44 87 45 30 46 86 47 31 48 32 49 33 50 80 51 34 52
REMARK SMILES IDX 85 53 79 54 81 55 35 56 84 57 78 58 77 59 36 61 66 62 47 63
REMARK SMILES IDX 65 64 48 65 51 66 64 67 82 68 49 69 50 70 63 72 83 73 52 74
REMARK SMILES IDX 37 75 38 76 46 77 39 78 45 79 40 80 41 81 42 82 43 83 44 84
REMARK SMILES IDX 67 85 68 86 76 87 69 88 75 89 70 90 71 91 72 92 73 93 74 94
REMARK SMILES IDX 53 95 54 96 62 97 55 98 61 99 56 100 57 101 58 102 59 103
REMARK SMILES IDX 60 104
REMARK H PARENT 88 14 81 60 51 71
REMARK Flexibility Score: inf
ROOT
ATOM      1  C   UNL A   1      36.106  23.997  25.224  1.00  0.00     0.188 C 
ENDROOT
BRANCH   1   2
ATOM      2  O   UNL A   1      35.261  24.832  26.005  1.00  0.00    -0.376 OA
BRANCH   2   3
ATOM      3  C   UNL A   1      34.905  26.098  25.420  1.00  0.00     0.202 C 
BRANCH   3   4
ATOM      4  C   UNL A   1      34.433  27.194  26.397  1.00  0.00     0.261 C 
BRANCH   4   5
ATOM      5  O   UNL A   1      34.030  28.371  25.665  1.00  0.00    -0.459 OA
BRANCH   5   6
ATOM      6  C   UNL A   1      32.888  28.956  26.091  1.00  0.00     0.355 C 
ATOM      7  O   UNL A   1      32.798  29.592  27.134  1.00  0.00    -0.244 OA
BRANCH   6   8
ATOM      8  C   UNL A   1      31.929  29.054  25.010  1.00  0.00     0.133 A 
ATOM      9  C   UNL A   1      31.587  28.344  23.852  1.00  0.00     0.016 A 
ATOM     10  C   UNL A   1      30.408  29.001  23.305  1.00  0.00     0.008 A 
ATOM     11  N   UNL A   1      31.104  30.162  25.056  1.00  0.00    -0.348 N 
ATOM     12  C   UNL A   1      30.205  30.174  24.032  1.00  0.00     0.050 A 
ATOM     13  C   UNL A   1      29.493  28.741  22.255  1.00  0.00     0.015 A 
ATOM     14  H   UNL A   1      31.159  30.861  25.747  1.00  0.00     0.167 HD
ATOM     15  C   UNL A   1      29.227  31.131  23.734  1.00  0.00     0.073 A 
ATOM     16  C   UNL A   1      28.459  29.658  21.974  1.00  0.00     0.047 A 
ATOM     17  C   UNL A   1      28.344  30.840  22.700  1.00  0.00     0.120 A 
BRANCH   9  18
ATOM     18  C   UNL A   1      32.171  27.118  23.325  1.00  0.00     0.032 C 
ATOM     19  N   UNL A   1      32.346  23.508  24.014  1.00  0.00    -0.261 N 
ATOM     20  C   UNL A   1      32.773  24.618  23.275  1.00  0.00     0.270 C 
ATOM     21  C   UNL A   1      31.510  23.754  25.085  1.00  0.00     0.152 C 
ATOM     22  O   UNL A   1      33.523  24.623  22.307  1.00  0.00    -0.268 OA
ATOM     23  C   UNL A   1      32.170  25.876  23.856  1.00  0.00     0.081 C 
ATOM     24  S   UNL A   1      31.490  25.459  25.361  1.00  0.00    -0.054 SA
ATOM     25  S   UNL A   1      30.590  22.689  25.996  1.00  0.00    -0.051 S 
BRANCH  19  26
ATOM     26  C   UNL A   1      32.721  22.173  23.720  1.00  0.00     0.051 A 
ATOM     27  C   UNL A   1      32.709  19.361  23.686  1.00  0.00     0.119 A 
ATOM     28  C   UNL A   1      33.416  20.052  24.673  1.00  0.00     0.048 A 
ATOM     29  C   UNL A   1      32.051  20.082  22.687  1.00  0.00     0.048 A 
ATOM     30  C   UNL A   1      33.423  21.448  24.694  1.00  0.00     0.030 A 
ATOM     31  C   UNL A   1      32.061  21.485  22.697  1.00  0.00     0.030 A 
BRANCH  27  32
ATOM     32  O   UNL A   1      32.710  18.002  23.839  1.00  0.00    -0.497 OA
ATOM     33  C   UNL A   1      33.373  17.239  22.840  1.00  0.00     0.278 C 
ENDBRANCH  27  32
ENDBRANCH  19  26
ENDBRANCH   9  18
BRANCH  17  34
ATOM     34  O   UNL A   1      27.424  31.788  22.344  1.00  0.00    -0.497 OA
ATOM     35  C   UNL A   1      28.035  33.059  22.121  1.00  0.00     0.278 C 
ENDBRANCH  17  34
ENDBRANCH   6   8
ENDBRANCH   5   6
ENDBRANCH   4   5
ENDBRANCH   3   4
ENDBRANCH   2   3
ENDBRANCH   1   2
BRANCH   1  36
ATOM     36  C   UNL A   1      36.605  22.665  25.815  1.00  0.00     0.188 C 
BRANCH  36  37
ATOM     37  O   UNL A   1      37.695  21.992  25.201  1.00  0.00    -0.376 OA
BRANCH  37  38
ATOM     38  C   UNL A   1      38.270  20.886  25.892  1.00  0.00     0.202 C 
BRANCH  38  39
ATOM     39  C   UNL A   1      39.612  20.389  25.352  1.00  0.00     0.261 C 
BRANCH  39  40
ATOM     40  O   UNL A   1      40.425  19.884  26.428  1.00  0.00    -0.460 OA
BRANCH  40  41
ATOM     41  C   UNL A   1      41.756  20.105  26.311  1.00  0.00     0.338 C 
ATOM     42  O   UNL A   1      42.577  19.391  25.763  1.00  0.00    -0.246 OA
BRANCH  41  43
ATOM     43  C   UNL A   1      42.044  21.490  26.733  1.00  0.00     0.060 A 
ATOM     44  C   UNL A   1      42.057  22.494  25.753  1.00  0.00     0.016 A 
ATOM     45  C   UNL A   1      42.338  21.790  28.063  1.00  0.00     0.016 A 
ATOM     46  C   UNL A   1      42.416  23.796  26.092  1.00  0.00     0.010 A 
ATOM     47  C   UNL A   1      42.735  23.086  28.396  1.00  0.00     0.010 A 
ATOM     48  C   UNL A   1      42.815  24.078  27.403  1.00  0.00    -0.014 A 
BRANCH  48  49
ATOM     49  C   UNL A   1      43.554  25.328  27.686  1.00  0.00     0.031 A 
ATOM     50  C   UNL A   1      42.772  26.498  28.219  1.00  0.00     0.074 A 
ATOM     51  C   UNL A   1      44.877  25.425  27.473  1.00  0.00     0.049 A 
ATOM     52  N   UNL A   1      43.176  27.712  28.484  1.00  0.00    -0.248 NA
ATOM     53  C   UNL A   1      41.342  26.265  28.490  1.00  0.00     0.031 C 
ATOM     54  C   UNL A   1      45.745  24.346  27.005  1.00  0.00     0.029 A 
ATOM     55  N   UNL A   1      45.717  26.500  27.613  1.00  0.00    -0.354 N 
ATOM     56  C   UNL A   1      42.054  28.385  28.953  1.00  0.00     0.074 A 
ATOM     57  C   UNL A   1      40.950  27.454  28.921  1.00  0.00     0.031 C 
ATOM     58  C   UNL A   1      46.998  24.820  26.882  1.00  0.00     0.029 A 
ATOM     59  C   UNL A   1      47.010  26.240  27.230  1.00  0.00     0.049 A 
ATOM     60  H   UNL A   1      45.421  27.374  27.956  1.00  0.00     0.167 HD
ATOM     61  C   UNL A   1      41.950  29.667  29.373  1.00  0.00     0.031 A 
ATOM     62  C   UNL A   1      48.071  27.065  27.149  1.00  0.00     0.031 A 
ATOM     63  C   UNL A   1      43.037  30.606  29.363  1.00  0.00     0.049 A 
ATOM     64  C   UNL A   1      47.911  28.514  27.534  1.00  0.00     0.074 A 
ATOM     65  C   UNL A   1      43.033  31.935  29.745  1.00  0.00     0.029 A 
ATOM     66  N   UNL A   1      44.324  30.312  28.938  1.00  0.00    -0.354 N 
ATOM     67  N   UNL A   1      46.846  29.136  27.982  1.00  0.00    -0.248 NA
ATOM     68  C   UNL A   1      49.098  29.371  27.400  1.00  0.00     0.031 C 
ATOM     69  C   UNL A   1      44.310  32.457  29.512  1.00  0.00     0.029 A 
ATOM     70  C   UNL A   1      45.120  31.439  29.032  1.00  0.00     0.049 A 
ATOM     71  H   UNL A   1      44.626  29.432  28.618  1.00  0.00     0.167 HD
ATOM     72  C   UNL A   1      47.243  30.449  28.213  1.00  0.00     0.074 A 
ATOM     73  C   UNL A   1      48.645  30.531  27.858  1.00  0.00     0.031 C 
ATOM     74  C   UNL A   1      46.515  31.494  28.679  1.00  0.00     0.031 A 
BRANCH  61  75
ATOM     75  C   UNL A   1      40.597  30.129  29.836  1.00  0.00    -0.014 A 
ATOM     76  C   UNL A   1      39.545  30.312  28.920  1.00  0.00     0.010 A 
ATOM     77  C   UNL A   1      40.372  30.377  31.201  1.00  0.00     0.010 A 
ATOM     78  C   UNL A   1      38.301  30.770  29.358  1.00  0.00     0.020 A 
ATOM     79  C   UNL A   1      39.122  30.817  31.645  1.00  0.00     0.020 A 
ATOM     80  C   UNL A   1      38.099  31.027  30.717  1.00  0.00     0.054 A 
BRANCH  80  81
ATOM     81  S   UNL A   1      36.471  31.611  31.265  1.00  0.00     0.124 S 
ATOM     82  O   UNL A   1      35.978  30.461  32.019  1.00  0.00    -0.237 OA
ATOM     83  O   UNL A   1      36.803  32.789  32.062  1.00  0.00    -0.237 OA
ATOM     84  O   UNL A   1      35.765  31.886  30.016  1.00  0.00    -0.744 OA
ENDBRANCH  80  81
ENDBRANCH  61  75
BRANCH  62  85
ATOM     85  C   UNL A   1      49.380  26.553  26.662  1.00  0.00    -0.014 A 
ATOM     86  C   UNL A   1      50.295  25.967  27.554  1.00  0.00     0.010 A 
ATOM     87  C   UNL A   1      49.722  26.661  25.301  1.00  0.00     0.010 A 
ATOM     88  C   UNL A   1      51.537  25.517  27.098  1.00  0.00     0.020 A 
ATOM     89  C   UNL A   1      50.954  26.190  24.838  1.00  0.00     0.020 A 
ATOM     90  C   UNL A   1      51.860  25.633  25.742  1.00  0.00     0.054 A 
BRANCH  90  91
ATOM     91  S   UNL A   1      53.460  25.004  25.163  1.00  0.00     0.124 S 
ATOM     92  O   UNL A   1      54.373  25.519  26.178  1.00  0.00    -0.237 OA
ATOM     93  O   UNL A   1      53.255  23.558  25.171  1.00  0.00    -0.237 OA
ATOM     94  O   UNL A   1      53.598  25.597  23.835  1.00  0.00    -0.744 OA
ENDBRANCH  90  91
ENDBRANCH  62  85
BRANCH  74  95
ATOM     95  C   UNL A   1      47.228  32.803  28.875  1.00  0.00    -0.014 A 
ATOM     96  C   UNL A   1      47.253  33.778  27.863  1.00  0.00     0.010 A 
ATOM     97  C   UNL A   1      47.826  33.085  30.118  1.00  0.00     0.010 A 
ATOM     98  C   UNL A   1      47.888  35.004  28.081  1.00  0.00     0.020 A 
ATOM     99  C   UNL A   1      48.441  34.317  30.347  1.00  0.00     0.020 A 
ATOM    100  C   UNL A   1      48.480  35.265  29.321  1.00  0.00     0.054 A 
BRANCH 100 101
ATOM    101  S   UNL A   1      49.255  36.880  29.601  1.00  0.00     0.124 S 
ATOM    102  O   UNL A   1      48.395  37.769  28.824  1.00  0.00    -0.237 OA
ATOM    103  O   UNL A   1      49.172  37.033  31.051  1.00  0.00    -0.237 OA
ATOM    104  O   UNL A   1      50.610  36.708  29.078  1.00  0.00    -0.744 OA
ENDBRANCH 100 101
ENDBRANCH  74  95
ENDBRANCH  48  49
ENDBRANCH  41  43
ENDBRANCH  40  41
ENDBRANCH  39  40
ENDBRANCH  38  39
ENDBRANCH  37  38
ENDBRANCH  36  37
ENDBRANCH   1  36
TORSDOF 24
ENDMDL
MODEL 3
REMARK VINA RESULT:      -9.3      5.220      9.940
REMARK SMILES COc1ccc(N2C(=O)/C(=C/c3c(C(=O)OCCOCCOCCOC(=O)c4ccc(-c5c6nc(c(-c7ccc(S(=O)(=O)[O-])cc7)c7ccc([nH]7)c(-c7ccc(S(=O)(=O)[O-])cc7)c7nc(c(-c8ccc(S(=O)(=O)[O-])cc8)c8ccc5[nH]8)C=C7)C=C6)cc4)[nH]c4cc(OC)ccc34)SC2=S)cc1
REMARK SMILES IDX 20 1 19 2 18 3 17 4 16 5 14 6 15 7 13 8 12 9 96 10 88 11
REMARK SMILES IDX 89 12 95 13 90 15 94 16 91 17 11 18 7 19 8 20 98 21 9 22
REMARK SMILES IDX 10 23 97 24 99 25 6 26 3 27 4 28 101 29 5 30 100 31 2 32
REMARK SMILES IDX 1 33 92 34 93 35 21 36 22 37 23 38 24 39 25 40 26 41 27 42
REMARK SMILES IDX 28 43 29 44 87 45 30 46 86 47 31 48 32 49 33 50 80 51 34 52
REMARK SMILES IDX 85 53 79 54 81 55 35 56 84 57 78 58 77 59 36 61 66 62 47 63
REMARK SMILES IDX 65 64 48 65 51 66 64 67 82 68 49 69 50 70 63 72 83 73 52 74
REMARK SMILES IDX 37 75 38 76 46 77 39 78 45 79 40 80 41 81 42 82 43 83 44 84
REMARK SMILES IDX 67 85 68 86 76 87 69 88 75 89 70 90 71 91 72 92 73 93 74 94
REMARK SMILES IDX 53 95 54 96 62 97 55 98 61 99 56 100 57 101 58 102 59 103
REMARK SMILES IDX 60 104
REMARK H PARENT 88 14 81 60 51 71
REMARK Flexibility Score: inf
ROOT
ATOM      1  C   UNL A   1      33.807  27.491  25.583  1.00  0.00     0.188 C 
ENDROOT
BRANCH   1   2
ATOM      2  O   UNL A   1      33.712  26.914  24.287  1.00  0.00    -0.376 OA
BRANCH   2   3
ATOM      3  C   UNL A   1      34.389  25.658  24.101  1.00  0.00     0.202 C 
BRANCH   3   4
ATOM      4  C   UNL A   1      34.809  24.911  25.383  1.00  0.00     0.261 C 
BRANCH   4   5
ATOM      5  O   UNL A   1      35.303  23.596  25.051  1.00  0.00    -0.459 OA
BRANCH   5   6
ATOM      6  C   UNL A   1      34.909  22.603  25.879  1.00  0.00     0.355 C 
ATOM      7  O   UNL A   1      34.887  22.703  27.100  1.00  0.00    -0.244 OA
BRANCH   6   8
ATOM      8  C   UNL A   1      34.184  21.584  25.148  1.00  0.00     0.133 A 
ATOM      9  C   UNL A   1      33.151  21.514  24.205  1.00  0.00     0.016 A 
ATOM     10  C   UNL A   1      33.031  20.110  23.836  1.00  0.00     0.008 A 
ATOM     11  N   UNL A   1      34.543  20.282  25.443  1.00  0.00    -0.348 N 
ATOM     12  C   UNL A   1      33.849  19.378  24.696  1.00  0.00     0.050 A 
ATOM     13  C   UNL A   1      32.301  19.369  22.873  1.00  0.00     0.015 A 
ATOM     14  H   UNL A   1      35.221  20.037  26.113  1.00  0.00     0.167 HD
ATOM     15  C   UNL A   1      33.921  17.980  24.722  1.00  0.00     0.073 A 
ATOM     16  C   UNL A   1      32.404  17.963  22.836  1.00  0.00     0.047 A 
ATOM     17  C   UNL A   1      33.194  17.286  23.760  1.00  0.00     0.120 A 
BRANCH   9  18
ATOM     18  C   UNL A   1      32.402  22.600  23.586  1.00  0.00     0.032 C 
ATOM     19  N   UNL A   1      30.479  25.611  24.466  1.00  0.00    -0.261 N 
ATOM     20  C   UNL A   1      30.910  24.692  23.500  1.00  0.00     0.270 C 
ATOM     21  C   UNL A   1      30.794  25.329  25.781  1.00  0.00     0.152 C 
ATOM     22  O   UNL A   1      30.724  24.743  22.292  1.00  0.00    -0.268 OA
ATOM     23  C   UNL A   1      31.664  23.567  24.171  1.00  0.00     0.081 C 
ATOM     24  S   UNL A   1      31.394  23.710  25.846  1.00  0.00    -0.054 SA
ATOM     25  S   UNL A   1      30.705  26.307  27.139  1.00  0.00    -0.051 S 
BRANCH  19  26
ATOM     26  C   UNL A   1      29.754  26.790  24.164  1.00  0.00     0.051 A 
ATOM     27  C   UNL A   1      28.408  28.772  22.691  1.00  0.00     0.119 A 
ATOM     28  C   UNL A   1      29.782  28.873  22.917  1.00  0.00     0.048 A 
ATOM     29  C   UNL A   1      27.701  27.703  23.247  1.00  0.00     0.048 A 
ATOM     30  C   UNL A   1      30.455  27.890  23.647  1.00  0.00     0.030 A 
ATOM     31  C   UNL A   1      28.369  26.716  23.989  1.00  0.00     0.030 A 
BRANCH  27  32
ATOM     32  O   UNL A   1      27.896  29.751  21.884  1.00  0.00    -0.497 OA
ATOM     33  C   UNL A   1      27.929  31.082  22.382  1.00  0.00     0.278 C 
ENDBRANCH  27  32
ENDBRANCH  19  26
ENDBRANCH   9  18
BRANCH  17  34
ATOM     34  O   UNL A   1      33.193  15.919  23.808  1.00  0.00    -0.497 OA
ATOM     35  C   UNL A   1      33.034  15.437  25.141  1.00  0.00     0.278 C 
ENDBRANCH  17  34
ENDBRANCH   6   8
ENDBRANCH   5   6
ENDBRANCH   4   5
ENDBRANCH   3   4
ENDBRANCH   2   3
ENDBRANCH   1   2
BRANCH   1  36
ATOM     36  C   UNL A   1      33.036  28.789  25.889  1.00  0.00     0.188 C 
BRANCH  36  37
ATOM     37  O   UNL A   1      33.748  30.011  26.022  1.00  0.00    -0.376 OA
BRANCH  37  38
ATOM     38  C   UNL A   1      34.086  30.446  27.336  1.00  0.00     0.202 C 
BRANCH  38  39
ATOM     39  C   UNL A   1      33.512  31.800  27.757  1.00  0.00     0.261 C 
BRANCH  39  40
ATOM     40  O   UNL A   1      34.578  32.726  28.039  1.00  0.00    -0.460 OA
BRANCH  40  41
ATOM     41  C   UNL A   1      34.826  32.953  29.351  1.00  0.00     0.338 C 
ATOM     42  O   UNL A   1      34.057  32.801  30.284  1.00  0.00    -0.246 OA
BRANCH  41  43
ATOM     43  C   UNL A   1      36.274  33.178  29.526  1.00  0.00     0.060 A 
ATOM     44  C   UNL A   1      37.165  32.349  28.826  1.00  0.00     0.016 A 
ATOM     45  C   UNL A   1      36.749  34.158  30.397  1.00  0.00     0.016 A 
ATOM     46  C   UNL A   1      38.536  32.466  29.035  1.00  0.00     0.010 A 
ATOM     47  C   UNL A   1      38.121  34.249  30.634  1.00  0.00     0.010 A 
ATOM     48  C   UNL A   1      39.011  33.375  29.986  1.00  0.00    -0.014 A 
BRANCH  48  49
ATOM     49  C   UNL A   1      40.395  33.243  30.492  1.00  0.00     0.031 A 
ATOM     50  C   UNL A   1      41.432  34.189  29.949  1.00  0.00     0.074 A 
ATOM     51  C   UNL A   1      40.724  32.309  31.401  1.00  0.00     0.049 A 
ATOM     52  N   UNL A   1      42.716  34.233  30.186  1.00  0.00    -0.248 NA
ATOM     53  C   UNL A   1      40.954  35.223  29.015  1.00  0.00     0.031 C 
ATOM     54  C   UNL A   1      39.797  31.372  32.032  1.00  0.00     0.029 A 
ATOM     55  N   UNL A   1      41.945  31.993  31.939  1.00  0.00    -0.354 N 
ATOM     56  C   UNL A   1      43.198  35.299  29.433  1.00  0.00     0.074 A 
ATOM     57  C   UNL A   1      42.075  35.862  28.720  1.00  0.00     0.031 C 
ATOM     58  C   UNL A   1      40.489  30.572  32.863  1.00  0.00     0.029 A 
ATOM     59  C   UNL A   1      41.907  30.921  32.796  1.00  0.00     0.049 A 
ATOM     60  H   UNL A   1      42.770  32.489  31.731  1.00  0.00     0.167 HD
ATOM     61  C   UNL A   1      44.464  35.766  29.342  1.00  0.00     0.031 A 
ATOM     62  C   UNL A   1      42.909  30.284  33.431  1.00  0.00     0.031 A 
ATOM     63  C   UNL A   1      45.587  35.179  30.017  1.00  0.00     0.049 A 
ATOM     64  C   UNL A   1      44.326  30.765  33.243  1.00  0.00     0.074 A 
ATOM     65  C   UNL A   1      46.916  35.560  29.974  1.00  0.00     0.029 A 
ATOM     66  N   UNL A   1      45.512  34.074  30.851  1.00  0.00    -0.354 N 
ATOM     67  N   UNL A   1      44.766  31.777  32.534  1.00  0.00    -0.248 NA
ATOM     68  C   UNL A   1      45.379  30.015  33.941  1.00  0.00     0.031 C 
ATOM     69  C   UNL A   1      47.651  34.660  30.753  1.00  0.00     0.029 A 
ATOM     70  C   UNL A   1      46.773  33.748  31.318  1.00  0.00     0.049 A 
ATOM     71  H   UNL A   1      44.683  33.593  31.079  1.00  0.00     0.167 HD
ATOM     72  C   UNL A   1      46.144  31.803  32.726  1.00  0.00     0.074 A 
ATOM     73  C   UNL A   1      46.463  30.710  33.619  1.00  0.00     0.031 C 
ATOM     74  C   UNL A   1      47.064  32.657  32.212  1.00  0.00     0.031 A 
BRANCH  61  75
ATOM     75  C   UNL A   1      44.694  36.949  28.444  1.00  0.00    -0.014 A 
ATOM     76  C   UNL A   1      45.415  36.814  27.244  1.00  0.00     0.010 A 
ATOM     77  C   UNL A   1      44.180  38.207  28.800  1.00  0.00     0.010 A 
ATOM     78  C   UNL A   1      45.649  37.926  26.433  1.00  0.00     0.020 A 
ATOM     79  C   UNL A   1      44.395  39.319  27.980  1.00  0.00     0.020 A 
ATOM     80  C   UNL A   1      45.143  39.173  26.810  1.00  0.00     0.054 A 
BRANCH  80  81
ATOM     81  S   UNL A   1      45.449  40.602  25.735  1.00  0.00     0.124 S 
ATOM     82  O   UNL A   1      46.210  39.999  24.643  1.00  0.00    -0.237 OA
ATOM     83  O   UNL A   1      44.099  41.042  25.391  1.00  0.00    -0.237 OA
ATOM     84  O   UNL A   1      46.202  41.520  26.585  1.00  0.00    -0.744 OA
ENDBRANCH  80  81
ENDBRANCH  61  75
BRANCH  62  85
ATOM     85  C   UNL A   1      42.619  29.105  34.290  1.00  0.00    -0.014 A 
ATOM     86  C   UNL A   1      42.670  27.805  33.761  1.00  0.00     0.010 A 
ATOM     87  C   UNL A   1      42.277  29.282  35.644  1.00  0.00     0.010 A 
ATOM     88  C   UNL A   1      42.365  26.702  34.563  1.00  0.00     0.020 A 
ATOM     89  C   UNL A   1      41.994  28.180  36.455  1.00  0.00     0.020 A 
ATOM     90  C   UNL A   1      42.026  26.897  35.906  1.00  0.00     0.054 A 
BRANCH  90  91
ATOM     91  S   UNL A   1      41.674  25.449  36.943  1.00  0.00     0.124 S 
ATOM     92  O   UNL A   1      40.456  25.862  37.633  1.00  0.00    -0.237 OA
ATOM     93  O   UNL A   1      41.512  24.384  35.957  1.00  0.00    -0.237 OA
ATOM     94  O   UNL A   1      42.864  25.335  37.781  1.00  0.00    -0.744 OA
ENDBRANCH  90  91
ENDBRANCH  62  85
BRANCH  74  95
ATOM     95  C   UNL A   1      48.494  32.473  32.636  1.00  0.00    -0.014 A 
ATOM     96  C   UNL A   1      49.013  33.140  33.759  1.00  0.00     0.010 A 
ATOM     97  C   UNL A   1      49.310  31.565  31.935  1.00  0.00     0.010 A 
ATOM     98  C   UNL A   1      50.335  32.924  34.158  1.00  0.00     0.020 A 
ATOM     99  C   UNL A   1      50.625  31.330  32.345  1.00  0.00     0.020 A 
ATOM    100  C   UNL A   1      51.133  32.021  33.447  1.00  0.00     0.054 A 
BRANCH 100 101
ATOM    101  S   UNL A   1      52.830  31.716  34.011  1.00  0.00     0.124 S 
ATOM    102  O   UNL A   1      52.743  32.052  35.430  1.00  0.00    -0.237 OA
ATOM    103  O   UNL A   1      53.023  30.300  33.710  1.00  0.00    -0.237 OA
ATOM    104  O   UNL A   1      53.632  32.632  33.201  1.00  0.00    -0.744 OA
ENDBRANCH 100 101
ENDBRANCH  74  95
ENDBRANCH  48  49
ENDBRANCH  41  43
ENDBRANCH  40  41
ENDBRANCH  39  40
ENDBRANCH  38  39
ENDBRANCH  37  38
ENDBRANCH  36  37
ENDBRANCH   1  36
TORSDOF 24
ENDMDL
