MODEL 1
REMARK VINA RESULT:     -10.0      0.000      0.000
REMARK SMILES O=C(OCCOCCOCCOC(=O)c1cccc(Nc2ccc([N+](=O)[O-])cc2)c1)c1ccc(-c2c3nc(c(-c4ccc(S(=O)(=O)[O-])cc4)c4ccc([nH]4)c(-c4ccc(S(=O)(=O)[O-])cc4)c4nc(c(-c5ccc(S(=O)(=O)[O-])cc5)c5ccc2[nH]5)C=C4)C=C3)cc1
REMARK SMILES IDX 7 1 6 2 5 3 4 4 3 5 2 6 1 7 31 8 32 9 90 10 33 11 89 12
REMARK SMILES IDX 34 13 35 14 36 15 83 16 37 17 88 18 82 19 84 20 38 21 87 22
REMARK SMILES IDX 81 23 80 24 39 26 69 27 50 28 68 29 51 30 54 31 67 32 85 33
REMARK SMILES IDX 52 34 53 35 66 37 86 38 55 39 40 40 41 41 49 42 42 43 48 44
REMARK SMILES IDX 43 45 44 46 45 47 46 48 47 49 70 50 71 51 79 52 72 53 78 54
REMARK SMILES IDX 73 55 74 56 75 57 76 58 77 59 56 60 57 61 65 62 58 63 64 64
REMARK SMILES IDX 59 65 60 66 61 67 62 68 63 69 8 70 9 71 10 72 11 73 12 74
REMARK SMILES IDX 13 75 14 76 15 77 16 78 30 79 17 80 19 81 18 82 20 83 21 85
REMARK SMILES IDX 22 86 29 87 23 88 28 89 24 90 25 91 26 92 27 93
REMARK H PARENT 84 25 54 36 20 84
REMARK Flexibility Score: inf
ROOT
ATOM      1  C   UNL A   1      40.872  19.808  26.299  1.00  0.00     0.188 C 
ENDROOT
BRANCH   1   2
ATOM      2  O   UNL A   1      42.165  20.125  25.770  1.00  0.00    -0.376 OA
BRANCH   2   3
ATOM      3  C   UNL A   1      42.761  21.283  26.363  1.00  0.00     0.202 C 
BRANCH   3   4
ATOM      4  C   UNL A   1      43.389  22.247  25.350  1.00  0.00     0.261 C 
BRANCH   4   5
ATOM      5  O   UNL A   1      42.636  23.467  25.245  1.00  0.00    -0.460 OA
BRANCH   5   6
ATOM      6  C   UNL A   1      43.083  24.738  25.417  1.00  0.00     0.338 C 
ATOM      7  O   UNL A   1      43.930  25.170  24.638  1.00  0.00    -0.246 OA
BRANCH   6   8
ATOM      8  C   UNL A   1      42.549  25.671  26.456  1.00  0.00     0.060 A 
ATOM      9  C   UNL A   1      42.751  27.052  26.482  1.00  0.00     0.016 A 
ATOM     10  C   UNL A   1      41.750  25.105  27.465  1.00  0.00     0.016 A 
ATOM     11  C   UNL A   1      42.328  27.819  27.566  1.00  0.00     0.010 A 
ATOM     12  C   UNL A   1      41.257  25.883  28.520  1.00  0.00     0.010 A 
ATOM     13  C   UNL A   1      41.607  27.234  28.608  1.00  0.00    -0.014 A 
BRANCH  13  14
ATOM     14  C   UNL A   1      41.362  28.030  29.832  1.00  0.00     0.031 A 
ATOM     15  C   UNL A   1      42.359  27.948  30.958  1.00  0.00     0.074 A 
ATOM     16  C   UNL A   1      40.345  28.910  29.871  1.00  0.00     0.049 A 
ATOM     17  N   UNL A   1      42.400  28.622  32.077  1.00  0.00    -0.248 NA
ATOM     18  C   UNL A   1      43.464  26.987  30.795  1.00  0.00     0.031 C 
ATOM     19  C   UNL A   1      39.364  29.116  28.804  1.00  0.00     0.029 A 
ATOM     20  N   UNL A   1      39.997  29.829  30.827  1.00  0.00    -0.354 N 
ATOM     21  C   UNL A   1      43.518  28.154  32.758  1.00  0.00     0.074 A 
ATOM     22  C   UNL A   1      44.121  27.129  31.936  1.00  0.00     0.031 C 
ATOM     23  C   UNL A   1      38.557  30.135  29.142  1.00  0.00     0.029 A 
ATOM     24  C   UNL A   1      38.937  30.626  30.464  1.00  0.00     0.049 A 
ATOM     25  H   UNL A   1      40.461  29.911  31.691  1.00  0.00     0.167 HD
ATOM     26  C   UNL A   1      44.002  28.542  33.962  1.00  0.00     0.031 A 
ATOM     27  C   UNL A   1      38.345  31.638  31.126  1.00  0.00     0.031 A 
ATOM     28  C   UNL A   1      43.392  29.554  34.777  1.00  0.00     0.049 A 
ATOM     29  C   UNL A   1      38.874  32.023  32.480  1.00  0.00     0.074 A 
ATOM     30  C   UNL A   1      43.759  29.989  36.037  1.00  0.00     0.029 A 
ATOM     31  N   UNL A   1      42.279  30.293  34.402  1.00  0.00    -0.354 N 
ATOM     32  N   UNL A   1      39.912  31.542  33.125  1.00  0.00    -0.248 NA
ATOM     33  C   UNL A   1      38.152  33.080  33.199  1.00  0.00     0.031 C 
ATOM     34  C   UNL A   1      42.846  30.972  36.437  1.00  0.00     0.029 A 
ATOM     35  C   UNL A   1      41.938  31.176  35.410  1.00  0.00     0.049 A 
ATOM     36  H   UNL A   1      41.803  30.203  33.545  1.00  0.00     0.167 HD
ATOM     37  C   UNL A   1      39.970  32.244  34.324  1.00  0.00     0.074 A 
ATOM     38  C   UNL A   1      38.878  33.197  34.303  1.00  0.00     0.031 C 
ATOM     39  C   UNL A   1      40.842  32.110  35.355  1.00  0.00     0.031 A 
BRANCH  26  40
ATOM     40  C   UNL A   1      45.210  27.809  34.475  1.00  0.00    -0.014 A 
ATOM     41  C   UNL A   1      46.513  28.249  34.178  1.00  0.00     0.010 A 
ATOM     42  C   UNL A   1      45.037  26.635  35.230  1.00  0.00     0.010 A 
ATOM     43  C   UNL A   1      47.621  27.497  34.581  1.00  0.00     0.020 A 
ATOM     44  C   UNL A   1      46.143  25.892  35.651  1.00  0.00     0.020 A 
ATOM     45  C   UNL A   1      47.427  26.313  35.302  1.00  0.00     0.054 A 
BRANCH  45  46
ATOM     46  S   UNL A   1      48.876  25.333  35.782  1.00  0.00     0.124 S 
ATOM     47  O   UNL A   1      49.720  26.340  36.419  1.00  0.00    -0.237 OA
ATOM     48  O   UNL A   1      48.307  24.332  36.680  1.00  0.00    -0.237 OA
ATOM     49  O   UNL A   1      49.378  24.813  34.512  1.00  0.00    -0.744 OA
ENDBRANCH  45  46
ENDBRANCH  26  40
BRANCH  27  50
ATOM     50  C   UNL A   1      37.182  32.344  30.522  1.00  0.00    -0.014 A 
ATOM     51  C   UNL A   1      35.866  32.027  30.904  1.00  0.00     0.010 A 
ATOM     52  C   UNL A   1      37.390  33.358  29.570  1.00  0.00     0.010 A 
ATOM     53  C   UNL A   1      34.781  32.713  30.346  1.00  0.00     0.020 A 
ATOM     54  C   UNL A   1      36.311  34.060  29.027  1.00  0.00     0.020 A 
ATOM     55  C   UNL A   1      35.012  33.731  29.415  1.00  0.00     0.054 A 
BRANCH  55  56
ATOM     56  S   UNL A   1      33.605  34.680  28.770  1.00  0.00     0.124 S 
ATOM     57  O   UNL A   1      32.800  34.882  29.969  1.00  0.00    -0.237 OA
ATOM     58  O   UNL A   1      34.249  35.872  28.227  1.00  0.00    -0.237 OA
ATOM     59  O   UNL A   1      33.029  33.788  27.765  1.00  0.00    -0.744 OA
ENDBRANCH  55  56
ENDBRANCH  27  50
BRANCH  39  60
ATOM     60  C   UNL A   1      40.656  33.026  36.530  1.00  0.00    -0.014 A 
ATOM     61  C   UNL A   1      41.070  34.368  36.470  1.00  0.00     0.010 A 
ATOM     62  C   UNL A   1      40.011  32.551  37.685  1.00  0.00     0.010 A 
ATOM     63  C   UNL A   1      40.865  35.215  37.561  1.00  0.00     0.020 A 
ATOM     64  C   UNL A   1      39.787  33.401  38.770  1.00  0.00     0.020 A 
ATOM     65  C   UNL A   1      40.229  34.725  38.706  1.00  0.00     0.054 A 
BRANCH  65  66
ATOM     66  S   UNL A   1      39.934  35.851  40.096  1.00  0.00     0.124 S 
ATOM     67  O   UNL A   1      40.748  37.005  39.727  1.00  0.00    -0.237 OA
ATOM     68  O   UNL A   1      38.488  36.058  40.046  1.00  0.00    -0.237 OA
ATOM     69  O   UNL A   1      40.408  35.096  41.255  1.00  0.00    -0.744 OA
ENDBRANCH  65  66
ENDBRANCH  39  60
ENDBRANCH  13  14
ENDBRANCH   6   8
ENDBRANCH   5   6
ENDBRANCH   4   5
ENDBRANCH   3   4
ENDBRANCH   2   3
ENDBRANCH   1   2
BRANCH   1  70
ATOM     70  C   UNL A   1      40.088  21.078  26.635  1.00  0.00     0.188 C 
BRANCH  70  71
ATOM     71  O   UNL A   1      38.943  21.312  25.815  1.00  0.00    -0.376 OA
BRANCH  71  72
ATOM     72  C   UNL A   1      38.388  22.627  25.853  1.00  0.00     0.202 C 
BRANCH  72  73
ATOM     73  C   UNL A   1      36.859  22.719  25.827  1.00  0.00     0.261 C 
BRANCH  73  74
ATOM     74  O   UNL A   1      36.345  23.693  24.901  1.00  0.00    -0.460 OA
BRANCH  74  75
ATOM     75  C   UNL A   1      35.957  23.182  23.707  1.00  0.00     0.338 C 
ATOM     76  O   UNL A   1      36.670  22.848  22.776  1.00  0.00    -0.246 OA
BRANCH  75  77
ATOM     77  C   UNL A   1      34.493  23.110  23.621  1.00  0.00     0.062 A 
ATOM     78  C   UNL A   1      33.708  24.226  23.909  1.00  0.00     0.016 A 
ATOM     79  C   UNL A   1      33.911  21.845  23.474  1.00  0.00     0.041 A 
ATOM     80  C   UNL A   1      32.335  24.059  24.074  1.00  0.00     0.003 A 
ATOM     81  C   UNL A   1      32.533  21.659  23.660  1.00  0.00     0.039 A 
ATOM     82  C   UNL A   1      31.762  22.784  23.973  1.00  0.00     0.026 A 
BRANCH  81  83
ATOM     83  N   UNL A   1      32.042  20.342  23.634  1.00  0.00    -0.355 N 
ATOM     84  H   UNL A   1      31.113  20.270  23.320  1.00  0.00     0.167 HD
BRANCH  83  85
ATOM     85  C   UNL A   1      32.626  19.110  23.970  1.00  0.00     0.039 A 
ATOM     86  C   UNL A   1      32.620  18.732  25.324  1.00  0.00     0.033 A 
ATOM     87  C   UNL A   1      33.153  18.220  23.030  1.00  0.00     0.033 A 
ATOM     88  C   UNL A   1      33.106  17.490  25.735  1.00  0.00     0.088 A 
ATOM     89  C   UNL A   1      33.654  16.974  23.427  1.00  0.00     0.088 A 
ATOM     90  C   UNL A   1      33.615  16.611  24.780  1.00  0.00     0.269 A 
BRANCH  90  91
ATOM     91  N   UNL A   1      34.085  15.284  25.193  1.00  0.00     0.062 N 
ATOM     92  O   UNL A   1      33.235  14.401  25.386  1.00  0.00    -0.258 OA
ATOM     93  O   UNL A   1      35.310  15.104  25.271  1.00  0.00    -0.258 OA
ENDBRANCH  90  91
ENDBRANCH  83  85
ENDBRANCH  81  83
ENDBRANCH  75  77
ENDBRANCH  74  75
ENDBRANCH  73  74
ENDBRANCH  72  73
ENDBRANCH  71  72
ENDBRANCH  70  71
ENDBRANCH   1  70
TORSDOF 23
ENDMDL
MODEL 2
REMARK VINA RESULT:      -9.8      2.888      8.372
REMARK SMILES O=C(OCCOCCOCCOC(=O)c1cccc(Nc2ccc([N+](=O)[O-])cc2)c1)c1ccc(-c2c3nc(c(-c4ccc(S(=O)(=O)[O-])cc4)c4ccc([nH]4)c(-c4ccc(S(=O)(=O)[O-])cc4)c4nc(c(-c5ccc(S(=O)(=O)[O-])cc5)c5ccc2[nH]5)C=C4)C=C3)cc1
REMARK SMILES IDX 7 1 6 2 5 3 4 4 3 5 2 6 1 7 31 8 32 9 90 10 33 11 89 12
REMARK SMILES IDX 34 13 35 14 36 15 83 16 37 17 88 18 82 19 84 20 38 21 87 22
REMARK SMILES IDX 81 23 80 24 39 26 69 27 50 28 68 29 51 30 54 31 67 32 85 33
REMARK SMILES IDX 52 34 53 35 66 37 86 38 55 39 40 40 41 41 49 42 42 43 48 44
REMARK SMILES IDX 43 45 44 46 45 47 46 48 47 49 70 50 71 51 79 52 72 53 78 54
REMARK SMILES IDX 73 55 74 56 75 57 76 58 77 59 56 60 57 61 65 62 58 63 64 64
REMARK SMILES IDX 59 65 60 66 61 67 62 68 63 69 8 70 9 71 10 72 11 73 12 74
REMARK SMILES IDX 13 75 14 76 15 77 16 78 30 79 17 80 19 81 18 82 20 83 21 85
REMARK SMILES IDX 22 86 29 87 23 88 28 89 24 90 25 91 26 92 27 93
REMARK H PARENT 84 25 54 36 20 84
REMARK Flexibility Score: inf
ROOT
ATOM      1  C   UNL A   1      31.786  27.117  25.858  1.00  0.00     0.188 C 
ENDROOT
BRANCH   1   2
ATOM      2  O   UNL A   1      31.601  27.787  27.111  1.00  0.00    -0.376 OA
BRANCH   2   3
ATOM      3  C   UNL A   1      31.825  29.199  27.047  1.00  0.00     0.202 C 
BRANCH   3   4
ATOM      4  C   UNL A   1      33.296  29.603  27.199  1.00  0.00     0.261 C 
BRANCH   4   5
ATOM      5  O   UNL A   1      33.430  31.003  27.498  1.00  0.00    -0.460 OA
BRANCH   5   6
ATOM      6  C   UNL A   1      34.545  31.663  27.906  1.00  0.00     0.338 C 
ATOM      7  O   UNL A   1      34.550  32.892  27.849  1.00  0.00    -0.246 OA
BRANCH   6   8
ATOM      8  C   UNL A   1      35.743  30.987  28.492  1.00  0.00     0.060 A 
ATOM      9  C   UNL A   1      35.715  29.836  29.282  1.00  0.00     0.016 A 
ATOM     10  C   UNL A   1      36.997  31.544  28.187  1.00  0.00     0.016 A 
ATOM     11  C   UNL A   1      36.871  29.359  29.896  1.00  0.00     0.010 A 
ATOM     12  C   UNL A   1      38.173  31.024  28.741  1.00  0.00     0.010 A 
ATOM     13  C   UNL A   1      38.103  29.969  29.656  1.00  0.00    -0.014 A 
BRANCH  13  14
ATOM     14  C   UNL A   1      39.263  29.570  30.484  1.00  0.00     0.031 A 
ATOM     15  C   UNL A   1      40.194  28.509  29.961  1.00  0.00     0.074 A 
ATOM     16  C   UNL A   1      39.549  30.246  31.612  1.00  0.00     0.049 A 
ATOM     17  N   UNL A   1      41.318  28.072  30.466  1.00  0.00    -0.248 NA
ATOM     18  C   UNL A   1      39.816  27.864  28.691  1.00  0.00     0.031 C 
ATOM     19  C   UNL A   1      38.747  31.338  32.169  1.00  0.00     0.029 A 
ATOM     20  N   UNL A   1      40.617  30.146  32.466  1.00  0.00    -0.354 N 
ATOM     21  C   UNL A   1      41.767  27.090  29.591  1.00  0.00     0.074 A 
ATOM     22  C   UNL A   1      40.791  26.983  28.530  1.00  0.00     0.031 C 
ATOM     23  C   UNL A   1      39.380  31.842  33.242  1.00  0.00     0.029 A 
ATOM     24  C   UNL A   1      40.606  31.083  33.472  1.00  0.00     0.049 A 
ATOM     25  H   UNL A   1      41.323  29.468  32.369  1.00  0.00     0.167 HD
ATOM     26  C   UNL A   1      42.893  26.341  29.662  1.00  0.00     0.031 A 
ATOM     27  C   UNL A   1      41.491  31.302  34.464  1.00  0.00     0.031 A 
ATOM     28  C   UNL A   1      43.854  26.446  30.724  1.00  0.00     0.049 A 
ATOM     29  C   UNL A   1      42.714  30.430  34.546  1.00  0.00     0.074 A 
ATOM     30  C   UNL A   1      45.000  25.702  30.932  1.00  0.00     0.029 A 
ATOM     31  N   UNL A   1      43.774  27.364  31.762  1.00  0.00    -0.354 N 
ATOM     32  N   UNL A   1      43.104  29.479  33.729  1.00  0.00    -0.248 NA
ATOM     33  C   UNL A   1      43.612  30.654  35.686  1.00  0.00     0.031 C 
ATOM     34  C   UNL A   1      45.598  26.151  32.116  1.00  0.00     0.029 A 
ATOM     35  C   UNL A   1      44.845  27.200  32.620  1.00  0.00     0.049 A 
ATOM     36  H   UNL A   1      43.061  28.034  31.871  1.00  0.00     0.167 HD
ATOM     37  C   UNL A   1      44.297  28.996  34.252  1.00  0.00     0.074 A 
ATOM     38  C   UNL A   1      44.576  29.775  35.443  1.00  0.00     0.031 C 
ATOM     39  C   UNL A   1      45.090  27.994  33.798  1.00  0.00     0.031 A 
BRANCH  26  40
ATOM     40  C   UNL A   1      43.090  25.307  28.588  1.00  0.00    -0.014 A 
ATOM     41  C   UNL A   1      42.627  23.988  28.750  1.00  0.00     0.010 A 
ATOM     42  C   UNL A   1      43.789  25.651  27.418  1.00  0.00     0.010 A 
ATOM     43  C   UNL A   1      42.909  23.018  27.783  1.00  0.00     0.020 A 
ATOM     44  C   UNL A   1      44.055  24.688  26.440  1.00  0.00     0.020 A 
ATOM     45  C   UNL A   1      43.635  23.372  26.641  1.00  0.00     0.054 A 
BRANCH  45  46
ATOM     46  S   UNL A   1      44.023  22.090  25.417  1.00  0.00     0.124 S 
ATOM     47  O   UNL A   1      45.477  22.009  25.520  1.00  0.00    -0.237 OA
ATOM     48  O   UNL A   1      43.292  20.930  25.920  1.00  0.00    -0.237 OA
ATOM     49  O   UNL A   1      43.517  22.645  24.163  1.00  0.00    -0.744 OA
ENDBRANCH  45  46
ENDBRANCH  26  40
BRANCH  27  50
ATOM     50  C   UNL A   1      41.243  32.382  35.458  1.00  0.00    -0.014 A 
ATOM     51  C   UNL A   1      41.731  33.684  35.248  1.00  0.00     0.010 A 
ATOM     52  C   UNL A   1      40.493  32.113  36.617  1.00  0.00     0.010 A 
ATOM     53  C   UNL A   1      41.471  34.697  36.178  1.00  0.00     0.020 A 
ATOM     54  C   UNL A   1      40.213  33.127  37.537  1.00  0.00     0.020 A 
ATOM     55  C   UNL A   1      40.707  34.412  37.314  1.00  0.00     0.054 A 
BRANCH  55  56
ATOM     56  S   UNL A   1      40.294  35.754  38.465  1.00  0.00     0.124 S 
ATOM     57  O   UNL A   1      39.854  36.808  37.559  1.00  0.00    -0.237 OA
ATOM     58  O   UNL A   1      39.254  35.152  39.294  1.00  0.00    -0.237 OA
ATOM     59  O   UNL A   1      41.557  36.004  39.159  1.00  0.00    -0.744 OA
ENDBRANCH  55  56
ENDBRANCH  27  50
BRANCH  39  60
ATOM     60  C   UNL A   1      46.336  27.699  34.581  1.00  0.00    -0.014 A 
ATOM     61  C   UNL A   1      46.278  26.967  35.779  1.00  0.00     0.010 A 
ATOM     62  C   UNL A   1      47.584  28.115  34.083  1.00  0.00     0.010 A 
ATOM     63  C   UNL A   1      47.449  26.678  36.483  1.00  0.00     0.020 A 
ATOM     64  C   UNL A   1      48.758  27.809  34.775  1.00  0.00     0.020 A 
ATOM     65  C   UNL A   1      48.682  27.105  35.978  1.00  0.00     0.054 A 
BRANCH  65  66
ATOM     66  S   UNL A   1      50.195  26.683  36.884  1.00  0.00     0.124 S 
ATOM     67  O   UNL A   1      50.762  28.000  37.154  1.00  0.00    -0.237 OA
ATOM     68  O   UNL A   1      49.687  25.964  38.049  1.00  0.00    -0.237 OA
ATOM     69  O   UNL A   1      50.945  25.862  35.933  1.00  0.00    -0.744 OA
ENDBRANCH  65  66
ENDBRANCH  39  60
ENDBRANCH  13  14
ENDBRANCH   6   8
ENDBRANCH   5   6
ENDBRANCH   4   5
ENDBRANCH   3   4
ENDBRANCH   2   3
ENDBRANCH   1   2
BRANCH   1  70
ATOM     70  C   UNL A   1      33.122  26.371  25.824  1.00  0.00     0.188 C 
BRANCH  70  71
ATOM     71  O   UNL A   1      33.826  26.459  24.585  1.00  0.00    -0.376 OA
BRANCH  71  72
ATOM     72  C   UNL A   1      33.692  27.681  23.859  1.00  0.00     0.202 C 
BRANCH  72  73
ATOM     73  C   UNL A   1      33.548  27.555  22.340  1.00  0.00     0.261 C 
BRANCH  73  74
ATOM     74  O   UNL A   1      32.387  26.818  21.919  1.00  0.00    -0.460 OA
BRANCH  74  75
ATOM     75  C   UNL A   1      32.658  25.603  21.382  1.00  0.00     0.338 C 
ATOM     76  O   UNL A   1      33.113  25.365  20.275  1.00  0.00    -0.246 OA
BRANCH  75  77
ATOM     77  C   UNL A   1      32.280  24.527  22.307  1.00  0.00     0.062 A 
ATOM     78  C   UNL A   1      31.085  24.590  23.021  1.00  0.00     0.016 A 
ATOM     79  C   UNL A   1      33.251  23.569  22.622  1.00  0.00     0.041 A 
ATOM     80  C   UNL A   1      30.880  23.700  24.073  1.00  0.00     0.003 A 
ATOM     81  C   UNL A   1      33.069  22.681  23.693  1.00  0.00     0.039 A 
ATOM     82  C   UNL A   1      31.873  22.773  24.416  1.00  0.00     0.026 A 
BRANCH  81  83
ATOM     83  N   UNL A   1      34.142  21.842  24.037  1.00  0.00    -0.355 N 
ATOM     84  H   UNL A   1      34.018  20.905  23.764  1.00  0.00     0.167 HD
BRANCH  83  85
ATOM     85  C   UNL A   1      35.357  22.086  24.697  1.00  0.00     0.039 A 
ATOM     86  C   UNL A   1      36.338  21.080  24.654  1.00  0.00     0.033 A 
ATOM     87  C   UNL A   1      35.663  23.290  25.337  1.00  0.00     0.033 A 
ATOM     88  C   UNL A   1      37.602  21.273  25.214  1.00  0.00     0.088 A 
ATOM     89  C   UNL A   1      36.923  23.495  25.913  1.00  0.00     0.088 A 
ATOM     90  C   UNL A   1      37.892  22.486  25.836  1.00  0.00     0.269 A 
BRANCH  90  91
ATOM     91  N   UNL A   1      39.231  22.718  26.387  1.00  0.00     0.062 N 
ATOM     92  O   UNL A   1      40.136  21.933  26.063  1.00  0.00    -0.258 OA
ATOM     93  O   UNL A   1      39.397  23.719  27.100  1.00  0.00    -0.258 OA
ENDBRANCH  90  91
ENDBRANCH  83  85
ENDBRANCH  81  83
ENDBRANCH  75  77
ENDBRANCH  74  75
ENDBRANCH  73  74
ENDBRANCH  72  73
ENDBRANCH  71  72
ENDBRANCH  70  71
ENDBRANCH   1  70
TORSDOF 23
ENDMDL
MODEL 3
REMARK VINA RESULT:      -9.8      2.861      5.799
REMARK SMILES O=C(OCCOCCOCCOC(=O)c1cccc(Nc2ccc([N+](=O)[O-])cc2)c1)c1ccc(-c2c3nc(c(-c4ccc(S(=O)(=O)[O-])cc4)c4ccc([nH]4)c(-c4ccc(S(=O)(=O)[O-])cc4)c4nc(c(-c5ccc(S(=O)(=O)[O-])cc5)c5ccc2[nH]5)C=C4)C=C3)cc1
REMARK SMILES IDX 7 1 6 2 5 3 4 4 3 5 2 6 1 7 31 8 32 9 90 10 33 11 89 12
REMARK SMILES IDX 34 13 35 14 36 15 83 16 37 17 88 18 82 19 84 20 38 21 87 22
REMARK SMILES IDX 81 23 80 24 39 26 69 27 50 28 68 29 51 30 54 31 67 32 85 33
REMARK SMILES IDX 52 34 53 35 66 37 86 38 55 39 40 40 41 41 49 42 42 43 48 44
REMARK SMILES IDX 43 45 44 46 45 47 46 48 47 49 70 50 71 51 79 52 72 53 78 54
REMARK SMILES IDX 73 55 74 56 75 57 76 58 77 59 56 60 57 61 65 62 58 63 64 64
REMARK SMILES IDX 59 65 60 66 61 67 62 68 63 69 8 70 9 71 10 72 11 73 12 74
REMARK SMILES IDX 13 75 14 76 15 77 16 78 30 79 17 80 19 81 18 82 20 83 21 85
REMARK SMILES IDX 22 86 29 87 23 88 28 89 24 90 25 91 26 92 27 93
REMARK H PARENT 84 25 54 36 20 84
REMARK Flexibility Score: inf
ROOT
ATOM      1  C   UNL A   1      36.846  22.249  25.568  1.00  0.00     0.188 C 
ENDROOT
BRANCH   1   2
ATOM      2  O   UNL A   1      37.071  23.410  26.377  1.00  0.00    -0.376 OA
BRANCH   2   3
ATOM      3  C   UNL A   1      38.308  24.074  26.099  1.00  0.00     0.202 C 
BRANCH   3   4
ATOM      4  C   UNL A   1      39.523  23.440  26.785  1.00  0.00     0.261 C 
BRANCH   4   5
ATOM      5  O   UNL A   1      40.605  24.377  26.913  1.00  0.00    -0.460 OA
BRANCH   5   6
ATOM      6  C   UNL A   1      40.562  25.726  26.753  1.00  0.00     0.338 C 
ATOM      7  O   UNL A   1      40.672  26.183  25.616  1.00  0.00    -0.246 OA
BRANCH   6   8
ATOM      8  C   UNL A   1      40.312  26.686  27.871  1.00  0.00     0.060 A 
ATOM      9  C   UNL A   1      40.823  27.983  27.952  1.00  0.00     0.016 A 
ATOM     10  C   UNL A   1      39.462  26.249  28.903  1.00  0.00     0.016 A 
ATOM     11  C   UNL A   1      40.646  28.753  29.099  1.00  0.00     0.010 A 
ATOM     12  C   UNL A   1      39.219  27.048  30.026  1.00  0.00     0.010 A 
ATOM     13  C   UNL A   1      39.869  28.279  30.157  1.00  0.00    -0.014 A 
BRANCH  13  14
ATOM     14  C   UNL A   1      39.880  29.029  31.433  1.00  0.00     0.031 A 
ATOM     15  C   UNL A   1      41.055  28.862  32.360  1.00  0.00     0.074 A 
ATOM     16  C   UNL A   1      38.925  29.943  31.685  1.00  0.00     0.049 A 
ATOM     17  N   UNL A   1      41.323  29.485  33.477  1.00  0.00    -0.248 NA
ATOM     18  C   UNL A   1      42.072  27.870  31.968  1.00  0.00     0.031 C 
ATOM     19  C   UNL A   1      37.780  30.230  30.818  1.00  0.00     0.029 A 
ATOM     20  N   UNL A   1      38.791  30.832  32.720  1.00  0.00    -0.354 N 
ATOM     21  C   UNL A   1      42.522  28.948  33.931  1.00  0.00     0.074 A 
ATOM     22  C   UNL A   1      42.925  27.938  32.978  1.00  0.00     0.031 C 
ATOM     23  C   UNL A   1      37.091  31.263  31.331  1.00  0.00     0.029 A 
ATOM     24  C   UNL A   1      37.719  31.681  32.581  1.00  0.00     0.049 A 
ATOM     25  H   UNL A   1      39.404  30.859  33.490  1.00  0.00     0.167 HD
ATOM     26  C   UNL A   1      43.227  29.265  35.042  1.00  0.00     0.031 A 
ATOM     27  C   UNL A   1      37.298  32.685  33.375  1.00  0.00     0.031 A 
ATOM     28  C   UNL A   1      42.815  30.262  35.990  1.00  0.00     0.049 A 
ATOM     29  C   UNL A   1      38.074  32.991  34.626  1.00  0.00     0.074 A 
ATOM     30  C   UNL A   1      43.418  30.629  37.178  1.00  0.00     0.029 A 
ATOM     31  N   UNL A   1      41.687  31.057  35.846  1.00  0.00    -0.354 N 
ATOM     32  N   UNL A   1      39.188  32.445  35.058  1.00  0.00    -0.248 NA
ATOM     33  C   UNL A   1      37.537  34.041  35.500  1.00  0.00     0.031 C 
ATOM     34  C   UNL A   1      42.634  31.626  37.771  1.00  0.00     0.029 A 
ATOM     35  C   UNL A   1      41.568  31.907  36.930  1.00  0.00     0.049 A 
ATOM     36  H   UNL A   1      41.064  31.022  35.085  1.00  0.00     0.167 HD
ATOM     37  C   UNL A   1      39.488  33.091  36.251  1.00  0.00     0.074 A 
ATOM     38  C   UNL A   1      38.452  34.084  36.460  1.00  0.00     0.031 C 
ATOM     39  C   UNL A   1      40.521  32.881  37.105  1.00  0.00     0.031 A 
BRANCH  26  40
ATOM     40  C   UNL A   1      44.474  28.467  35.305  1.00  0.00    -0.014 A 
ATOM     41  C   UNL A   1      44.484  27.409  36.234  1.00  0.00     0.010 A 
ATOM     42  C   UNL A   1      45.667  28.811  34.644  1.00  0.00     0.010 A 
ATOM     43  C   UNL A   1      45.678  26.748  36.536  1.00  0.00     0.020 A 
ATOM     44  C   UNL A   1      46.857  28.138  34.930  1.00  0.00     0.020 A 
ATOM     45  C   UNL A   1      46.861  27.128  35.893  1.00  0.00     0.054 A 
BRANCH  45  46
ATOM     46  S   UNL A   1      48.406  26.281  36.328  1.00  0.00     0.124 S 
ATOM     47  O   UNL A   1      49.307  26.746  35.277  1.00  0.00    -0.237 OA
ATOM     48  O   UNL A   1      48.688  26.790  37.668  1.00  0.00    -0.237 OA
ATOM     49  O   UNL A   1      48.053  24.865  36.265  1.00  0.00    -0.744 OA
ENDBRANCH  45  46
ENDBRANCH  26  40
BRANCH  27  50
ATOM     50  C   UNL A   1      36.078  33.457  33.014  1.00  0.00    -0.014 A 
ATOM     51  C   UNL A   1      34.820  33.106  33.533  1.00  0.00     0.010 A 
ATOM     52  C   UNL A   1      36.176  34.570  32.158  1.00  0.00     0.010 A 
ATOM     53  C   UNL A   1      33.683  33.854  33.205  1.00  0.00     0.020 A 
ATOM     54  C   UNL A   1      35.048  35.332  31.846  1.00  0.00     0.020 A 
ATOM     55  C   UNL A   1      33.807  34.968  32.368  1.00  0.00     0.054 A 
BRANCH  55  56
ATOM     56  S   UNL A   1      32.345  35.987  32.026  1.00  0.00     0.124 S 
ATOM     57  O   UNL A   1      31.258  35.115  32.455  1.00  0.00    -0.237 OA
ATOM     58  O   UNL A   1      32.580  37.167  32.855  1.00  0.00    -0.237 OA
ATOM     59  O   UNL A   1      32.430  36.229  30.587  1.00  0.00    -0.744 OA
ENDBRANCH  55  56
ENDBRANCH  27  50
BRANCH  39  60
ATOM     60  C   UNL A   1      40.586  33.752  38.327  1.00  0.00    -0.014 A 
ATOM     61  C   UNL A   1      41.256  34.987  38.297  1.00  0.00     0.010 A 
ATOM     62  C   UNL A   1      39.921  33.352  39.500  1.00  0.00     0.010 A 
ATOM     63  C   UNL A   1      41.284  35.797  39.433  1.00  0.00     0.020 A 
ATOM     64  C   UNL A   1      39.931  34.171  40.631  1.00  0.00     0.020 A 
ATOM     65  C   UNL A   1      40.625  35.382  40.595  1.00  0.00     0.054 A 
BRANCH  65  66
ATOM     66  S   UNL A   1      40.637  36.468  42.047  1.00  0.00     0.124 S 
ATOM     67  O   UNL A   1      41.711  35.890  42.848  1.00  0.00    -0.237 OA
ATOM     68  O   UNL A   1      40.917  37.781  41.469  1.00  0.00    -0.237 OA
ATOM     69  O   UNL A   1      39.292  36.314  42.600  1.00  0.00    -0.744 OA
ENDBRANCH  65  66
ENDBRANCH  39  60
ENDBRANCH  13  14
ENDBRANCH   6   8
ENDBRANCH   5   6
ENDBRANCH   4   5
ENDBRANCH   3   4
ENDBRANCH   2   3
ENDBRANCH   1   2
BRANCH   1  70
ATOM     70  C   UNL A   1      35.385  22.165  25.119  1.00  0.00     0.188 C 
BRANCH  70  71
ATOM     71  O   UNL A   1      34.772  20.890  25.305  1.00  0.00    -0.376 OA
BRANCH  71  72
ATOM     72  C   UNL A   1      33.586  20.861  26.100  1.00  0.00     0.202 C 
BRANCH  72  73
ATOM     73  C   UNL A   1      32.958  22.218  26.430  1.00  0.00     0.261 C 
BRANCH  73  74
ATOM     74  O   UNL A   1      32.244  22.817  25.334  1.00  0.00    -0.460 OA
BRANCH  74  75
ATOM     75  C   UNL A   1      31.454  23.861  25.683  1.00  0.00     0.338 C 
ATOM     76  O   UNL A   1      30.349  23.816  26.197  1.00  0.00    -0.246 OA
BRANCH  75  77
ATOM     77  C   UNL A   1      32.081  25.137  25.314  1.00  0.00     0.062 A 
ATOM     78  C   UNL A   1      32.681  25.300  24.066  1.00  0.00     0.016 A 
ATOM     79  C   UNL A   1      32.263  26.089  26.324  1.00  0.00     0.041 A 
ATOM     80  C   UNL A   1      33.487  26.414  23.846  1.00  0.00     0.003 A 
ATOM     81  C   UNL A   1      33.089  27.205  26.125  1.00  0.00     0.039 A 
ATOM     82  C   UNL A   1      33.705  27.341  24.875  1.00  0.00     0.026 A 
BRANCH  81  83
ATOM     83  N   UNL A   1      33.335  28.042  27.226  1.00  0.00    -0.355 N 
ATOM     84  H   UNL A   1      32.987  27.692  28.077  1.00  0.00     0.167 HD
BRANCH  83  85
ATOM     85  C   UNL A   1      33.980  29.284  27.343  1.00  0.00     0.039 A 
ATOM     86  C   UNL A   1      33.176  30.435  27.413  1.00  0.00     0.033 A 
ATOM     87  C   UNL A   1      35.366  29.429  27.453  1.00  0.00     0.033 A 
ATOM     88  C   UNL A   1      33.732  31.700  27.610  1.00  0.00     0.088 A 
ATOM     89  C   UNL A   1      35.941  30.693  27.640  1.00  0.00     0.088 A 
ATOM     90  C   UNL A   1      35.116  31.822  27.731  1.00  0.00     0.269 A 
BRANCH  90  91
ATOM     91  N   UNL A   1      35.708  33.139  27.986  1.00  0.00     0.062 N 
ATOM     92  O   UNL A   1      36.765  33.185  28.634  1.00  0.00    -0.258 OA
ATOM     93  O   UNL A   1      35.148  34.129  27.490  1.00  0.00    -0.258 OA
ENDBRANCH  90  91
ENDBRANCH  83  85
ENDBRANCH  81  83
ENDBRANCH  75  77
ENDBRANCH  74  75
ENDBRANCH  73  74
ENDBRANCH  72  73
ENDBRANCH  71  72
ENDBRANCH  70  71
ENDBRANCH   1  70
TORSDOF 23
ENDMDL
