MODEL 1
REMARK VINA RESULT:      -9.6      0.000      0.000
REMARK SMILES C[C@@H](Sc1nc2c(cc1C#N)CCC2)C(=O)OCCOCCOCCOC(=O)c1ccc(-c2c3nc(c(-c4ccc(S(=O)(=O)[O-])cc4)c4ccc([nH]4)c(-c4ccc(S(=O)(=O)[O-])cc4)c4nc(c(-c5ccc(S(=O)(=O)[O-])cc5)c5ccc2[nH]5)C=C4)C=C3)cc1
REMARK SMILES IDX 21 1 20 2 19 3 18 4 17 5 15 6 16 7 2 8 1 9 3 10 4 11 5 12
REMARK SMILES IDX 9 13 6 14 8 15 7 16 14 17 12 18 13 19 10 20 11 21 22 22
REMARK SMILES IDX 23 23 24 24 25 25 26 26 27 27 28 28 29 29 30 30 88 31 31 32
REMARK SMILES IDX 87 33 32 34 33 35 34 36 81 37 35 38 86 39 80 40 82 41 36 42
REMARK SMILES IDX 85 43 79 44 78 45 37 47 67 48 48 49 66 50 49 51 52 52 65 53
REMARK SMILES IDX 83 54 50 55 51 56 64 58 84 59 53 60 38 61 39 62 47 63 40 64
REMARK SMILES IDX 46 65 41 66 42 67 43 68 44 69 45 70 68 71 69 72 77 73 70 74
REMARK SMILES IDX 76 75 71 76 72 77 73 78 74 79 75 80 54 81 55 82 63 83 56 84
REMARK SMILES IDX 62 85 57 86 58 87 59 88 60 89 61 90
REMARK H PARENT 82 46 52 57
REMARK Flexibility Score: inf
ROOT
ATOM      1  C   UNL A   1      38.964  21.759  26.141  1.00  0.00     0.188 C 
ENDROOT
BRANCH   1   2
ATOM      2  O   UNL A   1      38.044  21.648  25.068  1.00  0.00    -0.376 OA
BRANCH   2   3
ATOM      3  C   UNL A   1      36.739  22.187  25.207  1.00  0.00     0.202 C 
BRANCH   3   4
ATOM      4  C   UNL A   1      35.634  21.429  25.974  1.00  0.00     0.261 C 
BRANCH   4   5
ATOM      5  O   UNL A   1      34.311  22.007  25.972  1.00  0.00    -0.462 OA
BRANCH   5   6
ATOM      6  C   UNL A   1      33.704  22.121  24.759  1.00  0.00     0.319 C 
ATOM      7  O   UNL A   1      33.639  21.195  23.954  1.00  0.00    -0.251 OA
BRANCH   6   8
ATOM      8  C   UNL A   1      33.084  23.507  24.476  1.00  0.00     0.160 C 
ATOM      9  C   UNL A   1      32.146  24.109  25.532  1.00  0.00     0.032 C 
BRANCH   8  10
ATOM     10  S   UNL A   1      34.512  24.615  24.155  1.00  0.00    -0.090 SA
BRANCH  10  11
ATOM     11  C   UNL A   1      33.779  26.216  24.451  1.00  0.00     0.115 A 
ATOM     12  N   UNL A   1      33.847  26.694  25.722  1.00  0.00    -0.245 NA
ATOM     13  C   UNL A   1      33.122  26.888  23.407  1.00  0.00     0.085 A 
ATOM     14  C   UNL A   1      33.156  27.824  25.956  1.00  0.00     0.045 A 
ATOM     15  C   UNL A   1      32.421  28.063  23.692  1.00  0.00     0.028 A 
ATOM     16  C   UNL A   1      32.415  28.506  24.998  1.00  0.00    -0.025 A 
ATOM     17  C   UNL A   1      33.077  28.535  27.282  1.00  0.00     0.057 C 
ATOM     18  C   UNL A   1      31.705  29.679  25.586  1.00  0.00     0.038 C 
ATOM     19  C   UNL A   1      31.793  29.355  27.086  1.00  0.00     0.011 C 
BRANCH  13  20
ATOM     20  C   UNL A   1      33.185  26.423  22.056  1.00  0.00     0.102 C 
ATOM     21  N   UNL A   1      33.278  26.055  20.955  1.00  0.00    -0.192 NA
ENDBRANCH  13  20
ENDBRANCH  10  11
ENDBRANCH   8  10
ENDBRANCH   6   8
ENDBRANCH   5   6
ENDBRANCH   4   5
ENDBRANCH   3   4
ENDBRANCH   2   3
ENDBRANCH   1   2
BRANCH   1  22
ATOM     22  C   UNL A   1      40.140  20.773  26.229  1.00  0.00     0.188 C 
BRANCH  22  23
ATOM     23  O   UNL A   1      41.372  21.317  26.624  1.00  0.00    -0.376 OA
BRANCH  23  24
ATOM     24  C   UNL A   1      41.750  22.586  26.127  1.00  0.00     0.202 C 
BRANCH  24  25
ATOM     25  C   UNL A   1      41.817  23.867  26.989  1.00  0.00     0.261 C 
BRANCH  25  26
ATOM     26  O   UNL A   1      40.635  24.670  27.123  1.00  0.00    -0.460 OA
BRANCH  26  27
ATOM     27  C   UNL A   1      40.691  25.938  26.640  1.00  0.00     0.338 C 
ATOM     28  O   UNL A   1      40.756  26.267  25.469  1.00  0.00    -0.246 OA
BRANCH  27  29
ATOM     29  C   UNL A   1      40.401  26.872  27.756  1.00  0.00     0.060 A 
ATOM     30  C   UNL A   1      40.862  28.197  27.678  1.00  0.00     0.016 A 
ATOM     31  C   UNL A   1      39.681  26.447  28.871  1.00  0.00     0.016 A 
ATOM     32  C   UNL A   1      40.613  29.097  28.716  1.00  0.00     0.010 A 
ATOM     33  C   UNL A   1      39.470  27.337  29.931  1.00  0.00     0.010 A 
ATOM     34  C   UNL A   1      39.960  28.657  29.873  1.00  0.00    -0.014 A 
BRANCH  34  35
ATOM     35  C   UNL A   1      40.009  29.484  31.106  1.00  0.00     0.031 A 
ATOM     36  C   UNL A   1      41.163  29.264  32.050  1.00  0.00     0.074 A 
ATOM     37  C   UNL A   1      39.084  30.424  31.381  1.00  0.00     0.049 A 
ATOM     38  N   UNL A   1      41.385  29.790  33.226  1.00  0.00    -0.248 NA
ATOM     39  C   UNL A   1      42.206  28.325  31.603  1.00  0.00     0.031 C 
ATOM     40  C   UNL A   1      37.967  30.798  30.516  1.00  0.00     0.029 A 
ATOM     41  N   UNL A   1      38.944  31.236  32.481  1.00  0.00    -0.354 N 
ATOM     42  C   UNL A   1      42.584  29.237  33.664  1.00  0.00     0.074 A 
ATOM     43  C   UNL A   1      43.025  28.313  32.644  1.00  0.00     0.031 C 
ATOM     44  C   UNL A   1      37.252  31.761  31.123  1.00  0.00     0.029 A 
ATOM     45  C   UNL A   1      37.831  32.043  32.436  1.00  0.00     0.049 A 
ATOM     46  H   UNL A   1      39.581  31.239  33.232  1.00  0.00     0.167 HD
ATOM     47  C   UNL A   1      43.263  29.483  34.808  1.00  0.00     0.031 A 
ATOM     48  C   UNL A   1      37.326  32.890  33.358  1.00  0.00     0.031 A 
ATOM     49  C   UNL A   1      42.821  30.395  35.827  1.00  0.00     0.049 A 
ATOM     50  C   UNL A   1      38.041  33.057  34.679  1.00  0.00     0.074 A 
ATOM     51  C   UNL A   1      43.439  30.706  37.026  1.00  0.00     0.029 A 
ATOM     52  N   UNL A   1      41.655  31.141  35.773  1.00  0.00    -0.354 N 
ATOM     53  N   UNL A   1      39.174  32.529  35.080  1.00  0.00    -0.248 NA
ATOM     54  C   UNL A   1      37.407  33.938  35.672  1.00  0.00     0.031 C 
ATOM     55  C   UNL A   1      42.612  31.588  37.726  1.00  0.00     0.029 A 
ATOM     56  C   UNL A   1      41.517  31.886  36.932  1.00  0.00     0.049 A 
ATOM     57  H   UNL A   1      41.018  31.142  35.021  1.00  0.00     0.167 HD
ATOM     58  C   UNL A   1      39.398  33.034  36.359  1.00  0.00     0.074 A 
ATOM     59  C   UNL A   1      38.299  33.928  36.653  1.00  0.00     0.031 C 
ATOM     60  C   UNL A   1      40.418  32.774  37.215  1.00  0.00     0.031 A 
BRANCH  47  61
ATOM     61  C   UNL A   1      44.553  28.739  35.033  1.00  0.00    -0.014 A 
ATOM     62  C   UNL A   1      45.773  29.237  34.543  1.00  0.00     0.010 A 
ATOM     63  C   UNL A   1      44.554  27.565  35.810  1.00  0.00     0.010 A 
ATOM     64  C   UNL A   1      46.968  28.565  34.809  1.00  0.00     0.020 A 
ATOM     65  C   UNL A   1      45.752  26.908  36.104  1.00  0.00     0.020 A 
ATOM     66  C   UNL A   1      46.951  27.409  35.595  1.00  0.00     0.054 A 
BRANCH  66  67
ATOM     67  S   UNL A   1      48.527  26.594  35.966  1.00  0.00     0.124 S 
ATOM     68  O   UNL A   1      49.072  26.365  34.630  1.00  0.00    -0.237 OA
ATOM     69  O   UNL A   1      49.222  27.600  36.764  1.00  0.00    -0.237 OA
ATOM     70  O   UNL A   1      48.134  25.387  36.691  1.00  0.00    -0.744 OA
ENDBRANCH  66  67
ENDBRANCH  47  61
BRANCH  48  71
ATOM     71  C   UNL A   1      36.066  33.641  33.084  1.00  0.00    -0.014 A 
ATOM     72  C   UNL A   1      36.106  34.999  32.723  1.00  0.00     0.010 A 
ATOM     73  C   UNL A   1      34.814  33.009  33.208  1.00  0.00     0.010 A 
ATOM     74  C   UNL A   1      34.924  35.714  32.506  1.00  0.00     0.020 A 
ATOM     75  C   UNL A   1      33.629  33.711  32.958  1.00  0.00     0.020 A 
ATOM     76  C   UNL A   1      33.692  35.064  32.619  1.00  0.00     0.054 A 
BRANCH  76  77
ATOM     77  S   UNL A   1      32.176  36.006  32.292  1.00  0.00     0.124 S 
ATOM     78  O   UNL A   1      32.337  36.367  30.888  1.00  0.00    -0.237 OA
ATOM     79  O   UNL A   1      31.132  35.025  32.577  1.00  0.00    -0.237 OA
ATOM     80  O   UNL A   1      32.253  37.119  33.237  1.00  0.00    -0.744 OA
ENDBRANCH  76  77
ENDBRANCH  48  71
BRANCH  60  81
ATOM     81  C   UNL A   1      40.415  33.476  38.550  1.00  0.00    -0.014 A 
ATOM     82  C   UNL A   1      41.178  34.637  38.764  1.00  0.00     0.010 A 
ATOM     83  C   UNL A   1      39.579  33.012  39.584  1.00  0.00     0.010 A 
ATOM     84  C   UNL A   1      41.133  35.300  39.993  1.00  0.00     0.020 A 
ATOM     85  C   UNL A   1      39.503  33.692  40.803  1.00  0.00     0.020 A 
ATOM     86  C   UNL A   1      40.293  34.825  41.005  1.00  0.00     0.054 A 
BRANCH  86  87
ATOM     87  S   UNL A   1      40.229  35.728  42.576  1.00  0.00     0.124 S 
ATOM     88  O   UNL A   1      40.363  34.651  43.552  1.00  0.00    -0.237 OA
ATOM     89  O   UNL A   1      41.373  36.629  42.471  1.00  0.00    -0.237 OA
ATOM     90  O   UNL A   1      38.923  36.383  42.549  1.00  0.00    -0.744 OA
ENDBRANCH  86  87
ENDBRANCH  60  81
ENDBRANCH  34  35
ENDBRANCH  27  29
ENDBRANCH  26  27
ENDBRANCH  25  26
ENDBRANCH  24  25
ENDBRANCH  23  24
ENDBRANCH  22  23
ENDBRANCH   1  22
TORSDOF 23
ENDMDL
MODEL 2
REMARK VINA RESULT:      -9.6      2.547      8.704
REMARK SMILES C[C@@H](Sc1nc2c(cc1C#N)CCC2)C(=O)OCCOCCOCCOC(=O)c1ccc(-c2c3nc(c(-c4ccc(S(=O)(=O)[O-])cc4)c4ccc([nH]4)c(-c4ccc(S(=O)(=O)[O-])cc4)c4nc(c(-c5ccc(S(=O)(=O)[O-])cc5)c5ccc2[nH]5)C=C4)C=C3)cc1
REMARK SMILES IDX 21 1 20 2 19 3 18 4 17 5 15 6 16 7 2 8 1 9 3 10 4 11 5 12
REMARK SMILES IDX 9 13 6 14 8 15 7 16 14 17 12 18 13 19 10 20 11 21 22 22
REMARK SMILES IDX 23 23 24 24 25 25 26 26 27 27 28 28 29 29 30 30 88 31 31 32
REMARK SMILES IDX 87 33 32 34 33 35 34 36 81 37 35 38 86 39 80 40 82 41 36 42
REMARK SMILES IDX 85 43 79 44 78 45 37 47 67 48 48 49 66 50 49 51 52 52 65 53
REMARK SMILES IDX 83 54 50 55 51 56 64 58 84 59 53 60 38 61 39 62 47 63 40 64
REMARK SMILES IDX 46 65 41 66 42 67 43 68 44 69 45 70 68 71 69 72 77 73 70 74
REMARK SMILES IDX 76 75 71 76 72 77 73 78 74 79 75 80 54 81 55 82 63 83 56 84
REMARK SMILES IDX 62 85 57 86 58 87 59 88 60 89 61 90
REMARK H PARENT 82 46 52 57
REMARK Flexibility Score: inf
ROOT
ATOM      1  C   UNL A   1      41.421  20.181  27.277  1.00  0.00     0.188 C 
ENDROOT
BRANCH   1   2
ATOM      2  O   UNL A   1      40.250  20.830  26.811  1.00  0.00    -0.376 OA
BRANCH   2   3
ATOM      3  C   UNL A   1      40.017  22.187  27.157  1.00  0.00     0.202 C 
BRANCH   3   4
ATOM      4  C   UNL A   1      39.392  23.177  26.153  1.00  0.00     0.261 C 
BRANCH   4   5
ATOM      5  O   UNL A   1      37.954  23.297  26.149  1.00  0.00    -0.462 OA
BRANCH   5   6
ATOM      6  C   UNL A   1      37.289  22.552  25.223  1.00  0.00     0.319 C 
ATOM      7  O   UNL A   1      37.720  21.486  24.788  1.00  0.00    -0.251 OA
BRANCH   6   8
ATOM      8  C   UNL A   1      35.937  23.144  24.771  1.00  0.00     0.160 C 
ATOM      9  C   UNL A   1      35.428  22.796  23.365  1.00  0.00     0.032 C 
BRANCH   8  10
ATOM     10  S   UNL A   1      34.733  22.625  26.055  1.00  0.00    -0.090 SA
BRANCH  10  11
ATOM     11  C   UNL A   1      33.973  21.215  25.265  1.00  0.00     0.115 A 
ATOM     12  N   UNL A   1      34.671  20.048  25.293  1.00  0.00    -0.245 NA
ATOM     13  C   UNL A   1      32.741  21.363  24.607  1.00  0.00     0.085 A 
ATOM     14  C   UNL A   1      34.155  19.044  24.562  1.00  0.00     0.045 A 
ATOM     15  C   UNL A   1      32.237  20.292  23.863  1.00  0.00     0.028 A 
ATOM     16  C   UNL A   1      32.985  19.134  23.817  1.00  0.00    -0.025 A 
ATOM     17  C   UNL A   1      34.752  17.667  24.435  1.00  0.00     0.057 C 
ATOM     18  C   UNL A   1      32.720  17.877  23.059  1.00  0.00     0.038 C 
ATOM     19  C   UNL A   1      34.096  17.195  23.128  1.00  0.00     0.011 C 
BRANCH  13  20
ATOM     20  C   UNL A   1      31.971  22.563  24.710  1.00  0.00     0.102 C 
ATOM     21  N   UNL A   1      31.366  23.557  24.760  1.00  0.00    -0.192 NA
ENDBRANCH  13  20
ENDBRANCH  10  11
ENDBRANCH   8  10
ENDBRANCH   6   8
ENDBRANCH   5   6
ENDBRANCH   4   5
ENDBRANCH   3   4
ENDBRANCH   2   3
ENDBRANCH   1   2
BRANCH   1  22
ATOM     22  C   UNL A   1      42.441  19.645  26.260  1.00  0.00     0.188 C 
BRANCH  22  23
ATOM     23  O   UNL A   1      43.573  20.447  26.042  1.00  0.00    -0.376 OA
BRANCH  23  24
ATOM     24  C   UNL A   1      43.393  21.812  25.720  1.00  0.00     0.202 C 
BRANCH  24  25
ATOM     25  C   UNL A   1      43.958  22.981  26.558  1.00  0.00     0.261 C 
BRANCH  25  26
ATOM     26  O   UNL A   1      43.039  23.884  27.190  1.00  0.00    -0.460 OA
BRANCH  26  27
ATOM     27  C   UNL A   1      42.828  25.078  26.579  1.00  0.00     0.338 C 
ATOM     28  O   UNL A   1      42.823  25.290  25.379  1.00  0.00    -0.246 OA
BRANCH  27  29
ATOM     29  C   UNL A   1      42.349  26.042  27.600  1.00  0.00     0.060 A 
ATOM     30  C   UNL A   1      43.062  27.235  27.804  1.00  0.00     0.016 A 
ATOM     31  C   UNL A   1      41.207  25.774  28.352  1.00  0.00     0.016 A 
ATOM     32  C   UNL A   1      42.641  28.159  28.764  1.00  0.00     0.010 A 
ATOM     33  C   UNL A   1      40.810  26.679  29.344  1.00  0.00     0.010 A 
ATOM     34  C   UNL A   1      41.541  27.860  29.576  1.00  0.00    -0.014 A 
BRANCH  34  35
ATOM     35  C   UNL A   1      41.307  28.645  30.816  1.00  0.00     0.031 A 
ATOM     36  C   UNL A   1      40.200  29.667  30.799  1.00  0.00     0.074 A 
ATOM     37  C   UNL A   1      42.025  28.450  31.939  1.00  0.00     0.049 A 
ATOM     38  N   UNL A   1      39.855  30.534  31.713  1.00  0.00    -0.248 NA
ATOM     39  C   UNL A   1      39.369  29.713  29.582  1.00  0.00     0.031 C 
ATOM     40  C   UNL A   1      43.064  27.439  32.120  1.00  0.00     0.029 A 
ATOM     41  N   UNL A   1      41.982  29.108  33.145  1.00  0.00    -0.354 N 
ATOM     42  C   UNL A   1      38.779  31.235  31.180  1.00  0.00     0.074 A 
ATOM     43  C   UNL A   1      38.547  30.715  29.852  1.00  0.00     0.031 C 
ATOM     44  C   UNL A   1      43.566  27.549  33.363  1.00  0.00     0.029 A 
ATOM     45  C   UNL A   1      42.916  28.665  34.052  1.00  0.00     0.049 A 
ATOM     46  H   UNL A   1      41.342  29.829  33.342  1.00  0.00     0.167 HD
ATOM     47  C   UNL A   1      38.042  32.218  31.749  1.00  0.00     0.031 A 
ATOM     48  C   UNL A   1      43.228  29.123  35.283  1.00  0.00     0.031 A 
ATOM     49  C   UNL A   1      38.278  32.742  33.067  1.00  0.00     0.049 A 
ATOM     50  C   UNL A   1      42.468  30.301  35.847  1.00  0.00     0.074 A 
ATOM     51  C   UNL A   1      37.587  33.743  33.727  1.00  0.00     0.029 A 
ATOM     52  N   UNL A   1      39.276  32.311  33.925  1.00  0.00    -0.354 N 
ATOM     53  N   UNL A   1      41.452  30.954  35.334  1.00  0.00    -0.248 NA
ATOM     54  C   UNL A   1      42.898  30.801  37.162  1.00  0.00     0.031 C 
ATOM     55  C   UNL A   1      38.211  33.964  34.956  1.00  0.00     0.029 A 
ATOM     56  C   UNL A   1      39.242  33.050  35.096  1.00  0.00     0.049 A 
ATOM     57  H   UNL A   1      39.915  31.587  33.731  1.00  0.00     0.167 HD
ATOM     58  C   UNL A   1      41.108  31.923  36.273  1.00  0.00     0.074 A 
ATOM     59  C   UNL A   1      42.005  31.754  37.396  1.00  0.00     0.031 C 
ATOM     60  C   UNL A   1      40.141  32.874  36.208  1.00  0.00     0.031 A 
BRANCH  47  61
ATOM     61  C   UNL A   1      36.918  32.810  30.940  1.00  0.00    -0.014 A 
ATOM     62  C   UNL A   1      37.175  33.709  29.890  1.00  0.00     0.010 A 
ATOM     63  C   UNL A   1      35.593  32.404  31.186  1.00  0.00     0.010 A 
ATOM     64  C   UNL A   1      36.127  34.205  29.113  1.00  0.00     0.020 A 
ATOM     65  C   UNL A   1      34.545  32.874  30.389  1.00  0.00     0.020 A 
ATOM     66  C   UNL A   1      34.819  33.779  29.362  1.00  0.00     0.054 A 
BRANCH  66  67
ATOM     67  S   UNL A   1      33.490  34.400  28.298  1.00  0.00     0.124 S 
ATOM     68  O   UNL A   1      32.598  35.034  29.266  1.00  0.00    -0.237 OA
ATOM     69  O   UNL A   1      34.200  35.313  27.407  1.00  0.00    -0.237 OA
ATOM     70  O   UNL A   1      32.961  33.196  27.661  1.00  0.00    -0.744 OA
ENDBRANCH  66  67
ENDBRANCH  47  61
BRANCH  48  71
ATOM     71  C   UNL A   1      44.323  28.485  36.072  1.00  0.00    -0.014 A 
ATOM     72  C   UNL A   1      45.653  28.918  35.929  1.00  0.00     0.010 A 
ATOM     73  C   UNL A   1      44.046  27.424  36.954  1.00  0.00     0.010 A 
ATOM     74  C   UNL A   1      46.685  28.295  36.637  1.00  0.00     0.020 A 
ATOM     75  C   UNL A   1      45.071  26.820  37.691  1.00  0.00     0.020 A 
ATOM     76  C   UNL A   1      46.387  27.253  37.520  1.00  0.00     0.054 A 
BRANCH  76  77
ATOM     77  S   UNL A   1      47.741  26.490  38.456  1.00  0.00     0.124 S 
ATOM     78  O   UNL A   1      47.838  27.364  39.620  1.00  0.00    -0.237 OA
ATOM     79  O   UNL A   1      47.223  25.149  38.714  1.00  0.00    -0.237 OA
ATOM     80  O   UNL A   1      48.873  26.549  37.533  1.00  0.00    -0.744 OA
ENDBRANCH  76  77
ENDBRANCH  48  71
BRANCH  60  81
ATOM     81  C   UNL A   1      39.980  33.799  37.389  1.00  0.00    -0.014 A 
ATOM     82  C   UNL A   1      40.645  35.036  37.439  1.00  0.00     0.010 A 
ATOM     83  C   UNL A   1      39.094  33.460  38.429  1.00  0.00     0.010 A 
ATOM     84  C   UNL A   1      40.455  35.901  38.520  1.00  0.00     0.020 A 
ATOM     85  C   UNL A   1      38.872  34.337  39.495  1.00  0.00     0.020 A 
ATOM     86  C   UNL A   1      39.566  35.547  39.540  1.00  0.00     0.054 A 
BRANCH  86  87
ATOM     87  S   UNL A   1      39.312  36.707  40.911  1.00  0.00     0.124 S 
ATOM     88  O   UNL A   1      38.564  37.782  40.266  1.00  0.00    -0.237 OA
ATOM     89  O   UNL A   1      38.559  35.904  41.870  1.00  0.00    -0.237 OA
ATOM     90  O   UNL A   1      40.668  37.057  41.328  1.00  0.00    -0.744 OA
ENDBRANCH  86  87
ENDBRANCH  60  81
ENDBRANCH  34  35
ENDBRANCH  27  29
ENDBRANCH  26  27
ENDBRANCH  25  26
ENDBRANCH  24  25
ENDBRANCH  23  24
ENDBRANCH  22  23
ENDBRANCH   1  22
TORSDOF 23
ENDMDL
MODEL 3
REMARK VINA RESULT:      -9.3      6.899     12.004
REMARK SMILES C[C@@H](Sc1nc2c(cc1C#N)CCC2)C(=O)OCCOCCOCCOC(=O)c1ccc(-c2c3nc(c(-c4ccc(S(=O)(=O)[O-])cc4)c4ccc([nH]4)c(-c4ccc(S(=O)(=O)[O-])cc4)c4nc(c(-c5ccc(S(=O)(=O)[O-])cc5)c5ccc2[nH]5)C=C4)C=C3)cc1
REMARK SMILES IDX 21 1 20 2 19 3 18 4 17 5 15 6 16 7 2 8 1 9 3 10 4 11 5 12
REMARK SMILES IDX 9 13 6 14 8 15 7 16 14 17 12 18 13 19 10 20 11 21 22 22
REMARK SMILES IDX 23 23 24 24 25 25 26 26 27 27 28 28 29 29 30 30 88 31 31 32
REMARK SMILES IDX 87 33 32 34 33 35 34 36 81 37 35 38 86 39 80 40 82 41 36 42
REMARK SMILES IDX 85 43 79 44 78 45 37 47 67 48 48 49 66 50 49 51 52 52 65 53
REMARK SMILES IDX 83 54 50 55 51 56 64 58 84 59 53 60 38 61 39 62 47 63 40 64
REMARK SMILES IDX 46 65 41 66 42 67 43 68 44 69 45 70 68 71 69 72 77 73 70 74
REMARK SMILES IDX 76 75 71 76 72 77 73 78 74 79 75 80 54 81 55 82 63 83 56 84
REMARK SMILES IDX 62 85 57 86 58 87 59 88 60 89 61 90
REMARK H PARENT 82 46 52 57
REMARK Flexibility Score: inf
ROOT
ATOM      1  C   UNL A   1      32.660  28.984  24.983  1.00  0.00     0.188 C 
ENDROOT
BRANCH   1   2
ATOM      2  O   UNL A   1      33.264  29.416  23.775  1.00  0.00    -0.376 OA
BRANCH   2   3
ATOM      3  C   UNL A   1      33.389  28.507  22.692  1.00  0.00     0.202 C 
BRANCH   3   4
ATOM      4  C   UNL A   1      33.050  27.010  22.855  1.00  0.00     0.261 C 
BRANCH   4   5
ATOM      5  O   UNL A   1      31.829  26.537  22.248  1.00  0.00    -0.462 OA
BRANCH   5   6
ATOM      6  C   UNL A   1      30.705  26.620  23.012  1.00  0.00     0.319 C 
ATOM      7  O   UNL A   1      30.070  27.662  23.157  1.00  0.00    -0.251 OA
BRANCH   6   8
ATOM      8  C   UNL A   1      30.276  25.291  23.671  1.00  0.00     0.160 C 
ATOM      9  C   UNL A   1      31.038  24.014  23.289  1.00  0.00     0.032 C 
BRANCH   8  10
ATOM     10  S   UNL A   1      30.372  25.600  25.478  1.00  0.00    -0.090 SA
BRANCH  10  11
ATOM     11  C   UNL A   1      31.758  24.569  25.931  1.00  0.00     0.115 A 
ATOM     12  N   UNL A   1      32.986  24.976  25.511  1.00  0.00    -0.245 NA
ATOM     13  C   UNL A   1      31.539  23.373  26.635  1.00  0.00     0.085 A 
ATOM     14  C   UNL A   1      33.991  24.109  25.728  1.00  0.00     0.045 A 
ATOM     15  C   UNL A   1      32.612  22.503  26.844  1.00  0.00     0.028 A 
ATOM     16  C   UNL A   1      33.844  22.871  26.344  1.00  0.00    -0.025 A 
ATOM     17  C   UNL A   1      35.431  24.336  25.347  1.00  0.00     0.057 C 
ATOM     18  C   UNL A   1      35.130  22.115  26.368  1.00  0.00     0.038 C 
ATOM     19  C   UNL A   1      35.947  22.889  25.322  1.00  0.00     0.011 C 
BRANCH  13  20
ATOM     20  C   UNL A   1      30.257  23.042  27.177  1.00  0.00     0.102 C 
ATOM     21  N   UNL A   1      29.223  22.798  27.652  1.00  0.00    -0.192 NA
ENDBRANCH  13  20
ENDBRANCH  10  11
ENDBRANCH   8  10
ENDBRANCH   6   8
ENDBRANCH   5   6
ENDBRANCH   4   5
ENDBRANCH   3   4
ENDBRANCH   2   3
ENDBRANCH   1   2
BRANCH   1  22
ATOM     22  C   UNL A   1      33.552  28.523  26.147  1.00  0.00     0.188 C 
BRANCH  22  23
ATOM     23  O   UNL A   1      33.362  29.186  27.370  1.00  0.00    -0.376 OA
BRANCH  23  24
ATOM     24  C   UNL A   1      33.521  30.590  27.418  1.00  0.00     0.202 C 
BRANCH  24  25
ATOM     25  C   UNL A   1      34.770  31.301  27.985  1.00  0.00     0.261 C 
BRANCH  25  26
ATOM     26  O   UNL A   1      36.010  30.579  28.037  1.00  0.00    -0.460 OA
BRANCH  26  27
ATOM     27  C   UNL A   1      36.842  30.854  29.074  1.00  0.00     0.338 C 
ATOM     28  O   UNL A   1      36.531  31.340  30.146  1.00  0.00    -0.246 OA
BRANCH  27  29
ATOM     29  C   UNL A   1      38.159  30.230  28.789  1.00  0.00     0.060 A 
ATOM     30  C   UNL A   1      39.127  30.180  29.807  1.00  0.00     0.016 A 
ATOM     31  C   UNL A   1      38.438  29.700  27.532  1.00  0.00     0.016 A 
ATOM     32  C   UNL A   1      40.378  29.607  29.567  1.00  0.00     0.010 A 
ATOM     33  C   UNL A   1      39.707  29.166  27.279  1.00  0.00     0.010 A 
ATOM     34  C   UNL A   1      40.693  29.144  28.285  1.00  0.00    -0.014 A 
BRANCH  34  35
ATOM     35  C   UNL A   1      42.110  28.873  27.928  1.00  0.00     0.031 A 
ATOM     36  C   UNL A   1      42.488  27.453  27.593  1.00  0.00     0.074 A 
ATOM     37  C   UNL A   1      43.037  29.847  27.869  1.00  0.00     0.049 A 
ATOM     38  N   UNL A   1      43.665  26.944  27.339  1.00  0.00    -0.248 NA
ATOM     39  C   UNL A   1      41.385  26.476  27.537  1.00  0.00     0.031 C 
ATOM     40  C   UNL A   1      42.791  31.271  28.084  1.00  0.00     0.029 A 
ATOM     41  N   UNL A   1      44.386  29.775  27.610  1.00  0.00    -0.354 N 
ATOM     42  C   UNL A   1      43.447  25.591  27.106  1.00  0.00     0.074 A 
ATOM     43  C   UNL A   1      42.032  25.350  27.279  1.00  0.00     0.031 C 
ATOM     44  C   UNL A   1      43.952  31.938  27.956  1.00  0.00     0.029 A 
ATOM     45  C   UNL A   1      45.032  30.986  27.693  1.00  0.00     0.049 A 
ATOM     46  H   UNL A   1      44.846  28.934  27.386  1.00  0.00     0.167 HD
ATOM     47  C   UNL A   1      44.342  24.634  26.767  1.00  0.00     0.031 A 
ATOM     48  C   UNL A   1      46.344  31.287  27.593  1.00  0.00     0.031 A 
ATOM     49  C   UNL A   1      45.751  24.870  26.603  1.00  0.00     0.049 A 
ATOM     50  C   UNL A   1      47.339  30.180  27.333  1.00  0.00     0.074 A 
ATOM     51  C   UNL A   1      46.739  23.961  26.267  1.00  0.00     0.029 A 
ATOM     52  N   UNL A   1      46.373  26.098  26.762  1.00  0.00    -0.354 N 
ATOM     53  N   UNL A   1      47.120  28.905  27.114  1.00  0.00    -0.248 NA
ATOM     54  C   UNL A   1      48.761  30.557  27.306  1.00  0.00     0.031 C 
ATOM     55  C   UNL A   1      47.967  24.625  26.290  1.00  0.00     0.029 A 
ATOM     56  C   UNL A   1      47.737  25.963  26.565  1.00  0.00     0.049 A 
ATOM     57  H   UNL A   1      45.913  26.941  26.982  1.00  0.00     0.167 HD
ATOM     58  C   UNL A   1      48.372  28.335  26.898  1.00  0.00     0.074 A 
ATOM     59  C   UNL A   1      49.340  29.407  26.986  1.00  0.00     0.031 C 
ATOM     60  C   UNL A   1      48.693  27.038  26.656  1.00  0.00     0.031 A 
BRANCH  47  61
ATOM     61  C   UNL A   1      43.830  23.231  26.569  1.00  0.00    -0.014 A 
ATOM     62  C   UNL A   1      44.143  22.502  25.409  1.00  0.00     0.010 A 
ATOM     63  C   UNL A   1      43.089  22.609  27.592  1.00  0.00     0.010 A 
ATOM     64  C   UNL A   1      43.708  21.183  25.266  1.00  0.00     0.020 A 
ATOM     65  C   UNL A   1      42.680  21.279  27.465  1.00  0.00     0.020 A 
ATOM     66  C   UNL A   1      42.986  20.576  26.298  1.00  0.00     0.054 A 
BRANCH  66  67
ATOM     67  S   UNL A   1      42.487  18.845  26.102  1.00  0.00     0.124 S 
ATOM     68  O   UNL A   1      43.410  18.378  25.071  1.00  0.00    -0.237 OA
ATOM     69  O   UNL A   1      42.711  18.299  27.438  1.00  0.00    -0.237 OA
ATOM     70  O   UNL A   1      41.087  18.929  25.691  1.00  0.00    -0.744 OA
ENDBRANCH  66  67
ENDBRANCH  47  61
BRANCH  48  71
ATOM     71  C   UNL A   1      46.811  32.696  27.756  1.00  0.00    -0.014 A 
ATOM     72  C   UNL A   1      46.955  33.536  26.638  1.00  0.00     0.010 A 
ATOM     73  C   UNL A   1      47.138  33.199  29.029  1.00  0.00     0.010 A 
ATOM     74  C   UNL A   1      47.432  34.842  26.785  1.00  0.00     0.020 A 
ATOM     75  C   UNL A   1      47.583  34.517  29.186  1.00  0.00     0.020 A 
ATOM     76  C   UNL A   1      47.736  35.328  28.060  1.00  0.00     0.054 A 
BRANCH  76  77
ATOM     77  S   UNL A   1      48.313  37.040  28.224  1.00  0.00     0.124 S 
ATOM     78  O   UNL A   1      47.521  37.523  29.350  1.00  0.00    -0.237 OA
ATOM     79  O   UNL A   1      49.740  36.863  28.485  1.00  0.00    -0.237 OA
ATOM     80  O   UNL A   1      47.991  37.637  26.930  1.00  0.00    -0.744 OA
ENDBRANCH  76  77
ENDBRANCH  48  71
BRANCH  60  81
ATOM     81  C   UNL A   1      50.147  26.698  26.448  1.00  0.00    -0.014 A 
ATOM     82  C   UNL A   1      50.962  26.299  27.523  1.00  0.00     0.010 A 
ATOM     83  C   UNL A   1      50.690  26.704  25.149  1.00  0.00     0.010 A 
ATOM     84  C   UNL A   1      52.297  25.947  27.308  1.00  0.00     0.020 A 
ATOM     85  C   UNL A   1      52.015  26.319  24.924  1.00  0.00     0.020 A 
ATOM     86  C   UNL A   1      52.815  25.956  26.009  1.00  0.00     0.054 A 
BRANCH  86  87
ATOM     87  S   UNL A   1      54.540  25.459  25.759  1.00  0.00     0.124 S 
ATOM     88  O   UNL A   1      55.264  26.481  26.511  1.00  0.00    -0.237 OA
ATOM     89  O   UNL A   1      54.571  24.116  26.334  1.00  0.00    -0.237 OA
ATOM     90  O   UNL A   1      54.714  25.514  24.310  1.00  0.00    -0.744 OA
ENDBRANCH  86  87
ENDBRANCH  60  81
ENDBRANCH  34  35
ENDBRANCH  27  29
ENDBRANCH  26  27
ENDBRANCH  25  26
ENDBRANCH  24  25
ENDBRANCH  23  24
ENDBRANCH  22  23
ENDBRANCH   1  22
TORSDOF 23
ENDMDL
