MODEL 1
REMARK VINA RESULT:     -10.2      0.000      0.000
REMARK SMILES O=C(OCCOCCOCCOC(=O)[C@@H]1CC2(CC[NH2+]CC2)C[N@H+]1Cc1cccc2nonc12)c1ccc(-c2c3nc(c(-c4ccc(S(=O)(=O)[O-])cc4)c4ccc([nH]4)c(-c4ccc(S(=O)(=O)[O-])cc4)c4nc(c(-c5ccc(S(=O)(=O)[O-])cc5)c5ccc2[nH]5)C=C4)C=C3)cc1
REMARK SMILES IDX 7 1 6 2 5 3 4 4 3 5 2 6 1 7 35 8 36 9 94 10 37 11 93 12
REMARK SMILES IDX 38 13 39 14 40 15 87 16 41 17 92 18 86 19 88 20 42 21 91 22
REMARK SMILES IDX 85 23 84 24 43 26 73 27 54 28 72 29 55 30 58 31 71 32 89 33
REMARK SMILES IDX 56 34 57 35 70 37 90 38 59 39 44 40 45 41 53 42 46 43 52 44
REMARK SMILES IDX 47 45 48 46 49 47 50 48 51 49 74 50 75 51 83 52 76 53 82 54
REMARK SMILES IDX 77 55 78 56 79 57 80 58 81 59 60 60 61 61 69 62 62 63 68 64
REMARK SMILES IDX 63 65 64 66 65 67 66 68 67 69 8 70 9 71 10 72 11 73 12 74
REMARK SMILES IDX 13 75 14 76 15 77 16 78 24 79 17 80 23 81 18 83 22 84 19 85
REMARK SMILES IDX 21 86 20 87 25 90 26 91 27 92 34 93 28 94 30 95 33 96 29 97
REMARK SMILES IDX 31 98 32 99
REMARK H PARENT 88 25 58 36 24 82 20 88 20 89
REMARK Flexibility Score: inf
ROOT
ATOM      1  C   UNL A   1      41.391  19.790  27.821  1.00  0.00     0.188 C 
ENDROOT
BRANCH   1   2
ATOM      2  O   UNL A   1      42.362  18.984  27.149  1.00  0.00    -0.376 OA
BRANCH   2   3
ATOM      3  C   UNL A   1      42.404  19.048  25.725  1.00  0.00     0.202 C 
BRANCH   3   4
ATOM      4  C   UNL A   1      43.848  18.850  25.288  1.00  0.00     0.261 C 
BRANCH   4   5
ATOM      5  O   UNL A   1      44.156  19.873  24.310  1.00  0.00    -0.460 OA
BRANCH   5   6
ATOM      6  C   UNL A   1      45.252  20.639  24.563  1.00  0.00     0.338 C 
ATOM      7  O   UNL A   1      46.409  20.352  24.247  1.00  0.00    -0.246 OA
BRANCH   6   8
ATOM      8  C   UNL A   1      44.879  21.840  25.378  1.00  0.00     0.060 A 
ATOM      9  C   UNL A   1      45.752  22.375  26.330  1.00  0.00     0.016 A 
ATOM     10  C   UNL A   1      43.606  22.398  25.294  1.00  0.00     0.016 A 
ATOM     11  C   UNL A   1      45.339  23.421  27.203  1.00  0.00     0.010 A 
ATOM     12  C   UNL A   1      43.196  23.408  26.185  1.00  0.00     0.010 A 
ATOM     13  C   UNL A   1      44.021  23.935  27.199  1.00  0.00    -0.014 A 
BRANCH  13  14
ATOM     14  C   UNL A   1      43.480  24.970  28.209  1.00  0.00     0.031 A 
ATOM     15  C   UNL A   1      43.790  24.772  29.744  1.00  0.00     0.074 A 
ATOM     16  C   UNL A   1      43.156  26.260  27.903  1.00  0.00     0.049 A 
ATOM     17  N   UNL A   1      44.572  25.510  30.509  1.00  0.00    -0.248 NA
ATOM     18  C   UNL A   1      43.377  23.538  30.424  1.00  0.00     0.031 C 
ATOM     19  C   UNL A   1      43.789  27.102  26.869  1.00  0.00     0.029 A 
ATOM     20  N   UNL A   1      42.401  27.177  28.608  1.00  0.00    -0.354 N 
ATOM     21  C   UNL A   1      44.852  24.825  31.699  1.00  0.00     0.074 A 
ATOM     22  C   UNL A   1      44.069  23.595  31.573  1.00  0.00     0.031 C 
ATOM     23  C   UNL A   1      43.596  28.409  27.171  1.00  0.00     0.029 A 
ATOM     24  C   UNL A   1      42.671  28.501  28.283  1.00  0.00     0.049 A 
ATOM     25  H   UNL A   1      41.731  26.914  29.280  1.00  0.00     0.167 HD
ATOM     26  C   UNL A   1      45.705  25.181  32.730  1.00  0.00     0.031 A 
ATOM     27  C   UNL A   1      42.202  29.654  28.847  1.00  0.00     0.031 A 
ATOM     28  C   UNL A   1      46.476  26.446  32.766  1.00  0.00     0.049 A 
ATOM     29  C   UNL A   1      43.022  29.785  30.121  1.00  0.00     0.074 A 
ATOM     30  C   UNL A   1      47.807  26.809  32.958  1.00  0.00     0.029 A 
ATOM     31  N   UNL A   1      45.883  27.664  33.067  1.00  0.00    -0.354 N 
ATOM     32  N   UNL A   1      44.098  30.491  30.392  1.00  0.00    -0.248 NA
ATOM     33  C   UNL A   1      42.678  28.790  31.121  1.00  0.00     0.031 C 
ATOM     34  C   UNL A   1      47.899  28.267  32.912  1.00  0.00     0.029 A 
ATOM     35  C   UNL A   1      46.628  28.767  32.615  1.00  0.00     0.049 A 
ATOM     36  H   UNL A   1      45.028  27.747  33.549  1.00  0.00     0.167 HD
ATOM     37  C   UNL A   1      44.712  29.851  31.488  1.00  0.00     0.074 A 
ATOM     38  C   UNL A   1      43.778  28.795  31.837  1.00  0.00     0.031 C 
ATOM     39  C   UNL A   1      46.011  30.010  31.949  1.00  0.00     0.031 A 
BRANCH  26  40
ATOM     40  C   UNL A   1      45.814  24.306  33.962  1.00  0.00    -0.014 A 
ATOM     41  C   UNL A   1      44.823  24.132  34.951  1.00  0.00     0.010 A 
ATOM     42  C   UNL A   1      46.975  23.517  34.049  1.00  0.00     0.010 A 
ATOM     43  C   UNL A   1      45.001  23.184  35.986  1.00  0.00     0.020 A 
ATOM     44  C   UNL A   1      47.150  22.568  35.058  1.00  0.00     0.020 A 
ATOM     45  C   UNL A   1      46.166  22.406  36.025  1.00  0.00     0.054 A 
BRANCH  45  46
ATOM     46  S   UNL A   1      46.389  21.151  37.325  1.00  0.00     0.124 S 
ATOM     47  O   UNL A   1      47.843  21.049  37.406  1.00  0.00    -0.237 OA
ATOM     48  O   UNL A   1      45.733  21.765  38.476  1.00  0.00    -0.237 OA
ATOM     49  O   UNL A   1      45.714  19.971  36.786  1.00  0.00    -0.744 OA
ENDBRANCH  45  46
ENDBRANCH  26  40
BRANCH  27  50
ATOM     50  C   UNL A   1      40.689  29.643  28.905  1.00  0.00    -0.014 A 
ATOM     51  C   UNL A   1      39.815  29.164  27.909  1.00  0.00     0.010 A 
ATOM     52  C   UNL A   1      40.119  30.357  29.979  1.00  0.00     0.010 A 
ATOM     53  C   UNL A   1      38.483  29.592  27.861  1.00  0.00     0.020 A 
ATOM     54  C   UNL A   1      38.783  30.759  29.957  1.00  0.00     0.020 A 
ATOM     55  C   UNL A   1      37.995  30.437  28.856  1.00  0.00     0.054 A 
BRANCH  55  56
ATOM     56  S   UNL A   1      36.374  31.213  28.628  1.00  0.00     0.124 S 
ATOM     57  O   UNL A   1      36.748  32.577  28.259  1.00  0.00    -0.237 OA
ATOM     58  O   UNL A   1      35.784  30.408  27.563  1.00  0.00    -0.237 OA
ATOM     59  O   UNL A   1      35.739  31.078  29.937  1.00  0.00    -0.744 OA
ENDBRANCH  55  56
ENDBRANCH  27  50
BRANCH  39  60
ATOM     60  C   UNL A   1      46.883  31.276  31.433  1.00  0.00    -0.014 A 
ATOM     61  C   UNL A   1      47.948  31.189  30.518  1.00  0.00     0.010 A 
ATOM     62  C   UNL A   1      46.661  32.627  31.739  1.00  0.00     0.010 A 
ATOM     63  C   UNL A   1      48.937  32.126  30.201  1.00  0.00     0.020 A 
ATOM     64  C   UNL A   1      47.550  33.690  31.285  1.00  0.00     0.020 A 
ATOM     65  C   UNL A   1      48.734  33.412  30.587  1.00  0.00     0.054 A 
BRANCH  65  66
ATOM     66  S   UNL A   1      49.942  34.612  29.955  1.00  0.00     0.124 S 
ATOM     67  O   UNL A   1      51.159  34.245  30.676  1.00  0.00    -0.237 OA
ATOM     68  O   UNL A   1      49.978  34.334  28.517  1.00  0.00    -0.237 OA
ATOM     69  O   UNL A   1      49.367  35.904  30.313  1.00  0.00    -0.744 OA
ENDBRANCH  65  66
ENDBRANCH  39  60
ENDBRANCH  13  14
ENDBRANCH   6   8
ENDBRANCH   5   6
ENDBRANCH   4   5
ENDBRANCH   3   4
ENDBRANCH   2   3
ENDBRANCH   1   2
BRANCH   1  70
ATOM     70  C   UNL A   1      40.692  20.646  26.765  1.00  0.00     0.188 C 
BRANCH  70  71
ATOM     71  O   UNL A   1      40.055  21.848  27.182  1.00  0.00    -0.376 OA
BRANCH  71  72
ATOM     72  C   UNL A   1      39.268  22.582  26.219  1.00  0.00     0.202 C 
BRANCH  72  73
ATOM     73  C   UNL A   1      38.101  21.995  25.387  1.00  0.00     0.261 C 
BRANCH  73  74
ATOM     74  O   UNL A   1      36.843  22.570  25.674  1.00  0.00    -0.459 OA
BRANCH  74  75
ATOM     75  C   UNL A   1      36.376  23.340  24.664  1.00  0.00     0.365 C 
ATOM     76  O   UNL A   1      36.736  23.239  23.492  1.00  0.00    -0.245 OA
BRANCH  75  77
ATOM     77  C   UNL A   1      35.308  24.320  25.112  1.00  0.00     0.296 C 
ATOM     78  C   UNL A   1      34.798  23.610  26.340  1.00  0.00     0.091 C 
ATOM     79  N   UNL A   1      34.075  24.456  24.321  1.00  0.00    -0.319 N 
ATOM     80  C   UNL A   1      33.405  23.136  25.896  1.00  0.00     0.036 C 
ATOM     81  C   UNL A   1      32.924  24.327  25.167  1.00  0.00     0.270 C 
ATOM     82  H   UNL A   1      34.403  23.755  23.656  1.00  0.00     0.349 HD
ATOM     83  C   UNL A   1      32.609  22.827  27.106  1.00  0.00     0.074 C 
ATOM     84  C   UNL A   1      33.363  21.915  24.943  1.00  0.00     0.074 C 
ATOM     85  C   UNL A   1      33.343  21.727  27.759  1.00  0.00     0.261 C 
ATOM     86  C   UNL A   1      34.001  20.717  25.572  1.00  0.00     0.261 C 
ATOM     87  N   UNL A   1      33.467  20.548  26.888  1.00  0.00    -0.346 N 
ATOM     88  H   UNL A   1      32.533  20.152  26.785  1.00  0.00     0.346 HD
ATOM     89  H   UNL A   1      34.156  19.964  27.361  1.00  0.00     0.346 HD
BRANCH  79  90
ATOM     90  C   UNL A   1      33.857  25.072  23.058  1.00  0.00     0.302 C 
BRANCH  90  91
ATOM     91  C   UNL A   1      32.916  26.242  23.130  1.00  0.00     0.038 A 
ATOM     92  C   UNL A   1      31.730  26.275  22.346  1.00  0.00     0.012 A 
ATOM     93  C   UNL A   1      33.074  27.403  23.918  1.00  0.00     0.144 A 
ATOM     94  C   UNL A   1      30.827  27.366  22.298  1.00  0.00     0.003 A 
ATOM     95  C   UNL A   1      32.151  28.529  23.861  1.00  0.00     0.135 A 
ATOM     96  N   UNL A   1      34.003  27.707  24.831  1.00  0.00    -0.049 NA
ATOM     97  C   UNL A   1      31.012  28.537  23.043  1.00  0.00     0.034 A 
ATOM     98  N   UNL A   1      32.585  29.481  24.696  1.00  0.00    -0.050 NA
ATOM     99  O   UNL A   1      33.719  28.970  25.289  1.00  0.00    -0.243 OA
ENDBRANCH  90  91
ENDBRANCH  79  90
ENDBRANCH  75  77
ENDBRANCH  74  75
ENDBRANCH  73  74
ENDBRANCH  72  73
ENDBRANCH  71  72
ENDBRANCH  70  71
ENDBRANCH   1  70
TORSDOF 22
ENDMDL
MODEL 2
REMARK VINA RESULT:     -10.1      4.135      9.546
REMARK SMILES O=C(OCCOCCOCCOC(=O)[C@@H]1CC2(CC[NH2+]CC2)C[N@H+]1Cc1cccc2nonc12)c1ccc(-c2c3nc(c(-c4ccc(S(=O)(=O)[O-])cc4)c4ccc([nH]4)c(-c4ccc(S(=O)(=O)[O-])cc4)c4nc(c(-c5ccc(S(=O)(=O)[O-])cc5)c5ccc2[nH]5)C=C4)C=C3)cc1
REMARK SMILES IDX 7 1 6 2 5 3 4 4 3 5 2 6 1 7 35 8 36 9 94 10 37 11 93 12
REMARK SMILES IDX 38 13 39 14 40 15 87 16 41 17 92 18 86 19 88 20 42 21 91 22
REMARK SMILES IDX 85 23 84 24 43 26 73 27 54 28 72 29 55 30 58 31 71 32 89 33
REMARK SMILES IDX 56 34 57 35 70 37 90 38 59 39 44 40 45 41 53 42 46 43 52 44
REMARK SMILES IDX 47 45 48 46 49 47 50 48 51 49 74 50 75 51 83 52 76 53 82 54
REMARK SMILES IDX 77 55 78 56 79 57 80 58 81 59 60 60 61 61 69 62 62 63 68 64
REMARK SMILES IDX 63 65 64 66 65 67 66 68 67 69 8 70 9 71 10 72 11 73 12 74
REMARK SMILES IDX 13 75 14 76 15 77 16 78 24 79 17 80 23 81 18 83 22 84 19 85
REMARK SMILES IDX 21 86 20 87 25 90 26 91 27 92 34 93 28 94 30 95 33 96 29 97
REMARK SMILES IDX 31 98 32 99
REMARK H PARENT 88 25 58 36 24 82 20 88 20 89
REMARK Flexibility Score: inf
ROOT
ATOM      1  C   UNL A   1      33.660  32.867  27.874  1.00  0.00     0.188 C 
ENDROOT
BRANCH   1   2
ATOM      2  O   UNL A   1      33.543  33.482  29.160  1.00  0.00    -0.376 OA
BRANCH   2   3
ATOM      3  C   UNL A   1      33.634  34.904  29.225  1.00  0.00     0.202 C 
BRANCH   3   4
ATOM      4  C   UNL A   1      33.440  35.322  30.675  1.00  0.00     0.261 C 
BRANCH   4   5
ATOM      5  O   UNL A   1      34.579  34.838  31.428  1.00  0.00    -0.460 OA
BRANCH   5   6
ATOM      6  C   UNL A   1      34.348  33.790  32.264  1.00  0.00     0.338 C 
ATOM      7  O   UNL A   1      33.307  33.602  32.899  1.00  0.00    -0.246 OA
BRANCH   6   8
ATOM      8  C   UNL A   1      35.575  32.941  32.397  1.00  0.00     0.060 A 
ATOM      9  C   UNL A   1      36.039  32.519  33.648  1.00  0.00     0.016 A 
ATOM     10  C   UNL A   1      36.361  32.635  31.289  1.00  0.00     0.016 A 
ATOM     11  C   UNL A   1      37.283  31.840  33.781  1.00  0.00     0.010 A 
ATOM     12  C   UNL A   1      37.606  31.994  31.436  1.00  0.00     0.010 A 
ATOM     13  C   UNL A   1      38.139  31.605  32.681  1.00  0.00    -0.014 A 
BRANCH  13  14
ATOM     14  C   UNL A   1      39.555  30.997  32.785  1.00  0.00     0.031 A 
ATOM     15  C   UNL A   1      39.892  29.697  31.954  1.00  0.00     0.074 A 
ATOM     16  C   UNL A   1      40.675  31.689  33.148  1.00  0.00     0.049 A 
ATOM     17  N   UNL A   1      40.708  29.590  30.923  1.00  0.00    -0.248 NA
ATOM     18  C   UNL A   1      39.096  28.479  32.142  1.00  0.00     0.031 C 
ATOM     19  C   UNL A   1      40.942  33.118  32.896  1.00  0.00     0.029 A 
ATOM     20  N   UNL A   1      41.907  31.228  33.566  1.00  0.00    -0.354 N 
ATOM     21  C   UNL A   1      40.477  28.377  30.262  1.00  0.00     0.074 A 
ATOM     22  C   UNL A   1      39.451  27.734  31.083  1.00  0.00     0.031 C 
ATOM     23  C   UNL A   1      42.279  33.338  32.919  1.00  0.00     0.029 A 
ATOM     24  C   UNL A   1      42.943  32.136  33.381  1.00  0.00     0.049 A 
ATOM     25  H   UNL A   1      42.039  30.336  33.961  1.00  0.00     0.167 HD
ATOM     26  C   UNL A   1      41.033  27.906  29.084  1.00  0.00     0.031 A 
ATOM     27  C   UNL A   1      44.288  31.981  33.573  1.00  0.00     0.031 A 
ATOM     28  C   UNL A   1      42.059  28.637  28.304  1.00  0.00     0.049 A 
ATOM     29  C   UNL A   1      44.734  31.200  32.347  1.00  0.00     0.074 A 
ATOM     30  C   UNL A   1      42.222  29.037  26.979  1.00  0.00     0.029 A 
ATOM     31  N   UNL A   1      43.387  28.696  28.703  1.00  0.00    -0.354 N 
ATOM     32  N   UNL A   1      45.284  31.594  31.219  1.00  0.00    -0.248 NA
ATOM     33  C   UNL A   1      44.262  29.827  32.347  1.00  0.00     0.031 C 
ATOM     34  C   UNL A   1      43.515  29.705  26.855  1.00  0.00     0.029 A 
ATOM     35  C   UNL A   1      44.089  29.769  28.128  1.00  0.00     0.049 A 
ATOM     36  H   UNL A   1      43.795  28.051  29.325  1.00  0.00     0.167 HD
ATOM     37  C   UNL A   1      44.999  30.584  30.278  1.00  0.00     0.074 A 
ATOM     38  C   UNL A   1      44.336  29.559  31.065  1.00  0.00     0.031 C 
ATOM     39  C   UNL A   1      45.083  30.659  28.896  1.00  0.00     0.031 A 
BRANCH  26  40
ATOM     40  C   UNL A   1      40.675  26.525  28.574  1.00  0.00    -0.014 A 
ATOM     41  C   UNL A   1      39.524  26.183  27.832  1.00  0.00     0.010 A 
ATOM     42  C   UNL A   1      41.647  25.529  28.775  1.00  0.00     0.010 A 
ATOM     43  C   UNL A   1      39.373  24.879  27.305  1.00  0.00     0.020 A 
ATOM     44  C   UNL A   1      41.512  24.246  28.243  1.00  0.00     0.020 A 
ATOM     45  C   UNL A   1      40.374  23.922  27.513  1.00  0.00     0.054 A 
BRANCH  45  46
ATOM     46  S   UNL A   1      40.213  22.254  26.802  1.00  0.00     0.124 S 
ATOM     47  O   UNL A   1      38.848  22.272  26.285  1.00  0.00    -0.237 OA
ATOM     48  O   UNL A   1      41.270  22.234  25.795  1.00  0.00    -0.237 OA
ATOM     49  O   UNL A   1      40.432  21.369  27.945  1.00  0.00    -0.744 OA
ENDBRANCH  45  46
ENDBRANCH  26  40
BRANCH  27  50
ATOM     50  C   UNL A   1      44.571  31.456  34.964  1.00  0.00    -0.014 A 
ATOM     51  C   UNL A   1      43.747  30.600  35.721  1.00  0.00     0.010 A 
ATOM     52  C   UNL A   1      45.674  32.042  35.619  1.00  0.00     0.010 A 
ATOM     53  C   UNL A   1      43.872  30.534  37.115  1.00  0.00     0.020 A 
ATOM     54  C   UNL A   1      45.827  31.954  37.004  1.00  0.00     0.020 A 
ATOM     55  C   UNL A   1      44.877  31.263  37.750  1.00  0.00     0.054 A 
BRANCH  55  56
ATOM     56  S   UNL A   1      44.848  31.404  39.556  1.00  0.00     0.124 S 
ATOM     57  O   UNL A   1      45.429  32.729  39.759  1.00  0.00    -0.237 OA
ATOM     58  O   UNL A   1      43.425  31.283  39.860  1.00  0.00    -0.237 OA
ATOM     59  O   UNL A   1      45.678  30.288  40.003  1.00  0.00    -0.744 OA
ENDBRANCH  55  56
ENDBRANCH  27  50
BRANCH  39  60
ATOM     60  C   UNL A   1      45.887  31.895  28.219  1.00  0.00    -0.014 A 
ATOM     61  C   UNL A   1      45.804  33.231  28.652  1.00  0.00     0.010 A 
ATOM     62  C   UNL A   1      46.830  31.813  27.185  1.00  0.00     0.010 A 
ATOM     63  C   UNL A   1      46.212  34.406  28.014  1.00  0.00     0.020 A 
ATOM     64  C   UNL A   1      47.446  32.994  26.589  1.00  0.00     0.020 A 
ATOM     65  C   UNL A   1      47.060  34.291  26.959  1.00  0.00     0.054 A 
BRANCH  65  66
ATOM     66  S   UNL A   1      47.723  35.856  26.320  1.00  0.00     0.124 S 
ATOM     67  O   UNL A   1      46.522  36.533  25.834  1.00  0.00    -0.237 OA
ATOM     68  O   UNL A   1      48.335  36.473  27.499  1.00  0.00    -0.237 OA
ATOM     69  O   UNL A   1      48.666  35.437  25.290  1.00  0.00    -0.744 OA
ENDBRANCH  65  66
ENDBRANCH  39  60
ENDBRANCH  13  14
ENDBRANCH   6   8
ENDBRANCH   5   6
ENDBRANCH   4   5
ENDBRANCH   3   4
ENDBRANCH   2   3
ENDBRANCH   1   2
BRANCH   1  70
ATOM     70  C   UNL A   1      34.615  31.681  28.016  1.00  0.00     0.188 C 
BRANCH  70  71
ATOM     71  O   UNL A   1      34.253  30.446  27.410  1.00  0.00    -0.376 OA
BRANCH  71  72
ATOM     72  C   UNL A   1      32.874  30.239  27.036  1.00  0.00     0.202 C 
BRANCH  72  73
ATOM     73  C   UNL A   1      32.080  28.924  27.243  1.00  0.00     0.261 C 
BRANCH  73  74
ATOM     74  O   UNL A   1      32.802  27.758  26.906  1.00  0.00    -0.459 OA
BRANCH  74  75
ATOM     75  C   UNL A   1      32.020  26.795  26.365  1.00  0.00     0.365 C 
ATOM     76  O   UNL A   1      30.809  26.693  26.564  1.00  0.00    -0.245 OA
BRANCH  75  77
ATOM     77  C   UNL A   1      32.778  25.871  25.432  1.00  0.00     0.296 C 
ATOM     78  C   UNL A   1      33.446  26.887  24.542  1.00  0.00     0.091 C 
ATOM     79  N   UNL A   1      32.035  25.068  24.450  1.00  0.00    -0.319 N 
ATOM     80  C   UNL A   1      32.691  26.715  23.215  1.00  0.00     0.036 C 
ATOM     81  C   UNL A   1      32.590  25.243  23.139  1.00  0.00     0.270 C 
ATOM     82  H   UNL A   1      31.149  25.456  24.775  1.00  0.00     0.349 HD
ATOM     83  C   UNL A   1      33.510  27.304  22.131  1.00  0.00     0.074 C 
ATOM     84  C   UNL A   1      31.265  27.318  23.150  1.00  0.00     0.074 C 
ATOM     85  C   UNL A   1      33.614  28.732  22.481  1.00  0.00     0.261 C 
ATOM     86  C   UNL A   1      31.291  28.793  23.395  1.00  0.00     0.261 C 
ATOM     87  N   UNL A   1      32.297  29.381  22.566  1.00  0.00    -0.346 N 
ATOM     88  H   UNL A   1      31.921  29.419  21.619  1.00  0.00     0.346 HD
ATOM     89  H   UNL A   1      32.492  30.278  23.011  1.00  0.00     0.346 HD
BRANCH  79  90
ATOM     90  C   UNL A   1      31.217  23.918  24.633  1.00  0.00     0.302 C 
BRANCH  90  91
ATOM     91  C   UNL A   1      32.011  22.667  24.884  1.00  0.00     0.038 A 
ATOM     92  C   UNL A   1      32.093  21.644  23.899  1.00  0.00     0.012 A 
ATOM     93  C   UNL A   1      32.725  22.343  26.059  1.00  0.00     0.144 A 
ATOM     94  C   UNL A   1      32.757  20.405  24.079  1.00  0.00     0.003 A 
ATOM     95  C   UNL A   1      33.399  21.065  26.248  1.00  0.00     0.135 A 
ATOM     96  N   UNL A   1      32.949  23.068  27.160  1.00  0.00    -0.049 NA
ATOM     97  C   UNL A   1      33.423  20.066  25.265  1.00  0.00     0.034 A 
ATOM     98  N   UNL A   1      33.955  21.050  27.466  1.00  0.00    -0.050 NA
ATOM     99  O   UNL A   1      33.677  22.282  28.019  1.00  0.00    -0.243 OA
ENDBRANCH  90  91
ENDBRANCH  79  90
ENDBRANCH  75  77
ENDBRANCH  74  75
ENDBRANCH  73  74
ENDBRANCH  72  73
ENDBRANCH  71  72
ENDBRANCH  70  71
ENDBRANCH   1  70
TORSDOF 22
ENDMDL
MODEL 3
REMARK VINA RESULT:      -9.9      2.926      8.476
REMARK SMILES O=C(OCCOCCOCCOC(=O)[C@@H]1CC2(CC[NH2+]CC2)C[N@H+]1Cc1cccc2nonc12)c1ccc(-c2c3nc(c(-c4ccc(S(=O)(=O)[O-])cc4)c4ccc([nH]4)c(-c4ccc(S(=O)(=O)[O-])cc4)c4nc(c(-c5ccc(S(=O)(=O)[O-])cc5)c5ccc2[nH]5)C=C4)C=C3)cc1
REMARK SMILES IDX 7 1 6 2 5 3 4 4 3 5 2 6 1 7 35 8 36 9 94 10 37 11 93 12
REMARK SMILES IDX 38 13 39 14 40 15 87 16 41 17 92 18 86 19 88 20 42 21 91 22
REMARK SMILES IDX 85 23 84 24 43 26 73 27 54 28 72 29 55 30 58 31 71 32 89 33
REMARK SMILES IDX 56 34 57 35 70 37 90 38 59 39 44 40 45 41 53 42 46 43 52 44
REMARK SMILES IDX 47 45 48 46 49 47 50 48 51 49 74 50 75 51 83 52 76 53 82 54
REMARK SMILES IDX 77 55 78 56 79 57 80 58 81 59 60 60 61 61 69 62 62 63 68 64
REMARK SMILES IDX 63 65 64 66 65 67 66 68 67 69 8 70 9 71 10 72 11 73 12 74
REMARK SMILES IDX 13 75 14 76 15 77 16 78 24 79 17 80 23 81 18 83 22 84 19 85
REMARK SMILES IDX 21 86 20 87 25 90 26 91 27 92 34 93 28 94 30 95 33 96 29 97
REMARK SMILES IDX 31 98 32 99
REMARK H PARENT 88 25 58 36 24 82 20 88 20 89
REMARK Flexibility Score: inf
ROOT
ATOM      1  C   UNL A   1      37.033  21.027  24.700  1.00  0.00     0.188 C 
ENDROOT
BRANCH   1   2
ATOM      2  O   UNL A   1      37.794  21.420  25.845  1.00  0.00    -0.376 OA
BRANCH   2   3
ATOM      3  C   UNL A   1      39.213  21.304  25.768  1.00  0.00     0.202 C 
BRANCH   3   4
ATOM      4  C   UNL A   1      39.574  19.836  25.948  1.00  0.00     0.261 C 
BRANCH   4   5
ATOM      5  O   UNL A   1      40.899  19.638  25.399  1.00  0.00    -0.460 OA
BRANCH   5   6
ATOM      6  C   UNL A   1      41.939  19.791  26.262  1.00  0.00     0.338 C 
ATOM      7  O   UNL A   1      42.549  18.870  26.811  1.00  0.00    -0.246 OA
BRANCH   6   8
ATOM      8  C   UNL A   1      42.182  21.242  26.545  1.00  0.00     0.060 A 
ATOM      9  C   UNL A   1      42.736  22.090  25.581  1.00  0.00     0.016 A 
ATOM     10  C   UNL A   1      41.969  21.772  27.815  1.00  0.00     0.016 A 
ATOM     11  C   UNL A   1      43.101  23.428  25.900  1.00  0.00     0.010 A 
ATOM     12  C   UNL A   1      42.367  23.086  28.129  1.00  0.00     0.010 A 
ATOM     13  C   UNL A   1      42.982  23.955  27.207  1.00  0.00    -0.014 A 
BRANCH  13  14
ATOM     14  C   UNL A   1      43.487  25.349  27.641  1.00  0.00     0.031 A 
ATOM     15  C   UNL A   1      42.441  26.519  27.816  1.00  0.00     0.074 A 
ATOM     16  C   UNL A   1      44.648  25.579  28.321  1.00  0.00     0.049 A 
ATOM     17  N   UNL A   1      42.068  27.104  28.939  1.00  0.00    -0.248 NA
ATOM     18  C   UNL A   1      41.587  26.915  26.691  1.00  0.00     0.031 C 
ATOM     19  C   UNL A   1      45.288  24.674  29.295  1.00  0.00     0.029 A 
ATOM     20  N   UNL A   1      45.353  26.752  28.501  1.00  0.00    -0.354 N 
ATOM     21  C   UNL A   1      40.897  27.840  28.721  1.00  0.00     0.074 A 
ATOM     22  C   UNL A   1      40.654  27.674  27.288  1.00  0.00     0.031 C 
ATOM     23  C   UNL A   1      46.090  25.391  30.119  1.00  0.00     0.029 A 
ATOM     24  C   UNL A   1      46.183  26.748  29.617  1.00  0.00     0.049 A 
ATOM     25  H   UNL A   1      45.275  27.522  27.893  1.00  0.00     0.167 HD
ATOM     26  C   UNL A   1      40.112  28.521  29.637  1.00  0.00     0.031 A 
ATOM     27  C   UNL A   1      46.931  27.756  30.156  1.00  0.00     0.031 A 
ATOM     28  C   UNL A   1      40.426  28.623  31.081  1.00  0.00     0.049 A 
ATOM     29  C   UNL A   1      45.908  28.596  30.903  1.00  0.00     0.074 A 
ATOM     30  C   UNL A   1      39.754  28.385  32.278  1.00  0.00     0.029 A 
ATOM     31  N   UNL A   1      41.416  29.467  31.564  1.00  0.00    -0.354 N 
ATOM     32  N   UNL A   1      45.569  28.626  32.174  1.00  0.00    -0.248 NA
ATOM     33  C   UNL A   1      45.009  29.317  30.018  1.00  0.00     0.031 C 
ATOM     34  C   UNL A   1      40.643  28.732  33.384  1.00  0.00     0.029 A 
ATOM     35  C   UNL A   1      41.876  29.105  32.842  1.00  0.00     0.049 A 
ATOM     36  H   UNL A   1      41.761  30.242  31.062  1.00  0.00     0.167 HD
ATOM     37  C   UNL A   1      44.268  29.165  32.214  1.00  0.00     0.074 A 
ATOM     38  C   UNL A   1      44.001  29.524  30.832  1.00  0.00     0.031 C 
ATOM     39  C   UNL A   1      43.358  29.118  33.260  1.00  0.00     0.031 A 
BRANCH  26  40
ATOM     40  C   UNL A   1      38.904  29.305  29.167  1.00  0.00    -0.014 A 
ATOM     41  C   UNL A   1      37.670  28.763  28.749  1.00  0.00     0.010 A 
ATOM     42  C   UNL A   1      39.006  30.704  29.271  1.00  0.00     0.010 A 
ATOM     43  C   UNL A   1      36.577  29.612  28.457  1.00  0.00     0.020 A 
ATOM     44  C   UNL A   1      37.926  31.546  29.000  1.00  0.00     0.020 A 
ATOM     45  C   UNL A   1      36.715  31.000  28.590  1.00  0.00     0.054 A 
BRANCH  45  46
ATOM     46  S   UNL A   1      35.304  32.100  28.261  1.00  0.00     0.124 S 
ATOM     47  O   UNL A   1      34.751  32.298  29.597  1.00  0.00    -0.237 OA
ATOM     48  O   UNL A   1      35.945  33.268  27.663  1.00  0.00    -0.237 OA
ATOM     49  O   UNL A   1      34.464  31.323  27.351  1.00  0.00    -0.744 OA
ENDBRANCH  45  46
ENDBRANCH  26  40
BRANCH  27  50
ATOM     50  C   UNL A   1      47.819  28.384  29.102  1.00  0.00    -0.014 A 
ATOM     51  C   UNL A   1      47.501  28.575  27.743  1.00  0.00     0.010 A 
ATOM     52  C   UNL A   1      49.152  28.617  29.496  1.00  0.00     0.010 A 
ATOM     53  C   UNL A   1      48.512  28.743  26.789  1.00  0.00     0.020 A 
ATOM     54  C   UNL A   1      50.163  28.820  28.555  1.00  0.00     0.020 A 
ATOM     55  C   UNL A   1      49.843  28.803  27.201  1.00  0.00     0.054 A 
BRANCH  55  56
ATOM     56  S   UNL A   1      51.150  28.725  25.949  1.00  0.00     0.124 S 
ATOM     57  O   UNL A   1      50.914  29.956  25.198  1.00  0.00    -0.237 OA
ATOM     58  O   UNL A   1      52.365  28.702  26.759  1.00  0.00    -0.237 OA
ATOM     59  O   UNL A   1      50.860  27.490  25.223  1.00  0.00    -0.744 OA
ENDBRANCH  55  56
ENDBRANCH  27  50
BRANCH  39  60
ATOM     60  C   UNL A   1      43.875  28.697  34.739  1.00  0.00    -0.014 A 
ATOM     61  C   UNL A   1      44.780  27.652  34.999  1.00  0.00     0.010 A 
ATOM     62  C   UNL A   1      43.578  29.348  35.945  1.00  0.00     0.010 A 
ATOM     63  C   UNL A   1      45.094  27.017  36.204  1.00  0.00     0.020 A 
ATOM     64  C   UNL A   1      44.031  28.846  37.239  1.00  0.00     0.020 A 
ATOM     65  C   UNL A   1      44.718  27.629  37.357  1.00  0.00     0.054 A 
BRANCH  65  66
ATOM     66  S   UNL A   1      45.347  26.869  38.882  1.00  0.00     0.124 S 
ATOM     67  O   UNL A   1      46.794  26.909  38.681  1.00  0.00    -0.237 OA
ATOM     68  O   UNL A   1      44.853  27.759  39.934  1.00  0.00    -0.237 OA
ATOM     69  O   UNL A   1      44.751  25.538  38.877  1.00  0.00    -0.744 OA
ENDBRANCH  65  66
ENDBRANCH  39  60
ENDBRANCH  13  14
ENDBRANCH   6   8
ENDBRANCH   5   6
ENDBRANCH   4   5
ENDBRANCH   3   4
ENDBRANCH   2   3
ENDBRANCH   1   2
BRANCH   1  70
ATOM     70  C   UNL A   1      36.993  22.219  23.742  1.00  0.00     0.188 C 
BRANCH  70  71
ATOM     71  O   UNL A   1      35.911  23.137  23.850  1.00  0.00    -0.376 OA
BRANCH  71  72
ATOM     72  C   UNL A   1      35.014  23.280  22.728  1.00  0.00     0.202 C 
BRANCH  72  73
ATOM     73  C   UNL A   1      33.578  23.856  22.802  1.00  0.00     0.261 C 
BRANCH  73  74
ATOM     74  O   UNL A   1      33.518  25.265  22.725  1.00  0.00    -0.459 OA
BRANCH  74  75
ATOM     75  C   UNL A   1      32.274  25.723  22.452  1.00  0.00     0.365 C 
ATOM     76  O   UNL A   1      31.825  25.875  21.316  1.00  0.00    -0.245 OA
BRANCH  75  77
ATOM     77  C   UNL A   1      31.453  25.986  23.700  1.00  0.00     0.296 C 
ATOM     78  C   UNL A   1      30.444  26.961  23.149  1.00  0.00     0.091 C 
ATOM     79  N   UNL A   1      32.039  26.764  24.801  1.00  0.00    -0.319 N 
ATOM     80  C   UNL A   1      30.865  28.283  23.810  1.00  0.00     0.036 C 
ATOM     81  C   UNL A   1      31.157  27.828  25.184  1.00  0.00     0.270 C 
ATOM     82  H   UNL A   1      32.911  26.874  24.284  1.00  0.00     0.349 HD
ATOM     83  C   UNL A   1      29.726  29.227  23.733  1.00  0.00     0.074 C 
ATOM     84  C   UNL A   1      32.127  28.972  23.231  1.00  0.00     0.074 C 
ATOM     85  C   UNL A   1      29.505  29.422  22.289  1.00  0.00     0.261 C 
ATOM     86  C   UNL A   1      31.948  29.299  21.783  1.00  0.00     0.261 C 
ATOM     87  N   UNL A   1      30.693  29.965  21.613  1.00  0.00    -0.346 N 
ATOM     88  H   UNL A   1      30.814  30.922  21.942  1.00  0.00     0.346 HD
ATOM     89  H   UNL A   1      30.486  29.851  20.620  1.00  0.00     0.346 HD
BRANCH  79  90
ATOM     90  C   UNL A   1      33.035  26.405  25.751  1.00  0.00     0.302 C 
BRANCH  90  91
ATOM     91  C   UNL A   1      32.891  24.993  26.248  1.00  0.00     0.038 A 
ATOM     92  C   UNL A   1      34.015  24.126  26.322  1.00  0.00     0.012 A 
ATOM     93  C   UNL A   1      31.697  24.366  26.666  1.00  0.00     0.144 A 
ATOM     94  C   UNL A   1      33.957  22.764  26.709  1.00  0.00     0.003 A 
ATOM     95  C   UNL A   1      31.635  22.963  27.054  1.00  0.00     0.135 A 
ATOM     96  N   UNL A   1      30.465  24.865  26.813  1.00  0.00    -0.049 NA
ATOM     97  C   UNL A   1      32.763  22.130  27.076  1.00  0.00     0.034 A 
ATOM     98  N   UNL A   1      30.369  22.660  27.367  1.00  0.00    -0.050 NA
ATOM     99  O   UNL A   1      29.657  23.831  27.220  1.00  0.00    -0.243 OA
ENDBRANCH  90  91
ENDBRANCH  79  90
ENDBRANCH  75  77
ENDBRANCH  74  75
ENDBRANCH  73  74
ENDBRANCH  72  73
ENDBRANCH  71  72
ENDBRANCH  70  71
ENDBRANCH   1  70
TORSDOF 22
ENDMDL
