MODEL 1
REMARK VINA RESULT:     -10.4      0.000      0.000
REMARK SMILES Cc1ccc2c(c1)C=C(C(=O)OCCOCCOCCOC(=O)c1ccc(-c3c4nc(c(-c5ccc(S(=O)(=O)[O-])cc5)c5ccc([nH]5)c(-c5ccc(S(=O)(=O)[O-])cc5)c5nc(c(-c6ccc(S(=O)(=O)[O-])cc6)c6ccc3[nH]6)C=C5)C=C4)cc1)[C@@H](C(F)(F)F)O2
REMARK SMILES IDX 17 1 16 2 15 3 14 4 13 5 12 6 10 7 11 8 9 9 1 10 2 11 3 12
REMARK SMILES IDX 7 13 4 14 6 15 5 16 8 17 89 18 84 19 85 20 86 21 87 22 88 23
REMARK SMILES IDX 18 24 19 25 20 26 21 27 22 28 23 29 24 30 25 31 83 32 26 33
REMARK SMILES IDX 82 34 27 35 28 36 29 37 76 38 30 39 81 40 75 41 77 42 31 43
REMARK SMILES IDX 80 44 74 45 73 46 32 48 62 49 43 50 61 51 44 52 47 53 60 54
REMARK SMILES IDX 78 55 45 56 46 57 59 59 79 60 48 61 33 62 34 63 42 64 35 65
REMARK SMILES IDX 41 66 36 67 37 68 38 69 39 70 40 71 63 72 64 73 72 74 65 75
REMARK SMILES IDX 71 76 66 77 67 78 68 79 69 80 70 81 49 82 50 83 58 84 51 85
REMARK SMILES IDX 57 86 52 87 53 88 54 89 55 90 56 91
REMARK H PARENT 77 47 47 58
REMARK Flexibility Score: inf
ROOT
ATOM      1  C   UNL A   1      31.266  30.346  25.495  1.00  0.00     0.188 C 
ENDROOT
BRANCH   1   2
ATOM      2  C   UNL A   1      31.797  29.296  24.495  1.00  0.00     0.188 C 
BRANCH   2   3
ATOM      3  O   UNL A   1      31.171  29.130  23.243  1.00  0.00    -0.376 OA
BRANCH   3   4
ATOM      4  C   UNL A   1      31.170  27.890  22.559  1.00  0.00     0.202 C 
BRANCH   4   5
ATOM      5  C   UNL A   1      31.123  26.516  23.241  1.00  0.00     0.261 C 
BRANCH   5   6
ATOM      6  O   UNL A   1      31.408  25.390  22.409  1.00  0.00    -0.460 OA
BRANCH   6   7
ATOM      7  C   UNL A   1      32.716  25.239  22.089  1.00  0.00     0.338 C 
ATOM      8  O   UNL A   1      33.385  25.976  21.381  1.00  0.00    -0.246 OA
BRANCH   7   9
ATOM      9  C   UNL A   1      33.274  24.092  22.825  1.00  0.00     0.087 C 
ATOM     10  C   UNL A   1      32.168  18.165  24.054  1.00  0.00     0.044 C 
ATOM     11  C   UNL A   1      32.910  19.467  24.122  1.00  0.00    -0.050 A 
ATOM     12  C   UNL A   1      34.005  19.634  24.976  1.00  0.00     0.007 A 
ATOM     13  C   UNL A   1      32.490  20.546  23.333  1.00  0.00     0.015 A 
ATOM     14  C   UNL A   1      34.674  20.859  25.034  1.00  0.00     0.047 A 
ATOM     15  C   UNL A   1      33.142  21.783  23.412  1.00  0.00     0.017 A 
ATOM     16  C   UNL A   1      34.241  21.933  24.257  1.00  0.00     0.128 A 
ATOM     17  C   UNL A   1      32.651  22.920  22.655  1.00  0.00     0.027 C 
ATOM     18  O   UNL A   1      34.951  23.094  24.387  1.00  0.00    -0.475 OA
ATOM     19  C   UNL A   1      34.473  24.289  23.711  1.00  0.00     0.316 C 
BRANCH  19  20
ATOM     20  C   UNL A   1      34.243  25.387  24.760  1.00  0.00     0.430 C 
ATOM     21  F   UNL A   1      34.266  26.619  24.196  1.00  0.00    -0.167 F 
ATOM     22  F   UNL A   1      33.033  25.264  25.358  1.00  0.00    -0.167 F 
ATOM     23  F   UNL A   1      35.179  25.371  25.735  1.00  0.00    -0.167 F 
ENDBRANCH  19  20
ENDBRANCH   7   9
ENDBRANCH   6   7
ENDBRANCH   5   6
ENDBRANCH   4   5
ENDBRANCH   3   4
ENDBRANCH   2   3
ENDBRANCH   1   2
BRANCH   1  24
ATOM     24  O   UNL A   1      32.150  31.212  26.185  1.00  0.00    -0.376 OA
BRANCH  24  25
ATOM     25  C   UNL A   1      33.018  30.676  27.174  1.00  0.00     0.202 C 
BRANCH  25  26
ATOM     26  C   UNL A   1      33.950  31.589  27.979  1.00  0.00     0.261 C 
BRANCH  26  27
ATOM     27  O   UNL A   1      33.866  32.975  27.625  1.00  0.00    -0.460 OA
BRANCH  27  28
ATOM     28  C   UNL A   1      33.780  33.834  28.673  1.00  0.00     0.338 C 
ATOM     29  O   UNL A   1      32.850  34.573  28.944  1.00  0.00    -0.246 OA
BRANCH  28  30
ATOM     30  C   UNL A   1      34.916  33.595  29.587  1.00  0.00     0.060 A 
ATOM     31  C   UNL A   1      34.742  32.936  30.805  1.00  0.00     0.016 A 
ATOM     32  C   UNL A   1      36.187  34.034  29.190  1.00  0.00     0.016 A 
ATOM     33  C   UNL A   1      35.857  32.680  31.607  1.00  0.00     0.010 A 
ATOM     34  C   UNL A   1      37.297  33.788  29.998  1.00  0.00     0.010 A 
ATOM     35  C   UNL A   1      37.144  33.079  31.197  1.00  0.00    -0.014 A 
BRANCH  35  36
ATOM     36  C   UNL A   1      38.334  32.558  31.912  1.00  0.00     0.031 A 
ATOM     37  C   UNL A   1      38.813  33.137  33.206  1.00  0.00     0.074 A 
ATOM     38  C   UNL A   1      38.992  31.527  31.348  1.00  0.00     0.049 A 
ATOM     39  N   UNL A   1      39.747  32.683  34.001  1.00  0.00    -0.248 NA
ATOM     40  C   UNL A   1      38.177  34.379  33.668  1.00  0.00     0.031 C 
ATOM     41  C   UNL A   1      38.638  30.917  30.063  1.00  0.00     0.029 A 
ATOM     42  N   UNL A   1      40.070  30.797  31.780  1.00  0.00    -0.354 N 
ATOM     43  C   UNL A   1      39.794  33.560  35.076  1.00  0.00     0.074 A 
ATOM     44  C   UNL A   1      38.830  34.607  34.803  1.00  0.00     0.031 C 
ATOM     45  C   UNL A   1      39.454  29.878  29.834  1.00  0.00     0.029 A 
ATOM     46  C   UNL A   1      40.400  29.760  30.940  1.00  0.00     0.049 A 
ATOM     47  H   UNL A   1      40.558  30.997  32.611  1.00  0.00     0.167 HD
ATOM     48  C   UNL A   1      40.558  33.478  36.193  1.00  0.00     0.031 A 
ATOM     49  C   UNL A   1      41.338  28.800  31.053  1.00  0.00     0.031 A 
ATOM     50  C   UNL A   1      41.531  32.440  36.437  1.00  0.00     0.049 A 
ATOM     51  C   UNL A   1      42.185  28.744  32.291  1.00  0.00     0.074 A 
ATOM     52  C   UNL A   1      42.312  32.248  37.565  1.00  0.00     0.029 A 
ATOM     53  N   UNL A   1      41.869  31.431  35.546  1.00  0.00    -0.354 N 
ATOM     54  N   UNL A   1      42.148  29.524  33.344  1.00  0.00    -0.248 NA
ATOM     55  C   UNL A   1      43.183  27.670  32.367  1.00  0.00     0.031 C 
ATOM     56  C   UNL A   1      43.170  31.172  37.328  1.00  0.00     0.029 A 
ATOM     57  C   UNL A   1      42.873  30.639  36.084  1.00  0.00     0.049 A 
ATOM     58  H   UNL A   1      41.456  31.296  34.662  1.00  0.00     0.167 HD
ATOM     59  C   UNL A   1      43.108  29.026  34.216  1.00  0.00     0.074 A 
ATOM     60  C   UNL A   1      43.692  27.864  33.577  1.00  0.00     0.031 C 
ATOM     61  C   UNL A   1      43.469  29.495  35.437  1.00  0.00     0.031 A 
BRANCH  48  62
ATOM     62  C   UNL A   1      40.368  34.516  37.271  1.00  0.00    -0.014 A 
ATOM     63  C   UNL A   1      39.354  34.358  38.233  1.00  0.00     0.010 A 
ATOM     64  C   UNL A   1      41.092  35.722  37.236  1.00  0.00     0.010 A 
ATOM     65  C   UNL A   1      39.040  35.398  39.115  1.00  0.00     0.020 A 
ATOM     66  C   UNL A   1      40.800  36.754  38.133  1.00  0.00     0.020 A 
ATOM     67  C   UNL A   1      39.759  36.595  39.050  1.00  0.00     0.054 A 
BRANCH  67  68
ATOM     68  S   UNL A   1      39.308  37.949  40.170  1.00  0.00     0.124 S 
ATOM     69  O   UNL A   1      40.489  38.804  40.112  1.00  0.00    -0.237 OA
ATOM     70  O   UNL A   1      38.104  38.492  39.545  1.00  0.00    -0.237 OA
ATOM     71  O   UNL A   1      39.085  37.275  41.448  1.00  0.00    -0.744 OA
ENDBRANCH  67  68
ENDBRANCH  48  62
BRANCH  49  72
ATOM     72  C   UNL A   1      41.448  27.777  29.978  1.00  0.00    -0.014 A 
ATOM     73  C   UNL A   1      42.656  27.611  29.274  1.00  0.00     0.010 A 
ATOM     74  C   UNL A   1      40.317  27.044  29.581  1.00  0.00     0.010 A 
ATOM     75  C   UNL A   1      42.714  26.777  28.155  1.00  0.00     0.020 A 
ATOM     76  C   UNL A   1      40.379  26.185  28.479  1.00  0.00     0.020 A 
ATOM     77  C   UNL A   1      41.570  26.082  27.756  1.00  0.00     0.054 A 
BRANCH  77  78
ATOM     78  S   UNL A   1      41.651  25.057  26.262  1.00  0.00     0.124 S 
ATOM     79  O   UNL A   1      40.743  23.964  26.600  1.00  0.00    -0.237 OA
ATOM     80  O   UNL A   1      41.179  25.968  25.223  1.00  0.00    -0.237 OA
ATOM     81  O   UNL A   1      43.062  24.692  26.174  1.00  0.00    -0.744 OA
ENDBRANCH  77  78
ENDBRANCH  49  72
BRANCH  61  82
ATOM     82  C   UNL A   1      44.568  28.771  36.175  1.00  0.00    -0.014 A 
ATOM     83  C   UNL A   1      45.913  29.121  35.952  1.00  0.00     0.010 A 
ATOM     84  C   UNL A   1      44.278  27.674  37.005  1.00  0.00     0.010 A 
ATOM     85  C   UNL A   1      46.946  28.372  36.521  1.00  0.00     0.020 A 
ATOM     86  C   UNL A   1      45.308  26.939  37.600  1.00  0.00     0.020 A 
ATOM     87  C   UNL A   1      46.637  27.279  37.334  1.00  0.00     0.054 A 
BRANCH  87  88
ATOM     88  S   UNL A   1      47.991  26.305  38.049  1.00  0.00     0.124 S 
ATOM     89  O   UNL A   1      48.078  26.849  39.402  1.00  0.00    -0.237 OA
ATOM     90  O   UNL A   1      47.489  24.936  37.952  1.00  0.00    -0.237 OA
ATOM     91  O   UNL A   1      49.126  26.606  37.181  1.00  0.00    -0.744 OA
ENDBRANCH  87  88
ENDBRANCH  61  82
ENDBRANCH  35  36
ENDBRANCH  28  30
ENDBRANCH  27  28
ENDBRANCH  26  27
ENDBRANCH  25  26
ENDBRANCH  24  25
ENDBRANCH   1  24
TORSDOF 21
ENDMDL
MODEL 2
REMARK VINA RESULT:     -10.4      6.036     11.629
REMARK SMILES Cc1ccc2c(c1)C=C(C(=O)OCCOCCOCCOC(=O)c1ccc(-c3c4nc(c(-c5ccc(S(=O)(=O)[O-])cc5)c5ccc([nH]5)c(-c5ccc(S(=O)(=O)[O-])cc5)c5nc(c(-c6ccc(S(=O)(=O)[O-])cc6)c6ccc3[nH]6)C=C5)C=C4)cc1)[C@@H](C(F)(F)F)O2
REMARK SMILES IDX 17 1 16 2 15 3 14 4 13 5 12 6 10 7 11 8 9 9 1 10 2 11 3 12
REMARK SMILES IDX 7 13 4 14 6 15 5 16 8 17 89 18 84 19 85 20 86 21 87 22 88 23
REMARK SMILES IDX 18 24 19 25 20 26 21 27 22 28 23 29 24 30 25 31 83 32 26 33
REMARK SMILES IDX 82 34 27 35 28 36 29 37 76 38 30 39 81 40 75 41 77 42 31 43
REMARK SMILES IDX 80 44 74 45 73 46 32 48 62 49 43 50 61 51 44 52 47 53 60 54
REMARK SMILES IDX 78 55 45 56 46 57 59 59 79 60 48 61 33 62 34 63 42 64 35 65
REMARK SMILES IDX 41 66 36 67 37 68 38 69 39 70 40 71 63 72 64 73 72 74 65 75
REMARK SMILES IDX 71 76 66 77 67 78 68 79 69 80 70 81 49 82 50 83 58 84 51 85
REMARK SMILES IDX 57 86 52 87 53 88 54 89 55 90 56 91
REMARK H PARENT 77 47 47 58
REMARK Flexibility Score: inf
ROOT
ATOM      1  C   UNL A   1      36.316  22.325  24.091  1.00  0.00     0.188 C 
ENDROOT
BRANCH   1   2
ATOM      2  C   UNL A   1      35.031  21.704  24.680  1.00  0.00     0.188 C 
BRANCH   2   3
ATOM      3  O   UNL A   1      35.007  21.261  26.018  1.00  0.00    -0.376 OA
BRANCH   3   4
ATOM      4  C   UNL A   1      34.518  22.072  27.071  1.00  0.00     0.202 C 
BRANCH   4   5
ATOM      5  C   UNL A   1      33.047  22.153  27.500  1.00  0.00     0.261 C 
BRANCH   5   6
ATOM      6  O   UNL A   1      32.096  22.358  26.453  1.00  0.00    -0.460 OA
BRANCH   6   7
ATOM      7  C   UNL A   1      31.254  23.402  26.649  1.00  0.00     0.338 C 
ATOM      8  O   UNL A   1      30.249  23.408  27.343  1.00  0.00    -0.246 OA
BRANCH   7   9
ATOM      9  C   UNL A   1      31.792  24.601  25.985  1.00  0.00     0.087 C 
ATOM     10  C   UNL A   1      31.957  30.729  26.516  1.00  0.00     0.044 C 
ATOM     11  C   UNL A   1      32.242  29.396  25.890  1.00  0.00    -0.050 A 
ATOM     12  C   UNL A   1      32.862  29.299  24.640  1.00  0.00     0.007 A 
ATOM     13  C   UNL A   1      31.865  28.222  26.556  1.00  0.00     0.015 A 
ATOM     14  C   UNL A   1      33.106  28.048  24.068  1.00  0.00     0.047 A 
ATOM     15  C   UNL A   1      32.083  26.969  25.970  1.00  0.00     0.017 A 
ATOM     16  C   UNL A   1      32.714  26.885  24.730  1.00  0.00     0.128 A 
ATOM     17  C   UNL A   1      31.615  25.762  26.627  1.00  0.00     0.027 C 
ATOM     18  O   UNL A   1      32.986  25.709  24.090  1.00  0.00    -0.475 OA
ATOM     19  C   UNL A   1      32.484  24.468  24.657  1.00  0.00     0.316 C 
BRANCH  19  20
ATOM     20  C   UNL A   1      31.601  23.773  23.611  1.00  0.00     0.430 C 
ATOM     21  F   UNL A   1      30.288  24.036  23.822  1.00  0.00    -0.167 F 
ATOM     22  F   UNL A   1      31.878  24.201  22.356  1.00  0.00    -0.167 F 
ATOM     23  F   UNL A   1      31.751  22.430  23.621  1.00  0.00    -0.167 F 
ENDBRANCH  19  20
ENDBRANCH   7   9
ENDBRANCH   6   7
ENDBRANCH   5   6
ENDBRANCH   4   5
ENDBRANCH   3   4
ENDBRANCH   2   3
ENDBRANCH   1   2
BRANCH   1  24
ATOM     24  O   UNL A   1      37.597  21.858  24.474  1.00  0.00    -0.376 OA
BRANCH  24  25
ATOM     25  C   UNL A   1      38.042  22.057  25.808  1.00  0.00     0.202 C 
BRANCH  25  26
ATOM     26  C   UNL A   1      39.509  21.831  26.189  1.00  0.00     0.261 C 
BRANCH  26  27
ATOM     27  O   UNL A   1      39.872  20.453  26.338  1.00  0.00    -0.460 OA
BRANCH  27  28
ATOM     28  C   UNL A   1      41.167  20.164  26.050  1.00  0.00     0.338 C 
ATOM     29  O   UNL A   1      41.588  19.185  25.458  1.00  0.00    -0.246 OA
BRANCH  28  30
ATOM     30  C   UNL A   1      42.008  21.334  26.379  1.00  0.00     0.060 A 
ATOM     31  C   UNL A   1      42.531  22.156  25.381  1.00  0.00     0.016 A 
ATOM     32  C   UNL A   1      42.255  21.610  27.732  1.00  0.00     0.016 A 
ATOM     33  C   UNL A   1      43.270  23.285  25.745  1.00  0.00     0.010 A 
ATOM     34  C   UNL A   1      43.003  22.730  28.092  1.00  0.00     0.010 A 
ATOM     35  C   UNL A   1      43.488  23.595  27.102  1.00  0.00    -0.014 A 
BRANCH  35  36
ATOM     36  C   UNL A   1      44.022  24.927  27.472  1.00  0.00     0.031 A 
ATOM     37  C   UNL A   1      45.462  25.294  27.298  1.00  0.00     0.074 A 
ATOM     38  C   UNL A   1      43.154  25.821  27.986  1.00  0.00     0.049 A 
ATOM     39  N   UNL A   1      46.024  26.466  27.445  1.00  0.00    -0.248 NA
ATOM     40  C   UNL A   1      46.392  24.220  26.921  1.00  0.00     0.031 C 
ATOM     41  C   UNL A   1      41.736  25.551  28.242  1.00  0.00     0.029 A 
ATOM     42  N   UNL A   1      43.320  27.129  28.363  1.00  0.00    -0.354 N 
ATOM     43  C   UNL A   1      47.368  26.285  27.148  1.00  0.00     0.074 A 
ATOM     44  C   UNL A   1      47.548  24.875  26.866  1.00  0.00     0.031 C 
ATOM     45  C   UNL A   1      41.153  26.672  28.691  1.00  0.00     0.029 A 
ATOM     46  C   UNL A   1      42.155  27.731  28.774  1.00  0.00     0.049 A 
ATOM     47  H   UNL A   1      44.190  27.590  28.340  1.00  0.00     0.167 HD
ATOM     48  C   UNL A   1      48.348  27.219  27.095  1.00  0.00     0.031 A 
ATOM     49  C   UNL A   1      41.906  29.001  29.151  1.00  0.00     0.031 A 
ATOM     50  C   UNL A   1      48.156  28.617  27.403  1.00  0.00     0.049 A 
ATOM     51  C   UNL A   1      43.014  30.011  29.104  1.00  0.00     0.074 A 
ATOM     52  C   UNL A   1      49.081  29.645  27.325  1.00  0.00     0.029 A 
ATOM     53  N   UNL A   1      46.974  29.183  27.857  1.00  0.00    -0.354 N 
ATOM     54  N   UNL A   1      44.258  29.845  28.725  1.00  0.00    -0.248 NA
ATOM     55  C   UNL A   1      42.684  31.381  29.513  1.00  0.00     0.031 C 
ATOM     56  C   UNL A   1      48.481  30.813  27.799  1.00  0.00     0.029 A 
ATOM     57  C   UNL A   1      47.157  30.536  28.100  1.00  0.00     0.049 A 
ATOM     58  H   UNL A   1      46.128  28.696  27.988  1.00  0.00     0.167 HD
ATOM     59  C   UNL A   1      44.857  31.093  28.835  1.00  0.00     0.074 A 
ATOM     60  C   UNL A   1      43.832  32.010  29.294  1.00  0.00     0.031 C 
ATOM     61  C   UNL A   1      46.142  31.443  28.579  1.00  0.00     0.031 A 
BRANCH  48  62
ATOM     62  C   UNL A   1      49.728  26.790  26.661  1.00  0.00    -0.014 A 
ATOM     63  C   UNL A   1      50.113  26.909  25.312  1.00  0.00     0.010 A 
ATOM     64  C   UNL A   1      50.584  26.125  27.557  1.00  0.00     0.010 A 
ATOM     65  C   UNL A   1      51.308  26.340  24.860  1.00  0.00     0.020 A 
ATOM     66  C   UNL A   1      51.793  25.578  27.115  1.00  0.00     0.020 A 
ATOM     67  C   UNL A   1      52.134  25.666  25.764  1.00  0.00     0.054 A 
BRANCH  67  68
ATOM     68  S   UNL A   1      53.657  24.895  25.151  1.00  0.00     0.124 S 
ATOM     69  O   UNL A   1      54.627  25.267  26.177  1.00  0.00    -0.237 OA
ATOM     70  O   UNL A   1      53.300  23.478  25.104  1.00  0.00    -0.237 OA
ATOM     71  O   UNL A   1      53.856  25.520  23.845  1.00  0.00    -0.744 OA
ENDBRANCH  67  68
ENDBRANCH  48  62
BRANCH  49  72
ATOM     72  C   UNL A   1      40.515  29.375  29.527  1.00  0.00    -0.014 A 
ATOM     73  C   UNL A   1      39.581  29.731  28.536  1.00  0.00     0.010 A 
ATOM     74  C   UNL A   1      40.153  29.484  30.881  1.00  0.00     0.010 A 
ATOM     75  C   UNL A   1      38.333  30.245  28.891  1.00  0.00     0.020 A 
ATOM     76  C   UNL A   1      38.893  29.970  31.240  1.00  0.00     0.020 A 
ATOM     77  C   UNL A   1      38.004  30.377  30.243  1.00  0.00     0.054 A 
BRANCH  77  78
ATOM     78  S   UNL A   1      36.403  31.109  30.682  1.00  0.00     0.124 S 
ATOM     79  O   UNL A   1      35.601  30.801  29.501  1.00  0.00    -0.237 OA
ATOM     80  O   UNL A   1      36.041  30.381  31.895  1.00  0.00    -0.237 OA
ATOM     81  O   UNL A   1      36.715  32.522  30.875  1.00  0.00    -0.744 OA
ENDBRANCH  77  78
ENDBRANCH  49  72
BRANCH  61  82
ATOM     82  C   UNL A   1      46.541  32.880  28.804  1.00  0.00    -0.014 A 
ATOM     83  C   UNL A   1      47.065  33.278  30.048  1.00  0.00     0.010 A 
ATOM     84  C   UNL A   1      46.297  33.859  27.823  1.00  0.00     0.010 A 
ATOM     85  C   UNL A   1      47.310  34.626  30.319  1.00  0.00     0.020 A 
ATOM     86  C   UNL A   1      46.569  35.207  28.079  1.00  0.00     0.020 A 
ATOM     87  C   UNL A   1      47.051  35.584  29.335  1.00  0.00     0.054 A 
BRANCH  87  88
ATOM     88  S   UNL A   1      47.357  37.333  29.709  1.00  0.00     0.124 S 
ATOM     89  O   UNL A   1      46.004  37.846  29.904  1.00  0.00    -0.237 OA
ATOM     90  O   UNL A   1      48.185  37.266  30.912  1.00  0.00    -0.237 OA
ATOM     91  O   UNL A   1      48.045  37.824  28.517  1.00  0.00    -0.744 OA
ENDBRANCH  87  88
ENDBRANCH  61  82
ENDBRANCH  35  36
ENDBRANCH  28  30
ENDBRANCH  27  28
ENDBRANCH  26  27
ENDBRANCH  25  26
ENDBRANCH  24  25
ENDBRANCH   1  24
TORSDOF 21
ENDMDL
MODEL 3
REMARK VINA RESULT:     -10.1      6.010     11.023
REMARK SMILES Cc1ccc2c(c1)C=C(C(=O)OCCOCCOCCOC(=O)c1ccc(-c3c4nc(c(-c5ccc(S(=O)(=O)[O-])cc5)c5ccc([nH]5)c(-c5ccc(S(=O)(=O)[O-])cc5)c5nc(c(-c6ccc(S(=O)(=O)[O-])cc6)c6ccc3[nH]6)C=C5)C=C4)cc1)[C@@H](C(F)(F)F)O2
REMARK SMILES IDX 17 1 16 2 15 3 14 4 13 5 12 6 10 7 11 8 9 9 1 10 2 11 3 12
REMARK SMILES IDX 7 13 4 14 6 15 5 16 8 17 89 18 84 19 85 20 86 21 87 22 88 23
REMARK SMILES IDX 18 24 19 25 20 26 21 27 22 28 23 29 24 30 25 31 83 32 26 33
REMARK SMILES IDX 82 34 27 35 28 36 29 37 76 38 30 39 81 40 75 41 77 42 31 43
REMARK SMILES IDX 80 44 74 45 73 46 32 48 62 49 43 50 61 51 44 52 47 53 60 54
REMARK SMILES IDX 78 55 45 56 46 57 59 59 79 60 48 61 33 62 34 63 42 64 35 65
REMARK SMILES IDX 41 66 36 67 37 68 38 69 39 70 40 71 63 72 64 73 72 74 65 75
REMARK SMILES IDX 71 76 66 77 67 78 68 79 69 80 70 81 49 82 50 83 58 84 51 85
REMARK SMILES IDX 57 86 52 87 53 88 54 89 55 90 56 91
REMARK H PARENT 77 47 47 58
REMARK Flexibility Score: inf
ROOT
ATOM      1  C   UNL A   1      32.704  31.881  27.481  1.00  0.00     0.188 C 
ENDROOT
BRANCH   1   2
ATOM      2  C   UNL A   1      32.018  30.710  26.745  1.00  0.00     0.188 C 
BRANCH   2   3
ATOM      3  O   UNL A   1      32.566  30.208  25.547  1.00  0.00    -0.376 OA
BRANCH   3   4
ATOM      4  C   UNL A   1      33.286  28.990  25.500  1.00  0.00     0.202 C 
BRANCH   4   5
ATOM      5  C   UNL A   1      33.486  28.141  24.237  1.00  0.00     0.261 C 
BRANCH   5   6
ATOM      6  O   UNL A   1      33.293  26.733  24.387  1.00  0.00    -0.460 OA
BRANCH   6   7
ATOM      7  C   UNL A   1      32.583  26.150  23.391  1.00  0.00     0.338 C 
ATOM      8  O   UNL A   1      32.919  25.185  22.723  1.00  0.00    -0.246 OA
BRANCH   7   9
ATOM      9  C   UNL A   1      31.257  26.784  23.294  1.00  0.00     0.087 C 
ATOM     10  C   UNL A   1      28.513  31.916  21.295  1.00  0.00     0.044 C 
ATOM     11  C   UNL A   1      28.596  30.562  21.934  1.00  0.00    -0.050 A 
ATOM     12  C   UNL A   1      27.484  29.986  22.557  1.00  0.00     0.007 A 
ATOM     13  C   UNL A   1      29.811  29.865  21.929  1.00  0.00     0.015 A 
ATOM     14  C   UNL A   1      27.584  28.729  23.159  1.00  0.00     0.047 A 
ATOM     15  C   UNL A   1      29.920  28.618  22.558  1.00  0.00     0.017 A 
ATOM     16  C   UNL A   1      28.801  28.047  23.163  1.00  0.00     0.128 A 
ATOM     17  C   UNL A   1      31.201  27.940  22.621  1.00  0.00     0.027 C 
ATOM     18  O   UNL A   1      28.806  26.830  23.782  1.00  0.00    -0.475 OA
ATOM     19  C   UNL A   1      30.070  26.128  23.943  1.00  0.00     0.316 C 
BRANCH  19  20
ATOM     20  C   UNL A   1      30.299  25.866  25.438  1.00  0.00     0.430 C 
ATOM     21  F   UNL A   1      30.818  26.956  26.055  1.00  0.00    -0.167 F 
ATOM     22  F   UNL A   1      29.140  25.582  26.081  1.00  0.00    -0.167 F 
ATOM     23  F   UNL A   1      31.145  24.836  25.657  1.00  0.00    -0.167 F 
ENDBRANCH  19  20
ENDBRANCH   7   9
ENDBRANCH   6   7
ENDBRANCH   5   6
ENDBRANCH   4   5
ENDBRANCH   3   4
ENDBRANCH   2   3
ENDBRANCH   1   2
BRANCH   1  24
ATOM     24  O   UNL A   1      34.113  31.939  27.611  1.00  0.00    -0.376 OA
BRANCH  24  25
ATOM     25  C   UNL A   1      34.702  31.763  28.892  1.00  0.00     0.202 C 
BRANCH  25  26
ATOM     26  C   UNL A   1      35.332  32.945  29.637  1.00  0.00     0.261 C 
BRANCH  26  27
ATOM     27  O   UNL A   1      36.711  32.756  29.980  1.00  0.00    -0.460 OA
BRANCH  27  28
ATOM     28  C   UNL A   1      36.955  31.745  30.853  1.00  0.00     0.338 C 
ATOM     29  O   UNL A   1      36.252  31.392  31.784  1.00  0.00    -0.246 OA
BRANCH  28  30
ATOM     30  C   UNL A   1      38.123  30.972  30.383  1.00  0.00     0.060 A 
ATOM     31  C   UNL A   1      38.329  30.721  29.026  1.00  0.00     0.016 A 
ATOM     32  C   UNL A   1      39.035  30.506  31.340  1.00  0.00     0.016 A 
ATOM     33  C   UNL A   1      39.481  30.037  28.626  1.00  0.00     0.010 A 
ATOM     34  C   UNL A   1      40.177  29.813  30.940  1.00  0.00     0.010 A 
ATOM     35  C   UNL A   1      40.425  29.603  29.577  1.00  0.00    -0.014 A 
BRANCH  35  36
ATOM     36  C   UNL A   1      41.758  29.137  29.125  1.00  0.00     0.031 A 
ATOM     37  C   UNL A   1      42.012  27.730  28.682  1.00  0.00     0.074 A 
ATOM     38  C   UNL A   1      42.761  30.037  29.127  1.00  0.00     0.049 A 
ATOM     39  N   UNL A   1      43.089  27.236  28.129  1.00  0.00    -0.248 NA
ATOM     40  C   UNL A   1      40.934  26.753  28.888  1.00  0.00     0.031 C 
ATOM     41  C   UNL A   1      42.634  31.423  29.584  1.00  0.00     0.029 A 
ATOM     42  N   UNL A   1      44.066  29.936  28.719  1.00  0.00    -0.354 N 
ATOM     43  C   UNL A   1      42.815  25.897  27.887  1.00  0.00     0.074 A 
ATOM     44  C   UNL A   1      41.486  25.643  28.407  1.00  0.00     0.031 C 
ATOM     45  C   UNL A   1      43.800  32.055  29.389  1.00  0.00     0.029 A 
ATOM     46  C   UNL A   1      44.762  31.119  28.814  1.00  0.00     0.049 A 
ATOM     47  H   UNL A   1      44.466  29.098  28.390  1.00  0.00     0.167 HD
ATOM     48  C   UNL A   1      43.596  24.979  27.269  1.00  0.00     0.031 A 
ATOM     49  C   UNL A   1      46.022  31.430  28.456  1.00  0.00     0.031 A 
ATOM     50  C   UNL A   1      44.928  25.245  26.778  1.00  0.00     0.049 A 
ATOM     51  C   UNL A   1      46.874  30.389  27.791  1.00  0.00     0.074 A 
ATOM     52  C   UNL A   1      45.772  24.388  26.090  1.00  0.00     0.029 A 
ATOM     53  N   UNL A   1      45.615  26.440  26.930  1.00  0.00    -0.354 N 
ATOM     54  N   UNL A   1      46.564  29.154  27.480  1.00  0.00    -0.248 NA
ATOM     55  C   UNL A   1      48.235  30.786  27.409  1.00  0.00     0.031 C 
ATOM     56  C   UNL A   1      46.992  25.040  25.892  1.00  0.00     0.029 A 
ATOM     57  C   UNL A   1      46.886  26.330  26.384  1.00  0.00     0.049 A 
ATOM     58  H   UNL A   1      45.255  27.248  27.362  1.00  0.00     0.167 HD
ATOM     59  C   UNL A   1      47.687  28.629  26.852  1.00  0.00     0.074 A 
ATOM     60  C   UNL A   1      48.675  29.688  26.806  1.00  0.00     0.031 C 
ATOM     61  C   UNL A   1      47.877  27.379  26.360  1.00  0.00     0.031 A 
BRANCH  48  62
ATOM     62  C   UNL A   1      43.040  23.594  27.045  1.00  0.00    -0.014 A 
ATOM     63  C   UNL A   1      43.006  22.668  28.104  1.00  0.00     0.010 A 
ATOM     64  C   UNL A   1      42.699  23.162  25.750  1.00  0.00     0.010 A 
ATOM     65  C   UNL A   1      42.678  21.329  27.867  1.00  0.00     0.020 A 
ATOM     66  C   UNL A   1      42.344  21.831  25.513  1.00  0.00     0.020 A 
ATOM     67  C   UNL A   1      42.362  20.917  26.569  1.00  0.00     0.054 A 
BRANCH  67  68
ATOM     68  S   UNL A   1      41.984  19.168  26.273  1.00  0.00     0.124 S 
ATOM     69  O   UNL A   1      42.256  18.567  27.575  1.00  0.00    -0.237 OA
ATOM     70  O   UNL A   1      40.577  19.209  25.878  1.00  0.00    -0.237 OA
ATOM     71  O   UNL A   1      42.909  18.793  25.205  1.00  0.00    -0.744 OA
ENDBRANCH  67  68
ENDBRANCH  48  62
BRANCH  49  72
ATOM     72  C   UNL A   1      46.500  32.824  28.660  1.00  0.00    -0.014 A 
ATOM     73  C   UNL A   1      46.870  33.269  29.944  1.00  0.00     0.010 A 
ATOM     74  C   UNL A   1      46.481  33.742  27.596  1.00  0.00     0.010 A 
ATOM     75  C   UNL A   1      47.155  34.617  30.171  1.00  0.00     0.020 A 
ATOM     76  C   UNL A   1      46.794  35.087  27.813  1.00  0.00     0.020 A 
ATOM     77  C   UNL A   1      47.098  35.520  29.106  1.00  0.00     0.054 A 
BRANCH  77  78
ATOM     78  S   UNL A   1      47.406  37.276  29.437  1.00  0.00     0.124 S 
ATOM     79  O   UNL A   1      46.244  37.906  28.816  1.00  0.00    -0.237 OA
ATOM     80  O   UNL A   1      47.444  37.325  30.897  1.00  0.00    -0.237 OA
ATOM     81  O   UNL A   1      48.683  37.531  28.775  1.00  0.00    -0.744 OA
ENDBRANCH  77  78
ENDBRANCH  49  72
BRANCH  61  82
ATOM     82  C   UNL A   1      49.214  27.061  25.738  1.00  0.00    -0.014 A 
ATOM     83  C   UNL A   1      50.253  26.543  26.534  1.00  0.00     0.010 A 
ATOM     84  C   UNL A   1      49.478  27.374  24.393  1.00  0.00     0.010 A 
ATOM     85  C   UNL A   1      51.536  26.372  26.007  1.00  0.00     0.020 A 
ATOM     86  C   UNL A   1      50.752  27.177  23.852  1.00  0.00     0.020 A 
ATOM     87  C   UNL A   1      51.779  26.700  24.671  1.00  0.00     0.054 A 
BRANCH  87  88
ATOM     88  S   UNL A   1      53.455  26.490  24.006  1.00  0.00     0.124 S 
ATOM     89  O   UNL A   1      53.245  26.691  22.575  1.00  0.00    -0.237 OA
ATOM     90  O   UNL A   1      54.206  27.542  24.686  1.00  0.00    -0.237 OA
ATOM     91  O   UNL A   1      53.811  25.128  24.399  1.00  0.00    -0.744 OA
ENDBRANCH  87  88
ENDBRANCH  61  82
ENDBRANCH  35  36
ENDBRANCH  28  30
ENDBRANCH  27  28
ENDBRANCH  26  27
ENDBRANCH  25  26
ENDBRANCH  24  25
ENDBRANCH   1  24
TORSDOF 21
ENDMDL
