MODEL 1
REMARK VINA RESULT:     -10.2      0.000      0.000
REMARK SMILES Cc1nc2nc(CNC(=O)OC(C)(C)C)nn2c(C)c1CCC(=O)OCCOCCOCCOC(=O)c1ccc(-c2c3nc(c(-c4ccc(S(=O)(=O)[O-])cc4)c4ccc([nH]4)c(-c4ccc(S(=O)(=O)[O-])cc4)c4nc(c(-c5ccc(S(=O)(=O)[O-])cc5)c5ccc2[nH]5)C=C4)C=C3)cc1
REMARK SMILES IDX 28 1 27 2 26 3 25 4 23 5 24 6 22 7 21 8 20 9 1 10 2 11 3 12
REMARK SMILES IDX 4 13 18 14 5 15 17 16 19 17 6 18 16 19 7 20 8 21 9 22 10 24
REMARK SMILES IDX 11 25 12 26 13 27 14 28 15 29 29 30 30 31 31 32 32 33 33 34
REMARK SMILES IDX 34 35 35 36 36 37 37 38 38 39 96 40 39 41 95 42 40 43 41 44
REMARK SMILES IDX 42 45 89 46 43 47 94 48 88 49 90 50 44 51 93 52 87 53 86 54
REMARK SMILES IDX 45 56 75 57 56 58 74 59 57 60 60 61 73 62 91 63 58 64 59 65
REMARK SMILES IDX 72 67 92 68 61 69 46 70 47 71 55 72 48 73 54 74 49 75 50 76
REMARK SMILES IDX 51 77 52 78 53 79 76 80 77 81 85 82 78 83 84 84 79 85 80 86
REMARK SMILES IDX 81 87 82 88 83 89 62 90 63 91 71 92 64 93 70 94 65 95 66 96
REMARK SMILES IDX 67 97 68 98 69 99
REMARK H PARENT 8 23 90 55 60 66
REMARK Flexibility Score: inf
ROOT
ATOM      1  O   UNL A   1      41.708  20.927  26.592  1.00  0.00    -0.376 OA
ENDROOT
BRANCH   1   2
ATOM      2  C   UNL A   1      40.424  21.408  26.972  1.00  0.00     0.202 C 
BRANCH   2   3
ATOM      3  C   UNL A   1      39.429  21.695  25.817  1.00  0.00     0.261 C 
BRANCH   3   4
ATOM      4  O   UNL A   1      38.026  21.509  26.168  1.00  0.00    -0.463 OA
BRANCH   4   5
ATOM      5  C   UNL A   1      37.061  21.735  25.249  1.00  0.00     0.306 C 
ATOM      6  O   UNL A   1      37.246  21.629  24.041  1.00  0.00    -0.252 OA
BRANCH   5   7
ATOM      7  C   UNL A   1      35.711  22.183  25.834  1.00  0.00     0.127 C 
BRANCH   7   8
ATOM      8  C   UNL A   1      34.339  21.695  25.286  1.00  0.00     0.051 C 
BRANCH   8   9
ATOM      9  C   UNL A   1      33.130  22.584  25.541  1.00  0.00    -0.005 A 
ATOM     10  C   UNL A   1      33.098  22.308  28.153  1.00  0.00     0.067 C 
ATOM     11  C   UNL A   1      32.504  22.920  26.903  1.00  0.00     0.046 A 
ATOM     12  N   UNL A   1      31.539  23.787  27.117  1.00  0.00    -0.216 NA
ATOM     13  C   UNL A   1      31.043  24.461  26.037  1.00  0.00     0.252 A 
ATOM     14  C   UNL A   1      32.614  23.368  24.582  1.00  0.00     0.048 A 
ATOM     15  N   UNL A   1      30.289  25.547  25.912  1.00  0.00    -0.192 NA
ATOM     16  N   UNL A   1      31.505  24.145  24.783  1.00  0.00    -0.201 N 
ATOM     17  C   UNL A   1      33.253  23.723  23.312  1.00  0.00     0.067 C 
ATOM     18  C   UNL A   1      30.277  25.775  24.552  1.00  0.00     0.172 A 
ATOM     19  N   UNL A   1      30.847  24.820  23.833  1.00  0.00    -0.148 NA
BRANCH  18  20
ATOM     20  C   UNL A   1      29.713  26.926  23.814  1.00  0.00     0.199 C 
BRANCH  20  21
ATOM     21  N   UNL A   1      30.221  28.136  24.428  1.00  0.00    -0.314 N 
ATOM     22  C   UNL A   1      30.186  29.346  23.837  1.00  0.00     0.408 C 
ATOM     23  H   UNL A   1      30.612  28.070  25.329  1.00  0.00     0.167 HD
ATOM     24  O   UNL A   1      30.793  30.315  24.288  1.00  0.00    -0.225 OA
BRANCH  22  25
ATOM     25  O   UNL A   1      29.446  29.311  22.718  1.00  0.00    -0.444 OA
BRANCH  25  26
ATOM     26  C   UNL A   1      28.208  30.037  22.606  1.00  0.00     0.106 C 
ATOM     27  C   UNL A   1      28.115  31.163  23.636  1.00  0.00     0.056 C 
ATOM     28  C   UNL A   1      28.035  30.528  21.168  1.00  0.00     0.056 C 
ATOM     29  C   UNL A   1      27.135  28.984  22.914  1.00  0.00     0.056 C 
ENDBRANCH  25  26
ENDBRANCH  22  25
ENDBRANCH  20  21
ENDBRANCH  18  20
ENDBRANCH   8   9
ENDBRANCH   7   8
ENDBRANCH   5   7
ENDBRANCH   4   5
ENDBRANCH   3   4
ENDBRANCH   2   3
ENDBRANCH   1   2
BRANCH   1  30
ATOM     30  C   UNL A   1      42.012  19.574  26.902  1.00  0.00     0.188 C 
BRANCH  30  31
ATOM     31  C   UNL A   1      42.919  18.875  25.896  1.00  0.00     0.188 C 
BRANCH  31  32
ATOM     32  O   UNL A   1      43.412  19.673  24.811  1.00  0.00    -0.376 OA
BRANCH  32  33
ATOM     33  C   UNL A   1      44.829  19.883  24.758  1.00  0.00     0.202 C 
BRANCH  33  34
ATOM     34  C   UNL A   1      45.316  21.330  24.754  1.00  0.00     0.261 C 
BRANCH  34  35
ATOM     35  O   UNL A   1      44.612  22.083  25.705  1.00  0.00    -0.460 OA
BRANCH  35  36
ATOM     36  C   UNL A   1      44.405  23.371  25.343  1.00  0.00     0.338 C 
ATOM     37  O   UNL A   1      44.942  23.999  24.451  1.00  0.00    -0.246 OA
BRANCH  36  38
ATOM     38  C   UNL A   1      43.365  23.871  26.247  1.00  0.00     0.060 A 
ATOM     39  C   UNL A   1      42.335  24.607  25.673  1.00  0.00     0.016 A 
ATOM     40  C   UNL A   1      43.583  23.813  27.636  1.00  0.00     0.016 A 
ATOM     41  C   UNL A   1      41.803  25.603  26.445  1.00  0.00     0.010 A 
ATOM     42  C   UNL A   1      43.064  24.806  28.400  1.00  0.00     0.010 A 
ATOM     43  C   UNL A   1      42.323  25.766  27.731  1.00  0.00    -0.014 A 
BRANCH  43  44
ATOM     44  C   UNL A   1      42.150  27.030  28.382  1.00  0.00     0.031 A 
ATOM     45  C   UNL A   1      43.231  27.953  28.033  1.00  0.00     0.074 A 
ATOM     46  C   UNL A   1      41.063  27.287  29.128  1.00  0.00     0.049 A 
ATOM     47  N   UNL A   1      44.321  28.128  28.700  1.00  0.00    -0.248 NA
ATOM     48  C   UNL A   1      43.255  28.486  26.661  1.00  0.00     0.031 C 
ATOM     49  C   UNL A   1      39.821  26.519  29.268  1.00  0.00     0.029 A 
ATOM     50  N   UNL A   1      40.817  28.387  29.870  1.00  0.00    -0.354 N 
ATOM     51  C   UNL A   1      45.037  29.034  27.941  1.00  0.00     0.074 A 
ATOM     52  C   UNL A   1      44.506  28.948  26.607  1.00  0.00     0.031 C 
ATOM     53  C   UNL A   1      38.878  27.306  29.845  1.00  0.00     0.029 A 
ATOM     54  C   UNL A   1      39.492  28.566  30.234  1.00  0.00     0.049 A 
ATOM     55  H   UNL A   1      41.527  29.016  30.135  1.00  0.00     0.167 HD
ATOM     56  C   UNL A   1      45.725  30.043  28.537  1.00  0.00     0.031 A 
ATOM     57  C   UNL A   1      38.968  29.721  30.725  1.00  0.00     0.031 A 
ATOM     58  C   UNL A   1      45.860  29.826  29.958  1.00  0.00     0.049 A 
ATOM     59  C   UNL A   1      40.119  30.517  31.245  1.00  0.00     0.074 A 
ATOM     60  C   UNL A   1      46.423  28.832  30.735  1.00  0.00     0.029 A 
ATOM     61  N   UNL A   1      44.973  30.496  30.772  1.00  0.00    -0.354 N 
ATOM     62  N   UNL A   1      40.852  30.139  32.257  1.00  0.00    -0.248 NA
ATOM     63  C   UNL A   1      40.760  31.461  30.338  1.00  0.00     0.031 C 
ATOM     64  C   UNL A   1      45.536  28.675  31.841  1.00  0.00     0.029 A 
ATOM     65  C   UNL A   1      44.517  29.623  31.730  1.00  0.00     0.049 A 
ATOM     66  H   UNL A   1      44.710  31.441  30.683  1.00  0.00     0.167 HD
ATOM     67  C   UNL A   1      42.159  30.439  31.889  1.00  0.00     0.074 A 
ATOM     68  C   UNL A   1      42.030  31.331  30.737  1.00  0.00     0.031 C 
ATOM     69  C   UNL A   1      43.212  29.704  32.360  1.00  0.00     0.031 A 
BRANCH  56  70
ATOM     70  C   UNL A   1      45.857  31.402  27.907  1.00  0.00    -0.014 A 
ATOM     71  C   UNL A   1      47.142  31.934  27.715  1.00  0.00     0.010 A 
ATOM     72  C   UNL A   1      44.763  32.277  27.714  1.00  0.00     0.010 A 
ATOM     73  C   UNL A   1      47.320  33.283  27.387  1.00  0.00     0.020 A 
ATOM     74  C   UNL A   1      44.926  33.607  27.340  1.00  0.00     0.020 A 
ATOM     75  C   UNL A   1      46.208  34.110  27.206  1.00  0.00     0.054 A 
BRANCH  75  76
ATOM     76  S   UNL A   1      46.452  35.864  26.859  1.00  0.00     0.124 S 
ATOM     77  O   UNL A   1      45.446  36.107  25.830  1.00  0.00    -0.237 OA
ATOM     78  O   UNL A   1      46.191  36.471  28.162  1.00  0.00    -0.237 OA
ATOM     79  O   UNL A   1      47.841  35.935  26.411  1.00  0.00    -0.744 OA
ENDBRANCH  75  76
ENDBRANCH  56  70
BRANCH  57  80
ATOM     80  C   UNL A   1      37.679  30.358  30.330  1.00  0.00    -0.014 A 
ATOM     81  C   UNL A   1      36.845  30.939  31.306  1.00  0.00     0.010 A 
ATOM     82  C   UNL A   1      37.421  30.676  28.981  1.00  0.00     0.010 A 
ATOM     83  C   UNL A   1      35.859  31.877  30.954  1.00  0.00     0.020 A 
ATOM     84  C   UNL A   1      36.434  31.604  28.622  1.00  0.00     0.020 A 
ATOM     85  C   UNL A   1      35.682  32.227  29.614  1.00  0.00     0.054 A 
BRANCH  85  86
ATOM     86  S   UNL A   1      34.567  33.599  29.185  1.00  0.00     0.124 S 
ATOM     87  O   UNL A   1      35.501  34.635  28.753  1.00  0.00    -0.237 OA
ATOM     88  O   UNL A   1      33.738  33.017  28.134  1.00  0.00    -0.237 OA
ATOM     89  O   UNL A   1      33.868  33.879  30.438  1.00  0.00    -0.744 OA
ENDBRANCH  85  86
ENDBRANCH  57  80
BRANCH  69  90
ATOM     90  C   UNL A   1      42.959  28.749  33.510  1.00  0.00    -0.014 A 
ATOM     91  C   UNL A   1      42.857  29.139  34.862  1.00  0.00     0.010 A 
ATOM     92  C   UNL A   1      42.677  27.413  33.180  1.00  0.00     0.010 A 
ATOM     93  C   UNL A   1      42.514  28.205  35.855  1.00  0.00     0.020 A 
ATOM     94  C   UNL A   1      42.317  26.484  34.159  1.00  0.00     0.020 A 
ATOM     95  C   UNL A   1      42.248  26.881  35.494  1.00  0.00     0.054 A 
BRANCH  95  96
ATOM     96  S   UNL A   1      41.788  25.674  36.773  1.00  0.00     0.124 S 
ATOM     97  O   UNL A   1      42.820  24.650  36.630  1.00  0.00    -0.237 OA
ATOM     98  O   UNL A   1      41.850  26.464  38.000  1.00  0.00    -0.237 OA
ATOM     99  O   UNL A   1      40.442  25.252  36.385  1.00  0.00    -0.744 OA
ENDBRANCH  95  96
ENDBRANCH  69  90
ENDBRANCH  43  44
ENDBRANCH  36  38
ENDBRANCH  35  36
ENDBRANCH  34  35
ENDBRANCH  33  34
ENDBRANCH  32  33
ENDBRANCH  31  32
ENDBRANCH  30  31
ENDBRANCH   1  30
TORSDOF 26
ENDMDL
MODEL 2
REMARK VINA RESULT:      -8.9      2.487      6.460
REMARK SMILES Cc1nc2nc(CNC(=O)OC(C)(C)C)nn2c(C)c1CCC(=O)OCCOCCOCCOC(=O)c1ccc(-c2c3nc(c(-c4ccc(S(=O)(=O)[O-])cc4)c4ccc([nH]4)c(-c4ccc(S(=O)(=O)[O-])cc4)c4nc(c(-c5ccc(S(=O)(=O)[O-])cc5)c5ccc2[nH]5)C=C4)C=C3)cc1
REMARK SMILES IDX 28 1 27 2 26 3 25 4 23 5 24 6 22 7 21 8 20 9 1 10 2 11 3 12
REMARK SMILES IDX 4 13 18 14 5 15 17 16 19 17 6 18 16 19 7 20 8 21 9 22 10 24
REMARK SMILES IDX 11 25 12 26 13 27 14 28 15 29 29 30 30 31 31 32 32 33 33 34
REMARK SMILES IDX 34 35 35 36 36 37 37 38 38 39 96 40 39 41 95 42 40 43 41 44
REMARK SMILES IDX 42 45 89 46 43 47 94 48 88 49 90 50 44 51 93 52 87 53 86 54
REMARK SMILES IDX 45 56 75 57 56 58 74 59 57 60 60 61 73 62 91 63 58 64 59 65
REMARK SMILES IDX 72 67 92 68 61 69 46 70 47 71 55 72 48 73 54 74 49 75 50 76
REMARK SMILES IDX 51 77 52 78 53 79 76 80 77 81 85 82 78 83 84 84 79 85 80 86
REMARK SMILES IDX 81 87 82 88 83 89 62 90 63 91 71 92 64 93 70 94 65 95 66 96
REMARK SMILES IDX 67 97 68 98 69 99
REMARK H PARENT 8 23 90 55 60 66
REMARK Flexibility Score: inf
ROOT
ATOM      1  O   UNL A   1      41.558  20.624  27.374  1.00  0.00    -0.376 OA
ENDROOT
BRANCH   1   2
ATOM      2  C   UNL A   1      40.407  21.438  27.179  1.00  0.00     0.202 C 
BRANCH   2   3
ATOM      3  C   UNL A   1      39.662  21.261  25.830  1.00  0.00     0.261 C 
BRANCH   3   4
ATOM      4  O   UNL A   1      38.346  21.886  25.780  1.00  0.00    -0.463 OA
BRANCH   4   5
ATOM      5  C   UNL A   1      37.297  21.219  25.248  1.00  0.00     0.306 C 
ATOM      6  O   UNL A   1      37.332  20.025  24.972  1.00  0.00    -0.252 OA
BRANCH   5   7
ATOM      7  C   UNL A   1      36.060  22.088  24.969  1.00  0.00     0.127 C 
BRANCH   7   8
ATOM      8  C   UNL A   1      34.641  21.499  24.720  1.00  0.00     0.051 C 
BRANCH   8   9
ATOM      9  C   UNL A   1      33.456  22.280  25.268  1.00  0.00    -0.005 A 
ATOM     10  C   UNL A   1      33.841  21.681  27.797  1.00  0.00     0.067 C 
ATOM     11  C   UNL A   1      33.037  22.409  26.741  1.00  0.00     0.046 A 
ATOM     12  N   UNL A   1      32.086  23.187  27.209  1.00  0.00    -0.216 NA
ATOM     13  C   UNL A   1      31.404  23.960  26.313  1.00  0.00     0.252 A 
ATOM     14  C   UNL A   1      32.767  23.146  24.509  1.00  0.00     0.048 A 
ATOM     15  N   UNL A   1      30.600  25.010  26.446  1.00  0.00    -0.192 NA
ATOM     16  N   UNL A   1      31.676  23.828  24.974  1.00  0.00    -0.201 N 
ATOM     17  C   UNL A   1      33.188  23.691  23.214  1.00  0.00     0.067 C 
ATOM     18  C   UNL A   1      30.369  25.403  25.145  1.00  0.00     0.172 A 
ATOM     19  N   UNL A   1      30.854  24.578  24.230  1.00  0.00    -0.148 NA
BRANCH  18  20
ATOM     20  C   UNL A   1      29.655  26.604  24.657  1.00  0.00     0.199 C 
BRANCH  20  21
ATOM     21  N   UNL A   1      30.506  27.259  23.685  1.00  0.00    -0.314 N 
ATOM     22  C   UNL A   1      31.250  28.349  23.957  1.00  0.00     0.408 C 
ATOM     23  H   UNL A   1      30.544  26.886  22.775  1.00  0.00     0.167 HD
ATOM     24  O   UNL A   1      31.806  29.000  23.076  1.00  0.00    -0.225 OA
BRANCH  22  25
ATOM     25  O   UNL A   1      31.253  28.610  25.274  1.00  0.00    -0.444 OA
BRANCH  25  26
ATOM     26  C   UNL A   1      32.444  28.466  26.070  1.00  0.00     0.106 C 
ATOM     27  C   UNL A   1      33.321  27.314  25.578  1.00  0.00     0.056 C 
ATOM     28  C   UNL A   1      33.187  29.803  26.119  1.00  0.00     0.056 C 
ATOM     29  C   UNL A   1      31.912  28.131  27.471  1.00  0.00     0.056 C 
ENDBRANCH  25  26
ENDBRANCH  22  25
ENDBRANCH  20  21
ENDBRANCH  18  20
ENDBRANCH   8   9
ENDBRANCH   7   8
ENDBRANCH   5   7
ENDBRANCH   4   5
ENDBRANCH   3   4
ENDBRANCH   2   3
ENDBRANCH   1   2
BRANCH   1  30
ATOM     30  C   UNL A   1      41.562  19.346  26.752  1.00  0.00     0.188 C 
BRANCH  30  31
ATOM     31  C   UNL A   1      42.838  19.012  25.986  1.00  0.00     0.188 C 
BRANCH  31  32
ATOM     32  O   UNL A   1      43.271  19.968  25.008  1.00  0.00    -0.376 OA
BRANCH  32  33
ATOM     33  C   UNL A   1      44.503  20.649  25.276  1.00  0.00     0.202 C 
BRANCH  33  34
ATOM     34  C   UNL A   1      44.738  21.971  24.549  1.00  0.00     0.261 C 
BRANCH  34  35
ATOM     35  O   UNL A   1      44.742  23.035  25.463  1.00  0.00    -0.460 OA
BRANCH  35  36
ATOM     36  C   UNL A   1      43.508  23.418  25.866  1.00  0.00     0.338 C 
ATOM     37  O   UNL A   1      42.460  23.353  25.252  1.00  0.00    -0.246 OA
BRANCH  36  38
ATOM     38  C   UNL A   1      43.680  23.923  27.231  1.00  0.00     0.060 A 
ATOM     39  C   UNL A   1      42.524  24.222  27.941  1.00  0.00     0.016 A 
ATOM     40  C   UNL A   1      44.963  24.320  27.655  1.00  0.00     0.016 A 
ATOM     41  C   UNL A   1      42.610  25.260  28.826  1.00  0.00     0.010 A 
ATOM     42  C   UNL A   1      45.048  25.356  28.526  1.00  0.00     0.010 A 
ATOM     43  C   UNL A   1      43.847  25.898  28.949  1.00  0.00    -0.014 A 
BRANCH  43  44
ATOM     44  C   UNL A   1      43.879  27.229  29.478  1.00  0.00     0.031 A 
ATOM     45  C   UNL A   1      44.347  27.233  30.864  1.00  0.00     0.074 A 
ATOM     46  C   UNL A   1      43.587  28.291  28.710  1.00  0.00     0.049 A 
ATOM     47  N   UNL A   1      43.602  27.183  31.915  1.00  0.00    -0.248 NA
ATOM     48  C   UNL A   1      45.770  26.936  31.104  1.00  0.00     0.031 C 
ATOM     49  C   UNL A   1      43.405  28.374  27.257  1.00  0.00     0.029 A 
ATOM     50  N   UNL A   1      43.483  29.580  29.095  1.00  0.00    -0.354 N 
ATOM     51  C   UNL A   1      44.500  27.141  32.964  1.00  0.00     0.074 A 
ATOM     52  C   UNL A   1      45.741  26.667  32.409  1.00  0.00     0.031 C 
ATOM     53  C   UNL A   1      43.461  29.675  26.877  1.00  0.00     0.029 A 
ATOM     54  C   UNL A   1      43.542  30.507  28.068  1.00  0.00     0.049 A 
ATOM     55  H   UNL A   1      43.372  29.843  30.038  1.00  0.00     0.167 HD
ATOM     56  C   UNL A   1      44.274  27.857  34.096  1.00  0.00     0.031 A 
ATOM     57  C   UNL A   1      43.742  31.843  28.233  1.00  0.00     0.031 A 
ATOM     58  C   UNL A   1      42.914  28.336  34.159  1.00  0.00     0.049 A 
ATOM     59  C   UNL A   1      43.385  32.149  29.650  1.00  0.00     0.074 A 
ATOM     60  C   UNL A   1      41.674  27.727  34.162  1.00  0.00     0.029 A 
ATOM     61  N   UNL A   1      42.700  29.642  33.777  1.00  0.00    -0.354 N 
ATOM     62  N   UNL A   1      42.175  32.029  30.124  1.00  0.00    -0.248 NA
ATOM     63  C   UNL A   1      44.446  32.097  30.647  1.00  0.00     0.031 C 
ATOM     64  C   UNL A   1      40.842  28.568  33.366  1.00  0.00     0.029 A 
ATOM     65  C   UNL A   1      41.585  29.685  32.977  1.00  0.00     0.049 A 
ATOM     66  H   UNL A   1      43.254  30.415  34.035  1.00  0.00     0.167 HD
ATOM     67  C   UNL A   1      42.334  31.460  31.383  1.00  0.00     0.074 A 
ATOM     68  C   UNL A   1      43.758  31.607  31.684  1.00  0.00     0.031 C 
ATOM     69  C   UNL A   1      41.365  30.663  31.927  1.00  0.00     0.031 A 
BRANCH  56  70
ATOM     70  C   UNL A   1      45.393  28.484  34.883  1.00  0.00    -0.014 A 
ATOM     71  C   UNL A   1      45.493  28.201  36.255  1.00  0.00     0.010 A 
ATOM     72  C   UNL A   1      46.205  29.526  34.380  1.00  0.00     0.010 A 
ATOM     73  C   UNL A   1      46.334  28.951  37.084  1.00  0.00     0.020 A 
ATOM     74  C   UNL A   1      47.082  30.245  35.185  1.00  0.00     0.020 A 
ATOM     75  C   UNL A   1      47.120  29.971  36.541  1.00  0.00     0.054 A 
BRANCH  75  76
ATOM     76  S   UNL A   1      48.143  30.982  37.631  1.00  0.00     0.124 S 
ATOM     77  O   UNL A   1      48.530  30.018  38.657  1.00  0.00    -0.237 OA
ATOM     78  O   UNL A   1      49.208  31.418  36.732  1.00  0.00    -0.237 OA
ATOM     79  O   UNL A   1      47.234  32.038  38.072  1.00  0.00    -0.744 OA
ENDBRANCH  75  76
ENDBRANCH  56  70
BRANCH  57  80
ATOM     80  C   UNL A   1      44.655  32.715  27.441  1.00  0.00    -0.014 A 
ATOM     81  C   UNL A   1      44.394  34.095  27.322  1.00  0.00     0.010 A 
ATOM     82  C   UNL A   1      45.939  32.263  27.073  1.00  0.00     0.010 A 
ATOM     83  C   UNL A   1      45.405  34.997  26.947  1.00  0.00     0.020 A 
ATOM     84  C   UNL A   1      46.950  33.155  26.689  1.00  0.00     0.020 A 
ATOM     85  C   UNL A   1      46.687  34.522  26.662  1.00  0.00     0.054 A 
BRANCH  85  86
ATOM     86  S   UNL A   1      48.043  35.705  26.399  1.00  0.00     0.124 S 
ATOM     87  O   UNL A   1      47.362  36.991  26.517  1.00  0.00    -0.237 OA
ATOM     88  O   UNL A   1      48.965  35.376  27.482  1.00  0.00    -0.237 OA
ATOM     89  O   UNL A   1      48.527  35.382  25.058  1.00  0.00    -0.744 OA
ENDBRANCH  85  86
ENDBRANCH  57  80
BRANCH  69  90
ATOM     90  C   UNL A   1      40.001  30.645  31.265  1.00  0.00    -0.014 A 
ATOM     91  C   UNL A   1      38.811  31.082  31.883  1.00  0.00     0.010 A 
ATOM     92  C   UNL A   1      39.955  30.295  29.906  1.00  0.00     0.010 A 
ATOM     93  C   UNL A   1      37.604  31.133  31.163  1.00  0.00     0.020 A 
ATOM     94  C   UNL A   1      38.764  30.362  29.179  1.00  0.00     0.020 A 
ATOM     95  C   UNL A   1      37.590  30.770  29.813  1.00  0.00     0.054 A 
BRANCH  95  96
ATOM     96  S   UNL A   1      36.037  30.850  28.875  1.00  0.00     0.124 S 
ATOM     97  O   UNL A   1      35.612  29.452  28.842  1.00  0.00    -0.237 OA
ATOM     98  O   UNL A   1      35.213  31.740  29.689  1.00  0.00    -0.237 OA
ATOM     99  O   UNL A   1      36.439  31.403  27.582  1.00  0.00    -0.744 OA
ENDBRANCH  95  96
ENDBRANCH  69  90
ENDBRANCH  43  44
ENDBRANCH  36  38
ENDBRANCH  35  36
ENDBRANCH  34  35
ENDBRANCH  33  34
ENDBRANCH  32  33
ENDBRANCH  31  32
ENDBRANCH  30  31
ENDBRANCH   1  30
TORSDOF 26
ENDMDL
MODEL 3
REMARK VINA RESULT:      -8.0      4.439     11.058
REMARK SMILES Cc1nc2nc(CNC(=O)OC(C)(C)C)nn2c(C)c1CCC(=O)OCCOCCOCCOC(=O)c1ccc(-c2c3nc(c(-c4ccc(S(=O)(=O)[O-])cc4)c4ccc([nH]4)c(-c4ccc(S(=O)(=O)[O-])cc4)c4nc(c(-c5ccc(S(=O)(=O)[O-])cc5)c5ccc2[nH]5)C=C4)C=C3)cc1
REMARK SMILES IDX 28 1 27 2 26 3 25 4 23 5 24 6 22 7 21 8 20 9 1 10 2 11 3 12
REMARK SMILES IDX 4 13 18 14 5 15 17 16 19 17 6 18 16 19 7 20 8 21 9 22 10 24
REMARK SMILES IDX 11 25 12 26 13 27 14 28 15 29 29 30 30 31 31 32 32 33 33 34
REMARK SMILES IDX 34 35 35 36 36 37 37 38 38 39 96 40 39 41 95 42 40 43 41 44
REMARK SMILES IDX 42 45 89 46 43 47 94 48 88 49 90 50 44 51 93 52 87 53 86 54
REMARK SMILES IDX 45 56 75 57 56 58 74 59 57 60 60 61 73 62 91 63 58 64 59 65
REMARK SMILES IDX 72 67 92 68 61 69 46 70 47 71 55 72 48 73 54 74 49 75 50 76
REMARK SMILES IDX 51 77 52 78 53 79 76 80 77 81 85 82 78 83 84 84 79 85 80 86
REMARK SMILES IDX 81 87 82 88 83 89 62 90 63 91 71 92 64 93 70 94 65 95 66 96
REMARK SMILES IDX 67 97 68 98 69 99
REMARK H PARENT 8 23 90 55 60 66
REMARK Flexibility Score: inf
ROOT
ATOM      1  O   UNL A   1      40.684  28.175  27.220  1.00  0.00    -0.376 OA
ENDROOT
BRANCH   1   2
ATOM      2  C   UNL A   1      41.927  28.655  26.720  1.00  0.00     0.202 C 
BRANCH   2   3
ATOM      3  C   UNL A   1      42.290  28.239  25.270  1.00  0.00     0.261 C 
BRANCH   3   4
ATOM      4  O   UNL A   1      43.131  27.052  25.174  1.00  0.00    -0.463 OA
BRANCH   4   5
ATOM      5  C   UNL A   1      44.476  27.166  25.251  1.00  0.00     0.306 C 
ATOM      6  O   UNL A   1      45.058  28.245  25.274  1.00  0.00    -0.252 OA
BRANCH   5   7
ATOM      7  C   UNL A   1      45.232  25.828  25.264  1.00  0.00     0.127 C 
BRANCH   7   8
ATOM      8  C   UNL A   1      45.196  24.838  26.465  1.00  0.00     0.051 C 
BRANCH   8   9
ATOM      9  C   UNL A   1      43.827  24.414  26.977  1.00  0.00    -0.005 A 
ATOM     10  C   UNL A   1      43.608  26.269  28.824  1.00  0.00     0.067 C 
ATOM     11  C   UNL A   1      43.017  25.078  28.101  1.00  0.00     0.046 A 
ATOM     12  N   UNL A   1      41.784  24.777  28.447  1.00  0.00    -0.216 NA
ATOM     13  C   UNL A   1      41.155  23.788  27.747  1.00  0.00     0.252 A 
ATOM     14  C   UNL A   1      43.071  23.521  26.320  1.00  0.00     0.048 A 
ATOM     15  N   UNL A   1      39.883  23.415  27.644  1.00  0.00    -0.192 NA
ATOM     16  N   UNL A   1      41.855  23.101  26.785  1.00  0.00    -0.201 N 
ATOM     17  C   UNL A   1      43.267  23.065  24.941  1.00  0.00     0.067 C 
ATOM     18  C   UNL A   1      39.911  22.447  26.662  1.00  0.00     0.172 A 
ATOM     19  N   UNL A   1      41.128  22.103  26.269  1.00  0.00    -0.148 NA
BRANCH  18  20
ATOM     20  C   UNL A   1      38.774  21.757  26.015  1.00  0.00     0.199 C 
BRANCH  20  21
ATOM     21  N   UNL A   1      38.244  22.640  24.996  1.00  0.00    -0.314 N 
ATOM     22  C   UNL A   1      36.937  22.715  24.677  1.00  0.00     0.408 C 
ATOM     23  H   UNL A   1      38.874  23.219  24.510  1.00  0.00     0.167 HD
ATOM     24  O   UNL A   1      36.536  23.320  23.686  1.00  0.00    -0.225 OA
BRANCH  22  25
ATOM     25  O   UNL A   1      36.190  22.028  25.557  1.00  0.00    -0.444 OA
BRANCH  25  26
ATOM     26  C   UNL A   1      34.800  22.334  25.770  1.00  0.00     0.106 C 
ATOM     27  C   UNL A   1      33.942  21.947  24.566  1.00  0.00     0.056 C 
ATOM     28  C   UNL A   1      34.330  21.682  27.072  1.00  0.00     0.056 C 
ATOM     29  C   UNL A   1      34.781  23.860  25.933  1.00  0.00     0.056 C 
ENDBRANCH  25  26
ENDBRANCH  22  25
ENDBRANCH  20  21
ENDBRANCH  18  20
ENDBRANCH   8   9
ENDBRANCH   7   8
ENDBRANCH   5   7
ENDBRANCH   4   5
ENDBRANCH   3   4
ENDBRANCH   2   3
ENDBRANCH   1   2
BRANCH   1  30
ATOM     30  C   UNL A   1      39.557  29.029  27.084  1.00  0.00     0.188 C 
BRANCH  30  31
ATOM     31  C   UNL A   1      39.000  29.569  28.397  1.00  0.00     0.188 C 
BRANCH  31  32
ATOM     32  O   UNL A   1      37.942  30.532  28.301  1.00  0.00    -0.376 OA
BRANCH  32  33
ATOM     33  C   UNL A   1      36.627  30.021  28.044  1.00  0.00     0.202 C 
BRANCH  33  34
ATOM     34  C   UNL A   1      35.478  31.025  28.051  1.00  0.00     0.261 C 
BRANCH  34  35
ATOM     35  O   UNL A   1      35.037  31.251  29.364  1.00  0.00    -0.460 OA
BRANCH  35  36
ATOM     36  C   UNL A   1      35.464  32.420  29.894  1.00  0.00     0.338 C 
ATOM     37  O   UNL A   1      35.550  33.506  29.354  1.00  0.00    -0.246 OA
BRANCH  36  38
ATOM     38  C   UNL A   1      35.795  32.121  31.290  1.00  0.00     0.060 A 
ATOM     39  C   UNL A   1      35.926  33.204  32.151  1.00  0.00     0.016 A 
ATOM     40  C   UNL A   1      36.212  30.819  31.628  1.00  0.00     0.016 A 
ATOM     41  C   UNL A   1      36.843  33.068  33.157  1.00  0.00     0.010 A 
ATOM     42  C   UNL A   1      37.128  30.686  32.619  1.00  0.00     0.010 A 
ATOM     43  C   UNL A   1      37.534  31.856  33.237  1.00  0.00    -0.014 A 
BRANCH  43  44
ATOM     44  C   UNL A   1      38.783  31.829  33.937  1.00  0.00     0.031 A 
ATOM     45  C   UNL A   1      38.641  32.371  35.288  1.00  0.00     0.074 A 
ATOM     46  C   UNL A   1      39.878  31.278  33.387  1.00  0.00     0.049 A 
ATOM     47  N   UNL A   1      38.845  33.595  35.638  1.00  0.00    -0.248 NA
ATOM     48  C   UNL A   1      37.894  31.566  36.270  1.00  0.00     0.031 C 
ATOM     49  C   UNL A   1      40.008  30.463  32.174  1.00  0.00     0.029 A 
ATOM     50  N   UNL A   1      41.132  31.268  33.886  1.00  0.00    -0.354 N 
ATOM     51  C   UNL A   1      38.516  33.622  36.979  1.00  0.00     0.074 A 
ATOM     52  C   UNL A   1      37.657  32.489  37.203  1.00  0.00     0.031 C 
ATOM     53  C   UNL A   1      41.217  29.846  32.183  1.00  0.00     0.029 A 
ATOM     54  C   UNL A   1      41.983  30.332  33.320  1.00  0.00     0.049 A 
ATOM     55  H   UNL A   1      41.422  31.883  34.599  1.00  0.00     0.167 HD
ATOM     56  C   UNL A   1      39.273  34.324  37.862  1.00  0.00     0.031 A 
ATOM     57  C   UNL A   1      43.178  29.949  33.843  1.00  0.00     0.031 A 
ATOM     58  C   UNL A   1      40.173  35.229  37.188  1.00  0.00     0.049 A 
ATOM     59  C   UNL A   1      43.593  31.033  34.782  1.00  0.00     0.074 A 
ATOM     60  C   UNL A   1      40.006  36.288  36.317  1.00  0.00     0.029 A 
ATOM     61  N   UNL A   1      41.474  34.805  37.033  1.00  0.00    -0.354 N 
ATOM     62  N   UNL A   1      43.881  32.246  34.393  1.00  0.00    -0.248 NA
ATOM     63  C   UNL A   1      43.201  30.912  36.180  1.00  0.00     0.031 C 
ATOM     64  C   UNL A   1      41.070  36.169  35.375  1.00  0.00     0.029 A 
ATOM     65  C   UNL A   1      41.877  35.094  35.752  1.00  0.00     0.049 A 
ATOM     66  H   UNL A   1      42.024  34.369  37.725  1.00  0.00     0.167 HD
ATOM     67  C   UNL A   1      43.298  33.078  35.341  1.00  0.00     0.074 A 
ATOM     68  C   UNL A   1      42.971  32.198  36.463  1.00  0.00     0.031 C 
ATOM     69  C   UNL A   1      42.867  34.333  35.012  1.00  0.00     0.031 A 
BRANCH  56  70
ATOM     70  C   UNL A   1      39.501  33.852  39.272  1.00  0.00    -0.014 A 
ATOM     71  C   UNL A   1      38.843  34.516  40.320  1.00  0.00     0.010 A 
ATOM     72  C   UNL A   1      40.519  32.938  39.629  1.00  0.00     0.010 A 
ATOM     73  C   UNL A   1      39.216  34.303  41.652  1.00  0.00     0.020 A 
ATOM     74  C   UNL A   1      40.864  32.681  40.951  1.00  0.00     0.020 A 
ATOM     75  C   UNL A   1      40.228  33.388  41.956  1.00  0.00     0.054 A 
BRANCH  75  76
ATOM     76  S   UNL A   1      40.751  33.179  43.670  1.00  0.00     0.124 S 
ATOM     77  O   UNL A   1      41.377  34.467  43.951  1.00  0.00    -0.237 OA
ATOM     78  O   UNL A   1      39.482  32.926  44.347  1.00  0.00    -0.237 OA
ATOM     79  O   UNL A   1      41.661  32.037  43.614  1.00  0.00    -0.744 OA
ENDBRANCH  75  76
ENDBRANCH  56  70
BRANCH  57  80
ATOM     80  C   UNL A   1      43.698  28.557  33.963  1.00  0.00    -0.014 A 
ATOM     81  C   UNL A   1      42.914  27.556  34.573  1.00  0.00     0.010 A 
ATOM     82  C   UNL A   1      44.810  28.139  33.205  1.00  0.00     0.010 A 
ATOM     83  C   UNL A   1      43.175  26.193  34.351  1.00  0.00     0.020 A 
ATOM     84  C   UNL A   1      45.082  26.781  32.986  1.00  0.00     0.020 A 
ATOM     85  C   UNL A   1      44.241  25.815  33.531  1.00  0.00     0.054 A 
BRANCH  85  86
ATOM     86  S   UNL A   1      44.438  24.068  33.066  1.00  0.00     0.124 S 
ATOM     87  O   UNL A   1      45.757  23.749  33.605  1.00  0.00    -0.237 OA
ATOM     88  O   UNL A   1      43.309  23.432  33.738  1.00  0.00    -0.237 OA
ATOM     89  O   UNL A   1      44.355  24.089  31.607  1.00  0.00    -0.744 OA
ENDBRANCH  85  86
ENDBRANCH  57  80
BRANCH  69  90
ATOM     90  C   UNL A   1      43.296  34.907  33.675  1.00  0.00    -0.014 A 
ATOM     91  C   UNL A   1      44.442  35.706  33.483  1.00  0.00     0.010 A 
ATOM     92  C   UNL A   1      42.571  34.499  32.544  1.00  0.00     0.010 A 
ATOM     93  C   UNL A   1      44.828  36.109  32.192  1.00  0.00     0.020 A 
ATOM     94  C   UNL A   1      42.959  34.880  31.257  1.00  0.00     0.020 A 
ATOM     95  C   UNL A   1      44.080  35.693  31.086  1.00  0.00     0.054 A 
BRANCH  95  96
ATOM     96  S   UNL A   1      44.584  36.198  29.416  1.00  0.00     0.124 S 
ATOM     97  O   UNL A   1      43.523  35.640  28.580  1.00  0.00    -0.237 OA
ATOM     98  O   UNL A   1      44.609  37.656  29.513  1.00  0.00    -0.237 OA
ATOM     99  O   UNL A   1      45.896  35.575  29.245  1.00  0.00    -0.744 OA
ENDBRANCH  95  96
ENDBRANCH  69  90
ENDBRANCH  43  44
ENDBRANCH  36  38
ENDBRANCH  35  36
ENDBRANCH  34  35
ENDBRANCH  33  34
ENDBRANCH  32  33
ENDBRANCH  31  32
ENDBRANCH  30  31
ENDBRANCH   1  30
TORSDOF 26
ENDMDL
