MODEL 1
REMARK VINA RESULT:      -6.5      0.000      0.000
REMARK SMILES Cc1cc(OCC(=O)N[C@@H](Cc2ccc(Cl)cc2)C(=O)OCCOCCOCCOC(=O)c2ccc(-c3c4nc(c(-c5ccc(S(=O)(=O)[O-])cc5)c5ccc([nH]5)c(-c5ccc(S(=O)(=O)[O-])cc5)c5nc(c(-c6ccc(S(=O)(=O)[O-])cc6)c6ccc3[nH]6)C=C5)C=C4)cc2)c2c(C)c(C)c(=O)oc2c1
REMARK SMILES IDX 25 1 24 2 23 3 22 4 21 5 19 6 20 7 10 8 9 9 7 10 8 11 6 13
REMARK SMILES IDX 5 14 4 15 1 16 2 17 3 18 102 19 101 20 93 21 100 22 94 23
REMARK SMILES IDX 98 24 95 25 96 26 99 27 97 28 11 29 12 30 13 31 18 32 14 33
REMARK SMILES IDX 17 34 15 35 16 36 26 37 27 38 28 39 29 40 30 41 31 42 32 43
REMARK SMILES IDX 33 44 34 45 92 46 35 47 91 48 36 49 37 50 38 51 85 52 39 53
REMARK SMILES IDX 90 54 84 55 86 56 40 57 89 58 83 59 82 60 41 62 71 63 52 64
REMARK SMILES IDX 70 65 53 66 56 67 69 68 87 69 54 70 55 71 68 73 88 74 57 75
REMARK SMILES IDX 42 76 43 77 51 78 44 79 50 80 45 81 46 82 47 83 48 84 49 85
REMARK SMILES IDX 72 86 73 87 81 88 74 89 80 90 75 91 76 92 77 93 78 94 79 95
REMARK SMILES IDX 58 96 59 97 67 98 60 99 66 100 61 101 62 102 63 103 64 104
REMARK SMILES IDX 65 105
REMARK H PARENT 9 12 86 61 56 72
REMARK Flexibility Score: inf
ROOT
ATOM      1  C   UNL A   1      46.662  23.443  24.664  1.00  0.00     0.188 C 
ENDROOT
BRANCH   1   2
ATOM      2  O   UNL A   1      45.537  22.577  24.762  1.00  0.00    -0.376 OA
BRANCH   2   3
ATOM      3  C   UNL A   1      44.299  22.998  24.200  1.00  0.00     0.202 C 
BRANCH   3   4
ATOM      4  C   UNL A   1      43.040  22.723  25.024  1.00  0.00     0.261 C 
BRANCH   4   5
ATOM      5  O   UNL A   1      42.584  23.861  25.786  1.00  0.00    -0.462 OA
BRANCH   5   6
ATOM      6  C   UNL A   1      42.599  23.721  27.140  1.00  0.00     0.329 C 
ATOM      7  O   UNL A   1      42.109  22.769  27.738  1.00  0.00    -0.250 OA
BRANCH   6   8
ATOM      8  C   UNL A   1      43.164  24.944  27.890  1.00  0.00     0.196 C 
BRANCH   8   9
ATOM      9  N   UNL A   1      44.587  24.944  28.272  1.00  0.00    -0.339 N 
ATOM     10  C   UNL A   1      45.162  24.972  29.511  1.00  0.00     0.258 C 
ATOM     11  O   UNL A   1      46.390  25.040  29.591  1.00  0.00    -0.271 OA
ATOM     12  H   UNL A   1      45.221  24.919  27.520  1.00  0.00     0.164 HD
BRANCH  10  13
ATOM     13  C   UNL A   1      44.300  24.835  30.773  1.00  0.00     0.329 C 
BRANCH  13  14
ATOM     14  O   UNL A   1      44.259  25.929  31.665  1.00  0.00    -0.483 OA
BRANCH  14  15
ATOM     15  C   UNL A   1      44.241  25.715  33.013  1.00  0.00     0.131 A 
ATOM     16  C   UNL A   1      45.809  23.355  35.581  1.00  0.00     0.044 C 
ATOM     17  C   UNL A   1      45.020  24.483  34.985  1.00  0.00    -0.044 A 
ATOM     18  C   UNL A   1      44.979  24.665  33.600  1.00  0.00     0.050 A 
ATOM     19  C   UNL A   1      44.285  25.348  35.783  1.00  0.00     0.051 A 
ATOM     20  C   UNL A   1      43.524  26.363  35.192  1.00  0.00     0.142 A 
ATOM     21  C   UNL A   1      43.450  26.579  33.809  1.00  0.00     0.063 A 
ATOM     22  O   UNL A   1      42.840  27.169  36.118  1.00  0.00    -0.422 OA
ATOM     23  C   UNL A   1      42.556  27.683  33.343  1.00  0.00    -0.026 A 
ATOM     24  C   UNL A   1      42.057  28.229  35.721  1.00  0.00     0.339 A 
ATOM     25  C   UNL A   1      42.302  27.968  31.881  1.00  0.00     0.046 C 
ATOM     26  C   UNL A   1      41.913  28.447  34.260  1.00  0.00     0.038 A 
ATOM     27  O   UNL A   1      41.506  28.948  36.549  1.00  0.00    -0.246 OA
ATOM     28  C   UNL A   1      40.979  29.589  33.943  1.00  0.00     0.052 C 
ENDBRANCH  14  15
ENDBRANCH  13  14
ENDBRANCH  10  13
ENDBRANCH   8   9
BRANCH   8  29
ATOM     29  C   UNL A   1      42.839  26.203  27.051  1.00  0.00     0.072 C 
BRANCH  29  30
ATOM     30  C   UNL A   1      41.620  26.970  27.536  1.00  0.00    -0.045 A 
ATOM     31  C   UNL A   1      41.125  28.047  26.788  1.00  0.00     0.005 A 
ATOM     32  C   UNL A   1      40.939  26.595  28.706  1.00  0.00     0.005 A 
ATOM     33  C   UNL A   1      39.960  28.711  27.182  1.00  0.00     0.021 A 
ATOM     34  C   UNL A   1      39.757  27.234  29.081  1.00  0.00     0.021 A 
ATOM     35  C   UNL A   1      39.271  28.290  28.316  1.00  0.00     0.041 A 
ATOM     36  Cl  UNL A   1      37.816  29.081  28.779  1.00  0.00    -0.084 Cl
ENDBRANCH  29  30
ENDBRANCH   8  29
ENDBRANCH   6   8
ENDBRANCH   5   6
ENDBRANCH   4   5
ENDBRANCH   3   4
ENDBRANCH   2   3
ENDBRANCH   1   2
BRANCH   1  37
ATOM     37  C   UNL A   1      46.494  24.912  25.091  1.00  0.00     0.188 C 
BRANCH  37  38
ATOM     38  O   UNL A   1      46.987  25.187  26.389  1.00  0.00    -0.376 OA
BRANCH  38  39
ATOM     39  C   UNL A   1      47.694  26.405  26.543  1.00  0.00     0.202 C 
BRANCH  39  40
ATOM     40  C   UNL A   1      47.335  27.486  25.516  1.00  0.00     0.261 C 
BRANCH  40  41
ATOM     41  O   UNL A   1      47.650  28.834  25.903  1.00  0.00    -0.460 OA
BRANCH  41  42
ATOM     42  C   UNL A   1      46.628  29.637  26.283  1.00  0.00     0.338 C 
ATOM     43  O   UNL A   1      45.833  30.198  25.550  1.00  0.00    -0.246 OA
BRANCH  42  44
ATOM     44  C   UNL A   1      46.492  29.504  27.755  1.00  0.00     0.060 A 
ATOM     45  C   UNL A   1      45.424  28.794  28.312  1.00  0.00     0.016 A 
ATOM     46  C   UNL A   1      47.406  30.166  28.587  1.00  0.00     0.016 A 
ATOM     47  C   UNL A   1      45.283  28.732  29.702  1.00  0.00     0.010 A 
ATOM     48  C   UNL A   1      47.252  30.116  29.978  1.00  0.00     0.010 A 
ATOM     49  C   UNL A   1      46.201  29.381  30.546  1.00  0.00    -0.014 A 
BRANCH  49  50
ATOM     50  C   UNL A   1      46.179  29.097  32.003  1.00  0.00     0.031 A 
ATOM     51  C   UNL A   1      46.965  27.983  32.627  1.00  0.00     0.074 A 
ATOM     52  C   UNL A   1      45.424  29.901  32.778  1.00  0.00     0.049 A 
ATOM     53  N   UNL A   1      47.144  27.727  33.898  1.00  0.00    -0.248 NA
ATOM     54  C   UNL A   1      47.627  27.034  31.722  1.00  0.00     0.031 C 
ATOM     55  C   UNL A   1      44.598  31.001  32.275  1.00  0.00     0.029 A 
ATOM     56  N   UNL A   1      45.242  29.938  34.136  1.00  0.00    -0.354 N 
ATOM     57  C   UNL A   1      47.965  26.608  33.953  1.00  0.00     0.074 A 
ATOM     58  C   UNL A   1      48.206  26.202  32.583  1.00  0.00     0.031 C 
ATOM     59  C   UNL A   1      44.024  31.626  33.312  1.00  0.00     0.029 A 
ATOM     60  C   UNL A   1      44.425  30.963  34.551  1.00  0.00     0.049 A 
ATOM     61  H   UNL A   1      45.654  29.293  34.754  1.00  0.00     0.167 HD
ATOM     62  C   UNL A   1      48.481  25.998  35.048  1.00  0.00     0.031 A 
ATOM     63  C   UNL A   1      44.052  31.351  35.787  1.00  0.00     0.031 A 
ATOM     64  C   UNL A   1      48.212  26.403  36.408  1.00  0.00     0.049 A 
ATOM     65  C   UNL A   1      44.611  30.637  36.983  1.00  0.00     0.074 A 
ATOM     66  C   UNL A   1      48.738  25.876  37.577  1.00  0.00     0.029 A 
ATOM     67  N   UNL A   1      47.342  27.414  36.788  1.00  0.00    -0.354 N 
ATOM     68  N   UNL A   1      45.465  29.643  37.016  1.00  0.00    -0.248 NA
ATOM     69  C   UNL A   1      44.177  31.106  38.305  1.00  0.00     0.031 C 
ATOM     70  C   UNL A   1      48.131  26.514  38.660  1.00  0.00     0.029 A 
ATOM     71  C   UNL A   1      47.285  27.497  38.171  1.00  0.00     0.049 A 
ATOM     72  H   UNL A   1      46.839  27.989  36.167  1.00  0.00     0.167 HD
ATOM     73  C   UNL A   1      45.685  29.379  38.362  1.00  0.00     0.074 A 
ATOM     74  C   UNL A   1      44.888  30.328  39.112  1.00  0.00     0.031 C 
ATOM     75  C   UNL A   1      46.481  28.433  38.919  1.00  0.00     0.031 A 
BRANCH  62  76
ATOM     76  C   UNL A   1      49.422  24.834  34.851  1.00  0.00    -0.014 A 
ATOM     77  C   UNL A   1      50.788  25.065  34.593  1.00  0.00     0.010 A 
ATOM     78  C   UNL A   1      48.925  23.522  34.756  1.00  0.00     0.010 A 
ATOM     79  C   UNL A   1      51.627  24.014  34.211  1.00  0.00     0.020 A 
ATOM     80  C   UNL A   1      49.767  22.465  34.399  1.00  0.00     0.020 A 
ATOM     81  C   UNL A   1      51.108  22.722  34.105  1.00  0.00     0.054 A 
BRANCH  81  82
ATOM     82  S   UNL A   1      52.203  21.377  33.569  1.00  0.00     0.124 S 
ATOM     83  O   UNL A   1      53.509  21.840  34.028  1.00  0.00    -0.237 OA
ATOM     84  O   UNL A   1      51.657  20.222  34.277  1.00  0.00    -0.237 OA
ATOM     85  O   UNL A   1      52.024  21.348  32.119  1.00  0.00    -0.744 OA
ENDBRANCH  81  82
ENDBRANCH  62  76
BRANCH  63  86
ATOM     86  C   UNL A   1      43.152  32.527  35.923  1.00  0.00    -0.014 A 
ATOM     87  C   UNL A   1      43.691  33.820  36.065  1.00  0.00     0.010 A 
ATOM     88  C   UNL A   1      41.763  32.347  36.030  1.00  0.00     0.010 A 
ATOM     89  C   UNL A   1      42.862  34.901  36.374  1.00  0.00     0.020 A 
ATOM     90  C   UNL A   1      40.927  33.433  36.309  1.00  0.00     0.020 A 
ATOM     91  C   UNL A   1      41.487  34.697  36.511  1.00  0.00     0.054 A 
BRANCH  91  92
ATOM     92  S   UNL A   1      40.440  36.101  36.983  1.00  0.00     0.124 S 
ATOM     93  O   UNL A   1      39.309  35.429  37.616  1.00  0.00    -0.237 OA
ATOM     94  O   UNL A   1      41.308  36.856  37.883  1.00  0.00    -0.237 OA
ATOM     95  O   UNL A   1      40.149  36.753  35.709  1.00  0.00    -0.744 OA
ENDBRANCH  91  92
ENDBRANCH  63  86
BRANCH  75  96
ATOM     96  C   UNL A   1      46.536  28.343  40.424  1.00  0.00    -0.014 A 
ATOM     97  C   UNL A   1      45.501  27.695  41.126  1.00  0.00     0.010 A 
ATOM     98  C   UNL A   1      47.536  29.014  41.150  1.00  0.00     0.010 A 
ATOM     99  C   UNL A   1      45.440  27.757  42.521  1.00  0.00     0.020 A 
ATOM    100  C   UNL A   1      47.495  29.053  42.547  1.00  0.00     0.020 A 
ATOM    101  C   UNL A   1      46.431  28.449  43.222  1.00  0.00     0.054 A 
BRANCH 101 102
ATOM    102  S   UNL A   1      46.308  28.561  45.029  1.00  0.00     0.124 S 
ATOM    103  O   UNL A   1      47.686  28.858  45.413  1.00  0.00    -0.237 OA
ATOM    104  O   UNL A   1      45.353  29.649  45.220  1.00  0.00    -0.237 OA
ATOM    105  O   UNL A   1      45.823  27.240  45.422  1.00  0.00    -0.744 OA
ENDBRANCH 101 102
ENDBRANCH  75  96
ENDBRANCH  49  50
ENDBRANCH  42  44
ENDBRANCH  41  42
ENDBRANCH  40  41
ENDBRANCH  39  40
ENDBRANCH  38  39
ENDBRANCH  37  38
ENDBRANCH   1  37
TORSDOF 26
ENDMDL
MODEL 2
REMARK VINA RESULT:      -6.4      4.754      7.601
REMARK SMILES Cc1cc(OCC(=O)N[C@@H](Cc2ccc(Cl)cc2)C(=O)OCCOCCOCCOC(=O)c2ccc(-c3c4nc(c(-c5ccc(S(=O)(=O)[O-])cc5)c5ccc([nH]5)c(-c5ccc(S(=O)(=O)[O-])cc5)c5nc(c(-c6ccc(S(=O)(=O)[O-])cc6)c6ccc3[nH]6)C=C5)C=C4)cc2)c2c(C)c(C)c(=O)oc2c1
REMARK SMILES IDX 25 1 24 2 23 3 22 4 21 5 19 6 20 7 10 8 9 9 7 10 8 11 6 13
REMARK SMILES IDX 5 14 4 15 1 16 2 17 3 18 102 19 101 20 93 21 100 22 94 23
REMARK SMILES IDX 98 24 95 25 96 26 99 27 97 28 11 29 12 30 13 31 18 32 14 33
REMARK SMILES IDX 17 34 15 35 16 36 26 37 27 38 28 39 29 40 30 41 31 42 32 43
REMARK SMILES IDX 33 44 34 45 92 46 35 47 91 48 36 49 37 50 38 51 85 52 39 53
REMARK SMILES IDX 90 54 84 55 86 56 40 57 89 58 83 59 82 60 41 62 71 63 52 64
REMARK SMILES IDX 70 65 53 66 56 67 69 68 87 69 54 70 55 71 68 73 88 74 57 75
REMARK SMILES IDX 42 76 43 77 51 78 44 79 50 80 45 81 46 82 47 83 48 84 49 85
REMARK SMILES IDX 72 86 73 87 81 88 74 89 80 90 75 91 76 92 77 93 78 94 79 95
REMARK SMILES IDX 58 96 59 97 67 98 60 99 66 100 61 101 62 102 63 103 64 104
REMARK SMILES IDX 65 105
REMARK H PARENT 9 12 86 61 56 72
REMARK Flexibility Score: inf
ROOT
ATOM      1  C   UNL A   1      44.014  21.106  25.405  1.00  0.00     0.188 C 
ENDROOT
BRANCH   1   2
ATOM      2  O   UNL A   1      43.116  20.028  25.165  1.00  0.00    -0.376 OA
BRANCH   2   3
ATOM      3  C   UNL A   1      42.333  19.537  26.246  1.00  0.00     0.202 C 
BRANCH   3   4
ATOM      4  C   UNL A   1      40.881  20.016  26.316  1.00  0.00     0.261 C 
BRANCH   4   5
ATOM      5  O   UNL A   1      40.574  20.765  27.511  1.00  0.00    -0.462 OA
BRANCH   5   6
ATOM      6  C   UNL A   1      41.193  21.970  27.639  1.00  0.00     0.329 C 
ATOM      7  O   UNL A   1      42.043  22.219  28.487  1.00  0.00    -0.250 OA
BRANCH   6   8
ATOM      8  C   UNL A   1      40.630  23.066  26.712  1.00  0.00     0.196 C 
BRANCH   8   9
ATOM      9  N   UNL A   1      39.475  23.856  27.172  1.00  0.00    -0.339 N 
ATOM     10  C   UNL A   1      38.201  23.915  26.681  1.00  0.00     0.258 C 
ATOM     11  O   UNL A   1      37.409  24.713  27.187  1.00  0.00    -0.271 OA
ATOM     12  H   UNL A   1      39.646  24.429  27.953  1.00  0.00     0.164 HD
BRANCH  10  13
ATOM     13  C   UNL A   1      37.746  22.948  25.580  1.00  0.00     0.329 C 
BRANCH  13  14
ATOM     14  O   UNL A   1      36.480  23.165  24.994  1.00  0.00    -0.483 OA
BRANCH  14  15
ATOM     15  C   UNL A   1      35.520  22.196  25.054  1.00  0.00     0.131 A 
ATOM     16  C   UNL A   1      35.208  18.413  24.597  1.00  0.00     0.044 C 
ATOM     17  C   UNL A   1      34.861  19.839  24.903  1.00  0.00    -0.044 A 
ATOM     18  C   UNL A   1      35.822  20.846  24.776  1.00  0.00     0.050 A 
ATOM     19  C   UNL A   1      33.576  20.202  25.280  1.00  0.00     0.051 A 
ATOM     20  C   UNL A   1      33.273  21.548  25.515  1.00  0.00     0.142 A 
ATOM     21  C   UNL A   1      34.203  22.590  25.397  1.00  0.00     0.063 A 
ATOM     22  O   UNL A   1      31.940  21.769  25.899  1.00  0.00    -0.422 OA
ATOM     23  C   UNL A   1      33.703  23.977  25.644  1.00  0.00    -0.026 A 
ATOM     24  C   UNL A   1      31.466  23.028  26.191  1.00  0.00     0.339 A 
ATOM     25  C   UNL A   1      34.565  25.203  25.457  1.00  0.00     0.046 C 
ATOM     26  C   UNL A   1      32.412  24.158  26.018  1.00  0.00     0.038 A 
ATOM     27  O   UNL A   1      30.310  23.193  26.569  1.00  0.00    -0.246 OA
ATOM     28  C   UNL A   1      31.765  25.492  26.297  1.00  0.00     0.052 C 
ENDBRANCH  14  15
ENDBRANCH  13  14
ENDBRANCH  10  13
ENDBRANCH   8   9
BRANCH   8  29
ATOM     29  C   UNL A   1      41.798  24.005  26.328  1.00  0.00     0.072 C 
BRANCH  29  30
ATOM     30  C   UNL A   1      41.677  25.407  26.901  1.00  0.00    -0.045 A 
ATOM     31  C   UNL A   1      41.162  26.446  26.113  1.00  0.00     0.005 A 
ATOM     32  C   UNL A   1      42.029  25.685  28.232  1.00  0.00     0.005 A 
ATOM     33  C   UNL A   1      40.973  27.720  26.652  1.00  0.00     0.021 A 
ATOM     34  C   UNL A   1      41.808  26.949  28.781  1.00  0.00     0.021 A 
ATOM     35  C   UNL A   1      41.279  27.962  27.988  1.00  0.00     0.041 A 
ATOM     36  Cl  UNL A   1      41.009  29.521  28.663  1.00  0.00    -0.084 Cl
ENDBRANCH  29  30
ENDBRANCH   8  29
ENDBRANCH   6   8
ENDBRANCH   5   6
ENDBRANCH   4   5
ENDBRANCH   3   4
ENDBRANCH   2   3
ENDBRANCH   1   2
BRANCH   1  37
ATOM     37  C   UNL A   1      45.227  21.270  24.473  1.00  0.00     0.188 C 
BRANCH  37  38
ATOM     38  O   UNL A   1      46.291  22.005  25.049  1.00  0.00    -0.376 OA
BRANCH  38  39
ATOM     39  C   UNL A   1      46.627  23.223  24.406  1.00  0.00     0.202 C 
BRANCH  39  40
ATOM     40  C   UNL A   1      46.148  24.484  25.136  1.00  0.00     0.261 C 
BRANCH  40  41
ATOM     41  O   UNL A   1      46.160  25.691  24.356  1.00  0.00    -0.460 OA
BRANCH  41  42
ATOM     42  C   UNL A   1      47.037  26.661  24.707  1.00  0.00     0.338 C 
ATOM     43  O   UNL A   1      47.992  27.048  24.057  1.00  0.00    -0.246 OA
BRANCH  42  44
ATOM     44  C   UNL A   1      46.479  27.343  25.902  1.00  0.00     0.060 A 
ATOM     45  C   UNL A   1      45.106  27.576  26.015  1.00  0.00     0.016 A 
ATOM     46  C   UNL A   1      47.356  27.822  26.885  1.00  0.00     0.016 A 
ATOM     47  C   UNL A   1      44.609  28.272  27.121  1.00  0.00     0.010 A 
ATOM     48  C   UNL A   1      46.859  28.534  27.984  1.00  0.00     0.010 A 
ATOM     49  C   UNL A   1      45.478  28.747  28.119  1.00  0.00    -0.014 A 
BRANCH  49  50
ATOM     50  C   UNL A   1      44.915  29.256  29.395  1.00  0.00     0.031 A 
ATOM     51  C   UNL A   1      44.849  28.429  30.644  1.00  0.00     0.074 A 
ATOM     52  C   UNL A   1      44.465  30.527  29.408  1.00  0.00     0.049 A 
ATOM     53  N   UNL A   1      44.517  28.806  31.852  1.00  0.00    -0.248 NA
ATOM     54  C   UNL A   1      45.188  27.004  30.529  1.00  0.00     0.031 C 
ATOM     55  C   UNL A   1      44.458  31.416  28.243  1.00  0.00     0.029 A 
ATOM     56  N   UNL A   1      43.953  31.296  30.421  1.00  0.00    -0.354 N 
ATOM     57  C   UNL A   1      44.637  27.678  32.654  1.00  0.00     0.074 A 
ATOM     58  C   UNL A   1      45.021  26.587  31.781  1.00  0.00     0.031 C 
ATOM     59  C   UNL A   1      43.997  32.618  28.615  1.00  0.00     0.029 A 
ATOM     60  C   UNL A   1      43.660  32.582  30.037  1.00  0.00     0.049 A 
ATOM     61  H   UNL A   1      43.808  30.958  31.334  1.00  0.00     0.167 HD
ATOM     62  C   UNL A   1      44.461  27.578  33.994  1.00  0.00     0.031 A 
ATOM     63  C   UNL A   1      43.195  33.631  30.744  1.00  0.00     0.031 A 
ATOM     64  C   UNL A   1      44.056  28.671  34.846  1.00  0.00     0.049 A 
ATOM     65  C   UNL A   1      42.977  33.485  32.221  1.00  0.00     0.074 A 
ATOM     66  C   UNL A   1      43.908  28.672  36.224  1.00  0.00     0.029 A 
ATOM     67  N   UNL A   1      43.722  29.946  34.413  1.00  0.00    -0.354 N 
ATOM     68  N   UNL A   1      43.191  32.437  32.979  1.00  0.00    -0.248 NA
ATOM     69  C   UNL A   1      42.476  34.662  32.943  1.00  0.00     0.031 C 
ATOM     70  C   UNL A   1      43.414  29.919  36.613  1.00  0.00     0.029 A 
ATOM     71  C   UNL A   1      43.328  30.726  35.490  1.00  0.00     0.049 A 
ATOM     72  H   UNL A   1      43.759  30.253  33.478  1.00  0.00     0.167 HD
ATOM     73  C   UNL A   1      42.868  32.833  34.271  1.00  0.00     0.074 A 
ATOM     74  C   UNL A   1      42.461  34.221  34.195  1.00  0.00     0.031 C 
ATOM     75  C   UNL A   1      42.910  32.105  35.414  1.00  0.00     0.031 A 
BRANCH  62  76
ATOM     76  C   UNL A   1      44.728  26.250  34.661  1.00  0.00    -0.014 A 
ATOM     77  C   UNL A   1      46.019  25.944  35.136  1.00  0.00     0.010 A 
ATOM     78  C   UNL A   1      43.746  25.244  34.666  1.00  0.00     0.010 A 
ATOM     79  C   UNL A   1      46.330  24.652  35.570  1.00  0.00     0.020 A 
ATOM     80  C   UNL A   1      44.046  23.957  35.124  1.00  0.00     0.020 A 
ATOM     81  C   UNL A   1      45.344  23.663  35.550  1.00  0.00     0.054 A 
BRANCH  81  82
ATOM     82  S   UNL A   1      45.776  21.982  36.080  1.00  0.00     0.124 S 
ATOM     83  O   UNL A   1      44.786  21.171  35.377  1.00  0.00    -0.237 OA
ATOM     84  O   UNL A   1      47.153  21.846  35.611  1.00  0.00    -0.237 OA
ATOM     85  O   UNL A   1      45.626  22.032  37.533  1.00  0.00    -0.744 OA
ENDBRANCH  81  82
ENDBRANCH  62  76
BRANCH  63  86
ATOM     86  C   UNL A   1      42.985  34.926  30.043  1.00  0.00    -0.014 A 
ATOM     87  C   UNL A   1      41.848  35.121  29.237  1.00  0.00     0.010 A 
ATOM     88  C   UNL A   1      43.976  35.922  30.083  1.00  0.00     0.010 A 
ATOM     89  C   UNL A   1      41.735  36.259  28.436  1.00  0.00     0.020 A 
ATOM     90  C   UNL A   1      43.851  37.077  29.305  1.00  0.00     0.020 A 
ATOM     91  C   UNL A   1      42.746  37.222  28.462  1.00  0.00     0.054 A 
BRANCH  91  92
ATOM     92  S   UNL A   1      42.613  38.656  27.360  1.00  0.00     0.124 S 
ATOM     93  O   UNL A   1      43.900  38.624  26.672  1.00  0.00    -0.237 OA
ATOM     94  O   UNL A   1      41.451  38.321  26.540  1.00  0.00    -0.237 OA
ATOM     95  O   UNL A   1      42.422  39.776  28.279  1.00  0.00    -0.744 OA
ENDBRANCH  91  92
ENDBRANCH  63  86
BRANCH  75  96
ATOM     96  C   UNL A   1      42.491  32.772  36.701  1.00  0.00    -0.014 A 
ATOM     97  C   UNL A   1      43.464  33.340  37.545  1.00  0.00     0.010 A 
ATOM     98  C   UNL A   1      41.156  32.716  37.139  1.00  0.00     0.010 A 
ATOM     99  C   UNL A   1      43.120  33.799  38.819  1.00  0.00     0.020 A 
ATOM    100  C   UNL A   1      40.802  33.203  38.402  1.00  0.00     0.020 A 
ATOM    101  C   UNL A   1      41.792  33.714  39.245  1.00  0.00     0.054 A 
BRANCH 101 102
ATOM    102  S   UNL A   1      41.373  34.270  40.921  1.00  0.00     0.124 S 
ATOM    103  O   UNL A   1      42.625  34.052  41.639  1.00  0.00    -0.237 OA
ATOM    104  O   UNL A   1      41.001  35.667  40.713  1.00  0.00    -0.237 OA
ATOM    105  O   UNL A   1      40.272  33.391  41.308  1.00  0.00    -0.744 OA
ENDBRANCH 101 102
ENDBRANCH  75  96
ENDBRANCH  49  50
ENDBRANCH  42  44
ENDBRANCH  41  42
ENDBRANCH  40  41
ENDBRANCH  39  40
ENDBRANCH  38  39
ENDBRANCH  37  38
ENDBRANCH   1  37
TORSDOF 26
ENDMDL
MODEL 3
REMARK VINA RESULT:      -6.4      7.337     13.757
REMARK SMILES Cc1cc(OCC(=O)N[C@@H](Cc2ccc(Cl)cc2)C(=O)OCCOCCOCCOC(=O)c2ccc(-c3c4nc(c(-c5ccc(S(=O)(=O)[O-])cc5)c5ccc([nH]5)c(-c5ccc(S(=O)(=O)[O-])cc5)c5nc(c(-c6ccc(S(=O)(=O)[O-])cc6)c6ccc3[nH]6)C=C5)C=C4)cc2)c2c(C)c(C)c(=O)oc2c1
REMARK SMILES IDX 25 1 24 2 23 3 22 4 21 5 19 6 20 7 10 8 9 9 7 10 8 11 6 13
REMARK SMILES IDX 5 14 4 15 1 16 2 17 3 18 102 19 101 20 93 21 100 22 94 23
REMARK SMILES IDX 98 24 95 25 96 26 99 27 97 28 11 29 12 30 13 31 18 32 14 33
REMARK SMILES IDX 17 34 15 35 16 36 26 37 27 38 28 39 29 40 30 41 31 42 32 43
REMARK SMILES IDX 33 44 34 45 92 46 35 47 91 48 36 49 37 50 38 51 85 52 39 53
REMARK SMILES IDX 90 54 84 55 86 56 40 57 89 58 83 59 82 60 41 62 71 63 52 64
REMARK SMILES IDX 70 65 53 66 56 67 69 68 87 69 54 70 55 71 68 73 88 74 57 75
REMARK SMILES IDX 42 76 43 77 51 78 44 79 50 80 45 81 46 82 47 83 48 84 49 85
REMARK SMILES IDX 72 86 73 87 81 88 74 89 80 90 75 91 76 92 77 93 78 94 79 95
REMARK SMILES IDX 58 96 59 97 67 98 60 99 66 100 61 101 62 102 63 103 64 104
REMARK SMILES IDX 65 105
REMARK H PARENT 9 12 86 61 56 72
REMARK Flexibility Score: inf
ROOT
ATOM      1  C   UNL A   1      33.731  30.511  26.685  1.00  0.00     0.188 C 
ENDROOT
BRANCH   1   2
ATOM      2  O   UNL A   1      32.601  30.219  25.871  1.00  0.00    -0.376 OA
BRANCH   2   3
ATOM      3  C   UNL A   1      32.805  29.554  24.630  1.00  0.00     0.202 C 
BRANCH   3   4
ATOM      4  C   UNL A   1      33.904  28.490  24.593  1.00  0.00     0.261 C 
BRANCH   4   5
ATOM      5  O   UNL A   1      33.414  27.142  24.765  1.00  0.00    -0.462 OA
BRANCH   5   6
ATOM      6  C   UNL A   1      33.451  26.649  26.033  1.00  0.00     0.329 C 
ATOM      7  O   UNL A   1      33.244  27.322  27.038  1.00  0.00    -0.250 OA
BRANCH   6   8
ATOM      8  C   UNL A   1      33.922  25.184  26.122  1.00  0.00     0.196 C 
BRANCH   8   9
ATOM      9  N   UNL A   1      32.996  24.176  26.666  1.00  0.00    -0.339 N 
ATOM     10  C   UNL A   1      31.646  24.241  26.866  1.00  0.00     0.258 C 
ATOM     11  O   UNL A   1      31.082  23.290  27.409  1.00  0.00    -0.271 OA
ATOM     12  H   UNL A   1      33.414  23.323  26.926  1.00  0.00     0.164 HD
BRANCH  10  13
ATOM     13  C   UNL A   1      30.841  25.439  26.345  1.00  0.00     0.329 C 
BRANCH  13  14
ATOM     14  O   UNL A   1      30.088  25.264  25.163  1.00  0.00    -0.483 OA
BRANCH  14  15
ATOM     15  C   UNL A   1      30.188  26.169  24.146  1.00  0.00     0.131 A 
ATOM     16  C   UNL A   1      29.013  29.709  23.306  1.00  0.00     0.044 C 
ATOM     17  C   UNL A   1      29.705  28.382  23.208  1.00  0.00    -0.044 A 
ATOM     18  C   UNL A   1      29.551  27.426  24.215  1.00  0.00     0.050 A 
ATOM     19  C   UNL A   1      30.482  28.056  22.106  1.00  0.00     0.051 A 
ATOM     20  C   UNL A   1      31.078  26.792  22.024  1.00  0.00     0.142 A 
ATOM     21  C   UNL A   1      30.948  25.802  23.007  1.00  0.00     0.063 A 
ATOM     22  O   UNL A   1      31.843  26.602  20.861  1.00  0.00    -0.422 OA
ATOM     23  C   UNL A   1      31.617  24.492  22.743  1.00  0.00    -0.026 A 
ATOM     24  C   UNL A   1      32.520  25.428  20.619  1.00  0.00     0.339 A 
ATOM     25  C   UNL A   1      31.481  23.302  23.665  1.00  0.00     0.046 C 
ATOM     26  C   UNL A   1      32.353  24.340  21.614  1.00  0.00     0.038 A 
ATOM     27  O   UNL A   1      33.220  25.300  19.619  1.00  0.00    -0.246 OA
ATOM     28  C   UNL A   1      33.081  23.081  21.210  1.00  0.00     0.052 C 
ENDBRANCH  14  15
ENDBRANCH  13  14
ENDBRANCH  10  13
ENDBRANCH   8   9
BRANCH   8  29
ATOM     29  C   UNL A   1      34.406  24.758  24.716  1.00  0.00     0.072 C 
BRANCH  29  30
ATOM     30  C   UNL A   1      35.173  23.447  24.698  1.00  0.00    -0.045 A 
ATOM     31  C   UNL A   1      36.570  23.449  24.816  1.00  0.00     0.005 A 
ATOM     32  C   UNL A   1      34.509  22.213  24.610  1.00  0.00     0.005 A 
ATOM     33  C   UNL A   1      37.280  22.248  24.879  1.00  0.00     0.021 A 
ATOM     34  C   UNL A   1      35.213  21.012  24.708  1.00  0.00     0.021 A 
ATOM     35  C   UNL A   1      36.598  21.035  24.843  1.00  0.00     0.041 A 
ATOM     36  Cl  UNL A   1      37.468  19.556  24.961  1.00  0.00    -0.084 Cl
ENDBRANCH  29  30
ENDBRANCH   8  29
ENDBRANCH   6   8
ENDBRANCH   5   6
ENDBRANCH   4   5
ENDBRANCH   3   4
ENDBRANCH   2   3
ENDBRANCH   1   2
BRANCH   1  37
ATOM     37  C   UNL A   1      33.643  31.697  27.661  1.00  0.00     0.188 C 
BRANCH  37  38
ATOM     38  O   UNL A   1      34.846  32.435  27.770  1.00  0.00    -0.376 OA
BRANCH  38  39
ATOM     39  C   UNL A   1      34.783  33.619  28.545  1.00  0.00     0.202 C 
BRANCH  39  40
ATOM     40  C   UNL A   1      35.491  33.532  29.902  1.00  0.00     0.261 C 
BRANCH  40  41
ATOM     41  O   UNL A   1      35.149  32.390  30.705  1.00  0.00    -0.460 OA
BRANCH  41  42
ATOM     42  C   UNL A   1      35.914  32.130  31.791  1.00  0.00     0.338 C 
ATOM     43  O   UNL A   1      35.540  32.081  32.950  1.00  0.00    -0.246 OA
BRANCH  42  44
ATOM     44  C   UNL A   1      37.233  31.664  31.296  1.00  0.00     0.060 A 
ATOM     45  C   UNL A   1      37.319  30.638  30.351  1.00  0.00     0.016 A 
ATOM     46  C   UNL A   1      38.401  32.212  31.845  1.00  0.00     0.016 A 
ATOM     47  C   UNL A   1      38.573  30.174  29.942  1.00  0.00     0.010 A 
ATOM     48  C   UNL A   1      39.656  31.735  31.446  1.00  0.00     0.010 A 
ATOM     49  C   UNL A   1      39.751  30.725  30.476  1.00  0.00    -0.014 A 
BRANCH  49  50
ATOM     50  C   UNL A   1      41.057  30.399  29.852  1.00  0.00     0.031 A 
ATOM     51  C   UNL A   1      42.179  31.387  29.746  1.00  0.00     0.074 A 
ATOM     52  C   UNL A   1      41.221  29.146  29.382  1.00  0.00     0.049 A 
ATOM     53  N   UNL A   1      43.412  31.180  29.358  1.00  0.00    -0.248 NA
ATOM     54  C   UNL A   1      41.889  32.780  30.112  1.00  0.00     0.031 C 
ATOM     55  C   UNL A   1      40.188  28.108  29.410  1.00  0.00     0.029 A 
ATOM     56  N   UNL A   1      42.305  28.526  28.816  1.00  0.00    -0.354 N 
ATOM     57  C   UNL A   1      44.059  32.405  29.462  1.00  0.00     0.074 A 
ATOM     58  C   UNL A   1      43.065  33.364  29.899  1.00  0.00     0.031 C 
ATOM     59  C   UNL A   1      40.698  26.972  28.915  1.00  0.00     0.029 A 
ATOM     60  C   UNL A   1      42.085  27.202  28.519  1.00  0.00     0.049 A 
ATOM     61  H   UNL A   1      43.157  28.985  28.637  1.00  0.00     0.167 HD
ATOM     62  C   UNL A   1      45.364  32.687  29.231  1.00  0.00     0.031 A 
ATOM     63  C   UNL A   1      42.906  26.263  28.008  1.00  0.00     0.031 A 
ATOM     64  C   UNL A   1      46.337  31.723  28.773  1.00  0.00     0.049 A 
ATOM     65  C   UNL A   1      44.339  26.610  27.730  1.00  0.00     0.074 A 
ATOM     66  C   UNL A   1      47.695  31.910  28.568  1.00  0.00     0.029 A 
ATOM     67  N   UNL A   1      46.065  30.405  28.438  1.00  0.00    -0.354 N 
ATOM     68  N   UNL A   1      44.958  27.749  27.928  1.00  0.00    -0.248 NA
ATOM     69  C   UNL A   1      45.190  25.546  27.181  1.00  0.00     0.031 C 
ATOM     70  C   UNL A   1      48.226  30.732  28.038  1.00  0.00     0.029 A 
ATOM     71  C   UNL A   1      47.219  29.782  27.987  1.00  0.00     0.049 A 
ATOM     72  H   UNL A   1      45.183  29.974  28.509  1.00  0.00     0.167 HD
ATOM     73  C   UNL A   1      46.276  27.534  27.545  1.00  0.00     0.074 A 
ATOM     74  C   UNL A   1      46.370  26.152  27.120  1.00  0.00     0.031 C 
ATOM     75  C   UNL A   1      47.311  28.409  27.551  1.00  0.00     0.031 A 
BRANCH  62  76
ATOM     76  C   UNL A   1      45.858  34.090  29.491  1.00  0.00    -0.014 A 
ATOM     77  C   UNL A   1      46.180  34.495  30.801  1.00  0.00     0.010 A 
ATOM     78  C   UNL A   1      45.843  35.053  28.466  1.00  0.00     0.010 A 
ATOM     79  C   UNL A   1      46.442  35.839  31.086  1.00  0.00     0.020 A 
ATOM     80  C   UNL A   1      46.130  36.393  28.743  1.00  0.00     0.020 A 
ATOM     81  C   UNL A   1      46.404  36.782  30.056  1.00  0.00     0.054 A 
BRANCH  81  82
ATOM     82  S   UNL A   1      46.708  38.527  30.452  1.00  0.00     0.124 S 
ATOM     83  O   UNL A   1      48.147  38.542  30.698  1.00  0.00    -0.237 OA
ATOM     84  O   UNL A   1      46.265  39.209  29.239  1.00  0.00    -0.237 OA
ATOM     85  O   UNL A   1      45.871  38.762  31.628  1.00  0.00    -0.744 OA
ENDBRANCH  81  82
ENDBRANCH  62  76
BRANCH  63  86
ATOM     86  C   UNL A   1      42.377  24.887  27.808  1.00  0.00    -0.014 A 
ATOM     87  C   UNL A   1      42.558  23.905  28.800  1.00  0.00     0.010 A 
ATOM     88  C   UNL A   1      41.797  24.524  26.581  1.00  0.00     0.010 A 
ATOM     89  C   UNL A   1      42.227  22.573  28.545  1.00  0.00     0.020 A 
ATOM     90  C   UNL A   1      41.437  23.195  26.334  1.00  0.00     0.020 A 
ATOM     91  C   UNL A   1      41.684  22.223  27.306  1.00  0.00     0.054 A 
BRANCH  91  92
ATOM     92  S   UNL A   1      41.329  20.477  26.972  1.00  0.00     0.124 S 
ATOM     93  O   UNL A   1      40.914  20.000  28.288  1.00  0.00    -0.237 OA
ATOM     94  O   UNL A   1      40.271  20.554  25.967  1.00  0.00    -0.237 OA
ATOM     95  O   UNL A   1      42.605  19.955  26.491  1.00  0.00    -0.744 OA
ENDBRANCH  91  92
ENDBRANCH  63  86
BRANCH  75  96
ATOM     96  C   UNL A   1      48.656  27.926  27.068  1.00  0.00    -0.014 A 
ATOM     97  C   UNL A   1      48.917  27.844  25.686  1.00  0.00     0.010 A 
ATOM     98  C   UNL A   1      49.610  27.427  27.973  1.00  0.00     0.010 A 
ATOM     99  C   UNL A   1      50.083  27.232  25.218  1.00  0.00     0.020 A 
ATOM    100  C   UNL A   1      50.792  26.841  27.509  1.00  0.00     0.020 A 
ATOM    101  C   UNL A   1      51.007  26.722  26.134  1.00  0.00     0.054 A 
BRANCH 101 102
ATOM    102  S   UNL A   1      52.492  25.888  25.506  1.00  0.00     0.124 S 
ATOM    103  O   UNL A   1      52.208  24.487  25.808  1.00  0.00    -0.237 OA
ATOM    104  O   UNL A   1      52.484  26.240  24.088  1.00  0.00    -0.237 OA
ATOM    105  O   UNL A   1      53.575  26.485  26.283  1.00  0.00    -0.744 OA
ENDBRANCH 101 102
ENDBRANCH  75  96
ENDBRANCH  49  50
ENDBRANCH  42  44
ENDBRANCH  41  42
ENDBRANCH  40  41
ENDBRANCH  39  40
ENDBRANCH  38  39
ENDBRANCH  37  38
ENDBRANCH   1  37
TORSDOF 26
ENDMDL
