MODEL 1
REMARK VINA RESULT:      -9.6      0.000      0.000
REMARK SMILES O=C(OCCOCCOCCOC(=O)c1ccc(-c2c3nc(c(-c4ccc(S(=O)(=O)[O-])cc4)c4ccc([nH]4)c(-c4ccc(S(=O)(=O)[O-])cc4)c4nc(c(-c5ccc(S(=O)(=O)[O-])cc5)c5ccc2[nH]5)C=C4)C=C3)cc1)C1=Cc2cc(OC(F)(F)F)ccc2O[C@@H]1C(F)(F)F
REMARK SMILES IDX 8 1 7 2 6 3 5 4 4 5 3 6 2 7 1 8 75 9 76 10 89 11 77 12 88 13
REMARK SMILES IDX 78 14 87 15 79 16 86 17 85 18 90 19 91 20 92 21 93 22 80 23
REMARK SMILES IDX 81 24 82 25 83 26 84 27 9 28 10 29 11 30 12 31 13 32 14 33
REMARK SMILES IDX 15 34 16 35 74 36 17 37 73 38 18 39 19 40 20 41 67 42 21 43
REMARK SMILES IDX 72 44 66 45 68 46 22 47 71 48 65 49 64 50 23 52 53 53 34 54
REMARK SMILES IDX 52 55 35 56 38 57 51 58 69 59 36 60 37 61 50 63 70 64 39 65
REMARK SMILES IDX 24 66 25 67 33 68 26 69 32 70 27 71 28 72 29 73 30 74 31 75
REMARK SMILES IDX 54 76 55 77 63 78 56 79 62 80 57 81 58 82 59 83 60 84 61 85
REMARK SMILES IDX 40 86 41 87 49 88 42 89 48 90 43 91 44 92 45 93 46 94 47 95
REMARK H PARENT 68 51 38 62
REMARK Flexibility Score: inf
ROOT
ATOM      1  C   UNL A   1      30.927  31.312  25.634  1.00  0.00     0.188 C 
ENDROOT
BRANCH   1   2
ATOM      2  C   UNL A   1      30.034  31.000  24.420  1.00  0.00     0.188 C 
BRANCH   2   3
ATOM      3  O   UNL A   1      30.083  29.771  23.639  1.00  0.00    -0.376 OA
BRANCH   3   4
ATOM      4  C   UNL A   1      31.342  28.769  23.285  1.00  0.00     0.202 C 
BRANCH   4   5
ATOM      5  C   UNL A   1      31.302  26.618  22.932  1.00  0.00     0.261 C 
BRANCH   5   6
ATOM      6  O   UNL A   1      32.428  25.625  23.265  1.00  0.00    -0.460 OA
BRANCH   6   7
ATOM      7  C   UNL A   1      31.967  24.408  23.584  1.00  0.00     0.338 C 
ATOM      8  O   UNL A   1      31.135  23.732  23.039  1.00  0.00    -0.246 OA
BRANCH   7   9
ATOM      9  C   UNL A   1      32.518  24.389  24.918  1.00  0.00     0.087 C 
ATOM     10  C   UNL A   1      33.543  25.436  25.107  1.00  0.00     0.027 C 
ATOM     11  C   UNL A   1      30.818  24.325  25.836  1.00  0.00     0.316 C 
ATOM     12  C   UNL A   1      33.265  26.945  26.066  1.00  0.00     0.021 A 
ATOM     13  O   UNL A   1      30.465  25.986  26.776  1.00  0.00    -0.475 OA
ATOM     14  C   UNL A   1      34.233  27.905  26.107  1.00  0.00     0.058 A 
ATOM     15  C   UNL A   1      31.760  27.272  26.850  1.00  0.00     0.128 A 
ATOM     16  C   UNL A   1      33.915  29.077  26.827  1.00  0.00     0.130 A 
ATOM     17  C   UNL A   1      31.524  28.420  27.550  1.00  0.00     0.051 A 
ATOM     18  C   UNL A   1      32.643  29.309  27.519  1.00  0.00     0.050 A 
BRANCH  11  19
ATOM     19  C   UNL A   1      30.947  22.796  26.371  1.00  0.00     0.430 C 
ATOM     20  F   UNL A   1      31.865  22.524  27.306  1.00  0.00    -0.167 F 
ATOM     21  F   UNL A   1      29.755  22.493  26.968  1.00  0.00    -0.167 F 
ATOM     22  F   UNL A   1      31.079  21.876  25.383  1.00  0.00    -0.167 F 
ENDBRANCH  11  19
BRANCH  16  23
ATOM     23  O   UNL A   1      34.974  29.956  26.772  1.00  0.00    -0.406 OA
BRANCH  23  24
ATOM     24  C   UNL A   1      35.959  29.945  27.781  1.00  0.00     0.573 C 
ATOM     25  F   UNL A   1      36.883  28.990  27.552  1.00  0.00    -0.132 F 
ATOM     26  F   UNL A   1      36.559  31.148  27.880  1.00  0.00    -0.132 F 
ATOM     27  F   UNL A   1      35.358  29.674  28.962  1.00  0.00    -0.132 F 
ENDBRANCH  23  24
ENDBRANCH  16  23
ENDBRANCH   7   9
ENDBRANCH   6   7
ENDBRANCH   5   6
ENDBRANCH   4   5
ENDBRANCH   3   4
ENDBRANCH   2   3
ENDBRANCH   1   2
BRANCH   1  28
ATOM     28  O   UNL A   1      31.243  32.644  25.957  1.00  0.00    -0.376 OA
BRANCH  28  29
ATOM     29  C   UNL A   1      31.694  32.879  27.284  1.00  0.00     0.202 C 
BRANCH  29  30
ATOM     30  C   UNL A   1      33.187  33.166  27.496  1.00  0.00     0.261 C 
BRANCH  30  31
ATOM     31  O   UNL A   1      33.436  34.463  28.081  1.00  0.00    -0.460 OA
BRANCH  31  32
ATOM     32  C   UNL A   1      33.609  34.501  29.427  1.00  0.00     0.338 C 
ATOM     33  O   UNL A   1      32.803  34.891  30.255  1.00  0.00    -0.246 OA
BRANCH  32  34
ATOM     34  C   UNL A   1      34.870  33.818  29.797  1.00  0.00     0.060 A 
ATOM     35  C   UNL A   1      34.798  32.729  30.680  1.00  0.00     0.016 A 
ATOM     36  C   UNL A   1      36.106  34.254  29.316  1.00  0.00     0.016 A 
ATOM     37  C   UNL A   1      35.961  32.094  31.109  1.00  0.00     0.010 A 
ATOM     38  C   UNL A   1      37.278  33.647  29.783  1.00  0.00     0.010 A 
ATOM     39  C   UNL A   1      37.209  32.597  30.718  1.00  0.00    -0.014 A 
BRANCH  39  40
ATOM     40  C   UNL A   1      38.387  32.256  31.554  1.00  0.00     0.031 A 
ATOM     41  C   UNL A   1      39.319  31.201  31.013  1.00  0.00     0.074 A 
ATOM     42  C   UNL A   1      38.665  32.889  32.706  1.00  0.00     0.049 A 
ATOM     43  N   UNL A   1      40.455  30.767  31.492  1.00  0.00    -0.248 NA
ATOM     44  C   UNL A   1      38.913  30.553  29.752  1.00  0.00     0.031 C 
ATOM     45  C   UNL A   1      37.868  33.959  33.305  1.00  0.00     0.029 A 
ATOM     46  N   UNL A   1      39.715  32.724  33.575  1.00  0.00    -0.354 N 
ATOM     47  C   UNL A   1      40.896  29.803  30.592  1.00  0.00     0.074 A 
ATOM     48  C   UNL A   1      39.893  29.686  29.559  1.00  0.00     0.031 C 
ATOM     49  C   UNL A   1      38.462  34.355  34.447  1.00  0.00     0.029 A 
ATOM     50  C   UNL A   1      39.667  33.555  34.670  1.00  0.00     0.049 A 
ATOM     51  H   UNL A   1      40.437  32.069  33.430  1.00  0.00     0.167 HD
ATOM     52  C   UNL A   1      42.039  29.080  30.615  1.00  0.00     0.031 A 
ATOM     53  C   UNL A   1      40.501  33.653  35.725  1.00  0.00     0.031 A 
ATOM     54  C   UNL A   1      43.017  29.170  31.665  1.00  0.00     0.049 A 
ATOM     55  C   UNL A   1      41.730  32.775  35.772  1.00  0.00     0.074 A 
ATOM     56  C   UNL A   1      44.212  28.485  31.788  1.00  0.00     0.029 A 
ATOM     57  N   UNL A   1      42.901  29.985  32.781  1.00  0.00    -0.354 N 
ATOM     58  N   UNL A   1      42.154  31.895  34.895  1.00  0.00    -0.248 NA
ATOM     59  C   UNL A   1      42.604  32.923  36.944  1.00  0.00     0.031 C 
ATOM     60  C   UNL A   1      44.782  28.831  33.016  1.00  0.00     0.029 A 
ATOM     61  C   UNL A   1      43.989  29.798  33.614  1.00  0.00     0.049 A 
ATOM     62  H   UNL A   1      42.155  30.603  32.954  1.00  0.00     0.167 HD
ATOM     63  C   UNL A   1      43.369  31.421  35.388  1.00  0.00     0.074 A 
ATOM     64  C   UNL A   1      43.612  32.119  36.633  1.00  0.00     0.031 C 
ATOM     65  C   UNL A   1      44.214  30.503  34.852  1.00  0.00     0.031 A 
BRANCH  52  66
ATOM     66  C   UNL A   1      42.256  28.089  29.501  1.00  0.00    -0.014 A 
ATOM     67  C   UNL A   1      41.748  26.778  29.572  1.00  0.00     0.010 A 
ATOM     68  C   UNL A   1      42.974  28.482  28.357  1.00  0.00     0.010 A 
ATOM     69  C   UNL A   1      41.988  25.869  28.537  1.00  0.00     0.020 A 
ATOM     70  C   UNL A   1      43.187  27.587  27.306  1.00  0.00     0.020 A 
ATOM     71  C   UNL A   1      42.705  26.280  27.410  1.00  0.00     0.054 A 
BRANCH  71  72
ATOM     72  S   UNL A   1      42.979  25.090  26.070  1.00  0.00     0.124 S 
ATOM     73  O   UNL A   1      44.198  24.416  26.509  1.00  0.00    -0.237 OA
ATOM     74  O   UNL A   1      41.765  24.280  26.112  1.00  0.00    -0.237 OA
ATOM     75  O   UNL A   1      43.125  25.929  24.883  1.00  0.00    -0.744 OA
ENDBRANCH  71  72
ENDBRANCH  52  66
BRANCH  53  76
ATOM     76  C   UNL A   1      40.216  34.619  36.826  1.00  0.00    -0.014 A 
ATOM     77  C   UNL A   1      39.284  34.315  37.834  1.00  0.00     0.010 A 
ATOM     78  C   UNL A   1      40.863  35.869  36.857  1.00  0.00     0.010 A 
ATOM     79  C   UNL A   1      38.987  35.247  38.835  1.00  0.00     0.020 A 
ATOM     80  C   UNL A   1      40.594  36.791  37.874  1.00  0.00     0.020 A 
ATOM     81  C   UNL A   1      39.647  36.479  38.850  1.00  0.00     0.054 A 
BRANCH  81  82
ATOM     82  S   UNL A   1      39.276  37.655  40.182  1.00  0.00     0.124 S 
ATOM     83  O   UNL A   1      40.550  38.353  40.336  1.00  0.00    -0.237 OA
ATOM     84  O   UNL A   1      38.187  38.444  39.611  1.00  0.00    -0.237 OA
ATOM     85  O   UNL A   1      38.896  36.798  41.302  1.00  0.00    -0.744 OA
ENDBRANCH  81  82
ENDBRANCH  53  76
BRANCH  65  86
ATOM     86  C   UNL A   1      45.515  30.246  35.571  1.00  0.00    -0.014 A 
ATOM     87  C   UNL A   1      45.630  29.276  36.582  1.00  0.00     0.010 A 
ATOM     88  C   UNL A   1      46.661  30.973  35.190  1.00  0.00     0.010 A 
ATOM     89  C   UNL A   1      46.851  29.077  37.235  1.00  0.00     0.020 A 
ATOM     90  C   UNL A   1      47.890  30.750  35.812  1.00  0.00     0.020 A 
ATOM     91  C   UNL A   1      47.973  29.819  36.848  1.00  0.00     0.054 A 
BRANCH  91  92
ATOM     92  S   UNL A   1      49.545  29.536  37.704  1.00  0.00     0.124 S 
ATOM     93  O   UNL A   1      49.438  30.442  38.844  1.00  0.00    -0.237 OA
ATOM     94  O   UNL A   1      49.485  28.112  38.023  1.00  0.00    -0.237 OA
ATOM     95  O   UNL A   1      50.552  29.902  36.710  1.00  0.00    -0.744 OA
ENDBRANCH  91  92
ENDBRANCH  65  86
ENDBRANCH  39  40
ENDBRANCH  32  34
ENDBRANCH  31  32
ENDBRANCH  30  31
ENDBRANCH  29  30
ENDBRANCH  28  29
ENDBRANCH   1  28
TORSDOF 23
ENDMDL
MODEL 2
REMARK VINA RESULT:      -9.0      5.097     10.758
REMARK SMILES O=C(OCCOCCOCCOC(=O)c1ccc(-c2c3nc(c(-c4ccc(S(=O)(=O)[O-])cc4)c4ccc([nH]4)c(-c4ccc(S(=O)(=O)[O-])cc4)c4nc(c(-c5ccc(S(=O)(=O)[O-])cc5)c5ccc2[nH]5)C=C4)C=C3)cc1)C1=Cc2cc(OC(F)(F)F)ccc2O[C@@H]1C(F)(F)F
REMARK SMILES IDX 8 1 7 2 6 3 5 4 4 5 3 6 2 7 1 8 75 9 76 10 89 11 77 12 88 13
REMARK SMILES IDX 78 14 87 15 79 16 86 17 85 18 90 19 91 20 92 21 93 22 80 23
REMARK SMILES IDX 81 24 82 25 83 26 84 27 9 28 10 29 11 30 12 31 13 32 14 33
REMARK SMILES IDX 15 34 16 35 74 36 17 37 73 38 18 39 19 40 20 41 67 42 21 43
REMARK SMILES IDX 72 44 66 45 68 46 22 47 71 48 65 49 64 50 23 52 53 53 34 54
REMARK SMILES IDX 52 55 35 56 38 57 51 58 69 59 36 60 37 61 50 63 70 64 39 65
REMARK SMILES IDX 24 66 25 67 33 68 26 69 32 70 27 71 28 72 29 73 30 74 31 75
REMARK SMILES IDX 54 76 55 77 63 78 56 79 62 80 57 81 58 82 59 83 60 84 61 85
REMARK SMILES IDX 40 86 41 87 49 88 42 89 48 90 43 91 44 92 45 93 46 94 47 95
REMARK H PARENT 68 51 38 62
REMARK Flexibility Score: inf
ROOT
ATOM      1  C   UNL A   1      37.008  20.324  24.962  1.00  0.00     0.188 C 
ENDROOT
BRANCH   1   2
ATOM      2  C   UNL A   1      35.474  20.242  24.868  1.00  0.00     0.188 C 
BRANCH   2   3
ATOM      3  O   UNL A   1      34.558  21.339  25.148  1.00  0.00    -0.376 OA
BRANCH   3   4
ATOM      4  C   UNL A   1      34.759  22.970  25.019  1.00  0.00     0.202 C 
BRANCH   4   5
ATOM      5  C   UNL A   1      34.315  24.257  23.316  1.00  0.00     0.261 C 
BRANCH   5   6
ATOM      6  O   UNL A   1      32.956  24.903  23.000  1.00  0.00    -0.460 OA
BRANCH   6   7
ATOM      7  C   UNL A   1      32.979  26.238  23.110  1.00  0.00     0.338 C 
ATOM      8  O   UNL A   1      33.563  27.056  22.448  1.00  0.00    -0.246 OA
BRANCH   7   9
ATOM      9  C   UNL A   1      32.404  26.286  24.433  1.00  0.00     0.087 C 
ATOM     10  C   UNL A   1      33.375  26.761  25.441  1.00  0.00     0.027 C 
ATOM     11  C   UNL A   1      30.795  27.223  23.918  1.00  0.00     0.316 C 
ATOM     12  C   UNL A   1      33.316  28.408  26.186  1.00  0.00     0.021 A 
ATOM     13  O   UNL A   1      30.780  29.032  24.624  1.00  0.00    -0.475 OA
ATOM     14  C   UNL A   1      34.310  28.800  27.034  1.00  0.00     0.058 A 
ATOM     15  C   UNL A   1      32.097  29.561  25.772  1.00  0.00     0.128 A 
ATOM     16  C   UNL A   1      34.222  30.121  27.525  1.00  0.00     0.130 A 
ATOM     17  C   UNL A   1      32.058  30.819  26.302  1.00  0.00     0.051 A 
ATOM     18  C   UNL A   1      33.150  31.063  27.190  1.00  0.00     0.050 A 
BRANCH  11  19
ATOM     19  C   UNL A   1      29.771  25.980  24.133  1.00  0.00     0.430 C 
ATOM     20  F   UNL A   1      29.881  24.917  23.327  1.00  0.00    -0.167 F 
ATOM     21  F   UNL A   1      30.019  25.485  25.382  1.00  0.00    -0.167 F 
ATOM     22  F   UNL A   1      28.464  26.341  24.161  1.00  0.00    -0.167 F 
ENDBRANCH  11  19
BRANCH  16  23
ATOM     23  O   UNL A   1      35.292  30.378  28.354  1.00  0.00    -0.406 OA
BRANCH  23  24
ATOM     24  C   UNL A   1      35.604  31.703  28.721  1.00  0.00     0.573 C 
ATOM     25  F   UNL A   1      35.631  32.516  27.645  1.00  0.00    -0.132 F 
ATOM     26  F   UNL A   1      34.725  32.173  29.628  1.00  0.00    -0.132 F 
ATOM     27  F   UNL A   1      36.835  31.711  29.283  1.00  0.00    -0.132 F 
ENDBRANCH  23  24
ENDBRANCH  16  23
ENDBRANCH   7   9
ENDBRANCH   6   7
ENDBRANCH   5   6
ENDBRANCH   4   5
ENDBRANCH   3   4
ENDBRANCH   2   3
ENDBRANCH   1   2
BRANCH   1  28
ATOM     28  O   UNL A   1      37.647  21.575  25.044  1.00  0.00    -0.376 OA
BRANCH  28  29
ATOM     29  C   UNL A   1      38.790  21.643  25.886  1.00  0.00     0.202 C 
BRANCH  29  30
ATOM     30  C   UNL A   1      39.683  20.398  25.988  1.00  0.00     0.261 C 
BRANCH  30  31
ATOM     31  O   UNL A   1      40.713  20.522  26.993  1.00  0.00    -0.460 OA
BRANCH  31  32
ATOM     32  C   UNL A   1      41.950  20.873  26.558  1.00  0.00     0.338 C 
ATOM     33  O   UNL A   1      42.630  20.279  25.739  1.00  0.00    -0.246 OA
BRANCH  32  34
ATOM     34  C   UNL A   1      42.312  22.211  27.082  1.00  0.00     0.060 A 
ATOM     35  C   UNL A   1      42.224  23.308  26.211  1.00  0.00     0.016 A 
ATOM     36  C   UNL A   1      42.762  22.385  28.392  1.00  0.00     0.016 A 
ATOM     37  C   UNL A   1      42.615  24.576  26.636  1.00  0.00     0.010 A 
ATOM     38  C   UNL A   1      43.199  23.650  28.805  1.00  0.00     0.010 A 
ATOM     39  C   UNL A   1      43.171  24.737  27.911  1.00  0.00    -0.014 A 
BRANCH  39  40
ATOM     40  C   UNL A   1      44.023  25.928  28.151  1.00  0.00     0.031 A 
ATOM     41  C   UNL A   1      43.372  27.099  28.846  1.00  0.00     0.074 A 
ATOM     42  C   UNL A   1      45.328  25.963  27.833  1.00  0.00     0.049 A 
ATOM     43  N   UNL A   1      43.895  28.227  29.247  1.00  0.00    -0.248 NA
ATOM     44  C   UNL A   1      41.931  26.969  29.134  1.00  0.00     0.031 C 
ATOM     45  C   UNL A   1      46.080  24.878  27.204  1.00  0.00     0.029 A 
ATOM     46  N   UNL A   1      46.257  26.958  28.011  1.00  0.00    -0.354 N 
ATOM     47  C   UNL A   1      42.851  28.935  29.835  1.00  0.00     0.074 A 
ATOM     48  C   UNL A   1      41.659  28.129  29.706  1.00  0.00     0.031 C 
ATOM     49  C   UNL A   1      47.359  25.269  27.051  1.00  0.00     0.029 A 
ATOM     50  C   UNL A   1      47.512  26.636  27.550  1.00  0.00     0.049 A 
ATOM     51  H   UNL A   1      46.044  27.824  28.430  1.00  0.00     0.167 HD
ATOM     52  C   UNL A   1      42.880  30.146  30.435  1.00  0.00     0.031 A 
ATOM     53  C   UNL A   1      48.647  27.365  27.535  1.00  0.00     0.031 A 
ATOM     54  C   UNL A   1      44.060  30.961  30.526  1.00  0.00     0.049 A 
ATOM     55  C   UNL A   1      48.635  28.751  28.138  1.00  0.00     0.074 A 
ATOM     56  C   UNL A   1      44.203  32.205  31.115  1.00  0.00     0.029 A 
ATOM     57  N   UNL A   1      45.296  30.620  29.998  1.00  0.00    -0.354 N 
ATOM     58  N   UNL A   1      47.651  29.393  28.723  1.00  0.00    -0.248 NA
ATOM     59  C   UNL A   1      49.899  29.501  28.095  1.00  0.00     0.031 C 
ATOM     60  C   UNL A   1      45.507  32.648  30.876  1.00  0.00     0.029 A 
ATOM     61  C   UNL A   1      46.201  31.642  30.220  1.00  0.00     0.049 A 
ATOM     62  H   UNL A   1      45.499  29.776  29.534  1.00  0.00     0.167 HD
ATOM     63  C   UNL A   1      48.191  30.600  29.162  1.00  0.00     0.074 A 
ATOM     64  C   UNL A   1      49.588  30.593  28.779  1.00  0.00     0.031 C 
ATOM     65  C   UNL A   1      47.590  31.617  29.832  1.00  0.00     0.031 A 
BRANCH  52  66
ATOM     66  C   UNL A   1      41.582  30.680  30.983  1.00  0.00    -0.014 A 
ATOM     67  C   UNL A   1      40.788  31.582  30.249  1.00  0.00     0.010 A 
ATOM     68  C   UNL A   1      41.144  30.262  32.252  1.00  0.00     0.010 A 
ATOM     69  C   UNL A   1      39.602  32.084  30.792  1.00  0.00     0.020 A 
ATOM     70  C   UNL A   1      39.943  30.736  32.785  1.00  0.00     0.020 A 
ATOM     71  C   UNL A   1      39.187  31.657  32.056  1.00  0.00     0.054 A 
BRANCH  71  72
ATOM     72  S   UNL A   1      37.631  32.304  32.726  1.00  0.00     0.124 S 
ATOM     73  O   UNL A   1      36.777  31.119  32.706  1.00  0.00    -0.237 OA
ATOM     74  O   UNL A   1      38.026  32.770  34.053  1.00  0.00    -0.237 OA
ATOM     75  O   UNL A   1      37.257  33.356  31.784  1.00  0.00    -0.744 OA
ENDBRANCH  71  72
ENDBRANCH  52  66
BRANCH  53  76
ATOM     76  C   UNL A   1      49.895  26.807  26.940  1.00  0.00    -0.014 A 
ATOM     77  C   UNL A   1      50.123  26.860  25.552  1.00  0.00     0.010 A 
ATOM     78  C   UNL A   1      50.859  26.192  27.761  1.00  0.00     0.010 A 
ATOM     79  C   UNL A   1      51.274  26.290  24.997  1.00  0.00     0.020 A 
ATOM     80  C   UNL A   1      52.027  25.650  27.213  1.00  0.00     0.020 A 
ATOM     81  C   UNL A   1      52.221  25.691  25.832  1.00  0.00     0.054 A 
BRANCH  81  82
ATOM     82  S   UNL A   1      53.726  24.996  25.093  1.00  0.00     0.124 S 
ATOM     83  O   UNL A   1      53.411  23.571  25.042  1.00  0.00    -0.237 OA
ATOM     84  O   UNL A   1      53.786  25.678  23.802  1.00  0.00    -0.237 OA
ATOM     85  O   UNL A   1      54.777  25.369  26.036  1.00  0.00    -0.744 OA
ENDBRANCH  81  82
ENDBRANCH  53  76
BRANCH  65  86
ATOM     86  C   UNL A   1      48.451  32.780  30.258  1.00  0.00    -0.014 A 
ATOM     87  C   UNL A   1      49.172  32.771  31.466  1.00  0.00     0.010 A 
ATOM     88  C   UNL A   1      48.570  33.892  29.402  1.00  0.00     0.010 A 
ATOM     89  C   UNL A   1      49.949  33.874  31.833  1.00  0.00     0.020 A 
ATOM     90  C   UNL A   1      49.375  34.979  29.746  1.00  0.00     0.020 A 
ATOM     91  C   UNL A   1      50.043  34.974  30.971  1.00  0.00     0.054 A 
BRANCH  91  92
ATOM     92  S   UNL A   1      51.064  36.387  31.466  1.00  0.00     0.124 S 
ATOM     93  O   UNL A   1      52.382  35.776  31.604  1.00  0.00    -0.237 OA
ATOM     94  O   UNL A   1      50.910  37.303  30.338  1.00  0.00    -0.237 OA
ATOM     95  O   UNL A   1      50.452  36.838  32.714  1.00  0.00    -0.744 OA
ENDBRANCH  91  92
ENDBRANCH  65  86
ENDBRANCH  39  40
ENDBRANCH  32  34
ENDBRANCH  31  32
ENDBRANCH  30  31
ENDBRANCH  29  30
ENDBRANCH  28  29
ENDBRANCH   1  28
TORSDOF 23
ENDMDL
MODEL 3
REMARK VINA RESULT:      -9.0      6.518     11.335
REMARK SMILES O=C(OCCOCCOCCOC(=O)c1ccc(-c2c3nc(c(-c4ccc(S(=O)(=O)[O-])cc4)c4ccc([nH]4)c(-c4ccc(S(=O)(=O)[O-])cc4)c4nc(c(-c5ccc(S(=O)(=O)[O-])cc5)c5ccc2[nH]5)C=C4)C=C3)cc1)C1=Cc2cc(OC(F)(F)F)ccc2O[C@@H]1C(F)(F)F
REMARK SMILES IDX 8 1 7 2 6 3 5 4 4 5 3 6 2 7 1 8 75 9 76 10 89 11 77 12 88 13
REMARK SMILES IDX 78 14 87 15 79 16 86 17 85 18 90 19 91 20 92 21 93 22 80 23
REMARK SMILES IDX 81 24 82 25 83 26 84 27 9 28 10 29 11 30 12 31 13 32 14 33
REMARK SMILES IDX 15 34 16 35 74 36 17 37 73 38 18 39 19 40 20 41 67 42 21 43
REMARK SMILES IDX 72 44 66 45 68 46 22 47 71 48 65 49 64 50 23 52 53 53 34 54
REMARK SMILES IDX 52 55 35 56 38 57 51 58 69 59 36 60 37 61 50 63 70 64 39 65
REMARK SMILES IDX 24 66 25 67 33 68 26 69 32 70 27 71 28 72 29 73 30 74 31 75
REMARK SMILES IDX 54 76 55 77 63 78 56 79 62 80 57 81 58 82 59 83 60 84 61 85
REMARK SMILES IDX 40 86 41 87 49 88 42 89 48 90 43 91 44 92 45 93 46 94 47 95
REMARK H PARENT 68 51 38 62
REMARK Flexibility Score: inf
ROOT
ATOM      1  C   UNL A   1      41.814  20.301  26.607  1.00  0.00     0.188 C 
ENDROOT
BRANCH   1   2
ATOM      2  C   UNL A   1      41.593  21.814  26.429  1.00  0.00     0.188 C 
BRANCH   2   3
ATOM      3  O   UNL A   1      40.348  22.432  25.995  1.00  0.00    -0.376 OA
BRANCH   3   4
ATOM      4  C   UNL A   1      39.101  23.070  26.864  1.00  0.00     0.202 C 
BRANCH   4   5
ATOM      5  C   UNL A   1      37.370  24.177  26.134  1.00  0.00     0.261 C 
BRANCH   5   6
ATOM      6  O   UNL A   1      36.042  23.568  25.658  1.00  0.00    -0.460 OA
BRANCH   6   7
ATOM      7  C   UNL A   1      35.232  24.471  25.089  1.00  0.00     0.338 C 
ATOM      8  O   UNL A   1      34.747  25.470  25.552  1.00  0.00    -0.246 OA
BRANCH   7   9
ATOM      9  C   UNL A   1      34.890  23.661  23.945  1.00  0.00     0.087 C 
ATOM     10  C   UNL A   1      35.444  22.295  24.050  1.00  0.00     0.027 C 
ATOM     11  C   UNL A   1      33.007  24.095  23.948  1.00  0.00     0.316 C 
ATOM     12  C   UNL A   1      34.442  20.836  24.423  1.00  0.00     0.021 A 
ATOM     13  O   UNL A   1      31.934  22.559  24.458  1.00  0.00    -0.475 OA
ATOM     14  C   UNL A   1      35.051  19.628  24.599  1.00  0.00     0.058 A 
ATOM     15  C   UNL A   1      32.736  20.934  24.681  1.00  0.00     0.128 A 
ATOM     16  C   UNL A   1      34.205  18.552  24.947  1.00  0.00     0.130 A 
ATOM     17  C   UNL A   1      31.972  19.848  24.995  1.00  0.00     0.051 A 
ATOM     18  C   UNL A   1      32.753  18.657  25.117  1.00  0.00     0.050 A 
BRANCH  11  19
ATOM     19  C   UNL A   1      33.015  24.996  22.596  1.00  0.00     0.430 C 
ATOM     20  F   UNL A   1      33.900  25.995  22.502  1.00  0.00    -0.167 F 
ATOM     21  F   UNL A   1      33.343  24.154  21.571  1.00  0.00    -0.167 F 
ATOM     22  F   UNL A   1      31.798  25.491  22.257  1.00  0.00    -0.167 F 
ENDBRANCH  11  19
BRANCH  16  23
ATOM     23  O   UNL A   1      34.954  17.407  25.103  1.00  0.00    -0.406 OA
BRANCH  23  24
ATOM     24  C   UNL A   1      34.469  16.170  24.633  1.00  0.00     0.573 C 
ATOM     25  F   UNL A   1      35.263  15.152  25.024  1.00  0.00    -0.132 F 
ATOM     26  F   UNL A   1      33.207  15.955  25.055  1.00  0.00    -0.132 F 
ATOM     27  F   UNL A   1      34.462  16.200  23.280  1.00  0.00    -0.132 F 
ENDBRANCH  23  24
ENDBRANCH  16  23
ENDBRANCH   7   9
ENDBRANCH   6   7
ENDBRANCH   5   6
ENDBRANCH   4   5
ENDBRANCH   3   4
ENDBRANCH   2   3
ENDBRANCH   1   2
BRANCH   1  28
ATOM     28  O   UNL A   1      42.059  19.485  25.488  1.00  0.00    -0.376 OA
BRANCH  28  29
ATOM     29  C   UNL A   1      43.112  18.539  25.617  1.00  0.00     0.202 C 
BRANCH  29  30
ATOM     30  C   UNL A   1      44.323  18.679  24.683  1.00  0.00     0.261 C 
BRANCH  30  31
ATOM     31  O   UNL A   1      45.532  19.055  25.376  1.00  0.00    -0.460 OA
BRANCH  31  32
ATOM     32  C   UNL A   1      46.303  20.004  24.787  1.00  0.00     0.338 C 
ATOM     33  O   UNL A   1      47.151  19.826  23.930  1.00  0.00    -0.246 OA
BRANCH  32  34
ATOM     34  C   UNL A   1      45.845  21.354  25.193  1.00  0.00     0.060 A 
ATOM     35  C   UNL A   1      45.953  22.397  24.260  1.00  0.00     0.016 A 
ATOM     36  C   UNL A   1      45.351  21.603  26.475  1.00  0.00     0.016 A 
ATOM     37  C   UNL A   1      45.596  23.697  24.614  1.00  0.00     0.010 A 
ATOM     38  C   UNL A   1      45.038  22.916  26.846  1.00  0.00     0.010 A 
ATOM     39  C   UNL A   1      45.206  23.972  25.931  1.00  0.00    -0.014 A 
BRANCH  39  40
ATOM     40  C   UNL A   1      45.326  25.371  26.412  1.00  0.00     0.031 A 
ATOM     41  C   UNL A   1      46.694  26.002  26.326  1.00  0.00     0.074 A 
ATOM     42  C   UNL A   1      44.272  26.082  26.846  1.00  0.00     0.049 A 
ATOM     43  N   UNL A   1      47.068  27.223  26.600  1.00  0.00    -0.248 NA
ATOM     44  C   UNL A   1      47.788  25.130  25.855  1.00  0.00     0.031 C 
ATOM     45  C   UNL A   1      42.894  25.599  26.928  1.00  0.00     0.029 A 
ATOM     46  N   UNL A   1      44.201  27.379  27.290  1.00  0.00    -0.354 N 
ATOM     47  C   UNL A   1      48.433  27.265  26.333  1.00  0.00     0.074 A 
ATOM     48  C   UNL A   1      48.830  25.942  25.912  1.00  0.00     0.031 C 
ATOM     49  C   UNL A   1      42.114  26.591  27.395  1.00  0.00     0.029 A 
ATOM     50  C   UNL A   1      42.937  27.771  27.663  1.00  0.00     0.049 A 
ATOM     51  H   UNL A   1      44.984  27.975  27.338  1.00  0.00     0.167 HD
ATOM     52  C   UNL A   1      49.283  28.313  26.424  1.00  0.00     0.031 A 
ATOM     53  C   UNL A   1      42.503  28.946  28.164  1.00  0.00     0.031 A 
ATOM     54  C   UNL A   1      48.892  29.619  26.881  1.00  0.00     0.049 A 
ATOM     55  C   UNL A   1      43.488  30.079  28.335  1.00  0.00     0.074 A 
ATOM     56  C   UNL A   1      49.671  30.754  27.010  1.00  0.00     0.029 A 
ATOM     57  N   UNL A   1      47.614  29.956  27.301  1.00  0.00    -0.354 N 
ATOM     58  N   UNL A   1      44.768  30.116  28.043  1.00  0.00    -0.248 NA
ATOM     59  C   UNL A   1      42.961  31.336  28.883  1.00  0.00     0.031 C 
ATOM     60  C   UNL A   1      48.881  31.757  27.579  1.00  0.00     0.029 A 
ATOM     61  C   UNL A   1      47.588  31.274  27.718  1.00  0.00     0.049 A 
ATOM     62  H   UNL A   1      46.840  29.348  27.301  1.00  0.00     0.167 HD
ATOM     63  C   UNL A   1      45.185  31.415  28.327  1.00  0.00     0.074 A 
ATOM     64  C   UNL A   1      44.020  32.130  28.805  1.00  0.00     0.031 C 
ATOM     65  C   UNL A   1      46.417  31.970  28.192  1.00  0.00     0.031 A 
BRANCH  52  66
ATOM     66  C   UNL A   1      50.728  28.066  26.076  1.00  0.00    -0.014 A 
ATOM     67  C   UNL A   1      51.205  28.218  24.760  1.00  0.00     0.010 A 
ATOM     68  C   UNL A   1      51.626  27.685  27.089  1.00  0.00     0.010 A 
ATOM     69  C   UNL A   1      52.544  27.954  24.459  1.00  0.00     0.020 A 
ATOM     70  C   UNL A   1      52.973  27.453  26.798  1.00  0.00     0.020 A 
ATOM     71  C   UNL A   1      53.420  27.574  25.480  1.00  0.00     0.054 A 
BRANCH  71  72
ATOM     72  S   UNL A   1      55.158  27.265  25.066  1.00  0.00     0.124 S 
ATOM     73  O   UNL A   1      55.146  25.837  24.760  1.00  0.00    -0.237 OA
ATOM     74  O   UNL A   1      55.375  28.150  23.925  1.00  0.00    -0.237 OA
ATOM     75  O   UNL A   1      55.876  27.633  26.283  1.00  0.00    -0.744 OA
ENDBRANCH  71  72
ENDBRANCH  52  66
BRANCH  53  76
ATOM     76  C   UNL A   1      41.069  29.125  28.535  1.00  0.00    -0.014 A 
ATOM     77  C   UNL A   1      40.115  29.511  27.575  1.00  0.00     0.010 A 
ATOM     78  C   UNL A   1      40.652  28.933  29.866  1.00  0.00     0.010 A 
ATOM     79  C   UNL A   1      38.781  29.725  27.943  1.00  0.00     0.020 A 
ATOM     80  C   UNL A   1      39.313  29.114  30.230  1.00  0.00     0.020 A 
ATOM     81  C   UNL A   1      38.388  29.522  29.268  1.00  0.00     0.054 A 
BRANCH  81  82
ATOM     82  S   UNL A   1      36.645  29.765  29.712  1.00  0.00     0.124 S 
ATOM     83  O   UNL A   1      35.954  29.133  28.591  1.00  0.00    -0.237 OA
ATOM     84  O   UNL A   1      36.546  29.066  30.991  1.00  0.00    -0.237 OA
ATOM     85  O   UNL A   1      36.509  31.217  29.790  1.00  0.00    -0.744 OA
ENDBRANCH  81  82
ENDBRANCH  53  76
BRANCH  65  86
ATOM     86  C   UNL A   1      46.559  33.441  28.498  1.00  0.00    -0.014 A 
ATOM     87  C   UNL A   1      46.337  34.431  27.525  1.00  0.00     0.010 A 
ATOM     88  C   UNL A   1      46.886  33.836  29.810  1.00  0.00     0.010 A 
ATOM     89  C   UNL A   1      46.492  35.783  27.845  1.00  0.00     0.020 A 
ATOM     90  C   UNL A   1      47.004  35.186  30.144  1.00  0.00     0.020 A 
ATOM     91  C   UNL A   1      46.829  36.152  29.152  1.00  0.00     0.054 A 
BRANCH  91  92
ATOM     92  S   UNL A   1      47.016  37.912  29.544  1.00  0.00     0.124 S 
ATOM     93  O   UNL A   1      45.997  38.522  28.694  1.00  0.00    -0.237 OA
ATOM     94  O   UNL A   1      46.745  37.952  30.979  1.00  0.00    -0.237 OA
ATOM     95  O   UNL A   1      48.397  38.207  29.169  1.00  0.00    -0.744 OA
ENDBRANCH  91  92
ENDBRANCH  65  86
ENDBRANCH  39  40
ENDBRANCH  32  34
ENDBRANCH  31  32
ENDBRANCH  30  31
ENDBRANCH  29  30
ENDBRANCH  28  29
ENDBRANCH   1  28
TORSDOF 23
ENDMDL
