MODEL 1
REMARK VINA RESULT:      -8.4      0.000      0.000
REMARK SMILES COc1ccc(Br)c([C@H]2[NH2+][C@H](C(=O)OCCOCCOCCOC(=O)c3ccc(-c4c5nc(c(-c6ccc(S(=O)(=O)[O-])cc6)c6ccc([nH]6)c(-c6ccc(S(=O)(=O)[O-])cc6)c6nc(c(-c7ccc(S(=O)(=O)[O-])cc7)c7ccc4[nH]7)C=C6)C=C5)cc3)CS2)c1O
REMARK SMILES IDX 19 1 18 2 17 3 16 4 15 5 14 6 12 7 13 8 11 9 9 10 10 11
REMARK SMILES IDX 87 12 86 15 8 16 3 17 4 18 88 19 5 20 6 21 7 22 2 23 1 24
REMARK SMILES IDX 89 25 20 27 21 28 22 29 23 30 24 31 25 32 26 33 27 34 85 35
REMARK SMILES IDX 28 36 84 37 29 38 30 39 31 40 78 41 32 42 83 43 77 44 79 45
REMARK SMILES IDX 33 46 82 47 76 48 75 49 34 51 64 52 45 53 63 54 46 55 49 56
REMARK SMILES IDX 62 57 80 58 47 59 48 60 61 62 81 63 50 64 35 65 36 66 44 67
REMARK SMILES IDX 37 68 43 69 38 70 39 71 40 72 41 73 42 74 65 75 66 76 74 77
REMARK SMILES IDX 67 78 73 79 68 80 69 81 70 82 71 83 72 84 51 85 52 86 60 87
REMARK SMILES IDX 53 88 59 89 54 90 55 91 56 92 57 93 58 94
REMARK H PARENT 10 13 10 14 89 26 79 50 49 61
REMARK Flexibility Score: inf
ROOT
ATOM      1  C   UNL A   1      42.207  21.692  26.283  1.00  0.00     0.188 C 
ENDROOT
BRANCH   1   2
ATOM      2  C   UNL A   1      43.146  22.705  25.603  1.00  0.00     0.188 C 
BRANCH   2   3
ATOM      3  O   UNL A   1      43.712  22.402  24.331  1.00  0.00    -0.376 OA
BRANCH   3   4
ATOM      4  C   UNL A   1      44.940  23.003  23.952  1.00  0.00     0.202 C 
BRANCH   4   5
ATOM      5  C   UNL A   1      46.019  23.227  25.027  1.00  0.00     0.261 C 
BRANCH   5   6
ATOM      6  O   UNL A   1      46.313  24.601  25.384  1.00  0.00    -0.459 OA
BRANCH   6   7
ATOM      7  C   UNL A   1      47.076  25.290  24.499  1.00  0.00     0.365 C 
ATOM      8  O   UNL A   1      47.880  24.748  23.740  1.00  0.00    -0.245 OA
BRANCH   7   9
ATOM      9  C   UNL A   1      46.944  26.825  24.492  1.00  0.00     0.304 C 
ATOM     10  C   UNL A   1      46.098  27.794  26.552  1.00  0.00     0.279 C 
ATOM     11  N   UNL A   1      45.780  27.495  25.147  1.00  0.00    -0.319 N 
ATOM     12  S   UNL A   1      47.910  27.855  26.731  1.00  0.00    -0.087 SA
ATOM     13  H   UNL A   1      45.571  28.364  24.655  1.00  0.00     0.348 HD
ATOM     14  H   UNL A   1      44.970  26.876  25.110  1.00  0.00     0.348 HD
ATOM     15  C   UNL A   1      48.234  27.440  25.001  1.00  0.00     0.153 C 
BRANCH  10  16
ATOM     16  C   UNL A   1      45.309  28.991  27.122  1.00  0.00     0.080 A 
ATOM     17  C   UNL A   1      44.762  31.406  27.271  1.00  0.00     0.161 A 
ATOM     18  C   UNL A   1      43.977  31.188  28.395  1.00  0.00     0.051 A 
ATOM     19  C   UNL A   1      45.371  30.313  26.613  1.00  0.00     0.169 A 
ATOM     20  C   UNL A   1      43.801  29.898  28.863  1.00  0.00     0.020 A 
ATOM     21  C   UNL A   1      44.476  28.827  28.255  1.00  0.00     0.032 A 
ATOM     22  Br  UNL A   1      44.208  27.176  29.127  1.00  0.00    -0.050 Br
BRANCH  17  23
ATOM     23  O   UNL A   1      44.972  32.732  27.001  1.00  0.00    -0.493 OA
ATOM     24  C   UNL A   1      44.293  33.257  25.871  1.00  0.00     0.278 C 
ENDBRANCH  17  23
BRANCH  19  25
ATOM     25  O   UNL A   1      46.061  30.561  25.460  1.00  0.00    -0.504 OA
ATOM     26  H   UNL A   1      46.469  29.855  24.997  1.00  0.00     0.293 HD
ENDBRANCH  19  25
ENDBRANCH  10  16
ENDBRANCH   7   9
ENDBRANCH   6   7
ENDBRANCH   5   6
ENDBRANCH   4   5
ENDBRANCH   3   4
ENDBRANCH   2   3
ENDBRANCH   1   2
BRANCH   1  27
ATOM     27  O   UNL A   1      41.283  22.283  27.173  1.00  0.00    -0.376 OA
BRANCH  27  28
ATOM     28  C   UNL A   1      39.912  22.259  26.846  1.00  0.00     0.202 C 
BRANCH  28  29
ATOM     29  C   UNL A   1      39.268  23.514  26.247  1.00  0.00     0.261 C 
BRANCH  29  30
ATOM     30  O   UNL A   1      39.218  24.679  27.083  1.00  0.00    -0.460 OA
BRANCH  30  31
ATOM     31  C   UNL A   1      40.103  25.669  26.826  1.00  0.00     0.338 C 
ATOM     32  O   UNL A   1      40.772  25.812  25.813  1.00  0.00    -0.246 OA
BRANCH  31  33
ATOM     33  C   UNL A   1      39.991  26.664  27.916  1.00  0.00     0.060 A 
ATOM     34  C   UNL A   1      40.590  27.924  27.773  1.00  0.00     0.016 A 
ATOM     35  C   UNL A   1      39.282  26.348  29.077  1.00  0.00     0.016 A 
ATOM     36  C   UNL A   1      40.503  28.862  28.807  1.00  0.00     0.010 A 
ATOM     37  C   UNL A   1      39.212  27.281  30.114  1.00  0.00     0.010 A 
ATOM     38  C   UNL A   1      39.847  28.532  30.000  1.00  0.00    -0.014 A 
BRANCH  38  39
ATOM     39  C   UNL A   1      39.960  29.405  31.196  1.00  0.00     0.031 A 
ATOM     40  C   UNL A   1      41.081  29.149  32.168  1.00  0.00     0.074 A 
ATOM     41  C   UNL A   1      39.074  30.388  31.439  1.00  0.00     0.049 A 
ATOM     42  N   UNL A   1      41.324  29.708  33.325  1.00  0.00    -0.248 NA
ATOM     43  C   UNL A   1      42.053  28.111  31.783  1.00  0.00     0.031 C 
ATOM     44  C   UNL A   1      37.964  30.763  30.568  1.00  0.00     0.029 A 
ATOM     45  N   UNL A   1      38.963  31.240  32.513  1.00  0.00    -0.354 N 
ATOM     46  C   UNL A   1      42.466  29.082  33.814  1.00  0.00     0.074 A 
ATOM     47  C   UNL A   1      42.847  28.079  32.843  1.00  0.00     0.031 C 
ATOM     48  C   UNL A   1      37.268  31.756  31.151  1.00  0.00     0.029 A 
ATOM     49  C   UNL A   1      37.860  32.058  32.454  1.00  0.00     0.049 A 
ATOM     50  H   UNL A   1      39.612  31.261  33.253  1.00  0.00     0.167 HD
ATOM     51  C   UNL A   1      43.139  29.320  34.966  1.00  0.00     0.031 A 
ATOM     52  C   UNL A   1      37.364  32.927  33.360  1.00  0.00     0.031 A 
ATOM     53  C   UNL A   1      42.743  30.301  35.942  1.00  0.00     0.049 A 
ATOM     54  C   UNL A   1      38.085  33.127  34.670  1.00  0.00     0.074 A 
ATOM     55  C   UNL A   1      43.367  30.629  37.133  1.00  0.00     0.029 A 
ATOM     56  N   UNL A   1      41.612  31.099  35.852  1.00  0.00    -0.354 N 
ATOM     57  N   UNL A   1      39.183  32.554  35.105  1.00  0.00    -0.248 NA
ATOM     58  C   UNL A   1      37.505  34.098  35.609  1.00  0.00     0.031 C 
ATOM     59  C   UNL A   1      42.579  31.576  37.793  1.00  0.00     0.029 A 
ATOM     60  C   UNL A   1      41.504  31.897  36.979  1.00  0.00     0.049 A 
ATOM     61  H   UNL A   1      40.979  31.099  35.097  1.00  0.00     0.167 HD
ATOM     62  C   UNL A   1      39.438  33.116  36.352  1.00  0.00     0.074 A 
ATOM     63  C   UNL A   1      38.389  34.085  36.596  1.00  0.00     0.031 C 
ATOM     64  C   UNL A   1      40.453  32.857  37.216  1.00  0.00     0.031 A 
BRANCH  51  65
ATOM     65  C   UNL A   1      44.350  28.469  35.247  1.00  0.00    -0.014 A 
ATOM     66  C   UNL A   1      45.639  28.873  34.853  1.00  0.00     0.010 A 
ATOM     67  C   UNL A   1      44.198  27.248  35.931  1.00  0.00     0.010 A 
ATOM     68  C   UNL A   1      46.744  28.049  35.089  1.00  0.00     0.020 A 
ATOM     69  C   UNL A   1      45.304  26.437  36.200  1.00  0.00     0.020 A 
ATOM     70  C   UNL A   1      46.568  26.833  35.756  1.00  0.00     0.054 A 
BRANCH  70  71
ATOM     71  S   UNL A   1      48.018  25.785  36.048  1.00  0.00     0.124 S 
ATOM     72  O   UNL A   1      49.073  26.778  36.242  1.00  0.00    -0.237 OA
ATOM     73  O   UNL A   1      47.636  25.035  37.242  1.00  0.00    -0.237 OA
ATOM     74  O   UNL A   1      48.128  24.993  34.825  1.00  0.00    -0.744 OA
ENDBRANCH  70  71
ENDBRANCH  51  65
BRANCH  52  75
ATOM     75  C   UNL A   1      36.097  33.656  33.069  1.00  0.00    -0.014 A 
ATOM     76  C   UNL A   1      34.848  33.061  33.318  1.00  0.00     0.010 A 
ATOM     77  C   UNL A   1      36.137  34.964  32.550  1.00  0.00     0.010 A 
ATOM     78  C   UNL A   1      33.664  33.756  33.045  1.00  0.00     0.020 A 
ATOM     79  C   UNL A   1      34.958  35.672  32.305  1.00  0.00     0.020 A 
ATOM     80  C   UNL A   1      33.727  35.060  32.547  1.00  0.00     0.054 A 
BRANCH  80  81
ATOM     81  S   UNL A   1      32.179  35.965  32.268  1.00  0.00     0.124 S 
ATOM     82  O   UNL A   1      32.347  37.131  33.130  1.00  0.00    -0.237 OA
ATOM     83  O   UNL A   1      32.226  36.228  30.832  1.00  0.00    -0.237 OA
ATOM     84  O   UNL A   1      31.147  35.020  32.688  1.00  0.00    -0.744 OA
ENDBRANCH  80  81
ENDBRANCH  52  75
BRANCH  64  85
ATOM     85  C   UNL A   1      40.511  33.658  38.493  1.00  0.00    -0.014 A 
ATOM     86  C   UNL A   1      39.809  33.260  39.646  1.00  0.00     0.010 A 
ATOM     87  C   UNL A   1      41.335  34.798  38.558  1.00  0.00     0.010 A 
ATOM     88  C   UNL A   1      39.905  34.006  40.825  1.00  0.00     0.020 A 
ATOM     89  C   UNL A   1      41.460  35.526  39.744  1.00  0.00     0.020 A 
ATOM     90  C   UNL A   1      40.731  35.133  40.867  1.00  0.00     0.054 A 
BRANCH  90  91
ATOM     91  S   UNL A   1      40.873  36.057  42.423  1.00  0.00     0.124 S 
ATOM     92  O   UNL A   1      40.946  34.982  43.409  1.00  0.00    -0.237 OA
ATOM     93  O   UNL A   1      42.104  36.819  42.231  1.00  0.00    -0.237 OA
ATOM     94  O   UNL A   1      39.652  36.858  42.464  1.00  0.00    -0.744 OA
ENDBRANCH  90  91
ENDBRANCH  64  85
ENDBRANCH  38  39
ENDBRANCH  31  33
ENDBRANCH  30  31
ENDBRANCH  29  30
ENDBRANCH  28  29
ENDBRANCH  27  28
ENDBRANCH   1  27
TORSDOF 23
ENDMDL
MODEL 2
REMARK VINA RESULT:      -8.2      1.796      8.281
REMARK SMILES COc1ccc(Br)c([C@H]2[NH2+][C@H](C(=O)OCCOCCOCCOC(=O)c3ccc(-c4c5nc(c(-c6ccc(S(=O)(=O)[O-])cc6)c6ccc([nH]6)c(-c6ccc(S(=O)(=O)[O-])cc6)c6nc(c(-c7ccc(S(=O)(=O)[O-])cc7)c7ccc4[nH]7)C=C6)C=C5)cc3)CS2)c1O
REMARK SMILES IDX 19 1 18 2 17 3 16 4 15 5 14 6 12 7 13 8 11 9 9 10 10 11
REMARK SMILES IDX 87 12 86 15 8 16 3 17 4 18 88 19 5 20 6 21 7 22 2 23 1 24
REMARK SMILES IDX 89 25 20 27 21 28 22 29 23 30 24 31 25 32 26 33 27 34 85 35
REMARK SMILES IDX 28 36 84 37 29 38 30 39 31 40 78 41 32 42 83 43 77 44 79 45
REMARK SMILES IDX 33 46 82 47 76 48 75 49 34 51 64 52 45 53 63 54 46 55 49 56
REMARK SMILES IDX 62 57 80 58 47 59 48 60 61 62 81 63 50 64 35 65 36 66 44 67
REMARK SMILES IDX 37 68 43 69 38 70 39 71 40 72 41 73 42 74 65 75 66 76 74 77
REMARK SMILES IDX 67 78 73 79 68 80 69 81 70 82 71 83 72 84 51 85 52 86 60 87
REMARK SMILES IDX 53 88 59 89 54 90 55 91 56 92 57 93 58 94
REMARK H PARENT 10 13 10 14 89 26 79 50 49 61
REMARK Flexibility Score: inf
ROOT
ATOM      1  C   UNL A   1      39.296  20.587  25.514  1.00  0.00     0.188 C 
ENDROOT
BRANCH   1   2
ATOM      2  C   UNL A   1      39.989  19.270  25.910  1.00  0.00     0.188 C 
BRANCH   2   3
ATOM      3  O   UNL A   1      41.384  19.104  25.671  1.00  0.00    -0.376 OA
BRANCH   3   4
ATOM      4  C   UNL A   1      42.313  19.471  26.678  1.00  0.00     0.202 C 
BRANCH   4   5
ATOM      5  C   UNL A   1      43.349  20.567  26.368  1.00  0.00     0.261 C 
BRANCH   5   6
ATOM      6  O   UNL A   1      43.020  21.499  25.308  1.00  0.00    -0.459 OA
BRANCH   6   7
ATOM      7  C   UNL A   1      44.025  21.790  24.445  1.00  0.00     0.365 C 
ATOM      8  O   UNL A   1      44.636  20.930  23.811  1.00  0.00    -0.245 OA
BRANCH   7   9
ATOM      9  C   UNL A   1      44.429  23.269  24.299  1.00  0.00     0.304 C 
ATOM     10  C   UNL A   1      44.745  24.461  26.392  1.00  0.00     0.279 C 
ATOM     11  N   UNL A   1      43.873  24.309  25.216  1.00  0.00    -0.319 N 
ATOM     12  S   UNL A   1      46.410  23.863  25.952  1.00  0.00    -0.087 SA
ATOM     13  H   UNL A   1      43.813  25.199  24.722  1.00  0.00     0.348 HD
ATOM     14  H   UNL A   1      42.942  24.023  25.523  1.00  0.00     0.348 HD
ATOM     15  C   UNL A   1      45.943  23.374  24.275  1.00  0.00     0.153 C 
BRANCH  10  16
ATOM     16  C   UNL A   1      44.665  25.857  27.043  1.00  0.00     0.080 A 
ATOM     17  C   UNL A   1      44.670  28.336  26.961  1.00  0.00     0.161 A 
ATOM     18  C   UNL A   1      44.749  28.410  28.346  1.00  0.00     0.051 A 
ATOM     19  C   UNL A   1      44.573  27.076  26.327  1.00  0.00     0.169 A 
ATOM     20  C   UNL A   1      44.733  27.245  29.091  1.00  0.00     0.020 A 
ATOM     21  C   UNL A   1      44.719  25.995  28.451  1.00  0.00     0.032 A 
ATOM     22  Br  UNL A   1      44.839  24.537  29.642  1.00  0.00    -0.050 Br
BRANCH  17  23
ATOM     23  O   UNL A   1      44.842  29.544  26.340  1.00  0.00    -0.493 OA
ATOM     24  C   UNL A   1      44.231  30.662  26.963  1.00  0.00     0.278 C 
ENDBRANCH  17  23
BRANCH  19  25
ATOM     25  O   UNL A   1      44.406  27.052  24.970  1.00  0.00    -0.504 OA
ATOM     26  H   UNL A   1      43.609  27.365  24.591  1.00  0.00     0.293 HD
ENDBRANCH  19  25
ENDBRANCH  10  16
ENDBRANCH   7   9
ENDBRANCH   6   7
ENDBRANCH   5   6
ENDBRANCH   4   5
ENDBRANCH   3   4
ENDBRANCH   2   3
ENDBRANCH   1   2
BRANCH   1  27
ATOM     27  O   UNL A   1      39.974  21.742  25.959  1.00  0.00    -0.376 OA
BRANCH  27  28
ATOM     28  C   UNL A   1      39.264  22.704  26.706  1.00  0.00     0.202 C 
BRANCH  28  29
ATOM     29  C   UNL A   1      38.535  23.829  25.965  1.00  0.00     0.261 C 
BRANCH  29  30
ATOM     30  O   UNL A   1      38.789  25.170  26.409  1.00  0.00    -0.460 OA
BRANCH  30  31
ATOM     31  C   UNL A   1      40.080  25.560  26.507  1.00  0.00     0.338 C 
ATOM     32  O   UNL A   1      40.946  25.457  25.649  1.00  0.00    -0.246 OA
BRANCH  31  33
ATOM     33  C   UNL A   1      40.228  26.308  27.775  1.00  0.00     0.060 A 
ATOM     34  C   UNL A   1      39.399  26.006  28.864  1.00  0.00     0.016 A 
ATOM     35  C   UNL A   1      41.200  27.305  27.885  1.00  0.00     0.016 A 
ATOM     36  C   UNL A   1      39.521  26.722  30.059  1.00  0.00     0.010 A 
ATOM     37  C   UNL A   1      41.308  28.031  29.074  1.00  0.00     0.010 A 
ATOM     38  C   UNL A   1      40.451  27.766  30.158  1.00  0.00    -0.014 A 
BRANCH  38  39
ATOM     39  C   UNL A   1      40.425  28.699  31.314  1.00  0.00     0.031 A 
ATOM     40  C   UNL A   1      39.444  29.841  31.291  1.00  0.00     0.074 A 
ATOM     41  C   UNL A   1      41.271  28.563  32.351  1.00  0.00     0.049 A 
ATOM     42  N   UNL A   1      39.304  30.834  32.130  1.00  0.00    -0.248 NA
ATOM     43  C   UNL A   1      38.500  29.867  30.162  1.00  0.00     0.031 C 
ATOM     44  C   UNL A   1      42.246  27.487  32.513  1.00  0.00     0.029 A 
ATOM     45  N   UNL A   1      41.454  29.355  33.459  1.00  0.00    -0.354 N 
ATOM     46  C   UNL A   1      38.268  31.612  31.623  1.00  0.00     0.074 A 
ATOM     47  C   UNL A   1      37.839  30.992  30.389  1.00  0.00     0.031 C 
ATOM     48  C   UNL A   1      42.943  27.699  33.644  1.00  0.00     0.029 A 
ATOM     49  C   UNL A   1      42.490  28.944  34.264  1.00  0.00     0.049 A 
ATOM     50  H   UNL A   1      40.897  30.141  33.657  1.00  0.00     0.167 HD
ATOM     51  C   UNL A   1      37.722  32.740  32.138  1.00  0.00     0.031 A 
ATOM     52  C   UNL A   1      43.034  29.521  35.356  1.00  0.00     0.031 A 
ATOM     53  C   UNL A   1      38.168  33.370  33.354  1.00  0.00     0.049 A 
ATOM     54  C   UNL A   1      42.462  30.817  35.874  1.00  0.00     0.074 A 
ATOM     55  C   UNL A   1      37.669  34.505  33.967  1.00  0.00     0.029 A 
ATOM     56  N   UNL A   1      39.229  32.930  34.132  1.00  0.00    -0.354 N 
ATOM     57  N   UNL A   1      41.459  31.524  35.406  1.00  0.00    -0.248 NA
ATOM     58  C   UNL A   1      43.087  31.388  37.076  1.00  0.00     0.031 C 
ATOM     59  C   UNL A   1      38.469  34.789  35.078  1.00  0.00     0.029 A 
ATOM     60  C   UNL A   1      39.420  33.789  35.202  1.00  0.00     0.049 A 
ATOM     61  H   UNL A   1      39.768  32.126  33.950  1.00  0.00     0.167 HD
ATOM     62  C   UNL A   1      41.318  32.605  36.271  1.00  0.00     0.074 A 
ATOM     63  C   UNL A   1      42.326  32.452  37.299  1.00  0.00     0.031 C 
ATOM     64  C   UNL A   1      40.429  33.630  36.220  1.00  0.00     0.031 A 
BRANCH  51  65
ATOM     65  C   UNL A   1      36.607  33.387  31.358  1.00  0.00    -0.014 A 
ATOM     66  C   UNL A   1      36.813  33.882  30.056  1.00  0.00     0.010 A 
ATOM     67  C   UNL A   1      35.326  33.491  31.931  1.00  0.00     0.010 A 
ATOM     68  C   UNL A   1      35.775  34.514  29.366  1.00  0.00     0.020 A 
ATOM     69  C   UNL A   1      34.276  34.091  31.231  1.00  0.00     0.020 A 
ATOM     70  C   UNL A   1      34.514  34.620  29.960  1.00  0.00     0.054 A 
BRANCH  70  71
ATOM     71  S   UNL A   1      33.186  35.445  29.042  1.00  0.00     0.124 S 
ATOM     72  O   UNL A   1      32.624  34.340  28.268  1.00  0.00    -0.237 OA
ATOM     73  O   UNL A   1      32.332  35.961  30.108  1.00  0.00    -0.237 OA
ATOM     74  O   UNL A   1      33.884  36.461  28.257  1.00  0.00    -0.744 OA
ENDBRANCH  70  71
ENDBRANCH  51  65
BRANCH  52  75
ATOM     75  C   UNL A   1      44.211  28.890  36.018  1.00  0.00    -0.014 A 
ATOM     76  C   UNL A   1      45.522  29.241  35.649  1.00  0.00     0.010 A 
ATOM     77  C   UNL A   1      44.022  27.937  37.036  1.00  0.00     0.010 A 
ATOM     78  C   UNL A   1      46.620  28.645  36.279  1.00  0.00     0.020 A 
ATOM     79  C   UNL A   1      45.116  27.363  37.690  1.00  0.00     0.020 A 
ATOM     80  C   UNL A   1      46.409  27.715  37.302  1.00  0.00     0.054 A 
BRANCH  80  81
ATOM     81  S   UNL A   1      47.849  27.009  38.151  1.00  0.00     0.124 S 
ATOM     82  O   UNL A   1      48.868  28.030  37.924  1.00  0.00    -0.237 OA
ATOM     83  O   UNL A   1      47.371  26.887  39.526  1.00  0.00    -0.237 OA
ATOM     84  O   UNL A   1      48.069  25.741  37.460  1.00  0.00    -0.744 OA
ENDBRANCH  80  81
ENDBRANCH  52  75
BRANCH  64  85
ATOM     85  C   UNL A   1      40.472  34.653  37.329  1.00  0.00    -0.014 A 
ATOM     86  C   UNL A   1      41.290  35.794  37.249  1.00  0.00     0.010 A 
ATOM     87  C   UNL A   1      39.629  34.497  38.446  1.00  0.00     0.010 A 
ATOM     88  C   UNL A   1      41.288  36.741  38.278  1.00  0.00     0.020 A 
ATOM     89  C   UNL A   1      39.599  35.458  39.461  1.00  0.00     0.020 A 
ATOM     90  C   UNL A   1      40.440  36.567  39.377  1.00  0.00     0.054 A 
BRANCH  90  91
ATOM     91  S   UNL A   1      40.424  37.833  40.677  1.00  0.00     0.124 S 
ATOM     92  O   UNL A   1      41.427  37.326  41.609  1.00  0.00    -0.237 OA
ATOM     93  O   UNL A   1      40.797  39.043  39.949  1.00  0.00    -0.237 OA
ATOM     94  O   UNL A   1      39.048  37.808  41.169  1.00  0.00    -0.744 OA
ENDBRANCH  90  91
ENDBRANCH  64  85
ENDBRANCH  38  39
ENDBRANCH  31  33
ENDBRANCH  30  31
ENDBRANCH  29  30
ENDBRANCH  28  29
ENDBRANCH  27  28
ENDBRANCH   1  27
TORSDOF 23
ENDMDL
MODEL 3
REMARK VINA RESULT:      -7.1      6.107     12.715
REMARK SMILES COc1ccc(Br)c([C@H]2[NH2+][C@H](C(=O)OCCOCCOCCOC(=O)c3ccc(-c4c5nc(c(-c6ccc(S(=O)(=O)[O-])cc6)c6ccc([nH]6)c(-c6ccc(S(=O)(=O)[O-])cc6)c6nc(c(-c7ccc(S(=O)(=O)[O-])cc7)c7ccc4[nH]7)C=C6)C=C5)cc3)CS2)c1O
REMARK SMILES IDX 19 1 18 2 17 3 16 4 15 5 14 6 12 7 13 8 11 9 9 10 10 11
REMARK SMILES IDX 87 12 86 15 8 16 3 17 4 18 88 19 5 20 6 21 7 22 2 23 1 24
REMARK SMILES IDX 89 25 20 27 21 28 22 29 23 30 24 31 25 32 26 33 27 34 85 35
REMARK SMILES IDX 28 36 84 37 29 38 30 39 31 40 78 41 32 42 83 43 77 44 79 45
REMARK SMILES IDX 33 46 82 47 76 48 75 49 34 51 64 52 45 53 63 54 46 55 49 56
REMARK SMILES IDX 62 57 80 58 47 59 48 60 61 62 81 63 50 64 35 65 36 66 44 67
REMARK SMILES IDX 37 68 43 69 38 70 39 71 40 72 41 73 42 74 65 75 66 76 74 77
REMARK SMILES IDX 67 78 73 79 68 80 69 81 70 82 71 83 72 84 51 85 52 86 60 87
REMARK SMILES IDX 53 88 59 89 54 90 55 91 56 92 57 93 58 94
REMARK H PARENT 10 13 10 14 89 26 79 50 49 61
REMARK Flexibility Score: inf
ROOT
ATOM      1  C   UNL A   1      34.812  32.613  30.038  1.00  0.00     0.188 C 
ENDROOT
BRANCH   1   2
ATOM      2  C   UNL A   1      35.604  31.609  29.180  1.00  0.00     0.188 C 
BRANCH   2   3
ATOM      3  O   UNL A   1      35.039  31.110  27.972  1.00  0.00    -0.376 OA
BRANCH   3   4
ATOM      4  C   UNL A   1      33.704  31.451  27.632  1.00  0.00     0.202 C 
BRANCH   4   5
ATOM      5  C   UNL A   1      32.766  30.347  27.111  1.00  0.00     0.261 C 
BRANCH   5   6
ATOM      6  O   UNL A   1      33.042  28.992  27.546  1.00  0.00    -0.459 OA
BRANCH   6   7
ATOM      7  C   UNL A   1      32.128  28.058  27.185  1.00  0.00     0.365 C 
ATOM      8  O   UNL A   1      31.154  27.768  27.881  1.00  0.00    -0.245 OA
BRANCH   7   9
ATOM      9  C   UNL A   1      32.362  27.309  25.860  1.00  0.00     0.304 C 
ATOM     10  C   UNL A   1      33.423  25.136  26.080  1.00  0.00     0.279 C 
ATOM     11  N   UNL A   1      33.614  26.525  25.635  1.00  0.00    -0.319 N 
ATOM     12  S   UNL A   1      31.637  24.772  26.080  1.00  0.00    -0.087 SA
ATOM     13  H   UNL A   1      33.844  26.534  24.641  1.00  0.00     0.348 HD
ATOM     14  H   UNL A   1      34.376  26.947  26.168  1.00  0.00     0.348 HD
ATOM     15  C   UNL A   1      31.158  26.437  25.559  1.00  0.00     0.153 C 
BRANCH  10  16
ATOM     16  C   UNL A   1      34.331  24.124  25.350  1.00  0.00     0.080 A 
ATOM     17  C   UNL A   1      36.051  22.338  25.296  1.00  0.00     0.161 A 
ATOM     18  C   UNL A   1      36.156  22.441  23.915  1.00  0.00     0.051 A 
ATOM     19  C   UNL A   1      35.110  23.130  25.993  1.00  0.00     0.169 A 
ATOM     20  C   UNL A   1      35.336  23.323  23.235  1.00  0.00     0.020 A 
ATOM     21  C   UNL A   1      34.462  24.165  23.941  1.00  0.00     0.032 A 
ATOM     22  Br  UNL A   1      33.536  25.384  22.839  1.00  0.00    -0.050 Br
BRANCH  17  23
ATOM     23  O   UNL A   1      37.013  21.542  25.858  1.00  0.00    -0.493 OA
ATOM     24  C   UNL A   1      38.352  21.992  25.732  1.00  0.00     0.278 C 
ENDBRANCH  17  23
BRANCH  19  25
ATOM     25  O   UNL A   1      34.977  22.933  27.339  1.00  0.00    -0.504 OA
ATOM     26  H   UNL A   1      34.973  22.062  27.687  1.00  0.00     0.293 HD
ENDBRANCH  19  25
ENDBRANCH  10  16
ENDBRANCH   7   9
ENDBRANCH   6   7
ENDBRANCH   5   6
ENDBRANCH   4   5
ENDBRANCH   3   4
ENDBRANCH   2   3
ENDBRANCH   1   2
BRANCH   1  27
ATOM     27  O   UNL A   1      35.408  32.885  31.289  1.00  0.00    -0.376 OA
BRANCH  27  28
ATOM     28  C   UNL A   1      34.577  33.079  32.411  1.00  0.00     0.202 C 
BRANCH  28  29
ATOM     29  C   UNL A   1      35.214  33.163  33.802  1.00  0.00     0.261 C 
BRANCH  29  30
ATOM     30  O   UNL A   1      36.372  32.349  34.035  1.00  0.00    -0.460 OA
BRANCH  30  31
ATOM     31  C   UNL A   1      37.292  32.811  34.912  1.00  0.00     0.338 C 
ATOM     32  O   UNL A   1      37.211  32.809  36.133  1.00  0.00    -0.246 OA
BRANCH  31  33
ATOM     33  C   UNL A   1      38.510  33.156  34.145  1.00  0.00     0.060 A 
ATOM     34  C   UNL A   1      38.419  34.022  33.046  1.00  0.00     0.016 A 
ATOM     35  C   UNL A   1      39.745  32.627  34.525  1.00  0.00     0.016 A 
ATOM     36  C   UNL A   1      39.563  34.337  32.305  1.00  0.00     0.010 A 
ATOM     37  C   UNL A   1      40.883  32.930  33.773  1.00  0.00     0.010 A 
ATOM     38  C   UNL A   1      40.795  33.762  32.642  1.00  0.00    -0.014 A 
BRANCH  38  39
ATOM     39  C   UNL A   1      41.962  33.877  31.728  1.00  0.00     0.031 A 
ATOM     40  C   UNL A   1      42.220  32.761  30.751  1.00  0.00     0.074 A 
ATOM     41  C   UNL A   1      42.796  34.931  31.778  1.00  0.00     0.049 A 
ATOM     42  N   UNL A   1      43.223  32.590  29.930  1.00  0.00    -0.248 NA
ATOM     43  C   UNL A   1      41.212  31.688  30.705  1.00  0.00     0.031 C 
ATOM     44  C   UNL A   1      42.645  36.092  32.651  1.00  0.00     0.029 A 
ATOM     45  N   UNL A   1      43.956  35.181  31.083  1.00  0.00    -0.354 N 
ATOM     46  C   UNL A   1      42.976  31.385  29.280  1.00  0.00     0.074 A 
ATOM     47  C   UNL A   1      41.747  30.854  29.827  1.00  0.00     0.031 C 
ATOM     48  C   UNL A   1      43.686  36.921  32.458  1.00  0.00     0.029 A 
ATOM     49  C   UNL A   1      44.596  36.332  31.476  1.00  0.00     0.049 A 
ATOM     50  H   UNL A   1      44.295  34.591  30.372  1.00  0.00     0.167 HD
ATOM     51  C   UNL A   1      43.706  30.775  28.315  1.00  0.00     0.031 A 
ATOM     52  C   UNL A   1      45.794  36.837  31.113  1.00  0.00     0.031 A 
ATOM     53  C   UNL A   1      44.943  31.293  27.790  1.00  0.00     0.049 A 
ATOM     54  C   UNL A   1      46.629  36.107  30.091  1.00  0.00     0.074 A 
ATOM     55  C   UNL A   1      45.747  30.758  26.800  1.00  0.00     0.029 A 
ATOM     56  N   UNL A   1      45.564  32.455  28.225  1.00  0.00    -0.354 N 
ATOM     57  N   UNL A   1      46.367  34.986  29.458  1.00  0.00    -0.248 NA
ATOM     58  C   UNL A   1      47.916  36.714  29.725  1.00  0.00     0.031 C 
ATOM     59  C   UNL A   1      46.887  31.560  26.682  1.00  0.00     0.029 A 
ATOM     60  C   UNL A   1      46.757  32.637  27.545  1.00  0.00     0.049 A 
ATOM     61  H   UNL A   1      45.210  33.060  28.916  1.00  0.00     0.167 HD
ATOM     62  C   UNL A   1      47.443  34.772  28.601  1.00  0.00     0.074 A 
ATOM     63  C   UNL A   1      48.351  35.886  28.785  1.00  0.00     0.031 C 
ATOM     64  C   UNL A   1      47.658  33.747  27.737  1.00  0.00     0.031 A 
BRANCH  51  65
ATOM     65  C   UNL A   1      43.200  29.453  27.797  1.00  0.00    -0.014 A 
ATOM     66  C   UNL A   1      42.357  29.379  26.672  1.00  0.00     0.010 A 
ATOM     67  C   UNL A   1      43.585  28.261  28.439  1.00  0.00     0.010 A 
ATOM     68  C   UNL A   1      41.867  28.146  26.233  1.00  0.00     0.020 A 
ATOM     69  C   UNL A   1      43.125  27.023  27.982  1.00  0.00     0.020 A 
ATOM     70  C   UNL A   1      42.250  26.976  26.895  1.00  0.00     0.054 A 
BRANCH  70  71
ATOM     71  S   UNL A   1      41.599  25.390  26.304  1.00  0.00     0.124 S 
ATOM     72  O   UNL A   1      42.398  25.167  25.101  1.00  0.00    -0.237 OA
ATOM     73  O   UNL A   1      41.882  24.492  27.420  1.00  0.00    -0.237 OA
ATOM     74  O   UNL A   1      40.183  25.661  26.067  1.00  0.00    -0.744 OA
ENDBRANCH  70  71
ENDBRANCH  51  65
BRANCH  52  75
ATOM     75  C   UNL A   1      46.291  38.090  31.747  1.00  0.00    -0.014 A 
ATOM     76  C   UNL A   1      47.073  38.049  32.915  1.00  0.00     0.010 A 
ATOM     77  C   UNL A   1      45.993  39.340  31.172  1.00  0.00     0.010 A 
ATOM     78  C   UNL A   1      47.537  39.232  33.500  1.00  0.00     0.020 A 
ATOM     79  C   UNL A   1      46.481  40.522  31.735  1.00  0.00     0.020 A 
ATOM     80  C   UNL A   1      47.245  40.461  32.902  1.00  0.00     0.054 A 
BRANCH  80  81
ATOM     81  S   UNL A   1      47.919  41.975  33.640  1.00  0.00     0.124 S 
ATOM     82  O   UNL A   1      49.307  41.600  33.894  1.00  0.00    -0.237 OA
ATOM     83  O   UNL A   1      47.714  42.958  32.579  1.00  0.00    -0.237 OA
ATOM     84  O   UNL A   1      47.096  42.173  34.831  1.00  0.00    -0.744 OA
ENDBRANCH  80  81
ENDBRANCH  52  75
BRANCH  64  85
ATOM     85  C   UNL A   1      48.903  33.794  26.886  1.00  0.00    -0.014 A 
ATOM     86  C   UNL A   1      49.983  32.920  27.109  1.00  0.00     0.010 A 
ATOM     87  C   UNL A   1      48.966  34.691  25.803  1.00  0.00     0.010 A 
ATOM     88  C   UNL A   1      51.112  32.966  26.286  1.00  0.00     0.020 A 
ATOM     89  C   UNL A   1      50.079  34.717  24.957  1.00  0.00     0.020 A 
ATOM     90  C   UNL A   1      51.152  33.863  25.214  1.00  0.00     0.054 A 
BRANCH  90  91
ATOM     91  S   UNL A   1      52.611  33.870  24.134  1.00  0.00     0.124 S 
ATOM     92  O   UNL A   1      52.657  35.262  23.695  1.00  0.00    -0.237 OA
ATOM     93  O   UNL A   1      53.681  33.461  25.041  1.00  0.00    -0.237 OA
ATOM     94  O   UNL A   1      52.278  32.900  23.094  1.00  0.00    -0.744 OA
ENDBRANCH  90  91
ENDBRANCH  64  85
ENDBRANCH  38  39
ENDBRANCH  31  33
ENDBRANCH  30  31
ENDBRANCH  29  30
ENDBRANCH  28  29
ENDBRANCH  27  28
ENDBRANCH   1  27
TORSDOF 23
ENDMDL
