MODEL 1
REMARK VINA RESULT:      -8.9      0.000      0.000
REMARK SMILES O=C(CCC(=O)OCCOCCOCCOC(=O)c1ccc(-c2c3nc(c(-c4ccc(S(=O)(=O)[O-])cc4)c4ccc([nH]4)c(-c4ccc(S(=O)(=O)[O-])cc4)c4nc(c(-c5ccc(S(=O)(=O)[O-])cc5)c5ccc2[nH]5)C=C4)C=C3)cc1)Nc1ccc(C(=O)N2CCOCC2)cc1
REMARK SMILES IDX 11 1 10 2 9 3 8 4 7 5 5 6 6 7 4 8 3 9 2 10 1 11 79 12 80 14
REMARK SMILES IDX 81 15 93 16 82 17 92 18 83 19 84 20 85 21 86 22 87 23 91 24
REMARK SMILES IDX 88 25 90 26 89 27 12 28 13 29 14 30 15 31 16 32 17 33 18 34
REMARK SMILES IDX 19 35 20 36 78 37 21 38 77 39 22 40 23 41 24 42 71 43 25 44
REMARK SMILES IDX 76 45 70 46 72 47 26 48 75 49 69 50 68 51 27 53 57 54 38 55
REMARK SMILES IDX 56 56 39 57 42 58 55 59 73 60 40 61 41 62 54 64 74 65 43 66
REMARK SMILES IDX 28 67 29 68 37 69 30 70 36 71 31 72 32 73 33 74 34 75 35 76
REMARK SMILES IDX 58 77 59 78 67 79 60 80 66 81 61 82 62 83 63 84 64 85 65 86
REMARK SMILES IDX 44 87 45 88 53 89 46 90 52 91 47 92 48 93 49 94 50 95 51 96
REMARK H PARENT 79 13 72 52 42 63
REMARK Flexibility Score: inf
ROOT
ATOM      1  C   UNL A   1      36.458  23.650  26.286  1.00  0.00     0.188 C 
ENDROOT
BRANCH   1   2
ATOM      2  O   UNL A   1      35.779  24.006  25.085  1.00  0.00    -0.376 OA
BRANCH   2   3
ATOM      3  C   UNL A   1      34.569  23.302  24.805  1.00  0.00     0.202 C 
BRANCH   3   4
ATOM      4  C   UNL A   1      34.337  22.966  23.325  1.00  0.00     0.261 C 
BRANCH   4   5
ATOM      5  O   UNL A   1      33.181  23.642  22.764  1.00  0.00    -0.463 OA
BRANCH   5   6
ATOM      6  C   UNL A   1      33.267  24.996  22.670  1.00  0.00     0.306 C 
ATOM      7  O   UNL A   1      34.081  25.580  21.964  1.00  0.00    -0.252 OA
BRANCH   6   8
ATOM      8  C   UNL A   1      32.202  25.757  23.444  1.00  0.00     0.132 C 
BRANCH   8   9
ATOM      9  C   UNL A   1      32.443  26.284  24.854  1.00  0.00     0.112 C 
BRANCH   9  10
ATOM     10  C   UNL A   1      32.890  27.725  24.963  1.00  0.00     0.224 C 
ATOM     11  O   UNL A   1      33.226  28.363  23.969  1.00  0.00    -0.275 OA
ATOM     12  N   UNL A   1      32.859  28.199  26.255  1.00  0.00    -0.326 N 
ATOM     13  H   UNL A   1      32.616  27.554  26.958  1.00  0.00     0.169 HD
BRANCH  12  14
ATOM     14  C   UNL A   1      33.140  29.503  26.668  1.00  0.00     0.041 A 
ATOM     15  C   UNL A   1      32.171  30.482  26.435  1.00  0.00     0.027 A 
ATOM     16  C   UNL A   1      34.332  29.844  27.291  1.00  0.00     0.027 A 
ATOM     17  C   UNL A   1      32.360  31.784  26.901  1.00  0.00     0.016 A 
ATOM     18  C   UNL A   1      34.530  31.149  27.734  1.00  0.00     0.016 A 
ATOM     19  C   UNL A   1      33.542  32.127  27.566  1.00  0.00     0.040 A 
BRANCH  19  20
ATOM     20  C   UNL A   1      33.607  33.450  28.259  1.00  0.00     0.254 C 
ATOM     21  O   UNL A   1      32.658  34.225  28.167  1.00  0.00    -0.269 OA
ATOM     22  N   UNL A   1      34.631  33.652  29.163  1.00  0.00    -0.334 N 
ATOM     23  C   UNL A   1      36.058  33.650  28.842  1.00  0.00     0.148 C 
ATOM     24  C   UNL A   1      34.307  34.116  30.502  1.00  0.00     0.148 C 
ATOM     25  C   UNL A   1      36.868  32.947  29.943  1.00  0.00     0.181 C 
ATOM     26  C   UNL A   1      35.109  33.282  31.503  1.00  0.00     0.181 C 
ATOM     27  O   UNL A   1      36.521  33.426  31.255  1.00  0.00    -0.378 OA
ENDBRANCH  19  20
ENDBRANCH  12  14
ENDBRANCH   9  10
ENDBRANCH   8   9
ENDBRANCH   6   8
ENDBRANCH   5   6
ENDBRANCH   4   5
ENDBRANCH   3   4
ENDBRANCH   2   3
ENDBRANCH   1   2
BRANCH   1  28
ATOM     28  C   UNL A   1      37.939  24.026  26.316  1.00  0.00     0.188 C 
BRANCH  28  29
ATOM     29  O   UNL A   1      38.865  22.955  26.201  1.00  0.00    -0.376 OA
BRANCH  29  30
ATOM     30  C   UNL A   1      38.381  21.784  25.523  1.00  0.00     0.202 C 
BRANCH  30  31
ATOM     31  C   UNL A   1      39.233  20.491  25.613  1.00  0.00     0.261 C 
BRANCH  31  32
ATOM     32  O   UNL A   1      40.269  20.452  26.621  1.00  0.00    -0.460 OA
BRANCH  32  33
ATOM     33  C   UNL A   1      41.543  20.213  26.217  1.00  0.00     0.338 C 
ATOM     34  O   UNL A   1      41.923  19.248  25.592  1.00  0.00    -0.246 OA
BRANCH  33  35
ATOM     35  C   UNL A   1      42.340  21.469  26.392  1.00  0.00     0.060 A 
ATOM     36  C   UNL A   1      43.181  21.560  27.513  1.00  0.00     0.016 A 
ATOM     37  C   UNL A   1      42.347  22.498  25.446  1.00  0.00     0.016 A 
ATOM     38  C   UNL A   1      43.993  22.683  27.710  1.00  0.00     0.010 A 
ATOM     39  C   UNL A   1      43.146  23.634  25.656  1.00  0.00     0.010 A 
ATOM     40  C   UNL A   1      43.950  23.750  26.805  1.00  0.00    -0.014 A 
BRANCH  40  41
ATOM     41  C   UNL A   1      44.568  25.058  27.164  1.00  0.00     0.031 A 
ATOM     42  C   UNL A   1      43.754  26.021  27.993  1.00  0.00     0.074 A 
ATOM     43  C   UNL A   1      45.819  25.396  26.793  1.00  0.00     0.049 A 
ATOM     44  N   UNL A   1      44.046  27.233  28.388  1.00  0.00    -0.248 NA
ATOM     45  C   UNL A   1      42.430  25.550  28.431  1.00  0.00     0.031 C 
ATOM     46  C   UNL A   1      46.742  24.550  26.040  1.00  0.00     0.029 A 
ATOM     47  N   UNL A   1      46.526  26.559  27.001  1.00  0.00    -0.354 N 
ATOM     48  C   UNL A   1      42.937  27.676  29.101  1.00  0.00     0.074 A 
ATOM     49  C   UNL A   1      41.959  26.611  29.067  1.00  0.00     0.031 C 
ATOM     50  C   UNL A   1      47.888  25.226  25.838  1.00  0.00     0.029 A 
ATOM     51  C   UNL A   1      47.770  26.567  26.412  1.00  0.00     0.049 A 
ATOM     52  H   UNL A   1      46.174  27.315  27.524  1.00  0.00     0.167 HD
ATOM     53  C   UNL A   1      42.744  28.862  29.725  1.00  0.00     0.031 A 
ATOM     54  C   UNL A   1      48.695  27.547  26.323  1.00  0.00     0.031 A 
ATOM     55  C   UNL A   1      43.710  29.927  29.758  1.00  0.00     0.049 A 
ATOM     56  C   UNL A   1      48.425  28.890  26.962  1.00  0.00     0.074 A 
ATOM     57  C   UNL A   1      43.612  31.152  30.395  1.00  0.00     0.029 A 
ATOM     58  N   UNL A   1      44.939  29.905  29.121  1.00  0.00    -0.354 N 
ATOM     59  N   UNL A   1      47.386  29.277  27.665  1.00  0.00    -0.248 NA
ATOM     60  C   UNL A   1      49.457  29.927  26.801  1.00  0.00     0.031 C 
ATOM     61  C   UNL A   1      44.751  31.900  30.081  1.00  0.00     0.029 A 
ATOM     62  C   UNL A   1      45.593  31.110  29.315  1.00  0.00     0.049 A 
ATOM     63  H   UNL A   1      45.295  29.146  28.605  1.00  0.00     0.167 HD
ATOM     64  C   UNL A   1      47.658  30.587  28.056  1.00  0.00     0.074 A 
ATOM     65  C   UNL A   1      48.963  30.921  27.526  1.00  0.00     0.031 C 
ATOM     66  C   UNL A   1      46.897  31.434  28.793  1.00  0.00     0.031 A 
BRANCH  53  67
ATOM     67  C   UNL A   1      41.412  29.095  30.389  1.00  0.00    -0.014 A 
ATOM     68  C   UNL A   1      40.320  29.628  29.683  1.00  0.00     0.010 A 
ATOM     69  C   UNL A   1      41.239  28.718  31.734  1.00  0.00     0.010 A 
ATOM     70  C   UNL A   1      39.088  29.809  30.318  1.00  0.00     0.020 A 
ATOM     71  C   UNL A   1      40.002  28.869  32.364  1.00  0.00     0.020 A 
ATOM     72  C   UNL A   1      38.937  29.426  31.655  1.00  0.00     0.054 A 
BRANCH  72  73
ATOM     73  S   UNL A   1      37.317  29.638  32.442  1.00  0.00     0.124 S 
ATOM     74  O   UNL A   1      36.427  29.698  31.285  1.00  0.00    -0.237 OA
ATOM     75  O   UNL A   1      37.201  28.434  33.261  1.00  0.00    -0.237 OA
ATOM     76  O   UNL A   1      37.452  30.886  33.187  1.00  0.00    -0.744 OA
ENDBRANCH  72  73
ENDBRANCH  53  67
BRANCH  54  77
ATOM     77  C   UNL A   1      49.963  27.324  25.564  1.00  0.00    -0.014 A 
ATOM     78  C   UNL A   1      51.077  26.721  26.175  1.00  0.00     0.010 A 
ATOM     79  C   UNL A   1      50.074  27.759  24.230  1.00  0.00     0.010 A 
ATOM     80  C   UNL A   1      52.282  26.580  25.478  1.00  0.00     0.020 A 
ATOM     81  C   UNL A   1      51.266  27.589  23.518  1.00  0.00     0.020 A 
ATOM     82  C   UNL A   1      52.368  27.015  24.152  1.00  0.00     0.054 A 
BRANCH  82  83
ATOM     83  S   UNL A   1      53.930  26.791  23.257  1.00  0.00     0.124 S 
ATOM     84  O   UNL A   1      54.776  26.169  24.269  1.00  0.00    -0.237 OA
ATOM     85  O   UNL A   1      53.535  25.930  22.145  1.00  0.00    -0.237 OA
ATOM     86  O   UNL A   1      54.305  28.152  22.877  1.00  0.00    -0.744 OA
ENDBRANCH  82  83
ENDBRANCH  54  77
BRANCH  66  87
ATOM     87  C   UNL A   1      47.464  32.794  29.120  1.00  0.00    -0.014 A 
ATOM     88  C   UNL A   1      47.213  33.913  28.309  1.00  0.00     0.010 A 
ATOM     89  C   UNL A   1      48.207  32.963  30.305  1.00  0.00     0.010 A 
ATOM     90  C   UNL A   1      47.720  35.170  28.658  1.00  0.00     0.020 A 
ATOM     91  C   UNL A   1      48.688  34.222  30.674  1.00  0.00     0.020 A 
ATOM     92  C   UNL A   1      48.453  35.316  29.841  1.00  0.00     0.054 A 
BRANCH  92  93
ATOM     93  S   UNL A   1      49.060  36.964  30.294  1.00  0.00     0.124 S 
ATOM     94  O   UNL A   1      49.917  36.670  31.440  1.00  0.00    -0.237 OA
ATOM     95  O   UNL A   1      49.756  37.393  29.083  1.00  0.00    -0.237 OA
ATOM     96  O   UNL A   1      47.843  37.711  30.603  1.00  0.00    -0.744 OA
ENDBRANCH  92  93
ENDBRANCH  66  87
ENDBRANCH  40  41
ENDBRANCH  33  35
ENDBRANCH  32  33
ENDBRANCH  31  32
ENDBRANCH  30  31
ENDBRANCH  29  30
ENDBRANCH  28  29
ENDBRANCH   1  28
TORSDOF 24
ENDMDL
MODEL 2
REMARK VINA RESULT:      -8.6      1.798      8.098
REMARK SMILES O=C(CCC(=O)OCCOCCOCCOC(=O)c1ccc(-c2c3nc(c(-c4ccc(S(=O)(=O)[O-])cc4)c4ccc([nH]4)c(-c4ccc(S(=O)(=O)[O-])cc4)c4nc(c(-c5ccc(S(=O)(=O)[O-])cc5)c5ccc2[nH]5)C=C4)C=C3)cc1)Nc1ccc(C(=O)N2CCOCC2)cc1
REMARK SMILES IDX 11 1 10 2 9 3 8 4 7 5 5 6 6 7 4 8 3 9 2 10 1 11 79 12 80 14
REMARK SMILES IDX 81 15 93 16 82 17 92 18 83 19 84 20 85 21 86 22 87 23 91 24
REMARK SMILES IDX 88 25 90 26 89 27 12 28 13 29 14 30 15 31 16 32 17 33 18 34
REMARK SMILES IDX 19 35 20 36 78 37 21 38 77 39 22 40 23 41 24 42 71 43 25 44
REMARK SMILES IDX 76 45 70 46 72 47 26 48 75 49 69 50 68 51 27 53 57 54 38 55
REMARK SMILES IDX 56 56 39 57 42 58 55 59 73 60 40 61 41 62 54 64 74 65 43 66
REMARK SMILES IDX 28 67 29 68 37 69 30 70 36 71 31 72 32 73 33 74 34 75 35 76
REMARK SMILES IDX 58 77 59 78 67 79 60 80 66 81 61 82 62 83 63 84 64 85 65 86
REMARK SMILES IDX 44 87 45 88 53 89 46 90 52 91 47 92 48 93 49 94 50 95 51 96
REMARK H PARENT 79 13 72 52 42 63
REMARK Flexibility Score: inf
ROOT
ATOM      1  C   UNL A   1      35.472  22.691  25.118  1.00  0.00     0.188 C 
ENDROOT
BRANCH   1   2
ATOM      2  O   UNL A   1      34.310  22.634  25.939  1.00  0.00    -0.376 OA
BRANCH   2   3
ATOM      3  C   UNL A   1      33.134  22.089  25.342  1.00  0.00     0.202 C 
BRANCH   3   4
ATOM      4  C   UNL A   1      33.258  21.746  23.850  1.00  0.00     0.261 C 
BRANCH   4   5
ATOM      5  O   UNL A   1      32.330  22.490  23.018  1.00  0.00    -0.463 OA
BRANCH   5   6
ATOM      6  C   UNL A   1      32.622  23.804  22.823  1.00  0.00     0.306 C 
ATOM      7  O   UNL A   1      33.693  24.207  22.383  1.00  0.00    -0.252 OA
BRANCH   6   8
ATOM      8  C   UNL A   1      31.475  24.761  23.106  1.00  0.00     0.132 C 
BRANCH   8   9
ATOM      9  C   UNL A   1      30.654  24.689  24.389  1.00  0.00     0.112 C 
BRANCH   9  10
ATOM     10  C   UNL A   1      30.868  25.808  25.385  1.00  0.00     0.224 C 
ATOM     11  O   UNL A   1      30.301  25.806  26.474  1.00  0.00    -0.275 OA
ATOM     12  N   UNL A   1      31.745  26.768  24.932  1.00  0.00    -0.326 N 
ATOM     13  H   UNL A   1      32.083  26.661  24.014  1.00  0.00     0.169 HD
BRANCH  12  14
ATOM     14  C   UNL A   1      32.202  27.877  25.646  1.00  0.00     0.041 A 
ATOM     15  C   UNL A   1      33.229  27.678  26.572  1.00  0.00     0.027 A 
ATOM     16  C   UNL A   1      31.674  29.147  25.462  1.00  0.00     0.027 A 
ATOM     17  C   UNL A   1      33.782  28.764  27.253  1.00  0.00     0.016 A 
ATOM     18  C   UNL A   1      32.211  30.226  26.159  1.00  0.00     0.016 A 
ATOM     19  C   UNL A   1      33.283  30.053  27.043  1.00  0.00     0.040 A 
BRANCH  19  20
ATOM     20  C   UNL A   1      34.052  31.209  27.596  1.00  0.00     0.254 C 
ATOM     21  O   UNL A   1      33.518  32.314  27.658  1.00  0.00    -0.269 OA
ATOM     22  N   UNL A   1      35.249  30.939  28.229  1.00  0.00    -0.334 N 
ATOM     23  C   UNL A   1      36.427  30.344  27.598  1.00  0.00     0.148 C 
ATOM     24  C   UNL A   1      35.474  31.466  29.565  1.00  0.00     0.148 C 
ATOM     25  C   UNL A   1      37.107  29.340  28.542  1.00  0.00     0.181 C 
ATOM     26  C   UNL A   1      36.069  30.348  30.425  1.00  0.00     0.181 C 
ATOM     27  O   UNL A   1      37.311  29.890  29.856  1.00  0.00    -0.378 OA
ENDBRANCH  19  20
ENDBRANCH  12  14
ENDBRANCH   9  10
ENDBRANCH   8   9
ENDBRANCH   6   8
ENDBRANCH   5   6
ENDBRANCH   4   5
ENDBRANCH   3   4
ENDBRANCH   2   3
ENDBRANCH   1   2
BRANCH   1  28
ATOM     28  C   UNL A   1      36.565  23.632  25.623  1.00  0.00     0.188 C 
BRANCH  28  29
ATOM     29  O   UNL A   1      37.865  23.075  25.759  1.00  0.00    -0.376 OA
BRANCH  29  30
ATOM     30  C   UNL A   1      37.992  21.692  25.388  1.00  0.00     0.202 C 
BRANCH  30  31
ATOM     31  C   UNL A   1      39.183  20.892  25.974  1.00  0.00     0.261 C 
BRANCH  31  32
ATOM     32  O   UNL A   1      39.926  21.507  27.051  1.00  0.00    -0.460 OA
BRANCH  32  33
ATOM     33  C   UNL A   1      41.275  21.600  26.924  1.00  0.00     0.338 C 
ATOM     34  O   UNL A   1      41.992  20.806  26.355  1.00  0.00    -0.246 OA
BRANCH  33  35
ATOM     35  C   UNL A   1      41.697  22.980  27.322  1.00  0.00     0.060 A 
ATOM     36  C   UNL A   1      41.456  24.025  26.415  1.00  0.00     0.016 A 
ATOM     37  C   UNL A   1      42.230  23.275  28.580  1.00  0.00     0.016 A 
ATOM     38  C   UNL A   1      41.777  25.347  26.745  1.00  0.00     0.010 A 
ATOM     39  C   UNL A   1      42.572  24.598  28.901  1.00  0.00     0.010 A 
ATOM     40  C   UNL A   1      42.378  25.640  27.975  1.00  0.00    -0.014 A 
BRANCH  40  41
ATOM     41  C   UNL A   1      42.995  26.977  28.204  1.00  0.00     0.031 A 
ATOM     42  C   UNL A   1      44.449  27.157  27.841  1.00  0.00     0.074 A 
ATOM     43  C   UNL A   1      42.303  28.021  28.700  1.00  0.00     0.049 A 
ATOM     44  N   UNL A   1      45.222  28.200  27.992  1.00  0.00    -0.248 NA
ATOM     45  C   UNL A   1      45.118  25.998  27.226  1.00  0.00     0.031 C 
ATOM     46  C   UNL A   1      40.882  28.015  29.045  1.00  0.00     0.029 A 
ATOM     47  N   UNL A   1      42.714  29.299  29.007  1.00  0.00    -0.354 N 
ATOM     48  C   UNL A   1      46.471  27.818  27.514  1.00  0.00     0.074 A 
ATOM     49  C   UNL A   1      46.357  26.442  27.085  1.00  0.00     0.031 C 
ATOM     50  C   UNL A   1      40.544  29.225  29.527  1.00  0.00     0.029 A 
ATOM     51  C   UNL A   1      41.729  30.083  29.563  1.00  0.00     0.049 A 
ATOM     52  H   UNL A   1      43.630  29.622  28.843  1.00  0.00     0.167 HD
ATOM     53  C   UNL A   1      47.613  28.542  27.439  1.00  0.00     0.031 A 
ATOM     54  C   UNL A   1      41.781  31.335  30.067  1.00  0.00     0.031 A 
ATOM     55  C   UNL A   1      47.735  29.910  27.868  1.00  0.00     0.049 A 
ATOM     56  C   UNL A   1      43.087  32.096  30.043  1.00  0.00     0.074 A 
ATOM     57  C   UNL A   1      48.846  30.732  27.800  1.00  0.00     0.029 A 
ATOM     58  N   UNL A   1      46.724  30.651  28.455  1.00  0.00    -0.354 N 
ATOM     59  N   UNL A   1      44.247  31.732  29.552  1.00  0.00    -0.248 NA
ATOM     60  C   UNL A   1      43.086  33.443  30.638  1.00  0.00     0.031 C 
ATOM     61  C   UNL A   1      48.528  31.947  28.414  1.00  0.00     0.029 A 
ATOM     62  C   UNL A   1      47.195  31.909  28.791  1.00  0.00     0.049 A 
ATOM     63  H   UNL A   1      45.806  30.331  28.612  1.00  0.00     0.167 HD
ATOM     64  C   UNL A   1      45.101  32.816  29.747  1.00  0.00     0.074 A 
ATOM     65  C   UNL A   1      44.321  33.854  30.387  1.00  0.00     0.031 C 
ATOM     66  C   UNL A   1      46.412  32.942  29.421  1.00  0.00     0.031 A 
BRANCH  53  67
ATOM     67  C   UNL A   1      48.846  27.854  26.913  1.00  0.00    -0.014 A 
ATOM     68  C   UNL A   1      49.133  27.806  25.538  1.00  0.00     0.010 A 
ATOM     69  C   UNL A   1      49.761  27.294  27.824  1.00  0.00     0.010 A 
ATOM     70  C   UNL A   1      50.299  27.182  25.082  1.00  0.00     0.020 A 
ATOM     71  C   UNL A   1      50.941  26.697  27.374  1.00  0.00     0.020 A 
ATOM     72  C   UNL A   1      51.196  26.634  26.004  1.00  0.00     0.054 A 
BRANCH  72  73
ATOM     73  S   UNL A   1      52.717  25.865  25.384  1.00  0.00     0.124 S 
ATOM     74  O   UNL A   1      52.651  26.176  23.958  1.00  0.00    -0.237 OA
ATOM     75  O   UNL A   1      53.756  26.567  26.132  1.00  0.00    -0.237 OA
ATOM     76  O   UNL A   1      52.556  24.453  25.719  1.00  0.00    -0.744 OA
ENDBRANCH  72  73
ENDBRANCH  53  67
BRANCH  54  77
ATOM     77  C   UNL A   1      40.568  31.953  30.682  1.00  0.00    -0.014 A 
ATOM     78  C   UNL A   1      40.206  31.671  32.012  1.00  0.00     0.010 A 
ATOM     79  C   UNL A   1      39.740  32.799  29.920  1.00  0.00     0.010 A 
ATOM     80  C   UNL A   1      39.031  32.199  32.558  1.00  0.00     0.020 A 
ATOM     81  C   UNL A   1      38.583  33.356  30.471  1.00  0.00     0.020 A 
ATOM     82  C   UNL A   1      38.227  33.041  31.783  1.00  0.00     0.054 A 
BRANCH  82  83
ATOM     83  S   UNL A   1      36.725  33.742  32.522  1.00  0.00     0.124 S 
ATOM     84  O   UNL A   1      36.183  32.601  33.252  1.00  0.00    -0.237 OA
ATOM     85  O   UNL A   1      37.256  34.826  33.345  1.00  0.00    -0.237 OA
ATOM     86  O   UNL A   1      35.944  34.174  31.365  1.00  0.00    -0.744 OA
ENDBRANCH  82  83
ENDBRANCH  54  77
BRANCH  66  87
ATOM     87  C   UNL A   1      47.088  34.262  29.699  1.00  0.00    -0.014 A 
ATOM     88  C   UNL A   1      47.114  35.293  28.744  1.00  0.00     0.010 A 
ATOM     89  C   UNL A   1      47.649  34.495  30.969  1.00  0.00     0.010 A 
ATOM     90  C   UNL A   1      47.715  36.522  29.044  1.00  0.00     0.020 A 
ATOM     91  C   UNL A   1      48.221  35.731  31.284  1.00  0.00     0.020 A 
ATOM     92  C   UNL A   1      48.262  36.732  30.313  1.00  0.00     0.054 A 
BRANCH  92  93
ATOM     93  S   UNL A   1      48.994  38.348  30.692  1.00  0.00     0.124 S 
ATOM     94  O   UNL A   1      50.319  38.233  30.089  1.00  0.00    -0.237 OA
ATOM     95  O   UNL A   1      48.081  39.277  30.029  1.00  0.00    -0.237 OA
ATOM     96  O   UNL A   1      48.978  38.405  32.152  1.00  0.00    -0.744 OA
ENDBRANCH  92  93
ENDBRANCH  66  87
ENDBRANCH  40  41
ENDBRANCH  33  35
ENDBRANCH  32  33
ENDBRANCH  31  32
ENDBRANCH  30  31
ENDBRANCH  29  30
ENDBRANCH  28  29
ENDBRANCH   1  28
TORSDOF 24
ENDMDL
MODEL 3
REMARK VINA RESULT:      -8.0      3.362      9.194
REMARK SMILES O=C(CCC(=O)OCCOCCOCCOC(=O)c1ccc(-c2c3nc(c(-c4ccc(S(=O)(=O)[O-])cc4)c4ccc([nH]4)c(-c4ccc(S(=O)(=O)[O-])cc4)c4nc(c(-c5ccc(S(=O)(=O)[O-])cc5)c5ccc2[nH]5)C=C4)C=C3)cc1)Nc1ccc(C(=O)N2CCOCC2)cc1
REMARK SMILES IDX 11 1 10 2 9 3 8 4 7 5 5 6 6 7 4 8 3 9 2 10 1 11 79 12 80 14
REMARK SMILES IDX 81 15 93 16 82 17 92 18 83 19 84 20 85 21 86 22 87 23 91 24
REMARK SMILES IDX 88 25 90 26 89 27 12 28 13 29 14 30 15 31 16 32 17 33 18 34
REMARK SMILES IDX 19 35 20 36 78 37 21 38 77 39 22 40 23 41 24 42 71 43 25 44
REMARK SMILES IDX 76 45 70 46 72 47 26 48 75 49 69 50 68 51 27 53 57 54 38 55
REMARK SMILES IDX 56 56 39 57 42 58 55 59 73 60 40 61 41 62 54 64 74 65 43 66
REMARK SMILES IDX 28 67 29 68 37 69 30 70 36 71 31 72 32 73 33 74 34 75 35 76
REMARK SMILES IDX 58 77 59 78 67 79 60 80 66 81 61 82 62 83 63 84 64 85 65 86
REMARK SMILES IDX 44 87 45 88 53 89 46 90 52 91 47 92 48 93 49 94 50 95 51 96
REMARK H PARENT 79 13 72 52 42 63
REMARK Flexibility Score: inf
ROOT
ATOM      1  C   UNL A   1      36.379  23.341  26.596  1.00  0.00     0.188 C 
ENDROOT
BRANCH   1   2
ATOM      2  O   UNL A   1      35.021  23.626  26.273  1.00  0.00    -0.376 OA
BRANCH   2   3
ATOM      3  C   UNL A   1      34.029  23.060  27.128  1.00  0.00     0.202 C 
BRANCH   3   4
ATOM      4  C   UNL A   1      34.143  21.544  27.346  1.00  0.00     0.261 C 
BRANCH   4   5
ATOM      5  O   UNL A   1      33.368  20.774  26.390  1.00  0.00    -0.463 OA
BRANCH   5   6
ATOM      6  C   UNL A   1      33.739  20.891  25.087  1.00  0.00     0.306 C 
ATOM      7  O   UNL A   1      34.758  20.394  24.621  1.00  0.00    -0.252 OA
BRANCH   6   8
ATOM      8  C   UNL A   1      32.737  21.617  24.202  1.00  0.00     0.132 C 
BRANCH   8   9
ATOM      9  C   UNL A   1      32.889  23.090  23.843  1.00  0.00     0.112 C 
BRANCH   9  10
ATOM     10  C   UNL A   1      31.629  23.809  23.415  1.00  0.00     0.224 C 
ATOM     11  O   UNL A   1      30.675  23.194  22.946  1.00  0.00    -0.275 OA
ATOM     12  N   UNL A   1      31.691  25.169  23.622  1.00  0.00    -0.326 N 
ATOM     13  H   UNL A   1      32.544  25.527  23.959  1.00  0.00     0.169 HD
BRANCH  12  14
ATOM     14  C   UNL A   1      30.665  26.089  23.400  1.00  0.00     0.041 A 
ATOM     15  C   UNL A   1      29.375  25.736  23.804  1.00  0.00     0.027 A 
ATOM     16  C   UNL A   1      30.890  27.322  22.804  1.00  0.00     0.027 A 
ATOM     17  C   UNL A   1      28.325  26.649  23.684  1.00  0.00     0.016 A 
ATOM     18  C   UNL A   1      29.838  28.223  22.663  1.00  0.00     0.016 A 
ATOM     19  C   UNL A   1      28.552  27.909  23.120  1.00  0.00     0.040 A 
BRANCH  19  20
ATOM     20  C   UNL A   1      27.474  28.939  23.232  1.00  0.00     0.254 C 
ATOM     21  O   UNL A   1      26.505  28.721  23.954  1.00  0.00    -0.269 OA
ATOM     22  N   UNL A   1      27.723  30.188  22.699  1.00  0.00    -0.334 N 
ATOM     23  C   UNL A   1      27.973  30.475  21.287  1.00  0.00     0.148 C 
ATOM     24  C   UNL A   1      27.519  31.362  23.533  1.00  0.00     0.148 C 
ATOM     25  C   UNL A   1      29.076  31.534  21.128  1.00  0.00     0.181 C 
ATOM     26  C   UNL A   1      28.721  32.292  23.351  1.00  0.00     0.181 C 
ATOM     27  O   UNL A   1      28.846  32.679  21.969  1.00  0.00    -0.378 OA
ENDBRANCH  19  20
ENDBRANCH  12  14
ENDBRANCH   9  10
ENDBRANCH   8   9
ENDBRANCH   6   8
ENDBRANCH   5   6
ENDBRANCH   4   5
ENDBRANCH   3   4
ENDBRANCH   2   3
ENDBRANCH   1   2
BRANCH   1  28
ATOM     28  C   UNL A   1      37.156  22.614  25.499  1.00  0.00     0.188 C 
BRANCH  28  29
ATOM     29  O   UNL A   1      38.557  22.485  25.699  1.00  0.00    -0.376 OA
BRANCH  29  30
ATOM     30  C   UNL A   1      39.003  21.200  26.163  1.00  0.00     0.202 C 
BRANCH  30  31
ATOM     31  C   UNL A   1      40.519  20.886  26.079  1.00  0.00     0.261 C 
BRANCH  31  32
ATOM     32  O   UNL A   1      41.415  21.760  26.803  1.00  0.00    -0.460 OA
BRANCH  32  33
ATOM     33  C   UNL A   1      42.255  22.551  26.085  1.00  0.00     0.338 C 
ATOM     34  O   UNL A   1      42.674  22.318  24.973  1.00  0.00    -0.246 OA
BRANCH  33  35
ATOM     35  C   UNL A   1      42.331  23.890  26.750  1.00  0.00     0.060 A 
ATOM     36  C   UNL A   1      42.372  25.028  25.928  1.00  0.00     0.016 A 
ATOM     37  C   UNL A   1      42.271  24.050  28.138  1.00  0.00     0.016 A 
ATOM     38  C   UNL A   1      42.391  26.312  26.484  1.00  0.00     0.010 A 
ATOM     39  C   UNL A   1      42.312  25.338  28.695  1.00  0.00     0.010 A 
ATOM     40  C   UNL A   1      42.405  26.478  27.874  1.00  0.00    -0.014 A 
BRANCH  40  41
ATOM     41  C   UNL A   1      42.732  27.807  28.464  1.00  0.00     0.031 A 
ATOM     42  C   UNL A   1      44.187  28.146  28.680  1.00  0.00     0.074 A 
ATOM     43  C   UNL A   1      41.786  28.710  28.789  1.00  0.00     0.049 A 
ATOM     44  N   UNL A   1      44.722  29.209  29.222  1.00  0.00    -0.248 NA
ATOM     45  C   UNL A   1      45.167  27.146  28.224  1.00  0.00     0.031 C 
ATOM     46  C   UNL A   1      40.347  28.546  28.588  1.00  0.00     0.029 A 
ATOM     47  N   UNL A   1      41.902  29.953  29.368  1.00  0.00    -0.354 N 
ATOM     48  C   UNL A   1      46.096  28.997  29.192  1.00  0.00     0.074 A 
ATOM     49  C   UNL A   1      46.311  27.697  28.597  1.00  0.00     0.031 C 
ATOM     50  C   UNL A   1      39.715  29.641  29.049  1.00  0.00     0.029 A 
ATOM     51  C   UNL A   1      40.696  30.569  29.613  1.00  0.00     0.049 A 
ATOM     52  H   UNL A   1      42.769  30.364  29.588  1.00  0.00     0.167 HD
ATOM     53  C   UNL A   1      47.093  29.807  29.622  1.00  0.00     0.031 A 
ATOM     54  C   UNL A   1      40.411  31.731  30.240  1.00  0.00     0.031 A 
ATOM     55  C   UNL A   1      46.886  31.099  30.220  1.00  0.00     0.049 A 
ATOM     56  C   UNL A   1      41.538  32.582  30.782  1.00  0.00     0.074 A 
ATOM     57  C   UNL A   1      47.840  32.002  30.656  1.00  0.00     0.029 A 
ATOM     58  N   UNL A   1      45.650  31.666  30.478  1.00  0.00    -0.354 N 
ATOM     59  N   UNL A   1      42.833  32.383  30.710  1.00  0.00    -0.248 NA
ATOM     60  C   UNL A   1      41.162  33.819  31.485  1.00  0.00     0.031 C 
ATOM     61  C   UNL A   1      47.178  33.083  31.246  1.00  0.00     0.029 A 
ATOM     62  C   UNL A   1      45.814  32.890  31.104  1.00  0.00     0.049 A 
ATOM     63  H   UNL A   1      44.782  31.259  30.251  1.00  0.00     0.167 HD
ATOM     64  C   UNL A   1      43.422  33.485  31.326  1.00  0.00     0.074 A 
ATOM     65  C   UNL A   1      42.345  34.354  31.751  1.00  0.00     0.031 C 
ATOM     66  C   UNL A   1      44.738  33.755  31.517  1.00  0.00     0.031 A 
BRANCH  53  67
ATOM     67  C   UNL A   1      48.506  29.299  29.508  1.00  0.00    -0.014 A 
ATOM     68  C   UNL A   1      49.109  28.559  30.541  1.00  0.00     0.010 A 
ATOM     69  C   UNL A   1      49.223  29.520  28.317  1.00  0.00     0.010 A 
ATOM     70  C   UNL A   1      50.414  28.078  30.397  1.00  0.00     0.020 A 
ATOM     71  C   UNL A   1      50.515  29.015  28.157  1.00  0.00     0.020 A 
ATOM     72  C   UNL A   1      51.107  28.308  29.204  1.00  0.00     0.054 A 
BRANCH  72  73
ATOM     73  S   UNL A   1      52.784  27.640  29.031  1.00  0.00     0.124 S 
ATOM     74  O   UNL A   1      52.776  27.163  27.650  1.00  0.00    -0.237 OA
ATOM     75  O   UNL A   1      53.622  28.809  29.287  1.00  0.00    -0.237 OA
ATOM     76  O   UNL A   1      52.849  26.594  30.048  1.00  0.00    -0.744 OA
ENDBRANCH  72  73
ENDBRANCH  53  67
BRANCH  54  77
ATOM     77  C   UNL A   1      38.994  32.158  30.436  1.00  0.00    -0.014 A 
ATOM     78  C   UNL A   1      38.223  31.647  31.496  1.00  0.00     0.010 A 
ATOM     79  C   UNL A   1      38.391  33.051  29.530  1.00  0.00     0.010 A 
ATOM     80  C   UNL A   1      36.875  31.998  31.631  1.00  0.00     0.020 A 
ATOM     81  C   UNL A   1      37.054  33.431  29.680  1.00  0.00     0.020 A 
ATOM     82  C   UNL A   1      36.300  32.891  30.722  1.00  0.00     0.054 A 
BRANCH  82  83
ATOM     83  S   UNL A   1      34.560  33.359  30.936  1.00  0.00     0.124 S 
ATOM     84  O   UNL A   1      34.660  34.789  31.209  1.00  0.00    -0.237 OA
ATOM     85  O   UNL A   1      33.976  33.000  29.646  1.00  0.00    -0.237 OA
ATOM     86  O   UNL A   1      34.120  32.535  32.061  1.00  0.00    -0.744 OA
ENDBRANCH  82  83
ENDBRANCH  54  77
BRANCH  66  87
ATOM     87  C   UNL A   1      45.104  35.065  32.172  1.00  0.00    -0.014 A 
ATOM     88  C   UNL A   1      45.147  36.267  31.445  1.00  0.00     0.010 A 
ATOM     89  C   UNL A   1      45.345  35.098  33.559  1.00  0.00     0.010 A 
ATOM     90  C   UNL A   1      45.452  37.473  32.087  1.00  0.00     0.020 A 
ATOM     91  C   UNL A   1      45.618  36.305  34.210  1.00  0.00     0.020 A 
ATOM     92  C   UNL A   1      45.684  37.483  33.466  1.00  0.00     0.054 A 
BRANCH  92  93
ATOM     93  S   UNL A   1      46.032  39.066  34.281  1.00  0.00     0.124 S 
ATOM     94  O   UNL A   1      44.799  39.811  34.044  1.00  0.00    -0.237 OA
ATOM     95  O   UNL A   1      46.269  38.667  35.667  1.00  0.00    -0.237 OA
ATOM     96  O   UNL A   1      47.209  39.569  33.575  1.00  0.00    -0.744 OA
ENDBRANCH  92  93
ENDBRANCH  66  87
ENDBRANCH  40  41
ENDBRANCH  33  35
ENDBRANCH  32  33
ENDBRANCH  31  32
ENDBRANCH  30  31
ENDBRANCH  29  30
ENDBRANCH  28  29
ENDBRANCH   1  28
TORSDOF 24
ENDMDL
