MODEL 1
REMARK VINA RESULT:     -10.4      0.000      0.000
REMARK SMILES Cc1c(Br)c(C)c2c(c1Br)O[C@H](C(F)(F)F)C(C(=O)OCCOCCOCCOC(=O)c1ccc(-c3c4nc(c(-c5ccc(S(=O)(=O)[O-])cc5)c5ccc([nH]5)c(-c5ccc(S(=O)(=O)[O-])cc5)c5nc(c(-c6ccc(S(=O)(=O)[O-])cc6)c6ccc3[nH]6)C=C5)C=C4)cc1)=C2
REMARK SMILES IDX 25 1 24 2 23 3 22 4 21 5 20 6 18 7 19 8 17 9 1 10 2 11 3 12
REMARK SMILES IDX 9 13 4 14 5 15 8 16 10 17 6 18 7 19 11 20 92 21 12 22 13 23
REMARK SMILES IDX 14 24 15 25 16 26 26 27 27 28 28 29 29 30 30 31 31 32 32 33
REMARK SMILES IDX 33 34 91 35 34 36 90 37 35 38 36 39 37 40 84 41 38 42 89 43
REMARK SMILES IDX 83 44 85 45 39 46 88 47 82 48 81 49 40 51 70 52 51 53 69 54
REMARK SMILES IDX 52 55 55 56 68 57 86 58 53 59 54 60 67 62 87 63 56 64 41 65
REMARK SMILES IDX 42 66 50 67 43 68 49 69 44 70 45 71 46 72 47 73 48 74 71 75
REMARK SMILES IDX 72 76 80 77 73 78 79 79 74 80 75 81 76 82 77 83 78 84 57 85
REMARK SMILES IDX 58 86 66 87 59 88 65 89 60 90 61 91 62 92 63 93 64 94
REMARK H PARENT 85 50 55 61
REMARK Flexibility Score: inf
ROOT
ATOM      1  C   UNL A   1      39.216  22.578  26.464  1.00  0.00     0.188 C 
ENDROOT
BRANCH   1   2
ATOM      2  C   UNL A   1      38.015  22.067  25.638  1.00  0.00     0.188 C 
BRANCH   2   3
ATOM      3  O   UNL A   1      37.103  22.971  25.049  1.00  0.00    -0.376 OA
BRANCH   3   4
ATOM      4  C   UNL A   1      36.215  23.749  25.833  1.00  0.00     0.202 C 
BRANCH   4   5
ATOM      5  C   UNL A   1      34.899  23.201  26.392  1.00  0.00     0.261 C 
BRANCH   5   6
ATOM      6  O   UNL A   1      33.749  24.013  26.130  1.00  0.00    -0.460 OA
BRANCH   6   7
ATOM      7  C   UNL A   1      33.617  24.407  24.841  1.00  0.00     0.338 C 
ATOM      8  O   UNL A   1      33.801  23.727  23.844  1.00  0.00    -0.246 OA
BRANCH   7   9
ATOM      9  C   UNL A   1      33.096  25.783  24.798  1.00  0.00     0.087 C 
ATOM     10  C   UNL A   1      31.125  31.842  26.152  1.00  0.00     0.047 C 
ATOM     11  C   UNL A   1      31.883  30.551  25.955  1.00  0.00    -0.019 A 
ATOM     12  C   UNL A   1      33.089  30.272  26.642  1.00  0.00     0.025 A 
ATOM     13  C   UNL A   1      31.409  29.594  25.033  1.00  0.00     0.064 A 
ATOM     14  Br  UNL A   1      33.845  31.622  27.779  1.00  0.00    -0.050 Br
ATOM     15  C   UNL A   1      33.749  29.024  26.500  1.00  0.00    -0.026 A 
ATOM     16  C   UNL A   1      32.038  28.345  24.893  1.00  0.00     0.142 A 
ATOM     17  Br  UNL A   1      29.878  29.964  23.937  1.00  0.00    -0.046 Br
ATOM     18  C   UNL A   1      35.044  28.705  27.222  1.00  0.00     0.046 C 
ATOM     19  C   UNL A   1      33.171  28.039  25.659  1.00  0.00     0.022 A 
ATOM     20  O   UNL A   1      31.495  27.479  23.979  1.00  0.00    -0.474 OA
ATOM     21  C   UNL A   1      33.697  26.676  25.594  1.00  0.00     0.027 C 
ATOM     22  C   UNL A   1      31.944  26.107  23.903  1.00  0.00     0.316 C 
BRANCH  22  23
ATOM     23  C   UNL A   1      30.736  25.187  24.130  1.00  0.00     0.430 C 
ATOM     24  F   UNL A   1      30.796  24.092  23.332  1.00  0.00    -0.167 F 
ATOM     25  F   UNL A   1      30.685  24.729  25.404  1.00  0.00    -0.167 F 
ATOM     26  F   UNL A   1      29.565  25.810  23.876  1.00  0.00    -0.167 F 
ENDBRANCH  22  23
ENDBRANCH   7   9
ENDBRANCH   6   7
ENDBRANCH   5   6
ENDBRANCH   4   5
ENDBRANCH   3   4
ENDBRANCH   2   3
ENDBRANCH   1   2
BRANCH   1  27
ATOM     27  O   UNL A   1      40.084  21.680  27.127  1.00  0.00    -0.376 OA
BRANCH  27  28
ATOM     28  C   UNL A   1      41.455  21.639  26.759  1.00  0.00     0.202 C 
BRANCH  28  29
ATOM     29  C   UNL A   1      42.127  22.827  26.064  1.00  0.00     0.261 C 
BRANCH  29  30
ATOM     30  O   UNL A   1      42.252  23.998  26.881  1.00  0.00    -0.460 OA
BRANCH  30  31
ATOM     31  C   UNL A   1      42.001  25.170  26.243  1.00  0.00     0.338 C 
ATOM     32  O   UNL A   1      41.981  25.366  25.041  1.00  0.00    -0.246 OA
BRANCH  31  33
ATOM     33  C   UNL A   1      41.552  26.171  27.226  1.00  0.00     0.060 A 
ATOM     34  C   UNL A   1      42.192  27.418  27.237  1.00  0.00     0.016 A 
ATOM     35  C   UNL A   1      40.550  25.875  28.151  1.00  0.00     0.016 A 
ATOM     36  C   UNL A   1      41.843  28.371  28.190  1.00  0.00     0.010 A 
ATOM     37  C   UNL A   1      40.221  26.823  29.125  1.00  0.00     0.010 A 
ATOM     38  C   UNL A   1      40.882  28.063  29.163  1.00  0.00    -0.014 A 
BRANCH  38  39
ATOM     39  C   UNL A   1      40.703  28.967  30.322  1.00  0.00     0.031 A 
ATOM     40  C   UNL A   1      41.614  28.803  31.507  1.00  0.00     0.074 A 
ATOM     41  C   UNL A   1      39.772  29.938  30.309  1.00  0.00     0.049 A 
ATOM     42  N   UNL A   1      41.630  29.466  32.633  1.00  0.00    -0.248 NA
ATOM     43  C   UNL A   1      42.647  27.759  31.403  1.00  0.00     0.031 C 
ATOM     44  C   UNL A   1      38.873  30.236  29.196  1.00  0.00     0.029 A 
ATOM     45  N   UNL A   1      39.433  30.854  31.273  1.00  0.00    -0.354 N 
ATOM     46  C   UNL A   1      42.679  28.928  33.369  1.00  0.00     0.074 A 
ATOM     47  C   UNL A   1      43.257  27.867  32.574  1.00  0.00     0.031 C 
ATOM     48  C   UNL A   1      38.081  31.267  29.542  1.00  0.00     0.029 A 
ATOM     49  C   UNL A   1      38.393  31.676  30.911  1.00  0.00     0.049 A 
ATOM     50  H   UNL A   1      39.891  30.916  32.142  1.00  0.00     0.167 HD
ATOM     51  C   UNL A   1      43.128  29.290  34.594  1.00  0.00     0.031 A 
ATOM     52  C   UNL A   1      37.757  32.636  31.611  1.00  0.00     0.031 A 
ATOM     53  C   UNL A   1      42.531  30.318  35.400  1.00  0.00     0.049 A 
ATOM     54  C   UNL A   1      38.197  32.940  33.021  1.00  0.00     0.074 A 
ATOM     55  C   UNL A   1      42.899  30.741  36.665  1.00  0.00     0.029 A 
ATOM     56  N   UNL A   1      41.434  31.079  35.027  1.00  0.00    -0.354 N 
ATOM     57  N   UNL A   1      39.190  32.422  33.705  1.00  0.00    -0.248 NA
ATOM     58  C   UNL A   1      37.430  33.959  33.753  1.00  0.00     0.031 C 
ATOM     59  C   UNL A   1      41.992  31.722  37.078  1.00  0.00     0.029 A 
ATOM     60  C   UNL A   1      41.096  31.952  36.046  1.00  0.00     0.049 A 
ATOM     61  H   UNL A   1      40.965  31.008  34.164  1.00  0.00     0.167 HD
ATOM     62  C   UNL A   1      39.182  33.069  34.937  1.00  0.00     0.074 A 
ATOM     63  C   UNL A   1      38.092  34.023  34.902  1.00  0.00     0.031 C 
ATOM     64  C   UNL A   1      40.006  32.893  36.000  1.00  0.00     0.031 A 
BRANCH  51  65
ATOM     65  C   UNL A   1      44.308  28.540  35.146  1.00  0.00    -0.014 A 
ATOM     66  C   UNL A   1      44.129  27.363  35.895  1.00  0.00     0.010 A 
ATOM     67  C   UNL A   1      45.613  28.995  34.882  1.00  0.00     0.010 A 
ATOM     68  C   UNL A   1      45.234  26.670  36.395  1.00  0.00     0.020 A 
ATOM     69  C   UNL A   1      46.720  28.291  35.360  1.00  0.00     0.020 A 
ATOM     70  C   UNL A   1      46.523  27.140  36.126  1.00  0.00     0.054 A 
BRANCH  70  71
ATOM     71  S   UNL A   1      47.939  26.205  36.766  1.00  0.00     0.124 S 
ATOM     72  O   UNL A   1      47.903  25.001  35.939  1.00  0.00    -0.237 OA
ATOM     73  O   UNL A   1      49.059  27.107  36.512  1.00  0.00    -0.237 OA
ATOM     74  O   UNL A   1      47.613  26.000  38.175  1.00  0.00    -0.744 OA
ENDBRANCH  70  71
ENDBRANCH  51  65
BRANCH  52  75
ATOM     75  C   UNL A   1      36.623  33.378  30.996  1.00  0.00    -0.014 A 
ATOM     76  C   UNL A   1      35.370  33.418  31.629  1.00  0.00     0.010 A 
ATOM     77  C   UNL A   1      36.794  34.052  29.772  1.00  0.00     0.010 A 
ATOM     78  C   UNL A   1      34.304  34.112  31.047  1.00  0.00     0.020 A 
ATOM     79  C   UNL A   1      35.738  34.767  29.200  1.00  0.00     0.020 A 
ATOM     80  C   UNL A   1      34.496  34.786  29.838  1.00  0.00     0.054 A 
BRANCH  80  81
ATOM     81  S   UNL A   1      33.115  35.729  29.134  1.00  0.00     0.124 S 
ATOM     82  O   UNL A   1      32.424  36.196  30.332  1.00  0.00    -0.237 OA
ATOM     83  O   UNL A   1      33.802  36.756  28.356  1.00  0.00    -0.237 OA
ATOM     84  O   UNL A   1      32.393  34.736  28.342  1.00  0.00    -0.744 OA
ENDBRANCH  80  81
ENDBRANCH  52  75
BRANCH  64  85
ATOM     85  C   UNL A   1      39.788  33.762  37.210  1.00  0.00    -0.014 A 
ATOM     86  C   UNL A   1      40.519  34.949  37.395  1.00  0.00     0.010 A 
ATOM     87  C   UNL A   1      38.777  33.430  38.130  1.00  0.00     0.010 A 
ATOM     88  C   UNL A   1      40.253  35.779  38.487  1.00  0.00     0.020 A 
ATOM     89  C   UNL A   1      38.490  34.271  39.209  1.00  0.00     0.020 A 
ATOM     90  C   UNL A   1      39.238  35.436  39.386  1.00  0.00     0.054 A 
BRANCH  90  91
ATOM     91  S   UNL A   1      38.871  36.563  40.759  1.00  0.00     0.124 S 
ATOM     92  O   UNL A   1      38.233  37.683  40.072  1.00  0.00    -0.237 OA
ATOM     93  O   UNL A   1      37.990  35.761  41.605  1.00  0.00    -0.237 OA
ATOM     94  O   UNL A   1      40.183  36.852  41.333  1.00  0.00    -0.744 OA
ENDBRANCH  90  91
ENDBRANCH  64  85
ENDBRANCH  38  39
ENDBRANCH  31  33
ENDBRANCH  30  31
ENDBRANCH  29  30
ENDBRANCH  28  29
ENDBRANCH  27  28
ENDBRANCH   1  27
TORSDOF 21
ENDMDL
MODEL 2
REMARK VINA RESULT:     -10.3      3.036      9.722
REMARK SMILES Cc1c(Br)c(C)c2c(c1Br)O[C@H](C(F)(F)F)C(C(=O)OCCOCCOCCOC(=O)c1ccc(-c3c4nc(c(-c5ccc(S(=O)(=O)[O-])cc5)c5ccc([nH]5)c(-c5ccc(S(=O)(=O)[O-])cc5)c5nc(c(-c6ccc(S(=O)(=O)[O-])cc6)c6ccc3[nH]6)C=C5)C=C4)cc1)=C2
REMARK SMILES IDX 25 1 24 2 23 3 22 4 21 5 20 6 18 7 19 8 17 9 1 10 2 11 3 12
REMARK SMILES IDX 9 13 4 14 5 15 8 16 10 17 6 18 7 19 11 20 92 21 12 22 13 23
REMARK SMILES IDX 14 24 15 25 16 26 26 27 27 28 28 29 29 30 30 31 31 32 32 33
REMARK SMILES IDX 33 34 91 35 34 36 90 37 35 38 36 39 37 40 84 41 38 42 89 43
REMARK SMILES IDX 83 44 85 45 39 46 88 47 82 48 81 49 40 51 70 52 51 53 69 54
REMARK SMILES IDX 52 55 55 56 68 57 86 58 53 59 54 60 67 62 87 63 56 64 41 65
REMARK SMILES IDX 42 66 50 67 43 68 49 69 44 70 45 71 46 72 47 73 48 74 71 75
REMARK SMILES IDX 72 76 80 77 73 78 79 79 74 80 75 81 76 82 77 83 78 84 57 85
REMARK SMILES IDX 58 86 66 87 59 88 65 89 60 90 61 91 62 92 63 93 64 94
REMARK H PARENT 85 50 55 61
REMARK Flexibility Score: inf
ROOT
ATOM      1  C   UNL A   1      31.016  29.455  23.447  1.00  0.00     0.188 C 
ENDROOT
BRANCH   1   2
ATOM      2  C   UNL A   1      30.112  28.459  22.688  1.00  0.00     0.188 C 
BRANCH   2   3
ATOM      3  O   UNL A   1      30.670  27.447  21.876  1.00  0.00    -0.376 OA
BRANCH   3   4
ATOM      4  C   UNL A   1      31.426  26.382  22.427  1.00  0.00     0.202 C 
BRANCH   4   5
ATOM      5  C   UNL A   1      32.944  26.443  22.606  1.00  0.00     0.261 C 
BRANCH   5   6
ATOM      6  O   UNL A   1      33.401  26.229  23.946  1.00  0.00    -0.460 OA
BRANCH   6   7
ATOM      7  C   UNL A   1      32.631  25.392  24.680  1.00  0.00     0.338 C 
ATOM      8  O   UNL A   1      31.498  25.601  25.083  1.00  0.00    -0.246 OA
BRANCH   7   9
ATOM      9  C   UNL A   1      33.324  24.103  24.844  1.00  0.00     0.087 C 
ATOM     10  C   UNL A   1      37.606  19.196  24.958  1.00  0.00     0.047 C 
ATOM     11  C   UNL A   1      36.841  20.486  25.135  1.00  0.00    -0.019 A 
ATOM     12  C   UNL A   1      37.471  21.685  25.551  1.00  0.00     0.025 A 
ATOM     13  C   UNL A   1      35.448  20.511  24.920  1.00  0.00     0.064 A 
ATOM     14  Br  UNL A   1      39.335  21.646  26.010  1.00  0.00    -0.050 Br
ATOM     15  C   UNL A   1      36.752  22.905  25.642  1.00  0.00    -0.026 A 
ATOM     16  C   UNL A   1      34.722  21.712  24.986  1.00  0.00     0.142 A 
ATOM     17  Br  UNL A   1      34.490  18.896  24.521  1.00  0.00    -0.046 Br
ATOM     18  C   UNL A   1      37.403  24.198  26.089  1.00  0.00     0.046 C 
ATOM     19  C   UNL A   1      35.377  22.912  25.294  1.00  0.00     0.022 A 
ATOM     20  O   UNL A   1      33.374  21.633  24.749  1.00  0.00    -0.474 OA
ATOM     21  C   UNL A   1      34.613  24.156  25.198  1.00  0.00     0.027 C 
ATOM     22  C   UNL A   1      32.578  22.830  24.599  1.00  0.00     0.316 C 
BRANCH  22  23
ATOM     23  C   UNL A   1      31.898  22.793  23.223  1.00  0.00     0.430 C 
ATOM     24  F   UNL A   1      31.711  21.518  22.801  1.00  0.00    -0.167 F 
ATOM     25  F   UNL A   1      30.673  23.371  23.250  1.00  0.00    -0.167 F 
ATOM     26  F   UNL A   1      32.625  23.430  22.278  1.00  0.00    -0.167 F 
ENDBRANCH  22  23
ENDBRANCH   7   9
ENDBRANCH   6   7
ENDBRANCH   5   6
ENDBRANCH   4   5
ENDBRANCH   3   4
ENDBRANCH   2   3
ENDBRANCH   1   2
BRANCH   1  27
ATOM     27  O   UNL A   1      31.031  29.500  24.861  1.00  0.00    -0.376 OA
BRANCH  27  28
ATOM     28  C   UNL A   1      32.251  29.768  25.535  1.00  0.00     0.202 C 
BRANCH  28  29
ATOM     29  C   UNL A   1      32.308  30.741  26.717  1.00  0.00     0.261 C 
BRANCH  29  30
ATOM     30  O   UNL A   1      33.388  30.504  27.628  1.00  0.00    -0.460 OA
BRANCH  30  31
ATOM     31  C   UNL A   1      34.231  31.553  27.802  1.00  0.00     0.338 C 
ATOM     32  O   UNL A   1      33.944  32.737  27.803  1.00  0.00    -0.246 OA
BRANCH  31  33
ATOM     33  C   UNL A   1      35.558  31.050  28.195  1.00  0.00     0.060 A 
ATOM     34  C   UNL A   1      35.671  29.701  28.562  1.00  0.00     0.016 A 
ATOM     35  C   UNL A   1      36.666  31.898  28.245  1.00  0.00     0.016 A 
ATOM     36  C   UNL A   1      36.894  29.199  28.999  1.00  0.00     0.010 A 
ATOM     37  C   UNL A   1      37.885  31.398  28.711  1.00  0.00     0.010 A 
ATOM     38  C   UNL A   1      37.997  30.055  29.113  1.00  0.00    -0.014 A 
BRANCH  38  39
ATOM     39  C   UNL A   1      39.211  29.588  29.820  1.00  0.00     0.031 A 
ATOM     40  C   UNL A   1      39.614  30.282  31.092  1.00  0.00     0.074 A 
ATOM     41  C   UNL A   1      39.926  28.545  29.360  1.00  0.00     0.049 A 
ATOM     42  N   UNL A   1      40.642  30.057  31.866  1.00  0.00    -0.248 NA
ATOM     43  C   UNL A   1      38.732  31.368  31.554  1.00  0.00     0.031 C 
ATOM     44  C   UNL A   1      39.603  27.752  28.175  1.00  0.00     0.029 A 
ATOM     45  N   UNL A   1      41.077  27.976  29.844  1.00  0.00    -0.354 N 
ATOM     46  C   UNL A   1      40.528  30.965  32.912  1.00  0.00     0.074 A 
ATOM     47  C   UNL A   1      39.348  31.761  32.659  1.00  0.00     0.031 C 
ATOM     48  C   UNL A   1      40.538  26.798  28.023  1.00  0.00     0.029 A 
ATOM     49  C   UNL A   1      41.542  26.934  29.078  1.00  0.00     0.049 A 
ATOM     50  H   UNL A   1      41.527  28.285  30.664  1.00  0.00     0.167 HD
ATOM     51  C   UNL A   1      41.330  31.116  33.992  1.00  0.00     0.031 A 
ATOM     52  C   UNL A   1      42.659  26.190  29.206  1.00  0.00     0.031 A 
ATOM     53  C   UNL A   1      42.524  30.351  34.225  1.00  0.00     0.049 A 
ATOM     54  C   UNL A   1      43.602  26.459  30.351  1.00  0.00     0.074 A 
ATOM     55  C   UNL A   1      43.416  30.448  35.278  1.00  0.00     0.029 A 
ATOM     56  N   UNL A   1      43.000  29.354  33.387  1.00  0.00    -0.354 N 
ATOM     57  N   UNL A   1      43.483  27.321  31.333  1.00  0.00    -0.248 NA
ATOM     58  C   UNL A   1      44.829  25.651  30.406  1.00  0.00     0.031 C 
ATOM     59  C   UNL A   1      44.459  29.545  35.051  1.00  0.00     0.029 A 
ATOM     60  C   UNL A   1      44.186  28.844  33.887  1.00  0.00     0.049 A 
ATOM     61  H   UNL A   1      42.559  29.053  32.559  1.00  0.00     0.167 HD
ATOM     62  C   UNL A   1      44.606  27.143  32.134  1.00  0.00     0.074 A 
ATOM     63  C   UNL A   1      45.389  26.084  31.529  1.00  0.00     0.031 C 
ATOM     64  C   UNL A   1      44.956  27.793  33.272  1.00  0.00     0.031 A 
BRANCH  51  65
ATOM     65  C   UNL A   1      40.953  32.176  34.989  1.00  0.00    -0.014 A 
ATOM     66  C   UNL A   1      40.092  31.883  36.062  1.00  0.00     0.010 A 
ATOM     67  C   UNL A   1      41.494  33.469  34.875  1.00  0.00     0.010 A 
ATOM     68  C   UNL A   1      39.755  32.874  36.987  1.00  0.00     0.020 A 
ATOM     69  C   UNL A   1      41.179  34.456  35.812  1.00  0.00     0.020 A 
ATOM     70  C   UNL A   1      40.300  34.156  36.855  1.00  0.00     0.054 A 
BRANCH  70  71
ATOM     71  S   UNL A   1      39.866  35.414  38.086  1.00  0.00     0.124 S 
ATOM     72  O   UNL A   1      38.628  34.874  38.645  1.00  0.00    -0.237 OA
ATOM     73  O   UNL A   1      41.019  35.394  38.983  1.00  0.00    -0.237 OA
ATOM     74  O   UNL A   1      39.712  36.634  37.298  1.00  0.00    -0.744 OA
ENDBRANCH  70  71
ENDBRANCH  51  65
BRANCH  52  75
ATOM     75  C   UNL A   1      42.958  25.123  28.213  1.00  0.00    -0.014 A 
ATOM     76  C   UNL A   1      43.754  25.397  27.089  1.00  0.00     0.010 A 
ATOM     77  C   UNL A   1      42.449  23.822  28.391  1.00  0.00     0.010 A 
ATOM     78  C   UNL A   1      44.032  24.394  26.155  1.00  0.00     0.020 A 
ATOM     79  C   UNL A   1      42.744  22.811  27.472  1.00  0.00     0.020 A 
ATOM     80  C   UNL A   1      43.528  23.105  26.355  1.00  0.00     0.054 A 
BRANCH  80  81
ATOM     81  S   UNL A   1      43.952  21.806  25.161  1.00  0.00     0.124 S 
ATOM     82  O   UNL A   1      43.005  20.752  25.509  1.00  0.00    -0.237 OA
ATOM     83  O   UNL A   1      43.718  22.471  23.881  1.00  0.00    -0.237 OA
ATOM     84  O   UNL A   1      45.352  21.514  25.457  1.00  0.00    -0.744 OA
ENDBRANCH  80  81
ENDBRANCH  52  75
BRANCH  64  85
ATOM     85  C   UNL A   1      46.227  27.371  33.962  1.00  0.00    -0.014 A 
ATOM     86  C   UNL A   1      46.229  26.333  34.910  1.00  0.00     0.010 A 
ATOM     87  C   UNL A   1      47.447  27.963  33.590  1.00  0.00     0.010 A 
ATOM     88  C   UNL A   1      47.429  25.907  35.486  1.00  0.00     0.020 A 
ATOM     89  C   UNL A   1      48.652  27.522  34.146  1.00  0.00     0.020 A 
ATOM     90  C   UNL A   1      48.633  26.502  35.098  1.00  0.00     0.054 A 
BRANCH  90  91
ATOM     91  S   UNL A   1      50.181  25.886  35.816  1.00  0.00     0.124 S 
ATOM     92  O   UNL A   1      50.667  24.992  34.768  1.00  0.00    -0.237 OA
ATOM     93  O   UNL A   1      50.956  27.111  36.005  1.00  0.00    -0.237 OA
ATOM     94  O   UNL A   1      49.756  25.228  37.049  1.00  0.00    -0.744 OA
ENDBRANCH  90  91
ENDBRANCH  64  85
ENDBRANCH  38  39
ENDBRANCH  31  33
ENDBRANCH  30  31
ENDBRANCH  29  30
ENDBRANCH  28  29
ENDBRANCH  27  28
ENDBRANCH   1  27
TORSDOF 21
ENDMDL
MODEL 3
REMARK VINA RESULT:     -10.2      6.560     12.114
REMARK SMILES Cc1c(Br)c(C)c2c(c1Br)O[C@H](C(F)(F)F)C(C(=O)OCCOCCOCCOC(=O)c1ccc(-c3c4nc(c(-c5ccc(S(=O)(=O)[O-])cc5)c5ccc([nH]5)c(-c5ccc(S(=O)(=O)[O-])cc5)c5nc(c(-c6ccc(S(=O)(=O)[O-])cc6)c6ccc3[nH]6)C=C5)C=C4)cc1)=C2
REMARK SMILES IDX 25 1 24 2 23 3 22 4 21 5 20 6 18 7 19 8 17 9 1 10 2 11 3 12
REMARK SMILES IDX 9 13 4 14 5 15 8 16 10 17 6 18 7 19 11 20 92 21 12 22 13 23
REMARK SMILES IDX 14 24 15 25 16 26 26 27 27 28 28 29 29 30 30 31 31 32 32 33
REMARK SMILES IDX 33 34 91 35 34 36 90 37 35 38 36 39 37 40 84 41 38 42 89 43
REMARK SMILES IDX 83 44 85 45 39 46 88 47 82 48 81 49 40 51 70 52 51 53 69 54
REMARK SMILES IDX 52 55 55 56 68 57 86 58 53 59 54 60 67 62 87 63 56 64 41 65
REMARK SMILES IDX 42 66 50 67 43 68 49 69 44 70 45 71 46 72 47 73 48 74 71 75
REMARK SMILES IDX 72 76 80 77 73 78 79 79 74 80 75 81 76 82 77 83 78 84 57 85
REMARK SMILES IDX 58 86 66 87 59 88 65 89 60 90 61 91 62 92 63 93 64 94
REMARK H PARENT 85 50 55 61
REMARK Flexibility Score: inf
ROOT
ATOM      1  C   UNL A   1      32.897  28.781  24.186  1.00  0.00     0.188 C 
ENDROOT
BRANCH   1   2
ATOM      2  C   UNL A   1      31.413  29.099  24.468  1.00  0.00     0.188 C 
BRANCH   2   3
ATOM      3  O   UNL A   1      30.381  28.370  23.835  1.00  0.00    -0.376 OA
BRANCH   3   4
ATOM      4  C   UNL A   1      30.596  27.063  23.330  1.00  0.00     0.202 C 
BRANCH   4   5
ATOM      5  C   UNL A   1      29.720  25.868  23.712  1.00  0.00     0.261 C 
BRANCH   5   6
ATOM      6  O   UNL A   1      30.373  24.596  23.645  1.00  0.00    -0.460 OA
BRANCH   6   7
ATOM      7  C   UNL A   1      30.759  24.094  24.842  1.00  0.00     0.338 C 
ATOM      8  O   UNL A   1      30.098  24.051  25.867  1.00  0.00    -0.246 OA
BRANCH   7   9
ATOM      9  C   UNL A   1      32.093  23.484  24.713  1.00  0.00     0.087 C 
ATOM     10  C   UNL A   1      37.354  19.658  25.041  1.00  0.00     0.047 C 
ATOM     11  C   UNL A   1      35.991  20.269  24.823  1.00  0.00    -0.019 A 
ATOM     12  C   UNL A   1      34.831  19.478  24.635  1.00  0.00     0.025 A 
ATOM     13  C   UNL A   1      35.852  21.671  24.765  1.00  0.00     0.064 A 
ATOM     14  Br  UNL A   1      35.011  17.569  24.546  1.00  0.00    -0.050 Br
ATOM     15  C   UNL A   1      33.547  20.068  24.504  1.00  0.00    -0.026 A 
ATOM     16  C   UNL A   1      34.588  22.274  24.655  1.00  0.00     0.142 A 
ATOM     17  Br  UNL A   1      37.395  22.811  24.839  1.00  0.00    -0.046 Br
ATOM     18  C   UNL A   1      32.293  19.242  24.297  1.00  0.00     0.046 C 
ATOM     19  C   UNL A   1      33.435  21.481  24.578  1.00  0.00     0.022 A 
ATOM     20  O   UNL A   1      34.558  23.644  24.618  1.00  0.00    -0.474 OA
ATOM     21  C   UNL A   1      32.135  22.150  24.622  1.00  0.00     0.027 C 
ATOM     22  C   UNL A   1      33.305  24.360  24.705  1.00  0.00     0.316 C 
BRANCH  22  23
ATOM     23  C   UNL A   1      33.366  25.302  25.916  1.00  0.00     0.430 C 
ATOM     24  F   UNL A   1      33.248  24.616  27.080  1.00  0.00    -0.167 F 
ATOM     25  F   UNL A   1      34.547  25.964  25.980  1.00  0.00    -0.167 F 
ATOM     26  F   UNL A   1      32.383  26.229  25.891  1.00  0.00    -0.167 F 
ENDBRANCH  22  23
ENDBRANCH   7   9
ENDBRANCH   6   7
ENDBRANCH   5   6
ENDBRANCH   4   5
ENDBRANCH   3   4
ENDBRANCH   2   3
ENDBRANCH   1   2
BRANCH   1  27
ATOM     27  O   UNL A   1      33.878  28.901  25.197  1.00  0.00    -0.376 OA
BRANCH  27  28
ATOM     28  C   UNL A   1      33.560  29.593  26.395  1.00  0.00     0.202 C 
BRANCH  28  29
ATOM     29  C   UNL A   1      34.307  29.306  27.701  1.00  0.00     0.261 C 
BRANCH  29  30
ATOM     30  O   UNL A   1      35.697  29.658  27.679  1.00  0.00    -0.460 OA
BRANCH  30  31
ATOM     31  C   UNL A   1      36.294  29.703  28.896  1.00  0.00     0.338 C 
ATOM     32  O   UNL A   1      35.751  29.693  29.986  1.00  0.00    -0.246 OA
BRANCH  31  33
ATOM     33  C   UNL A   1      37.752  29.571  28.726  1.00  0.00     0.060 A 
ATOM     34  C   UNL A   1      38.267  29.579  27.422  1.00  0.00     0.016 A 
ATOM     35  C   UNL A   1      38.594  29.398  29.825  1.00  0.00     0.016 A 
ATOM     36  C   UNL A   1      39.631  29.394  27.213  1.00  0.00     0.010 A 
ATOM     37  C   UNL A   1      39.958  29.184  29.610  1.00  0.00     0.010 A 
ATOM     38  C   UNL A   1      40.478  29.157  28.304  1.00  0.00    -0.014 A 
BRANCH  38  39
ATOM     39  C   UNL A   1      41.866  28.703  28.064  1.00  0.00     0.031 A 
ATOM     40  C   UNL A   1      42.974  29.718  28.127  1.00  0.00     0.074 A 
ATOM     41  C   UNL A   1      42.144  27.408  27.827  1.00  0.00     0.049 A 
ATOM     42  N   UNL A   1      44.256  29.555  27.936  1.00  0.00    -0.248 NA
ATOM     43  C   UNL A   1      42.582  31.098  28.461  1.00  0.00     0.031 C 
ATOM     44  C   UNL A   1      41.167  26.322  27.802  1.00  0.00     0.029 A 
ATOM     45  N   UNL A   1      43.341  26.793  27.561  1.00  0.00    -0.354 N 
ATOM     46  C   UNL A   1      44.826  30.806  28.134  1.00  0.00     0.074 A 
ATOM     47  C   UNL A   1      43.750  31.724  28.433  1.00  0.00     0.031 C 
ATOM     48  C   UNL A   1      41.806  25.169  27.533  1.00  0.00     0.029 A 
ATOM     49  C   UNL A   1      43.229  25.442  27.333  1.00  0.00     0.049 A 
ATOM     50  H   UNL A   1      44.201  27.273  27.537  1.00  0.00     0.167 HD
ATOM     51  C   UNL A   1      46.132  31.159  28.080  1.00  0.00     0.031 A 
ATOM     52  C   UNL A   1      44.165  24.536  26.986  1.00  0.00     0.031 A 
ATOM     53  C   UNL A   1      47.200  30.257  27.746  1.00  0.00     0.049 A 
ATOM     54  C   UNL A   1      45.596  24.978  26.812  1.00  0.00     0.074 A 
ATOM     55  C   UNL A   1      48.552  30.527  27.641  1.00  0.00     0.029 A 
ATOM     56  N   UNL A   1      47.035  28.913  27.450  1.00  0.00    -0.354 N 
ATOM     57  N   UNL A   1      46.121  26.165  27.002  1.00  0.00    -0.248 NA
ATOM     58  C   UNL A   1      46.560  23.955  26.380  1.00  0.00     0.031 C 
ATOM     59  C   UNL A   1      49.200  29.357  27.233  1.00  0.00     0.029 A 
ATOM     60  C   UNL A   1      48.258  28.344  27.140  1.00  0.00     0.049 A 
ATOM     61  H   UNL A   1      46.175  28.433  27.460  1.00  0.00     0.167 HD
ATOM     62  C   UNL A   1      47.480  26.026  26.735  1.00  0.00     0.074 A 
ATOM     63  C   UNL A   1      47.698  24.638  26.381  1.00  0.00     0.031 C 
ATOM     64  C   UNL A   1      48.460  26.963  26.785  1.00  0.00     0.031 A 
BRANCH  51  65
ATOM     65  C   UNL A   1      46.471  32.597  28.361  1.00  0.00    -0.014 A 
ATOM     66  C   UNL A   1      46.444  33.559  27.334  1.00  0.00     0.010 A 
ATOM     67  C   UNL A   1      46.781  32.999  29.672  1.00  0.00     0.010 A 
ATOM     68  C   UNL A   1      46.752  34.893  27.610  1.00  0.00     0.020 A 
ATOM     69  C   UNL A   1      47.066  34.338  29.955  1.00  0.00     0.020 A 
ATOM     70  C   UNL A   1      47.063  35.274  28.919  1.00  0.00     0.054 A 
BRANCH  70  71
ATOM     71  S   UNL A   1      47.431  37.018  29.251  1.00  0.00     0.124 S 
ATOM     72  O   UNL A   1      48.134  37.414  28.032  1.00  0.00    -0.237 OA
ATOM     73  O   UNL A   1      46.102  37.598  29.424  1.00  0.00    -0.237 OA
ATOM     74  O   UNL A   1      48.254  36.977  30.457  1.00  0.00    -0.744 OA
ENDBRANCH  70  71
ENDBRANCH  51  65
BRANCH  52  75
ATOM     75  C   UNL A   1      43.778  23.116  26.764  1.00  0.00    -0.014 A 
ATOM     76  C   UNL A   1      43.060  22.411  27.744  1.00  0.00     0.010 A 
ATOM     77  C   UNL A   1      44.125  22.463  25.566  1.00  0.00     0.010 A 
ATOM     78  C   UNL A   1      42.701  21.076  27.535  1.00  0.00     0.020 A 
ATOM     79  C   UNL A   1      43.747  21.136  25.344  1.00  0.00     0.020 A 
ATOM     80  C   UNL A   1      43.042  20.448  26.334  1.00  0.00     0.054 A 
BRANCH  80  81
ATOM     81  S   UNL A   1      42.513  18.733  26.063  1.00  0.00     0.124 S 
ATOM     82  O   UNL A   1      43.407  18.305  24.991  1.00  0.00    -0.237 OA
ATOM     83  O   UNL A   1      42.750  18.123  27.368  1.00  0.00    -0.237 OA
ATOM     84  O   UNL A   1      41.106  18.865  25.690  1.00  0.00    -0.744 OA
ENDBRANCH  80  81
ENDBRANCH  52  75
BRANCH  64  85
ATOM     85  C   UNL A   1      49.867  26.525  26.475  1.00  0.00    -0.014 A 
ATOM     86  C   UNL A   1      50.727  26.070  27.490  1.00  0.00     0.010 A 
ATOM     87  C   UNL A   1      50.304  26.488  25.139  1.00  0.00     0.010 A 
ATOM     88  C   UNL A   1      52.005  25.600  27.174  1.00  0.00     0.020 A 
ATOM     89  C   UNL A   1      51.572  25.995  24.816  1.00  0.00     0.020 A 
ATOM     90  C   UNL A   1      52.418  25.563  25.838  1.00  0.00     0.054 A 
BRANCH  90  91
ATOM     91  S   UNL A   1      54.058  24.890  25.450  1.00  0.00     0.124 S 
ATOM     92  O   UNL A   1      54.575  25.876  24.506  1.00  0.00    -0.237 OA
ATOM     93  O   UNL A   1      54.711  24.868  26.757  1.00  0.00    -0.237 OA
ATOM     94  O   UNL A   1      53.769  23.575  24.882  1.00  0.00    -0.744 OA
ENDBRANCH  90  91
ENDBRANCH  64  85
ENDBRANCH  38  39
ENDBRANCH  31  33
ENDBRANCH  30  31
ENDBRANCH  29  30
ENDBRANCH  28  29
ENDBRANCH  27  28
ENDBRANCH   1  27
TORSDOF 21
ENDMDL
