MODEL 1
REMARK VINA RESULT:      -9.0      0.000      0.000
REMARK SMILES C[C@@H]1CCC[N@@H+]([C@@H]2CCC[C@]([NH3+])(C(=O)OCCOCCOCCOCCOC(=O)c3ccc(-c4c5nc(c(-c6ccc(S(=O)(=O)[O-])cc6)c6ccc([nH]6)c(-c6ccc(S(=O)(=O)[O-])cc6)c6nc(c(-c7ccc(S(=O)(=O)[O-])cc7)c7ccc4[nH]7)C=C6)C=C5)cc3)C2)C1
REMARK SMILES IDX 22 1 21 2 20 3 19 4 18 5 17 6 16 7 15 8 13 9 14 10 11 11
REMARK SMILES IDX 7 12 8 13 90 14 9 15 10 16 6 17 1 18 2 19 3 20 91 21 4 22
REMARK SMILES IDX 5 23 12 25 23 29 24 30 25 31 26 32 27 33 28 34 29 35 30 36
REMARK SMILES IDX 31 37 89 38 32 39 88 40 33 41 34 42 35 43 82 44 36 45 87 46
REMARK SMILES IDX 81 47 83 48 37 49 86 50 80 51 79 52 38 54 68 55 49 56 67 57
REMARK SMILES IDX 50 58 53 59 66 60 84 61 51 62 52 63 65 65 85 66 54 67 39 68
REMARK SMILES IDX 40 69 48 70 41 71 47 72 42 73 43 74 44 75 45 76 46 77 69 78
REMARK SMILES IDX 70 79 78 80 71 81 77 82 72 83 73 84 74 85 75 86 76 87 55 88
REMARK SMILES IDX 56 89 64 90 57 91 63 92 58 93 59 94 60 95 61 96 62 97
REMARK H PARENT 6 24 12 26 12 27 12 28 83 53 53 64
REMARK Flexibility Score: inf
ROOT
ATOM      1  C   UNL A   1      46.238  41.471  26.745  1.00  0.00     0.188 C 
ENDROOT
BRANCH   1   2
ATOM      2  O   UNL A   1      45.223  42.440  26.500  1.00  0.00    -0.377 OA
BRANCH   2   3
ATOM      3  C   UNL A   1      44.782  42.606  25.170  1.00  0.00     0.188 C 
BRANCH   3   4
ATOM      4  C   UNL A   1      43.338  42.157  24.905  1.00  0.00     0.188 C 
BRANCH   4   5
ATOM      5  O   UNL A   1      42.911  41.780  23.606  1.00  0.00    -0.376 OA
BRANCH   5   6
ATOM      6  C   UNL A   1      41.810  42.396  22.950  1.00  0.00     0.202 C 
BRANCH   6   7
ATOM      7  C   UNL A   1      41.920  43.609  22.016  1.00  0.00     0.261 C 
BRANCH   7   8
ATOM      8  O   UNL A   1      42.483  43.348  20.731  1.00  0.00    -0.459 OA
BRANCH   8   9
ATOM      9  C   UNL A   1      41.645  43.527  19.679  1.00  0.00     0.368 C 
ATOM     10  O   UNL A   1      40.435  43.325  19.718  1.00  0.00    -0.245 OA
BRANCH   9  11
ATOM     11  C   UNL A   1      42.371  44.074  18.426  1.00  0.00     0.198 C 
ATOM     12  C   UNL A   1      43.919  46.101  17.823  1.00  0.00     0.190 C 
ATOM     13  C   UNL A   1      42.856  46.488  16.776  1.00  0.00     0.065 C 
ATOM     14  C   UNL A   1      43.351  45.170  18.911  1.00  0.00     0.145 C 
ATOM     15  C   UNL A   1      41.910  45.380  16.336  1.00  0.00     0.013 C 
ATOM     16  C   UNL A   1      41.292  44.681  17.531  1.00  0.00     0.081 C 
BRANCH  12  17
ATOM     17  N   UNL A   1      44.722  47.217  18.407  1.00  0.00    -0.332 N 
ATOM     18  C   UNL A   1      47.791  48.120  16.251  1.00  0.00     0.013 C 
ATOM     19  C   UNL A   1      46.308  47.993  16.592  1.00  0.00     0.041 C 
ATOM     20  C   UNL A   1      45.593  49.349  16.526  1.00  0.00     0.015 C 
ATOM     21  C   UNL A   1      46.116  47.294  17.952  1.00  0.00     0.265 C 
ATOM     22  C   UNL A   1      44.187  49.319  17.128  1.00  0.00     0.062 C 
ATOM     23  C   UNL A   1      44.146  48.566  18.455  1.00  0.00     0.262 C 
ATOM     24  H   UNL A   1      44.693  46.891  19.373  1.00  0.00     0.348 HD
ENDBRANCH  12  17
BRANCH  11  25
ATOM     25  N   UNL A   1      43.037  43.021  17.618  1.00  0.00    -0.343 N 
ATOM     26  H   UNL A   1      43.986  42.877  17.962  1.00  0.00     0.345 HD
ATOM     27  H   UNL A   1      43.070  43.311  16.641  1.00  0.00     0.345 HD
ATOM     28  H   UNL A   1      42.511  42.149  17.696  1.00  0.00     0.345 HD
ENDBRANCH  11  25
ENDBRANCH   9  11
ENDBRANCH   8   9
ENDBRANCH   7   8
ENDBRANCH   6   7
ENDBRANCH   5   6
ENDBRANCH   4   5
ENDBRANCH   3   4
ENDBRANCH   2   3
ENDBRANCH   1   2
BRANCH   1  29
ATOM     29  C   UNL A   1      47.515  41.869  27.523  1.00  0.00     0.188 C 
BRANCH  29  30
ATOM     30  O   UNL A   1      48.133  40.815  28.246  1.00  0.00    -0.376 OA
BRANCH  30  31
ATOM     31  C   UNL A   1      48.789  39.781  27.529  1.00  0.00     0.202 C 
BRANCH  31  32
ATOM     32  C   UNL A   1      48.078  38.424  27.398  1.00  0.00     0.261 C 
BRANCH  32  33
ATOM     33  O   UNL A   1      48.918  37.267  27.264  1.00  0.00    -0.460 OA
BRANCH  33  34
ATOM     34  C   UNL A   1      49.196  36.552  28.375  1.00  0.00     0.338 C 
ATOM     35  O   UNL A   1      49.902  36.894  29.309  1.00  0.00    -0.246 OA
BRANCH  34  36
ATOM     36  C   UNL A   1      48.326  35.357  28.371  1.00  0.00     0.060 A 
ATOM     37  C   UNL A   1      48.331  34.511  29.488  1.00  0.00     0.016 A 
ATOM     38  C   UNL A   1      47.513  35.074  27.273  1.00  0.00     0.016 A 
ATOM     39  C   UNL A   1      47.553  33.353  29.492  1.00  0.00     0.010 A 
ATOM     40  C   UNL A   1      46.752  33.901  27.268  1.00  0.00     0.010 A 
ATOM     41  C   UNL A   1      46.799  33.017  28.361  1.00  0.00    -0.014 A 
BRANCH  41  42
ATOM     42  C   UNL A   1      46.237  31.650  28.232  1.00  0.00     0.031 A 
ATOM     43  C   UNL A   1      47.104  30.580  27.622  1.00  0.00     0.074 A 
ATOM     44  C   UNL A   1      44.998  31.353  28.663  1.00  0.00     0.049 A 
ATOM     45  N   UNL A   1      46.820  29.333  27.357  1.00  0.00    -0.248 NA
ATOM     46  C   UNL A   1      48.476  30.977  27.261  1.00  0.00     0.031 C 
ATOM     47  C   UNL A   1      44.083  32.285  29.321  1.00  0.00     0.029 A 
ATOM     48  N   UNL A   1      44.295  30.176  28.603  1.00  0.00    -0.354 N 
ATOM     49  C   UNL A   1      47.970  28.798  26.787  1.00  0.00     0.074 A 
ATOM     50  C   UNL A   1      48.945  29.864  26.718  1.00  0.00     0.031 C 
ATOM     51  C   UNL A   1      42.933  31.643  29.595  1.00  0.00     0.029 A 
ATOM     52  C   UNL A   1      43.016  30.271  29.097  1.00  0.00     0.049 A 
ATOM     53  H   UNL A   1      44.673  29.342  28.241  1.00  0.00     0.167 HD
ATOM     54  C   UNL A   1      48.196  27.533  26.361  1.00  0.00     0.031 A 
ATOM     55  C   UNL A   1      42.020  29.362  29.120  1.00  0.00     0.031 A 
ATOM     56  C   UNL A   1      47.217  26.480  26.417  1.00  0.00     0.049 A 
ATOM     57  C   UNL A   1      42.265  27.982  28.561  1.00  0.00     0.074 A 
ATOM     58  C   UNL A   1      47.351  25.161  26.023  1.00  0.00     0.029 A 
ATOM     59  N   UNL A   1      45.920  26.628  26.886  1.00  0.00    -0.354 N 
ATOM     60  N   UNL A   1      43.364  27.485  28.044  1.00  0.00    -0.248 NA
ATOM     61  C   UNL A   1      41.137  27.040  28.595  1.00  0.00     0.031 C 
ATOM     62  C   UNL A   1      46.115  24.529  26.188  1.00  0.00     0.029 A 
ATOM     63  C   UNL A   1      45.234  25.432  26.761  1.00  0.00     0.049 A 
ATOM     64  H   UNL A   1      45.544  27.460  27.255  1.00  0.00     0.167 HD
ATOM     65  C   UNL A   1      43.068  26.161  27.723  1.00  0.00     0.074 A 
ATOM     66  C   UNL A   1      41.693  25.936  28.117  1.00  0.00     0.031 C 
ATOM     67  C   UNL A   1      43.864  25.219  27.158  1.00  0.00     0.031 A 
BRANCH  54  68
ATOM     68  C   UNL A   1      49.543  27.231  25.758  1.00  0.00    -0.014 A 
ATOM     69  C   UNL A   1      50.589  26.695  26.530  1.00  0.00     0.010 A 
ATOM     70  C   UNL A   1      49.752  27.455  24.385  1.00  0.00     0.010 A 
ATOM     71  C   UNL A   1      51.831  26.424  25.948  1.00  0.00     0.020 A 
ATOM     72  C   UNL A   1      50.982  27.156  23.792  1.00  0.00     0.020 A 
ATOM     73  C   UNL A   1      52.019  26.658  24.582  1.00  0.00     0.054 A 
BRANCH  73  74
ATOM     74  S   UNL A   1      53.633  26.274  23.849  1.00  0.00     0.124 S 
ATOM     75  O   UNL A   1      54.420  27.446  24.222  1.00  0.00    -0.237 OA
ATOM     76  O   UNL A   1      54.000  25.031  24.522  1.00  0.00    -0.237 OA
ATOM     77  O   UNL A   1      53.346  26.145  22.422  1.00  0.00    -0.744 OA
ENDBRANCH  73  74
ENDBRANCH  54  68
BRANCH  55  78
ATOM     78  C   UNL A   1      40.685  29.731  29.672  1.00  0.00    -0.014 A 
ATOM     79  C   UNL A   1      39.748  30.426  28.885  1.00  0.00     0.010 A 
ATOM     80  C   UNL A   1      40.346  29.394  30.996  1.00  0.00     0.010 A 
ATOM     81  C   UNL A   1      38.507  30.791  29.417  1.00  0.00     0.020 A 
ATOM     82  C   UNL A   1      39.095  29.729  31.520  1.00  0.00     0.020 A 
ATOM     83  C   UNL A   1      38.187  30.435  30.730  1.00  0.00     0.054 A 
BRANCH  83  84
ATOM     84  S   UNL A   1      36.549  30.873  31.379  1.00  0.00     0.124 S 
ATOM     85  O   UNL A   1      35.709  30.748  30.192  1.00  0.00    -0.237 OA
ATOM     86  O   UNL A   1      36.341  29.860  32.411  1.00  0.00    -0.237 OA
ATOM     87  O   UNL A   1      36.731  32.234  31.878  1.00  0.00    -0.744 OA
ENDBRANCH  83  84
ENDBRANCH  55  78
BRANCH  67  88
ATOM     88  C   UNL A   1      43.291  23.837  26.970  1.00  0.00    -0.014 A 
ATOM     89  C   UNL A   1      42.702  23.444  25.755  1.00  0.00     0.010 A 
ATOM     90  C   UNL A   1      43.403  22.896  28.011  1.00  0.00     0.010 A 
ATOM     91  C   UNL A   1      42.208  22.145  25.596  1.00  0.00     0.020 A 
ATOM     92  C   UNL A   1      42.940  21.588  27.845  1.00  0.00     0.020 A 
ATOM     93  C   UNL A   1      42.333  21.225  26.642  1.00  0.00     0.054 A 
BRANCH  93  94
ATOM     94  S   UNL A   1      41.726  19.533  26.393  1.00  0.00     0.124 S 
ATOM     95  O   UNL A   1      42.537  19.083  25.264  1.00  0.00    -0.237 OA
ATOM     96  O   UNL A   1      42.022  18.896  27.673  1.00  0.00    -0.237 OA
ATOM     97  O   UNL A   1      40.305  19.712  26.106  1.00  0.00    -0.744 OA
ENDBRANCH  93  94
ENDBRANCH  67  88
ENDBRANCH  41  42
ENDBRANCH  34  36
ENDBRANCH  33  34
ENDBRANCH  32  33
ENDBRANCH  31  32
ENDBRANCH  30  31
ENDBRANCH  29  30
ENDBRANCH   1  29
TORSDOF 25
ENDMDL
MODEL 2
REMARK VINA RESULT:      -8.9      7.785     15.323
REMARK SMILES C[C@@H]1CCC[N@@H+]([C@@H]2CCC[C@]([NH3+])(C(=O)OCCOCCOCCOCCOC(=O)c3ccc(-c4c5nc(c(-c6ccc(S(=O)(=O)[O-])cc6)c6ccc([nH]6)c(-c6ccc(S(=O)(=O)[O-])cc6)c6nc(c(-c7ccc(S(=O)(=O)[O-])cc7)c7ccc4[nH]7)C=C6)C=C5)cc3)C2)C1
REMARK SMILES IDX 22 1 21 2 20 3 19 4 18 5 17 6 16 7 15 8 13 9 14 10 11 11
REMARK SMILES IDX 7 12 8 13 90 14 9 15 10 16 6 17 1 18 2 19 3 20 91 21 4 22
REMARK SMILES IDX 5 23 12 25 23 29 24 30 25 31 26 32 27 33 28 34 29 35 30 36
REMARK SMILES IDX 31 37 89 38 32 39 88 40 33 41 34 42 35 43 82 44 36 45 87 46
REMARK SMILES IDX 81 47 83 48 37 49 86 50 80 51 79 52 38 54 68 55 49 56 67 57
REMARK SMILES IDX 50 58 53 59 66 60 84 61 51 62 52 63 65 65 85 66 54 67 39 68
REMARK SMILES IDX 40 69 48 70 41 71 47 72 42 73 43 74 44 75 45 76 46 77 69 78
REMARK SMILES IDX 70 79 78 80 71 81 77 82 72 83 73 84 74 85 75 86 76 87 55 88
REMARK SMILES IDX 56 89 64 90 57 91 63 92 58 93 59 94 60 95 61 96 62 97
REMARK H PARENT 6 24 12 26 12 27 12 28 83 53 53 64
REMARK Flexibility Score: inf
ROOT
ATOM      1  C   UNL A   1      34.144  32.832  28.349  1.00  0.00     0.188 C 
ENDROOT
BRANCH   1   2
ATOM      2  O   UNL A   1      34.115  31.705  27.477  1.00  0.00    -0.377 OA
BRANCH   2   3
ATOM      3  C   UNL A   1      35.069  30.687  27.689  1.00  0.00     0.188 C 
BRANCH   3   4
ATOM      4  C   UNL A   1      34.770  29.361  26.974  1.00  0.00     0.188 C 
BRANCH   4   5
ATOM      5  O   UNL A   1      33.466  29.053  26.511  1.00  0.00    -0.376 OA
BRANCH   5   6
ATOM      6  C   UNL A   1      32.374  28.814  27.390  1.00  0.00     0.202 C 
BRANCH   6   7
ATOM      7  C   UNL A   1      31.328  27.706  27.198  1.00  0.00     0.261 C 
BRANCH   7   8
ATOM      8  O   UNL A   1      31.083  27.317  25.848  1.00  0.00    -0.459 OA
BRANCH   8   9
ATOM      9  C   UNL A   1      30.722  26.021  25.670  1.00  0.00     0.368 C 
ATOM     10  O   UNL A   1      29.954  25.411  26.407  1.00  0.00    -0.245 OA
BRANCH   9  11
ATOM     11  C   UNL A   1      31.342  25.401  24.393  1.00  0.00     0.198 C 
ATOM     12  C   UNL A   1      32.596  23.197  23.732  1.00  0.00     0.190 C 
ATOM     13  C   UNL A   1      33.754  24.101  23.264  1.00  0.00     0.065 C 
ATOM     14  C   UNL A   1      31.655  23.919  24.715  1.00  0.00     0.145 C 
ATOM     15  C   UNL A   1      33.398  25.550  22.968  1.00  0.00     0.013 C 
ATOM     16  C   UNL A   1      32.630  26.172  24.118  1.00  0.00     0.081 C 
BRANCH  12  17
ATOM     17  N   UNL A   1      32.963  21.832  24.212  1.00  0.00    -0.332 N 
ATOM     18  C   UNL A   1      36.536  21.681  25.660  1.00  0.00     0.013 C 
ATOM     19  C   UNL A   1      35.067  22.093  25.597  1.00  0.00     0.041 C 
ATOM     20  C   UNL A   1      34.305  21.673  26.861  1.00  0.00     0.015 C 
ATOM     21  C   UNL A   1      34.404  21.565  24.310  1.00  0.00     0.265 C 
ATOM     22  C   UNL A   1      32.788  21.811  26.724  1.00  0.00     0.062 C 
ATOM     23  C   UNL A   1      32.281  21.277  25.387  1.00  0.00     0.262 C 
ATOM     24  H   UNL A   1      32.572  21.319  23.422  1.00  0.00     0.348 HD
ENDBRANCH  12  17
BRANCH  11  25
ATOM     25  N   UNL A   1      30.494  25.562  23.184  1.00  0.00    -0.343 N 
ATOM     26  H   UNL A   1      29.557  25.207  23.375  1.00  0.00     0.345 HD
ATOM     27  H   UNL A   1      30.904  25.039  22.409  1.00  0.00     0.345 HD
ATOM     28  H   UNL A   1      30.440  26.550  22.936  1.00  0.00     0.345 HD
ENDBRANCH  11  25
ENDBRANCH   9  11
ENDBRANCH   8   9
ENDBRANCH   7   8
ENDBRANCH   6   7
ENDBRANCH   5   6
ENDBRANCH   4   5
ENDBRANCH   3   4
ENDBRANCH   2   3
ENDBRANCH   1   2
BRANCH   1  29
ATOM     29  C   UNL A   1      33.245  34.057  28.059  1.00  0.00     0.188 C 
BRANCH  29  30
ATOM     30  O   UNL A   1      32.563  34.584  29.187  1.00  0.00    -0.376 OA
BRANCH  30  31
ATOM     31  C   UNL A   1      33.207  35.569  29.981  1.00  0.00     0.202 C 
BRANCH  31  32
ATOM     32  C   UNL A   1      33.778  35.143  31.344  1.00  0.00     0.261 C 
BRANCH  32  33
ATOM     33  O   UNL A   1      35.020  34.422  31.324  1.00  0.00    -0.460 OA
BRANCH  33  34
ATOM     34  C   UNL A   1      35.046  33.185  31.865  1.00  0.00     0.338 C 
ATOM     35  O   UNL A   1      34.151  32.641  32.491  1.00  0.00    -0.246 OA
BRANCH  34  36
ATOM     36  C   UNL A   1      36.271  32.511  31.389  1.00  0.00     0.060 A 
ATOM     37  C   UNL A   1      36.926  31.613  32.242  1.00  0.00     0.016 A 
ATOM     38  C   UNL A   1      36.769  32.763  30.110  1.00  0.00     0.016 A 
ATOM     39  C   UNL A   1      38.109  30.996  31.833  1.00  0.00     0.010 A 
ATOM     40  C   UNL A   1      37.968  32.164  29.711  1.00  0.00     0.010 A 
ATOM     41  C   UNL A   1      38.662  31.309  30.585  1.00  0.00    -0.014 A 
BRANCH  41  42
ATOM     42  C   UNL A   1      40.060  30.916  30.282  1.00  0.00     0.031 A 
ATOM     43  C   UNL A   1      41.145  31.941  30.487  1.00  0.00     0.074 A 
ATOM     44  C   UNL A   1      40.369  29.679  29.857  1.00  0.00     0.049 A 
ATOM     45  N   UNL A   1      42.426  31.853  30.243  1.00  0.00    -0.248 NA
ATOM     46  C   UNL A   1      40.723  33.240  31.039  1.00  0.00     0.031 C 
ATOM     47  C   UNL A   1      39.418  28.582  29.673  1.00  0.00     0.029 A 
ATOM     48  N   UNL A   1      41.579  29.140  29.495  1.00  0.00    -0.354 N 
ATOM     49  C   UNL A   1      42.961  33.086  30.598  1.00  0.00     0.074 A 
ATOM     50  C   UNL A   1      41.863  33.913  31.046  1.00  0.00     0.031 C 
ATOM     51  C   UNL A   1      40.083  27.503  29.223  1.00  0.00     0.029 A 
ATOM     52  C   UNL A   1      41.495  27.843  29.049  1.00  0.00     0.049 A 
ATOM     53  H   UNL A   1      42.427  29.636  29.552  1.00  0.00     0.167 HD
ATOM     54  C   UNL A   1      44.252  33.493  30.558  1.00  0.00     0.031 A 
ATOM     55  C   UNL A   1      42.443  27.033  28.534  1.00  0.00     0.031 A 
ATOM     56  C   UNL A   1      45.339  32.672  30.096  1.00  0.00     0.049 A 
ATOM     57  C   UNL A   1      43.860  27.537  28.417  1.00  0.00     0.074 A 
ATOM     58  C   UNL A   1      46.684  32.987  30.027  1.00  0.00     0.029 A 
ATOM     59  N   UNL A   1      45.205  31.379  29.613  1.00  0.00    -0.354 N 
ATOM     60  N   UNL A   1      44.356  28.698  28.776  1.00  0.00    -0.248 NA
ATOM     61  C   UNL A   1      44.847  26.618  27.831  1.00  0.00     0.031 C 
ATOM     62  C   UNL A   1      47.354  31.911  29.438  1.00  0.00     0.029 A 
ATOM     63  C   UNL A   1      46.439  30.894  29.215  1.00  0.00     0.049 A 
ATOM     64  H   UNL A   1      44.358  30.880  29.562  1.00  0.00     0.167 HD
ATOM     65  C   UNL A   1      45.718  28.635  28.491  1.00  0.00     0.074 A 
ATOM     66  C   UNL A   1      45.967  27.318  27.943  1.00  0.00     0.031 C 
ATOM     67  C   UNL A   1      46.675  29.579  28.671  1.00  0.00     0.031 A 
BRANCH  54  68
ATOM     68  C   UNL A   1      44.550  34.907  30.987  1.00  0.00    -0.014 A 
ATOM     69  C   UNL A   1      44.500  35.977  30.077  1.00  0.00     0.010 A 
ATOM     70  C   UNL A   1      44.852  35.171  32.336  1.00  0.00     0.010 A 
ATOM     71  C   UNL A   1      44.782  37.279  30.498  1.00  0.00     0.020 A 
ATOM     72  C   UNL A   1      45.103  36.475  32.769  1.00  0.00     0.020 A 
ATOM     73  C   UNL A   1      45.083  37.519  31.842  1.00  0.00     0.054 A 
BRANCH  73  74
ATOM     74  S   UNL A   1      45.421  39.223  32.366  1.00  0.00     0.124 S 
ATOM     75  O   UNL A   1      46.472  39.621  31.435  1.00  0.00    -0.237 OA
ATOM     76  O   UNL A   1      44.130  39.877  32.173  1.00  0.00    -0.237 OA
ATOM     77  O   UNL A   1      45.843  39.082  33.758  1.00  0.00    -0.744 OA
ENDBRANCH  73  74
ENDBRANCH  54  68
BRANCH  55  78
ATOM     78  C   UNL A   1      42.083  25.665  28.066  1.00  0.00    -0.014 A 
ATOM     79  C   UNL A   1      41.405  25.476  26.848  1.00  0.00     0.010 A 
ATOM     80  C   UNL A   1      42.411  24.539  28.844  1.00  0.00     0.010 A 
ATOM     81  C   UNL A   1      41.048  24.191  26.427  1.00  0.00     0.020 A 
ATOM     82  C   UNL A   1      42.085  23.251  28.410  1.00  0.00     0.020 A 
ATOM     83  C   UNL A   1      41.395  23.086  27.208  1.00  0.00     0.054 A 
BRANCH  83  84
ATOM     84  S   UNL A   1      40.968  21.426  26.613  1.00  0.00     0.124 S 
ATOM     85  O   UNL A   1      40.736  20.706  27.862  1.00  0.00    -0.237 OA
ATOM     86  O   UNL A   1      39.782  21.680  25.799  1.00  0.00    -0.237 OA
ATOM     87  O   UNL A   1      42.154  21.015  25.864  1.00  0.00    -0.744 OA
ENDBRANCH  83  84
ENDBRANCH  55  78
BRANCH  67  88
ATOM     88  C   UNL A   1      48.095  29.216  28.317  1.00  0.00    -0.014 A 
ATOM     89  C   UNL A   1      48.621  29.466  27.037  1.00  0.00     0.010 A 
ATOM     90  C   UNL A   1      48.936  28.673  29.307  1.00  0.00     0.010 A 
ATOM     91  C   UNL A   1      49.952  29.149  26.745  1.00  0.00     0.020 A 
ATOM     92  C   UNL A   1      50.275  28.387  29.029  1.00  0.00     0.020 A 
ATOM     93  C   UNL A   1      50.771  28.614  27.744  1.00  0.00     0.054 A 
BRANCH  93  94
ATOM     94  S   UNL A   1      52.506  28.257  27.353  1.00  0.00     0.124 S 
ATOM     95  O   UNL A   1      52.711  26.977  28.027  1.00  0.00    -0.237 OA
ATOM     96  O   UNL A   1      52.500  28.204  25.893  1.00  0.00    -0.237 OA
ATOM     97  O   UNL A   1      53.232  29.386  27.928  1.00  0.00    -0.744 OA
ENDBRANCH  93  94
ENDBRANCH  67  88
ENDBRANCH  41  42
ENDBRANCH  34  36
ENDBRANCH  33  34
ENDBRANCH  32  33
ENDBRANCH  31  32
ENDBRANCH  30  31
ENDBRANCH  29  30
ENDBRANCH   1  29
TORSDOF 25
ENDMDL
MODEL 3
REMARK VINA RESULT:      -8.8      2.744      9.619
REMARK SMILES C[C@@H]1CCC[N@@H+]([C@@H]2CCC[C@]([NH3+])(C(=O)OCCOCCOCCOCCOC(=O)c3ccc(-c4c5nc(c(-c6ccc(S(=O)(=O)[O-])cc6)c6ccc([nH]6)c(-c6ccc(S(=O)(=O)[O-])cc6)c6nc(c(-c7ccc(S(=O)(=O)[O-])cc7)c7ccc4[nH]7)C=C6)C=C5)cc3)C2)C1
REMARK SMILES IDX 22 1 21 2 20 3 19 4 18 5 17 6 16 7 15 8 13 9 14 10 11 11
REMARK SMILES IDX 7 12 8 13 90 14 9 15 10 16 6 17 1 18 2 19 3 20 91 21 4 22
REMARK SMILES IDX 5 23 12 25 23 29 24 30 25 31 26 32 27 33 28 34 29 35 30 36
REMARK SMILES IDX 31 37 89 38 32 39 88 40 33 41 34 42 35 43 82 44 36 45 87 46
REMARK SMILES IDX 81 47 83 48 37 49 86 50 80 51 79 52 38 54 68 55 49 56 67 57
REMARK SMILES IDX 50 58 53 59 66 60 84 61 51 62 52 63 65 65 85 66 54 67 39 68
REMARK SMILES IDX 40 69 48 70 41 71 47 72 42 73 43 74 44 75 45 76 46 77 69 78
REMARK SMILES IDX 70 79 78 80 71 81 77 82 72 83 73 84 74 85 75 86 76 87 55 88
REMARK SMILES IDX 56 89 64 90 57 91 63 92 58 93 59 94 60 95 61 96 62 97
REMARK H PARENT 6 24 12 26 12 27 12 28 83 53 53 64
REMARK Flexibility Score: inf
ROOT
ATOM      1  C   UNL A   1      41.123  34.686  29.535  1.00  0.00     0.188 C 
ENDROOT
BRANCH   1   2
ATOM      2  O   UNL A   1      41.982  35.757  29.150  1.00  0.00    -0.377 OA
BRANCH   2   3
ATOM      3  C   UNL A   1      41.833  36.280  27.848  1.00  0.00     0.188 C 
BRANCH   3   4
ATOM      4  C   UNL A   1      42.447  37.672  27.636  1.00  0.00     0.188 C 
BRANCH   4   5
ATOM      5  O   UNL A   1      41.687  38.850  27.846  1.00  0.00    -0.376 OA
BRANCH   5   6
ATOM      6  C   UNL A   1      42.060  40.111  27.304  1.00  0.00     0.202 C 
BRANCH   6   7
ATOM      7  C   UNL A   1      42.981  40.299  26.090  1.00  0.00     0.261 C 
BRANCH   7   8
ATOM      8  O   UNL A   1      42.903  41.571  25.448  1.00  0.00    -0.459 OA
BRANCH   8   9
ATOM      9  C   UNL A   1      43.968  41.901  24.675  1.00  0.00     0.368 C 
ATOM     10  O   UNL A   1      45.026  41.279  24.654  1.00  0.00    -0.245 OA
BRANCH   9  11
ATOM     11  C   UNL A   1      43.688  43.125  23.767  1.00  0.00     0.198 C 
ATOM     12  C   UNL A   1      44.201  43.857  21.305  1.00  0.00     0.190 C 
ATOM     13  C   UNL A   1      44.911  45.084  21.910  1.00  0.00     0.065 C 
ATOM     14  C   UNL A   1      44.053  42.710  22.321  1.00  0.00     0.145 C 
ATOM     15  C   UNL A   1      44.525  45.448  23.336  1.00  0.00     0.013 C 
ATOM     16  C   UNL A   1      44.610  44.242  24.251  1.00  0.00     0.081 C 
BRANCH  12  17
ATOM     17  N   UNL A   1      44.708  43.372  19.986  1.00  0.00    -0.332 N 
ATOM     18  C   UNL A   1      43.509  45.559  17.042  1.00  0.00     0.013 C 
ATOM     19  C   UNL A   1      44.279  45.230  18.318  1.00  0.00     0.041 C 
ATOM     20  C   UNL A   1      45.789  45.438  18.140  1.00  0.00     0.015 C 
ATOM     21  C   UNL A   1      43.938  43.811  18.815  1.00  0.00     0.265 C 
ATOM     22  C   UNL A   1      46.617  44.858  19.287  1.00  0.00     0.062 C 
ATOM     23  C   UNL A   1      46.143  43.465  19.691  1.00  0.00     0.262 C 
ATOM     24  H   UNL A   1      44.544  42.380  20.153  1.00  0.00     0.348 HD
ENDBRANCH  12  17
BRANCH  11  25
ATOM     25  N   UNL A   1      42.303  43.647  23.886  1.00  0.00    -0.343 N 
ATOM     26  H   UNL A   1      41.918  43.804  22.955  1.00  0.00     0.345 HD
ATOM     27  H   UNL A   1      42.315  44.528  24.401  1.00  0.00     0.345 HD
ATOM     28  H   UNL A   1      41.725  42.969  24.384  1.00  0.00     0.345 HD
ENDBRANCH  11  25
ENDBRANCH   9  11
ENDBRANCH   8   9
ENDBRANCH   7   8
ENDBRANCH   6   7
ENDBRANCH   5   6
ENDBRANCH   4   5
ENDBRANCH   3   4
ENDBRANCH   2   3
ENDBRANCH   1   2
BRANCH   1  29
ATOM     29  C   UNL A   1      39.589  34.844  29.417  1.00  0.00     0.188 C 
BRANCH  29  30
ATOM     30  O   UNL A   1      38.843  33.654  29.621  1.00  0.00    -0.376 OA
BRANCH  30  31
ATOM     31  C   UNL A   1      37.427  33.707  29.538  1.00  0.00     0.202 C 
BRANCH  31  32
ATOM     32  C   UNL A   1      36.670  32.408  29.217  1.00  0.00     0.261 C 
BRANCH  32  33
ATOM     33  O   UNL A   1      37.198  31.198  29.782  1.00  0.00    -0.460 OA
BRANCH  33  34
ATOM     34  C   UNL A   1      37.020  30.047  29.100  1.00  0.00     0.338 C 
ATOM     35  O   UNL A   1      35.964  29.598  28.683  1.00  0.00    -0.246 OA
BRANCH  34  36
ATOM     36  C   UNL A   1      38.355  29.517  28.753  1.00  0.00     0.060 A 
ATOM     37  C   UNL A   1      39.188  29.053  29.779  1.00  0.00     0.016 A 
ATOM     38  C   UNL A   1      38.781  29.480  27.424  1.00  0.00     0.016 A 
ATOM     39  C   UNL A   1      40.470  28.590  29.483  1.00  0.00     0.010 A 
ATOM     40  C   UNL A   1      40.075  29.038  27.132  1.00  0.00     0.010 A 
ATOM     41  C   UNL A   1      40.938  28.628  28.164  1.00  0.00    -0.014 A 
BRANCH  41  42
ATOM     42  C   UNL A   1      42.385  28.447  27.891  1.00  0.00     0.031 A 
ATOM     43  C   UNL A   1      43.308  29.605  28.166  1.00  0.00     0.074 A 
ATOM     44  C   UNL A   1      42.876  27.283  27.432  1.00  0.00     0.049 A 
ATOM     45  N   UNL A   1      44.595  29.707  27.960  1.00  0.00    -0.248 NA
ATOM     46  C   UNL A   1      42.693  30.809  28.750  1.00  0.00     0.031 C 
ATOM     47  C   UNL A   1      42.095  26.073  27.179  1.00  0.00     0.029 A 
ATOM     48  N   UNL A   1      44.159  26.934  27.090  1.00  0.00    -0.354 N 
ATOM     49  C   UNL A   1      44.941  30.988  28.375  1.00  0.00     0.074 A 
ATOM     50  C   UNL A   1      43.726  31.635  28.817  1.00  0.00     0.031 C 
ATOM     51  C   UNL A   1      42.917  25.115  26.713  1.00  0.00     0.029 A 
ATOM     52  C   UNL A   1      44.270  25.656  26.596  1.00  0.00     0.049 A 
ATOM     53  H   UNL A   1      44.927  27.541  27.191  1.00  0.00     0.167 HD
ATOM     54  C   UNL A   1      46.162  31.573  28.390  1.00  0.00     0.031 A 
ATOM     55  C   UNL A   1      45.336  25.008  26.083  1.00  0.00     0.031 A 
ATOM     56  C   UNL A   1      47.366  30.930  27.933  1.00  0.00     0.049 A 
ATOM     57  C   UNL A   1      46.671  25.710  26.028  1.00  0.00     0.074 A 
ATOM     58  C   UNL A   1      48.655  31.433  27.918  1.00  0.00     0.029 A 
ATOM     59  N   UNL A   1      47.429  29.651  27.402  1.00  0.00    -0.354 N 
ATOM     60  N   UNL A   1      46.988  26.913  26.444  1.00  0.00    -0.248 NA
ATOM     61  C   UNL A   1      47.792  24.962  25.441  1.00  0.00     0.031 C 
ATOM     62  C   UNL A   1      49.485  30.485  27.313  1.00  0.00     0.029 A 
ATOM     63  C   UNL A   1      48.729  29.360  27.025  1.00  0.00     0.049 A 
ATOM     64  H   UNL A   1      46.662  29.041  27.306  1.00  0.00     0.167 HD
ATOM     65  C   UNL A   1      48.353  27.052  26.200  1.00  0.00     0.074 A 
ATOM     66  C   UNL A   1      48.800  25.806  25.613  1.00  0.00     0.031 C 
ATOM     67  C   UNL A   1      49.162  28.114  26.443  1.00  0.00     0.031 A 
BRANCH  54  68
ATOM     68  C   UNL A   1      46.247  32.996  28.879  1.00  0.00    -0.014 A 
ATOM     69  C   UNL A   1      46.251  34.080  27.983  1.00  0.00     0.010 A 
ATOM     70  C   UNL A   1      46.288  33.251  30.262  1.00  0.00     0.010 A 
ATOM     71  C   UNL A   1      46.332  35.392  28.460  1.00  0.00     0.020 A 
ATOM     72  C   UNL A   1      46.337  34.562  30.744  1.00  0.00     0.020 A 
ATOM     73  C   UNL A   1      46.375  35.623  29.838  1.00  0.00     0.054 A 
BRANCH  73  74
ATOM     74  S   UNL A   1      46.455  37.336  30.430  1.00  0.00     0.124 S 
ATOM     75  O   UNL A   1      45.255  37.425  31.257  1.00  0.00    -0.237 OA
ATOM     76  O   UNL A   1      47.721  37.363  31.156  1.00  0.00    -0.237 OA
ATOM     77  O   UNL A   1      46.426  38.130  29.203  1.00  0.00    -0.744 OA
ENDBRANCH  73  74
ENDBRANCH  54  68
BRANCH  55  78
ATOM     78  C   UNL A   1      45.185  23.623  25.555  1.00  0.00    -0.014 A 
ATOM     79  C   UNL A   1      45.658  22.518  26.286  1.00  0.00     0.010 A 
ATOM     80  C   UNL A   1      44.571  23.401  24.308  1.00  0.00     0.010 A 
ATOM     81  C   UNL A   1      45.534  21.222  25.773  1.00  0.00     0.020 A 
ATOM     82  C   UNL A   1      44.416  22.105  23.807  1.00  0.00     0.020 A 
ATOM     83  C   UNL A   1      44.910  21.025  24.539  1.00  0.00     0.054 A 
BRANCH  83  84
ATOM     84  S   UNL A   1      44.713  19.330  23.920  1.00  0.00     0.124 S 
ATOM     85  O   UNL A   1      45.980  18.716  24.308  1.00  0.00    -0.237 OA
ATOM     86  O   UNL A   1      43.536  18.865  24.649  1.00  0.00    -0.237 OA
ATOM     87  O   UNL A   1      44.519  19.509  22.483  1.00  0.00    -0.744 OA
ENDBRANCH  83  84
ENDBRANCH  55  78
BRANCH  67  88
ATOM     88  C   UNL A   1      50.628  27.967  26.121  1.00  0.00    -0.014 A 
ATOM     89  C   UNL A   1      51.540  27.457  27.061  1.00  0.00     0.010 A 
ATOM     90  C   UNL A   1      51.086  28.288  24.829  1.00  0.00     0.010 A 
ATOM     91  C   UNL A   1      52.889  27.300  26.726  1.00  0.00     0.020 A 
ATOM     92  C   UNL A   1      52.427  28.101  24.479  1.00  0.00     0.020 A 
ATOM     93  C   UNL A   1      53.322  27.621  25.436  1.00  0.00     0.054 A 
BRANCH  93  94
ATOM     94  S   UNL A   1      55.068  27.364  25.012  1.00  0.00     0.124 S 
ATOM     95  O   UNL A   1      55.015  26.118  24.251  1.00  0.00    -0.237 OA
ATOM     96  O   UNL A   1      55.388  28.560  24.237  1.00  0.00    -0.237 OA
ATOM     97  O   UNL A   1      55.731  27.273  26.309  1.00  0.00    -0.744 OA
ENDBRANCH  93  94
ENDBRANCH  67  88
ENDBRANCH  41  42
ENDBRANCH  34  36
ENDBRANCH  33  34
ENDBRANCH  32  33
ENDBRANCH  31  32
ENDBRANCH  30  31
ENDBRANCH  29  30
ENDBRANCH   1  29
TORSDOF 25
ENDMDL
