MODEL 1
REMARK VINA RESULT:     -10.0      0.000      0.000
REMARK SMILES O=C(OCCOCCOCCOCCOC(=O)[C@H](c1c[nH]c2cc(F)ccc12)[NH+]1CCN(c2ccccc2)CC1)c1ccc(-c2c3nc(c(-c4ccc(S(=O)(=O)[O-])cc4)c4ccc([nH]4)c(-c4ccc(S(=O)(=O)[O-])cc4)c4nc(c(-c5ccc(S(=O)(=O)[O-])cc5)c5ccc2[nH]5)C=C4)C=C3)cc1
REMARK SMILES IDX 8 1 7 2 6 3 5 4 4 5 3 6 2 7 1 8 41 9 42 10 100 11 43 12
REMARK SMILES IDX 99 13 44 14 45 15 46 16 93 17 47 18 98 19 92 20 94 21 48 22
REMARK SMILES IDX 97 23 91 24 90 25 49 27 79 28 60 29 78 30 61 31 64 32 77 33
REMARK SMILES IDX 95 34 62 35 63 36 76 38 96 39 65 40 50 41 51 42 59 43 52 44
REMARK SMILES IDX 58 45 53 46 54 47 55 48 56 49 57 50 80 51 81 52 89 53 82 54
REMARK SMILES IDX 88 55 83 56 84 57 85 58 86 59 87 60 66 61 67 62 75 63 68 64
REMARK SMILES IDX 74 65 69 66 70 67 71 68 72 69 73 70 9 71 10 72 11 73 12 74
REMARK SMILES IDX 13 75 14 76 15 77 16 78 17 79 18 80 29 81 30 82 40 83 31 85
REMARK SMILES IDX 39 86 32 87 33 88 34 89 38 90 35 91 37 92 36 93 19 94 20 95
REMARK SMILES IDX 28 96 21 97 22 98 27 99 23 101 26 102 24 103 25 104
REMARK H PARENT 94 26 64 37 29 84 21 100
REMARK Flexibility Score: inf
ROOT
ATOM      1  C   UNL A   1      31.427  28.879  25.619  1.00  0.00     0.188 C 
ENDROOT
BRANCH   1   2
ATOM      2  C   UNL A   1      32.168  28.675  26.939  1.00  0.00     0.188 C 
BRANCH   2   3
ATOM      3  O   UNL A   1      32.894  29.854  27.277  1.00  0.00    -0.376 OA
BRANCH   3   4
ATOM      4  C   UNL A   1      34.281  29.874  26.955  1.00  0.00     0.202 C 
BRANCH   4   5
ATOM      5  C   UNL A   1      35.181  29.731  28.176  1.00  0.00     0.261 C 
BRANCH   5   6
ATOM      6  O   UNL A   1      36.572  29.648  27.838  1.00  0.00    -0.460 OA
BRANCH   6   7
ATOM      7  C   UNL A   1      37.603  29.216  28.604  1.00  0.00     0.338 C 
ATOM      8  O   UNL A   1      37.338  28.828  29.743  1.00  0.00    -0.246 OA
BRANCH   7   9
ATOM      9  C   UNL A   1      39.042  29.165  28.180  1.00  0.00     0.060 A 
ATOM     10  C   UNL A   1      39.522  29.143  26.868  1.00  0.00     0.016 A 
ATOM     11  C   UNL A   1      39.991  29.244  29.214  1.00  0.00     0.016 A 
ATOM     12  C   UNL A   1      40.879  29.206  26.579  1.00  0.00     0.010 A 
ATOM     13  C   UNL A   1      41.360  29.295  28.940  1.00  0.00     0.010 A 
ATOM     14  C   UNL A   1      41.801  29.269  27.615  1.00  0.00    -0.014 A 
BRANCH  14  15
ATOM     15  C   UNL A   1      43.224  29.130  27.274  1.00  0.00     0.031 A 
ATOM     16  C   UNL A   1      43.674  27.806  26.741  1.00  0.00     0.074 A 
ATOM     17  C   UNL A   1      44.038  30.198  27.332  1.00  0.00     0.049 A 
ATOM     18  N   UNL A   1      44.879  27.393  26.474  1.00  0.00    -0.248 NA
ATOM     19  C   UNL A   1      42.619  26.815  26.456  1.00  0.00     0.031 C 
ATOM     20  C   UNL A   1      43.625  31.560  27.687  1.00  0.00     0.029 A 
ATOM     21  N   UNL A   1      45.378  30.313  27.080  1.00  0.00    -0.354 N 
ATOM     22  C   UNL A   1      44.734  26.080  26.043  1.00  0.00     0.074 A 
ATOM     23  C   UNL A   1      43.325  25.768  26.057  1.00  0.00     0.031 C 
ATOM     24  C   UNL A   1      44.695  32.370  27.639  1.00  0.00     0.029 A 
ATOM     25  C   UNL A   1      45.875  31.571  27.332  1.00  0.00     0.049 A 
ATOM     26  H   UNL A   1      45.932  29.569  26.750  1.00  0.00     0.167 HD
ATOM     27  C   UNL A   1      45.710  25.214  25.698  1.00  0.00     0.031 A 
ATOM     28  C   UNL A   1      47.153  31.995  27.374  1.00  0.00     0.031 A 
ATOM     29  C   UNL A   1      47.099  25.573  25.704  1.00  0.00     0.049 A 
ATOM     30  C   UNL A   1      48.228  30.974  27.099  1.00  0.00     0.074 A 
ATOM     31  C   UNL A   1      48.194  24.785  25.412  1.00  0.00     0.029 A 
ATOM     32  N   UNL A   1      47.579  26.834  26.032  1.00  0.00    -0.354 N 
ATOM     33  N   UNL A   1      48.095  29.720  26.726  1.00  0.00    -0.248 NA
ATOM     34  C   UNL A   1      49.619  31.409  27.269  1.00  0.00     0.031 C 
ATOM     35  C   UNL A   1      49.341  25.553  25.633  1.00  0.00     0.029 A 
ATOM     36  C   UNL A   1      48.958  26.838  25.993  1.00  0.00     0.049 A 
ATOM     37  H   UNL A   1      47.017  27.611  26.257  1.00  0.00     0.167 HD
ATOM     38  C   UNL A   1      49.384  29.219  26.613  1.00  0.00     0.074 A 
ATOM     39  C   UNL A   1      50.283  30.315  26.922  1.00  0.00     0.031 C 
ATOM     40  C   UNL A   1      49.800  27.966  26.300  1.00  0.00     0.031 A 
BRANCH  27  41
ATOM     41  C   UNL A   1      45.317  23.796  25.399  1.00  0.00    -0.014 A 
ATOM     42  C   UNL A   1      45.344  23.275  24.095  1.00  0.00     0.010 A 
ATOM     43  C   UNL A   1      44.940  22.959  26.466  1.00  0.00     0.010 A 
ATOM     44  C   UNL A   1      44.995  21.940  23.863  1.00  0.00     0.020 A 
ATOM     45  C   UNL A   1      44.613  21.620  26.243  1.00  0.00     0.020 A 
ATOM     46  C   UNL A   1      44.639  21.120  24.941  1.00  0.00     0.054 A 
BRANCH  46  47
ATOM     47  S   UNL A   1      44.264  19.374  24.620  1.00  0.00     0.124 S 
ATOM     48  O   UNL A   1      42.853  19.294  24.992  1.00  0.00    -0.237 OA
ATOM     49  O   UNL A   1      44.544  19.247  23.192  1.00  0.00    -0.237 OA
ATOM     50  O   UNL A   1      45.180  18.653  25.499  1.00  0.00    -0.744 OA
ENDBRANCH  46  47
ENDBRANCH  27  41
BRANCH  28  51
ATOM     51  C   UNL A   1      47.489  33.382  27.810  1.00  0.00    -0.014 A 
ATOM     52  C   UNL A   1      47.644  33.705  29.169  1.00  0.00     0.010 A 
ATOM     53  C   UNL A   1      47.606  34.412  26.855  1.00  0.00     0.010 A 
ATOM     54  C   UNL A   1      47.864  35.031  29.564  1.00  0.00     0.020 A 
ATOM     55  C   UNL A   1      47.861  35.730  27.242  1.00  0.00     0.020 A 
ATOM     56  C   UNL A   1      47.964  36.036  28.598  1.00  0.00     0.054 A 
BRANCH  56  57
ATOM     57  S   UNL A   1      48.230  37.750  29.132  1.00  0.00     0.124 S 
ATOM     58  O   UNL A   1      47.635  37.748  30.463  1.00  0.00    -0.237 OA
ATOM     59  O   UNL A   1      49.685  37.872  29.087  1.00  0.00    -0.237 OA
ATOM     60  O   UNL A   1      47.516  38.535  28.128  1.00  0.00    -0.744 OA
ENDBRANCH  56  57
ENDBRANCH  28  51
BRANCH  40  61
ATOM     61  C   UNL A   1      51.281  27.730  26.259  1.00  0.00    -0.014 A 
ATOM     62  C   UNL A   1      51.933  27.064  27.310  1.00  0.00     0.010 A 
ATOM     63  C   UNL A   1      52.005  28.097  25.111  1.00  0.00     0.010 A 
ATOM     64  C   UNL A   1      53.295  26.779  27.219  1.00  0.00     0.020 A 
ATOM     65  C   UNL A   1      53.360  27.784  25.002  1.00  0.00     0.020 A 
ATOM     66  C   UNL A   1      53.997  27.134  26.061  1.00  0.00     0.054 A 
BRANCH  66  67
ATOM     67  S   UNL A   1      55.746  26.680  25.937  1.00  0.00     0.124 S 
ATOM     68  O   UNL A   1      56.000  26.087  27.248  1.00  0.00    -0.237 OA
ATOM     69  O   UNL A   1      55.754  25.748  24.812  1.00  0.00    -0.237 OA
ATOM     70  O   UNL A   1      56.417  27.953  25.688  1.00  0.00    -0.744 OA
ENDBRANCH  66  67
ENDBRANCH  40  61
ENDBRANCH  14  15
ENDBRANCH   7   9
ENDBRANCH   6   7
ENDBRANCH   5   6
ENDBRANCH   4   5
ENDBRANCH   3   4
ENDBRANCH   2   3
ENDBRANCH   1   2
BRANCH   1  71
ATOM     71  O   UNL A   1      30.740  27.722  25.154  1.00  0.00    -0.377 OA
BRANCH  71  72
ATOM     72  C   UNL A   1      30.750  26.603  26.034  1.00  0.00     0.188 C 
BRANCH  72  73
ATOM     73  C   UNL A   1      29.914  25.354  25.665  1.00  0.00     0.188 C 
BRANCH  73  74
ATOM     74  O   UNL A   1      30.705  24.216  25.371  1.00  0.00    -0.376 OA
BRANCH  74  75
ATOM     75  C   UNL A   1      31.047  23.410  26.491  1.00  0.00     0.202 C 
BRANCH  75  76
ATOM     76  C   UNL A   1      32.312  22.551  26.338  1.00  0.00     0.261 C 
BRANCH  76  77
ATOM     77  O   UNL A   1      32.200  21.356  25.529  1.00  0.00    -0.459 OA
BRANCH  77  78
ATOM     78  C   UNL A   1      32.831  21.282  24.315  1.00  0.00     0.370 C 
ATOM     79  O   UNL A   1      32.554  20.466  23.453  1.00  0.00    -0.245 OA
BRANCH  78  80
ATOM     80  C   UNL A   1      33.888  22.442  24.206  1.00  0.00     0.328 C 
BRANCH  80  81
ATOM     81  N   UNL A   1      35.214  21.811  23.983  1.00  0.00    -0.316 N 
ATOM     82  C   UNL A   1      36.318  22.690  23.565  1.00  0.00     0.284 C 
ATOM     83  C   UNL A   1      35.638  21.072  25.199  1.00  0.00     0.284 C 
ATOM     84  H   UNL A   1      35.047  21.199  23.185  1.00  0.00     0.349 HD
ATOM     85  C   UNL A   1      36.834  23.667  24.636  1.00  0.00     0.178 C 
ATOM     86  C   UNL A   1      36.146  21.972  26.355  1.00  0.00     0.178 C 
ATOM     87  N   UNL A   1      37.121  22.966  25.897  1.00  0.00    -0.360 N 
BRANCH  87  88
ATOM     88  C   UNL A   1      38.469  22.874  26.190  1.00  0.00     0.037 A 
ATOM     89  C   UNL A   1      39.136  21.662  25.948  1.00  0.00     0.026 A 
ATOM     90  C   UNL A   1      39.170  23.902  26.821  1.00  0.00     0.026 A 
ATOM     91  C   UNL A   1      40.450  21.464  26.362  1.00  0.00     0.002 A 
ATOM     92  C   UNL A   1      40.486  23.708  27.244  1.00  0.00     0.002 A 
ATOM     93  C   UNL A   1      41.122  22.488  27.022  1.00  0.00     0.000 A 
ENDBRANCH  87  88
ENDBRANCH  80  81
BRANCH  80  94
ATOM     94  C   UNL A   1      33.509  23.519  23.176  1.00  0.00     0.046 A 
ATOM     95  C   UNL A   1      33.042  23.332  21.886  1.00  0.00     0.094 A 
ATOM     96  C   UNL A   1      33.587  24.964  23.353  1.00  0.00     0.009 A 
ATOM     97  N   UNL A   1      32.890  24.550  21.277  1.00  0.00    -0.361 N 
ATOM     98  C   UNL A   1      33.244  25.562  22.137  1.00  0.00     0.049 A 
ATOM     99  C   UNL A   1      33.965  25.818  24.422  1.00  0.00     0.014 A 
ATOM    100  H   UNL A   1      32.573  24.681  20.355  1.00  0.00     0.166 HD
ATOM    101  C   UNL A   1      33.297  26.949  21.926  1.00  0.00     0.065 A 
ATOM    102  C   UNL A   1      34.023  27.205  24.227  1.00  0.00     0.040 A 
ATOM    103  C   UNL A   1      33.704  27.748  22.993  1.00  0.00     0.125 A 
ATOM    104  F   UNL A   1      33.790  29.075  22.819  1.00  0.00    -0.207 F 
ENDBRANCH  80  94
ENDBRANCH  78  80
ENDBRANCH  77  78
ENDBRANCH  76  77
ENDBRANCH  75  76
ENDBRANCH  74  75
ENDBRANCH  73  74
ENDBRANCH  72  73
ENDBRANCH  71  72
ENDBRANCH   1  71
TORSDOF 26
ENDMDL
MODEL 2
REMARK VINA RESULT:      -9.2      2.591      9.124
REMARK SMILES O=C(OCCOCCOCCOCCOC(=O)[C@H](c1c[nH]c2cc(F)ccc12)[NH+]1CCN(c2ccccc2)CC1)c1ccc(-c2c3nc(c(-c4ccc(S(=O)(=O)[O-])cc4)c4ccc([nH]4)c(-c4ccc(S(=O)(=O)[O-])cc4)c4nc(c(-c5ccc(S(=O)(=O)[O-])cc5)c5ccc2[nH]5)C=C4)C=C3)cc1
REMARK SMILES IDX 8 1 7 2 6 3 5 4 4 5 3 6 2 7 1 8 41 9 42 10 100 11 43 12
REMARK SMILES IDX 99 13 44 14 45 15 46 16 93 17 47 18 98 19 92 20 94 21 48 22
REMARK SMILES IDX 97 23 91 24 90 25 49 27 79 28 60 29 78 30 61 31 64 32 77 33
REMARK SMILES IDX 95 34 62 35 63 36 76 38 96 39 65 40 50 41 51 42 59 43 52 44
REMARK SMILES IDX 58 45 53 46 54 47 55 48 56 49 57 50 80 51 81 52 89 53 82 54
REMARK SMILES IDX 88 55 83 56 84 57 85 58 86 59 87 60 66 61 67 62 75 63 68 64
REMARK SMILES IDX 74 65 69 66 70 67 71 68 72 69 73 70 9 71 10 72 11 73 12 74
REMARK SMILES IDX 13 75 14 76 15 77 16 78 17 79 18 80 29 81 30 82 40 83 31 85
REMARK SMILES IDX 39 86 32 87 33 88 34 89 38 90 35 91 37 92 36 93 19 94 20 95
REMARK SMILES IDX 28 96 21 97 22 98 27 99 23 101 26 102 24 103 25 104
REMARK H PARENT 94 26 64 37 29 84 21 100
REMARK Flexibility Score: inf
ROOT
ATOM      1  C   UNL A   1      40.152  21.957  26.909  1.00  0.00     0.188 C 
ENDROOT
BRANCH   1   2
ATOM      2  C   UNL A   1      40.798  20.892  26.025  1.00  0.00     0.188 C 
BRANCH   2   3
ATOM      3  O   UNL A   1      41.810  20.202  26.753  1.00  0.00    -0.376 OA
BRANCH   3   4
ATOM      4  C   UNL A   1      42.036  18.838  26.413  1.00  0.00     0.202 C 
BRANCH   4   5
ATOM      5  C   UNL A   1      43.508  18.513  26.191  1.00  0.00     0.261 C 
BRANCH   5   6
ATOM      6  O   UNL A   1      43.928  18.723  24.836  1.00  0.00    -0.460 OA
BRANCH   6   7
ATOM      7  C   UNL A   1      44.872  19.576  24.368  1.00  0.00     0.338 C 
ATOM      8  O   UNL A   1      45.726  19.114  23.609  1.00  0.00    -0.246 OA
BRANCH   7   9
ATOM      9  C   UNL A   1      44.962  21.038  24.692  1.00  0.00     0.060 A 
ATOM     10  C   UNL A   1      44.646  22.101  23.841  1.00  0.00     0.016 A 
ATOM     11  C   UNL A   1      45.309  21.354  26.017  1.00  0.00     0.016 A 
ATOM     12  C   UNL A   1      44.659  23.420  24.273  1.00  0.00     0.010 A 
ATOM     13  C   UNL A   1      45.340  22.678  26.463  1.00  0.00     0.010 A 
ATOM     14  C   UNL A   1      45.019  23.713  25.581  1.00  0.00    -0.014 A 
BRANCH  14  15
ATOM     15  C   UNL A   1      45.215  25.125  25.938  1.00  0.00     0.031 A 
ATOM     16  C   UNL A   1      46.587  25.694  25.752  1.00  0.00     0.074 A 
ATOM     17  C   UNL A   1      44.163  25.882  26.296  1.00  0.00     0.049 A 
ATOM     18  N   UNL A   1      47.046  26.863  26.091  1.00  0.00    -0.248 NA
ATOM     19  C   UNL A   1      47.575  24.829  25.077  1.00  0.00     0.031 C 
ATOM     20  C   UNL A   1      42.769  25.428  26.339  1.00  0.00     0.029 A 
ATOM     21  N   UNL A   1      44.098  27.194  26.678  1.00  0.00    -0.354 N 
ATOM     22  C   UNL A   1      48.385  26.857  25.723  1.00  0.00     0.074 A 
ATOM     23  C   UNL A   1      48.665  25.580  25.110  1.00  0.00     0.031 C 
ATOM     24  C   UNL A   1      41.989  26.447  26.736  1.00  0.00     0.029 A 
ATOM     25  C   UNL A   1      42.835  27.591  27.052  1.00  0.00     0.049 A 
ATOM     26  H   UNL A   1      44.878  27.795  26.684  1.00  0.00     0.167 HD
ATOM     27  C   UNL A   1      49.297  27.832  25.916  1.00  0.00     0.031 A 
ATOM     28  C   UNL A   1      42.436  28.732  27.648  1.00  0.00     0.031 A 
ATOM     29  C   UNL A   1      48.969  29.085  26.535  1.00  0.00     0.049 A 
ATOM     30  C   UNL A   1      43.499  29.756  27.958  1.00  0.00     0.074 A 
ATOM     31  C   UNL A   1      49.801  30.148  26.825  1.00  0.00     0.029 A 
ATOM     32  N   UNL A   1      47.697  29.433  26.968  1.00  0.00    -0.354 N 
ATOM     33  N   UNL A   1      44.776  29.737  27.643  1.00  0.00    -0.248 NA
ATOM     34  C   UNL A   1      43.082  30.939  28.719  1.00  0.00     0.031 C 
ATOM     35  C   UNL A   1      49.043  31.110  27.498  1.00  0.00     0.029 A 
ATOM     36  C   UNL A   1      47.726  30.677  27.564  1.00  0.00     0.049 A 
ATOM     37  H   UNL A   1      46.892  28.875  26.863  1.00  0.00     0.167 HD
ATOM     38  C   UNL A   1      45.313  30.907  28.163  1.00  0.00     0.074 A 
ATOM     39  C   UNL A   1      44.215  31.626  28.781  1.00  0.00     0.031 C 
ATOM     40  C   UNL A   1      46.595  31.349  28.152  1.00  0.00     0.031 A 
BRANCH  27  41
ATOM     41  C   UNL A   1      50.725  27.540  25.558  1.00  0.00    -0.014 A 
ATOM     42  C   UNL A   1      51.283  27.940  24.332  1.00  0.00     0.010 A 
ATOM     43  C   UNL A   1      51.534  26.871  26.495  1.00  0.00     0.010 A 
ATOM     44  C   UNL A   1      52.626  27.671  24.049  1.00  0.00     0.020 A 
ATOM     45  C   UNL A   1      52.882  26.620  26.226  1.00  0.00     0.020 A 
ATOM     46  C   UNL A   1      53.418  27.019  25.002  1.00  0.00     0.054 A 
BRANCH  46  47
ATOM     47  S   UNL A   1      55.175  26.749  24.637  1.00  0.00     0.124 S 
ATOM     48  O   UNL A   1      55.474  25.568  25.444  1.00  0.00    -0.237 OA
ATOM     49  O   UNL A   1      55.170  26.537  23.192  1.00  0.00    -0.237 OA
ATOM     50  O   UNL A   1      55.816  27.984  25.081  1.00  0.00    -0.744 OA
ENDBRANCH  46  47
ENDBRANCH  27  41
BRANCH  28  51
ATOM     51  C   UNL A   1      41.027  28.910  28.103  1.00  0.00    -0.014 A 
ATOM     52  C   UNL A   1      40.012  29.293  27.210  1.00  0.00     0.010 A 
ATOM     53  C   UNL A   1      40.699  28.743  29.464  1.00  0.00     0.010 A 
ATOM     54  C   UNL A   1      38.714  29.547  27.674  1.00  0.00     0.020 A 
ATOM     55  C   UNL A   1      39.399  28.961  29.926  1.00  0.00     0.020 A 
ATOM     56  C   UNL A   1      38.418  29.386  29.031  1.00  0.00     0.054 A 
BRANCH  56  57
ATOM     57  S   UNL A   1      36.737  29.739  29.615  1.00  0.00     0.124 S 
ATOM     58  O   UNL A   1      36.689  28.993  30.868  1.00  0.00    -0.237 OA
ATOM     59  O   UNL A   1      36.746  31.194  29.742  1.00  0.00    -0.237 OA
ATOM     60  O   UNL A   1      35.888  29.221  28.545  1.00  0.00    -0.744 OA
ENDBRANCH  56  57
ENDBRANCH  28  51
BRANCH  40  61
ATOM     61  C   UNL A   1      46.865  32.671  28.808  1.00  0.00    -0.014 A 
ATOM     62  C   UNL A   1      47.267  32.739  30.152  1.00  0.00     0.010 A 
ATOM     63  C   UNL A   1      46.807  33.846  28.037  1.00  0.00     0.010 A 
ATOM     64  C   UNL A   1      47.594  33.969  30.722  1.00  0.00     0.020 A 
ATOM     65  C   UNL A   1      47.166  35.073  28.595  1.00  0.00     0.020 A 
ATOM     66  C   UNL A   1      47.550  35.126  29.937  1.00  0.00     0.054 A 
BRANCH  66  67
ATOM     67  S   UNL A   1      48.058  36.697  30.681  1.00  0.00     0.124 S 
ATOM     68  O   UNL A   1      49.100  36.269  31.612  1.00  0.00    -0.237 OA
ATOM     69  O   UNL A   1      48.521  37.462  29.527  1.00  0.00    -0.237 OA
ATOM     70  O   UNL A   1      46.834  37.197  31.303  1.00  0.00    -0.744 OA
ENDBRANCH  66  67
ENDBRANCH  40  61
ENDBRANCH  14  15
ENDBRANCH   7   9
ENDBRANCH   6   7
ENDBRANCH   5   6
ENDBRANCH   4   5
ENDBRANCH   3   4
ENDBRANCH   2   3
ENDBRANCH   1   2
BRANCH   1  71
ATOM     71  O   UNL A   1      38.984  22.546  26.349  1.00  0.00    -0.377 OA
BRANCH  71  72
ATOM     72  C   UNL A   1      38.436  21.877  25.219  1.00  0.00     0.188 C 
BRANCH  72  73
ATOM     73  C   UNL A   1      37.301  22.563  24.421  1.00  0.00     0.188 C 
BRANCH  73  74
ATOM     74  O   UNL A   1      36.097  21.816  24.404  1.00  0.00    -0.376 OA
BRANCH  74  75
ATOM     75  C   UNL A   1      35.849  21.041  25.570  1.00  0.00     0.202 C 
BRANCH  75  76
ATOM     76  C   UNL A   1      34.862  21.647  26.581  1.00  0.00     0.261 C 
BRANCH  76  77
ATOM     77  O   UNL A   1      33.988  22.693  26.097  1.00  0.00    -0.459 OA
BRANCH  77  78
ATOM     78  C   UNL A   1      32.628  22.558  26.197  1.00  0.00     0.370 C 
ATOM     79  O   UNL A   1      32.037  22.374  27.246  1.00  0.00    -0.245 OA
BRANCH  78  80
ATOM     80  C   UNL A   1      31.980  22.752  24.775  1.00  0.00     0.328 C 
BRANCH  80  81
ATOM     81  N   UNL A   1      32.551  23.995  24.196  1.00  0.00    -0.316 N 
ATOM     82  C   UNL A   1      31.868  24.569  23.026  1.00  0.00     0.284 C 
ATOM     83  C   UNL A   1      32.652  25.045  25.241  1.00  0.00     0.284 C 
ATOM     84  H   UNL A   1      33.460  23.692  23.848  1.00  0.00     0.349 HD
ATOM     85  C   UNL A   1      30.487  25.192  23.299  1.00  0.00     0.178 C 
ATOM     86  C   UNL A   1      31.305  25.714  25.615  1.00  0.00     0.178 C 
ATOM     87  N   UNL A   1      30.545  26.129  24.432  1.00  0.00    -0.360 N 
BRANCH  87  88
ATOM     88  C   UNL A   1      30.405  27.456  24.067  1.00  0.00     0.037 A 
ATOM     89  C   UNL A   1      31.068  28.441  24.817  1.00  0.00     0.026 A 
ATOM     90  C   UNL A   1      29.543  27.865  23.049  1.00  0.00     0.026 A 
ATOM     91  C   UNL A   1      30.844  29.795  24.589  1.00  0.00     0.002 A 
ATOM     92  C   UNL A   1      29.310  29.222  22.820  1.00  0.00     0.002 A 
ATOM     93  C   UNL A   1      29.953  30.185  23.595  1.00  0.00     0.000 A 
ENDBRANCH  87  88
ENDBRANCH  80  81
BRANCH  80  94
ATOM     94  C   UNL A   1      32.101  21.511  23.875  1.00  0.00     0.046 A 
ATOM     95  C   UNL A   1      31.943  21.440  22.501  1.00  0.00     0.094 A 
ATOM     96  C   UNL A   1      32.390  20.147  24.301  1.00  0.00     0.009 A 
ATOM     97  N   UNL A   1      32.064  20.137  22.097  1.00  0.00    -0.361 N 
ATOM     98  C   UNL A   1      32.307  19.321  23.176  1.00  0.00     0.049 A 
ATOM     99  C   UNL A   1      32.668  19.530  25.550  1.00  0.00     0.014 A 
ATOM    100  H   UNL A   1      31.988  19.829  21.165  1.00  0.00     0.166 HD
ATOM    101  C   UNL A   1      32.445  17.926  23.241  1.00  0.00     0.065 A 
ATOM    102  C   UNL A   1      32.808  18.138  25.631  1.00  0.00     0.040 A 
ATOM    103  C   UNL A   1      32.686  17.359  24.491  1.00  0.00     0.125 A 
ATOM    104  F   UNL A   1      32.799  16.027  24.593  1.00  0.00    -0.207 F 
ENDBRANCH  80  94
ENDBRANCH  78  80
ENDBRANCH  77  78
ENDBRANCH  76  77
ENDBRANCH  75  76
ENDBRANCH  74  75
ENDBRANCH  73  74
ENDBRANCH  72  73
ENDBRANCH  71  72
ENDBRANCH   1  71
TORSDOF 26
ENDMDL
MODEL 3
REMARK VINA RESULT:      -8.9      2.579      9.061
REMARK SMILES O=C(OCCOCCOCCOCCOC(=O)[C@H](c1c[nH]c2cc(F)ccc12)[NH+]1CCN(c2ccccc2)CC1)c1ccc(-c2c3nc(c(-c4ccc(S(=O)(=O)[O-])cc4)c4ccc([nH]4)c(-c4ccc(S(=O)(=O)[O-])cc4)c4nc(c(-c5ccc(S(=O)(=O)[O-])cc5)c5ccc2[nH]5)C=C4)C=C3)cc1
REMARK SMILES IDX 8 1 7 2 6 3 5 4 4 5 3 6 2 7 1 8 41 9 42 10 100 11 43 12
REMARK SMILES IDX 99 13 44 14 45 15 46 16 93 17 47 18 98 19 92 20 94 21 48 22
REMARK SMILES IDX 97 23 91 24 90 25 49 27 79 28 60 29 78 30 61 31 64 32 77 33
REMARK SMILES IDX 95 34 62 35 63 36 76 38 96 39 65 40 50 41 51 42 59 43 52 44
REMARK SMILES IDX 58 45 53 46 54 47 55 48 56 49 57 50 80 51 81 52 89 53 82 54
REMARK SMILES IDX 88 55 83 56 84 57 85 58 86 59 87 60 66 61 67 62 75 63 68 64
REMARK SMILES IDX 74 65 69 66 70 67 71 68 72 69 73 70 9 71 10 72 11 73 12 74
REMARK SMILES IDX 13 75 14 76 15 77 16 78 17 79 18 80 29 81 30 82 40 83 31 85
REMARK SMILES IDX 39 86 32 87 33 88 34 89 38 90 35 91 37 92 36 93 19 94 20 95
REMARK SMILES IDX 28 96 21 97 22 98 27 99 23 101 26 102 24 103 25 104
REMARK H PARENT 94 26 64 37 29 84 21 100
REMARK Flexibility Score: inf
ROOT
ATOM      1  C   UNL A   1      39.646  22.969  26.894  1.00  0.00     0.188 C 
ENDROOT
BRANCH   1   2
ATOM      2  C   UNL A   1      39.736  21.562  26.307  1.00  0.00     0.188 C 
BRANCH   2   3
ATOM      3  O   UNL A   1      40.946  20.937  26.725  1.00  0.00    -0.376 OA
BRANCH   3   4
ATOM      4  C   UNL A   1      41.344  19.764  26.022  1.00  0.00     0.202 C 
BRANCH   4   5
ATOM      5  C   UNL A   1      42.632  19.152  26.561  1.00  0.00     0.261 C 
BRANCH   5   6
ATOM      6  O   UNL A   1      43.672  19.087  25.576  1.00  0.00    -0.460 OA
BRANCH   6   7
ATOM      7  C   UNL A   1      44.102  20.060  24.735  1.00  0.00     0.338 C 
ATOM      8  O   UNL A   1      44.237  19.763  23.548  1.00  0.00    -0.246 OA
BRANCH   7   9
ATOM      9  C   UNL A   1      44.422  21.472  25.130  1.00  0.00     0.060 A 
ATOM     10  C   UNL A   1      44.359  22.600  24.308  1.00  0.00     0.016 A 
ATOM     11  C   UNL A   1      44.721  21.678  26.488  1.00  0.00     0.016 A 
ATOM     12  C   UNL A   1      44.571  23.882  24.798  1.00  0.00     0.010 A 
ATOM     13  C   UNL A   1      44.950  22.960  26.994  1.00  0.00     0.010 A 
ATOM     14  C   UNL A   1      44.880  24.064  26.139  1.00  0.00    -0.014 A 
BRANCH  14  15
ATOM     15  C   UNL A   1      45.293  25.407  26.571  1.00  0.00     0.031 A 
ATOM     16  C   UNL A   1      44.241  26.287  27.169  1.00  0.00     0.074 A 
ATOM     17  C   UNL A   1      46.590  25.758  26.532  1.00  0.00     0.049 A 
ATOM     18  N   UNL A   1      44.317  27.537  27.522  1.00  0.00    -0.248 NA
ATOM     19  C   UNL A   1      42.924  25.668  27.417  1.00  0.00     0.031 C 
ATOM     20  C   UNL A   1      47.691  24.884  26.112  1.00  0.00     0.029 A 
ATOM     21  N   UNL A   1      47.206  26.934  26.863  1.00  0.00    -0.354 N 
ATOM     22  C   UNL A   1      43.049  27.871  27.981  1.00  0.00     0.074 A 
ATOM     23  C   UNL A   1      42.226  26.689  27.889  1.00  0.00     0.031 C 
ATOM     24  C   UNL A   1      48.847  25.563  26.202  1.00  0.00     0.029 A 
ATOM     25  C   UNL A   1      48.557  26.933  26.604  1.00  0.00     0.049 A 
ATOM     26  H   UNL A   1      46.729  27.704  27.248  1.00  0.00     0.167 HD
ATOM     27  C   UNL A   1      42.620  29.076  28.411  1.00  0.00     0.031 A 
ATOM     28  C   UNL A   1      49.435  27.955  26.629  1.00  0.00     0.031 A 
ATOM     29  C   UNL A   1      43.479  30.223  28.480  1.00  0.00     0.049 A 
ATOM     30  C   UNL A   1      48.900  29.315  27.000  1.00  0.00     0.074 A 
ATOM     31  C   UNL A   1      43.167  31.512  28.862  1.00  0.00     0.029 A 
ATOM     32  N   UNL A   1      44.827  30.210  28.146  1.00  0.00    -0.354 N 
ATOM     33  N   UNL A   1      47.690  29.642  27.400  1.00  0.00    -0.248 NA
ATOM     34  C   UNL A   1      49.829  30.446  26.903  1.00  0.00     0.031 C 
ATOM     35  C   UNL A   1      44.312  32.295  28.690  1.00  0.00     0.029 A 
ATOM     36  C   UNL A   1      45.354  31.479  28.269  1.00  0.00     0.049 A 
ATOM     37  H   UNL A   1      45.331  29.414  27.864  1.00  0.00     0.167 HD
ATOM     38  C   UNL A   1      47.716  31.014  27.607  1.00  0.00     0.074 A 
ATOM     39  C   UNL A   1      49.070  31.449  27.322  1.00  0.00     0.031 C 
ATOM     40  C   UNL A   1      46.717  31.851  27.982  1.00  0.00     0.031 A 
BRANCH  27  41
ATOM     41  C   UNL A   1      41.160  29.230  28.726  1.00  0.00    -0.014 A 
ATOM     42  C   UNL A   1      40.685  29.287  30.048  1.00  0.00     0.010 A 
ATOM     43  C   UNL A   1      40.247  29.350  27.662  1.00  0.00     0.010 A 
ATOM     44  C   UNL A   1      39.320  29.457  30.298  1.00  0.00     0.020 A 
ATOM     45  C   UNL A   1      38.885  29.543  27.907  1.00  0.00     0.020 A 
ATOM     46  C   UNL A   1      38.430  29.592  29.225  1.00  0.00     0.054 A 
BRANCH  46  47
ATOM     47  S   UNL A   1      36.676  29.886  29.580  1.00  0.00     0.124 S 
ATOM     48  O   UNL A   1      36.622  31.344  29.655  1.00  0.00    -0.237 OA
ATOM     49  O   UNL A   1      36.014  29.293  28.420  1.00  0.00    -0.237 OA
ATOM     50  O   UNL A   1      36.454  29.189  30.844  1.00  0.00    -0.744 OA
ENDBRANCH  46  47
ENDBRANCH  27  41
BRANCH  28  51
ATOM     51  C   UNL A   1      50.844  27.770  26.174  1.00  0.00    -0.014 A 
ATOM     52  C   UNL A   1      51.195  27.875  24.817  1.00  0.00     0.010 A 
ATOM     53  C   UNL A   1      51.846  27.432  27.106  1.00  0.00     0.010 A 
ATOM     54  C   UNL A   1      52.504  27.603  24.398  1.00  0.00     0.020 A 
ATOM     55  C   UNL A   1      53.161  27.195  26.697  1.00  0.00     0.020 A 
ATOM     56  C   UNL A   1      53.477  27.258  25.341  1.00  0.00     0.054 A 
BRANCH  56  57
ATOM     57  S   UNL A   1      55.162  26.891  24.776  1.00  0.00     0.124 S 
ATOM     58  O   UNL A   1      55.901  28.054  25.254  1.00  0.00    -0.237 OA
ATOM     59  O   UNL A   1      55.454  25.630  25.452  1.00  0.00    -0.237 OA
ATOM     60  O   UNL A   1      55.021  26.793  23.325  1.00  0.00    -0.744 OA
ENDBRANCH  56  57
ENDBRANCH  28  51
BRANCH  40  61
ATOM     61  C   UNL A   1      47.061  33.304  28.121  1.00  0.00    -0.014 A 
ATOM     62  C   UNL A   1      46.699  34.228  27.126  1.00  0.00     0.010 A 
ATOM     63  C   UNL A   1      47.667  33.758  29.306  1.00  0.00     0.010 A 
ATOM     64  C   UNL A   1      46.953  35.587  27.309  1.00  0.00     0.020 A 
ATOM     65  C   UNL A   1      47.892  35.120  29.505  1.00  0.00     0.020 A 
ATOM     66  C   UNL A   1      47.540  36.024  28.501  1.00  0.00     0.054 A 
BRANCH  66  67
ATOM     67  S   UNL A   1      47.783  37.802  28.745  1.00  0.00     0.124 S 
ATOM     68  O   UNL A   1      49.236  37.896  28.862  1.00  0.00    -0.237 OA
ATOM     69  O   UNL A   1      47.212  38.373  27.528  1.00  0.00    -0.237 OA
ATOM     70  O   UNL A   1      47.040  38.089  29.969  1.00  0.00    -0.744 OA
ENDBRANCH  66  67
ENDBRANCH  40  61
ENDBRANCH  14  15
ENDBRANCH   7   9
ENDBRANCH   6   7
ENDBRANCH   5   6
ENDBRANCH   4   5
ENDBRANCH   3   4
ENDBRANCH   2   3
ENDBRANCH   1   2
BRANCH   1  71
ATOM     71  O   UNL A   1      38.545  23.732  26.410  1.00  0.00    -0.377 OA
BRANCH  71  72
ATOM     72  C   UNL A   1      38.005  23.311  25.162  1.00  0.00     0.188 C 
BRANCH  72  73
ATOM     73  C   UNL A   1      36.505  23.560  24.874  1.00  0.00     0.188 C 
BRANCH  73  74
ATOM     74  O   UNL A   1      35.721  22.382  24.931  1.00  0.00    -0.376 OA
BRANCH  74  75
ATOM     75  C   UNL A   1      35.726  21.710  26.185  1.00  0.00     0.202 C 
BRANCH  75  76
ATOM     76  C   UNL A   1      34.501  21.953  27.081  1.00  0.00     0.261 C 
BRANCH  76  77
ATOM     77  O   UNL A   1      33.593  23.005  26.679  1.00  0.00    -0.459 OA
BRANCH  77  78
ATOM     78  C   UNL A   1      32.244  22.771  26.629  1.00  0.00     0.370 C 
ATOM     79  O   UNL A   1      31.580  22.405  27.583  1.00  0.00    -0.245 OA
BRANCH  78  80
ATOM     80  C   UNL A   1      31.710  23.119  25.189  1.00  0.00     0.328 C 
BRANCH  80  81
ATOM     81  N   UNL A   1      32.281  24.438  24.815  1.00  0.00    -0.316 N 
ATOM     82  C   UNL A   1      31.958  24.956  23.476  1.00  0.00     0.284 C 
ATOM     83  C   UNL A   1      31.900  25.464  25.818  1.00  0.00     0.284 C 
ATOM     84  H   UNL A   1      33.285  24.258  24.793  1.00  0.00     0.349 HD
ATOM     85  C   UNL A   1      30.499  25.399  23.266  1.00  0.00     0.178 C 
ATOM     86  C   UNL A   1      30.433  25.954  25.714  1.00  0.00     0.178 C 
ATOM     87  N   UNL A   1      30.062  26.305  24.339  1.00  0.00    -0.360 N 
BRANCH  87  88
ATOM     88  C   UNL A   1      29.888  27.614  23.929  1.00  0.00     0.037 A 
ATOM     89  C   UNL A   1      30.758  28.602  24.419  1.00  0.00     0.026 A 
ATOM     90  C   UNL A   1      28.813  28.012  23.133  1.00  0.00     0.026 A 
ATOM     91  C   UNL A   1      30.538  29.951  24.160  1.00  0.00     0.002 A 
ATOM     92  C   UNL A   1      28.584  29.364  22.876  1.00  0.00     0.002 A 
ATOM     93  C   UNL A   1      29.441  30.333  23.396  1.00  0.00     0.000 A 
ENDBRANCH  87  88
ENDBRANCH  80  81
BRANCH  80  94
ATOM     94  C   UNL A   1      31.949  22.001  24.162  1.00  0.00     0.046 A 
ATOM     95  C   UNL A   1      31.886  22.089  22.781  1.00  0.00     0.094 A 
ATOM     96  C   UNL A   1      32.273  20.608  24.446  1.00  0.00     0.009 A 
ATOM     97  N   UNL A   1      32.096  20.850  22.238  1.00  0.00    -0.361 N 
ATOM     98  C   UNL A   1      32.304  19.921  23.229  1.00  0.00     0.049 A 
ATOM     99  C   UNL A   1      32.495  19.858  25.631  1.00  0.00     0.014 A 
ATOM    100  H   UNL A   1      32.098  20.652  21.273  1.00  0.00     0.166 HD
ATOM    101  C   UNL A   1      32.504  18.535  23.140  1.00  0.00     0.065 A 
ATOM    102  C   UNL A   1      32.695  18.472  25.558  1.00  0.00     0.040 A 
ATOM    103  C   UNL A   1      32.687  17.831  24.330  1.00  0.00     0.125 A 
ATOM    104  F   UNL A   1      32.856  16.502  24.284  1.00  0.00    -0.207 F 
ENDBRANCH  80  94
ENDBRANCH  78  80
ENDBRANCH  77  78
ENDBRANCH  76  77
ENDBRANCH  75  76
ENDBRANCH  74  75
ENDBRANCH  73  74
ENDBRANCH  72  73
ENDBRANCH  71  72
ENDBRANCH   1  71
TORSDOF 26
ENDMDL
