MODEL 1
REMARK VINA RESULT:     -10.8      0.000      0.000
REMARK SMILES C[C@H]1CCc2sc3ncn4nc(/C=C\C(=O)OCCOCCOCCOCCOC(=O)c5ccc(-c6c7nc(c(-c8ccc(S(=O)(=O)[O-])cc8)c8ccc([nH]8)c(-c8ccc(S(=O)(=O)[O-])cc8)c8nc(c(-c9ccc(S(=O)(=O)[O-])cc9)c9ccc6[nH]9)C=C8)C=C7)cc5)nc4c3c2C1
REMARK SMILES IDX 24 1 23 2 22 3 21 4 20 5 19 6 18 7 17 8 15 9 16 10 14 11
REMARK SMILES IDX 13 12 12 13 1 14 2 15 3 16 96 17 4 18 95 19 5 20 94 21 6 22
REMARK SMILES IDX 7 23 93 24 8 25 10 26 92 27 9 28 11 29 25 30 26 31 27 32
REMARK SMILES IDX 28 33 29 34 30 35 31 36 32 37 33 38 91 39 34 40 90 41 35 42
REMARK SMILES IDX 36 43 37 44 84 45 38 46 89 47 83 48 85 49 39 50 88 51 82 52
REMARK SMILES IDX 81 53 40 55 70 56 51 57 69 58 52 59 55 60 68 61 86 62 53 63
REMARK SMILES IDX 54 64 67 66 87 67 56 68 41 69 42 70 50 71 43 72 49 73 44 74
REMARK SMILES IDX 45 75 46 76 47 77 48 78 71 79 72 80 80 81 73 82 79 83 74 84
REMARK SMILES IDX 75 85 76 86 77 87 78 88 57 89 58 90 66 91 59 92 65 93 60 94
REMARK SMILES IDX 61 95 62 96 63 97 64 98
REMARK H PARENT 85 54 55 65
REMARK Flexibility Score: inf
ROOT
ATOM      1  C   UNL A   1      36.624  31.098  32.812  1.00  0.00     0.188 C 
ENDROOT
BRANCH   1   2
ATOM      2  O   UNL A   1      36.053  32.095  31.987  1.00  0.00    -0.377 OA
BRANCH   2   3
ATOM      3  C   UNL A   1      35.683  31.710  30.670  1.00  0.00     0.188 C 
BRANCH   3   4
ATOM      4  C   UNL A   1      36.538  30.682  29.890  1.00  0.00     0.188 C 
BRANCH   4   5
ATOM      5  O   UNL A   1      35.862  30.082  28.795  1.00  0.00    -0.376 OA
BRANCH   5   6
ATOM      6  C   UNL A   1      35.459  30.943  27.744  1.00  0.00     0.202 C 
BRANCH   6   7
ATOM      7  C   UNL A   1      33.952  31.133  27.679  1.00  0.00     0.261 C 
BRANCH   7   8
ATOM      8  O   UNL A   1      33.339  30.594  26.509  1.00  0.00    -0.460 OA
BRANCH   8   9
ATOM      9  C   UNL A   1      32.192  29.924  26.620  1.00  0.00     0.330 C 
ATOM     10  O   UNL A   1      31.842  29.244  27.581  1.00  0.00    -0.247 OA
BRANCH   9  11
ATOM     11  C   UNL A   1      31.282  30.272  25.512  1.00  0.00     0.097 C 
ATOM     12  C   UNL A   1      31.043  29.650  24.343  1.00  0.00     0.058 C 
BRANCH  12  13
ATOM     13  C   UNL A   1      31.530  28.428  23.777  1.00  0.00     0.175 A 
ATOM     14  C   UNL A   1      30.198  22.515  26.850  1.00  0.00     0.008 C 
ATOM     15  C   UNL A   1      31.620  23.056  27.003  1.00  0.00    -0.009 C 
ATOM     16  C   UNL A   1      32.697  21.987  26.727  1.00  0.00     0.009 C 
ATOM     17  C   UNL A   1      31.838  24.306  26.134  1.00  0.00     0.041 C 
ATOM     18  C   UNL A   1      32.807  21.582  25.242  1.00  0.00     0.047 C 
ATOM     19  C   UNL A   1      32.301  24.030  24.753  1.00  0.00    -0.020 A 
ATOM     20  C   UNL A   1      32.754  22.790  24.355  1.00  0.00     0.011 A 
ATOM     21  C   UNL A   1      32.395  24.961  23.695  1.00  0.00     0.060 A 
ATOM     22  S   UNL A   1      33.226  22.764  22.713  1.00  0.00    -0.120 S 
ATOM     23  C   UNL A   1      32.874  24.430  22.508  1.00  0.00     0.129 A 
ATOM     24  C   UNL A   1      32.076  26.400  23.624  1.00  0.00     0.168 A 
ATOM     25  N   UNL A   1      33.061  25.088  21.312  1.00  0.00    -0.225 NA
ATOM     26  N   UNL A   1      32.305  27.029  22.441  1.00  0.00    -0.201 N 
ATOM     27  N   UNL A   1      31.571  27.246  24.486  1.00  0.00    -0.207 NA
ATOM     28  C   UNL A   1      32.781  26.370  21.308  1.00  0.00     0.227 A 
ATOM     29  N   UNL A   1      31.972  28.331  22.508  1.00  0.00    -0.145 NA
ENDBRANCH  12  13
ENDBRANCH   9  11
ENDBRANCH   8   9
ENDBRANCH   7   8
ENDBRANCH   6   7
ENDBRANCH   5   6
ENDBRANCH   4   5
ENDBRANCH   3   4
ENDBRANCH   2   3
ENDBRANCH   1   2
BRANCH   1  30
ATOM     30  C   UNL A   1      38.110  31.340  33.153  1.00  0.00     0.188 C 
BRANCH  30  31
ATOM     31  O   UNL A   1      38.952  32.248  32.446  1.00  0.00    -0.376 OA
BRANCH  31  32
ATOM     32  C   UNL A   1      38.845  33.662  32.495  1.00  0.00     0.202 C 
BRANCH  32  33
ATOM     33  C   UNL A   1      38.837  34.574  31.273  1.00  0.00     0.261 C 
BRANCH  33  34
ATOM     34  O   UNL A   1      39.744  34.202  30.268  1.00  0.00    -0.460 OA
BRANCH  34  35
ATOM     35  C   UNL A   1      41.006  34.545  30.538  1.00  0.00     0.338 C 
ATOM     36  O   UNL A   1      41.484  34.803  31.649  1.00  0.00    -0.246 OA
BRANCH  35  37
ATOM     37  C   UNL A   1      41.717  34.719  29.275  1.00  0.00     0.060 A 
ATOM     38  C   UNL A   1      43.100  34.699  29.412  1.00  0.00     0.016 A 
ATOM     39  C   UNL A   1      41.065  35.393  28.228  1.00  0.00     0.016 A 
ATOM     40  C   UNL A   1      43.792  35.681  28.761  1.00  0.00     0.010 A 
ATOM     41  C   UNL A   1      41.760  36.379  27.577  1.00  0.00     0.010 A 
ATOM     42  C   UNL A   1      43.082  36.582  27.953  1.00  0.00    -0.014 A 
BRANCH  42  43
ATOM     43  C   UNL A   1      43.821  37.702  27.432  1.00  0.00     0.031 A 
ATOM     44  C   UNL A   1      45.259  37.404  27.383  1.00  0.00     0.074 A 
ATOM     45  C   UNL A   1      43.262  38.861  27.046  1.00  0.00     0.049 A 
ATOM     46  N   UNL A   1      46.147  37.764  28.246  1.00  0.00    -0.248 NA
ATOM     47  C   UNL A   1      45.704  36.380  26.428  1.00  0.00     0.031 C 
ATOM     48  C   UNL A   1      41.847  39.177  26.831  1.00  0.00     0.029 A 
ATOM     49  N   UNL A   1      43.892  40.005  26.678  1.00  0.00    -0.354 N 
ATOM     50  C   UNL A   1      47.328  37.199  27.796  1.00  0.00     0.074 A 
ATOM     51  C   UNL A   1      46.959  36.190  26.835  1.00  0.00     0.031 C 
ATOM     52  C   UNL A   1      41.753  40.346  26.150  1.00  0.00     0.029 A 
ATOM     53  C   UNL A   1      43.080  40.926  26.031  1.00  0.00     0.049 A 
ATOM     54  H   UNL A   1      44.846  40.168  26.855  1.00  0.00     0.167 HD
ATOM     55  C   UNL A   1      48.517  37.823  28.004  1.00  0.00     0.031 A 
ATOM     56  C   UNL A   1      43.514  42.050  25.407  1.00  0.00     0.031 A 
ATOM     57  C   UNL A   1      48.404  38.870  28.986  1.00  0.00     0.049 A 
ATOM     58  C   UNL A   1      44.834  42.385  25.994  1.00  0.00     0.074 A 
ATOM     59  C   UNL A   1      48.183  38.937  30.345  1.00  0.00     0.029 A 
ATOM     60  N   UNL A   1      48.125  40.113  28.469  1.00  0.00    -0.354 N 
ATOM     61  N   UNL A   1      44.992  42.771  27.228  1.00  0.00    -0.248 NA
ATOM     62  C   UNL A   1      46.047  41.942  25.320  1.00  0.00     0.031 C 
ATOM     63  C   UNL A   1      47.480  40.158  30.561  1.00  0.00     0.029 A 
ATOM     64  C   UNL A   1      47.330  40.813  29.337  1.00  0.00     0.049 A 
ATOM     65  H   UNL A   1      48.448  40.448  27.602  1.00  0.00     0.167 HD
ATOM     66  C   UNL A   1      46.205  42.227  27.614  1.00  0.00     0.074 A 
ATOM     67  C   UNL A   1      46.873  41.869  26.368  1.00  0.00     0.031 C 
ATOM     68  C   UNL A   1      46.422  41.861  28.910  1.00  0.00     0.031 A 
BRANCH  55  69
ATOM     69  C   UNL A   1      49.609  37.824  26.965  1.00  0.00    -0.014 A 
ATOM     70  C   UNL A   1      49.407  37.115  25.768  1.00  0.00     0.010 A 
ATOM     71  C   UNL A   1      50.927  38.250  27.245  1.00  0.00     0.010 A 
ATOM     72  C   UNL A   1      50.478  36.818  24.914  1.00  0.00     0.020 A 
ATOM     73  C   UNL A   1      51.991  38.000  26.384  1.00  0.00     0.020 A 
ATOM     74  C   UNL A   1      51.764  37.260  25.234  1.00  0.00     0.054 A 
BRANCH  74  75
ATOM     75  S   UNL A   1      53.153  36.804  24.170  1.00  0.00     0.124 S 
ATOM     76  O   UNL A   1      52.558  35.776  23.322  1.00  0.00    -0.237 OA
ATOM     77  O   UNL A   1      53.462  38.071  23.514  1.00  0.00    -0.237 OA
ATOM     78  O   UNL A   1      54.166  36.333  25.113  1.00  0.00    -0.744 OA
ENDBRANCH  74  75
ENDBRANCH  55  69
BRANCH  56  79
ATOM     79  C   UNL A   1      43.067  42.659  24.132  1.00  0.00    -0.014 A 
ATOM     80  C   UNL A   1      43.703  43.823  23.657  1.00  0.00     0.010 A 
ATOM     81  C   UNL A   1      42.294  41.910  23.224  1.00  0.00     0.010 A 
ATOM     82  C   UNL A   1      43.671  44.160  22.296  1.00  0.00     0.020 A 
ATOM     83  C   UNL A   1      42.250  42.248  21.863  1.00  0.00     0.020 A 
ATOM     84  C   UNL A   1      42.974  43.347  21.401  1.00  0.00     0.054 A 
BRANCH  84  85
ATOM     85  S   UNL A   1      43.144  43.652  19.617  1.00  0.00     0.124 S 
ATOM     86  O   UNL A   1      42.607  45.002  19.478  1.00  0.00    -0.237 OA
ATOM     87  O   UNL A   1      44.584  43.521  19.412  1.00  0.00    -0.237 OA
ATOM     88  O   UNL A   1      42.336  42.597  19.008  1.00  0.00    -0.744 OA
ENDBRANCH  84  85
ENDBRANCH  56  79
BRANCH  68  89
ATOM     89  C   UNL A   1      45.541  42.486  29.964  1.00  0.00    -0.014 A 
ATOM     90  C   UNL A   1      44.132  42.439  29.964  1.00  0.00     0.010 A 
ATOM     91  C   UNL A   1      46.193  43.094  31.049  1.00  0.00     0.010 A 
ATOM     92  C   UNL A   1      43.400  43.021  31.012  1.00  0.00     0.020 A 
ATOM     93  C   UNL A   1      45.473  43.658  32.102  1.00  0.00     0.020 A 
ATOM     94  C   UNL A   1      44.079  43.631  32.073  1.00  0.00     0.054 A 
BRANCH  94  95
ATOM     95  S   UNL A   1      43.135  44.378  33.431  1.00  0.00     0.124 S 
ATOM     96  O   UNL A   1      42.165  43.336  33.759  1.00  0.00    -0.237 OA
ATOM     97  O   UNL A   1      44.160  44.625  34.442  1.00  0.00    -0.237 OA
ATOM     98  O   UNL A   1      42.562  45.586  32.834  1.00  0.00    -0.744 OA
ENDBRANCH  94  95
ENDBRANCH  68  89
ENDBRANCH  42  43
ENDBRANCH  35  37
ENDBRANCH  34  35
ENDBRANCH  33  34
ENDBRANCH  32  33
ENDBRANCH  31  32
ENDBRANCH  30  31
ENDBRANCH   1  30
TORSDOF 24
ENDMDL
MODEL 2
REMARK VINA RESULT:     -10.4      4.692      6.474
REMARK SMILES C[C@H]1CCc2sc3ncn4nc(/C=C\C(=O)OCCOCCOCCOCCOC(=O)c5ccc(-c6c7nc(c(-c8ccc(S(=O)(=O)[O-])cc8)c8ccc([nH]8)c(-c8ccc(S(=O)(=O)[O-])cc8)c8nc(c(-c9ccc(S(=O)(=O)[O-])cc9)c9ccc6[nH]9)C=C8)C=C7)cc5)nc4c3c2C1
REMARK SMILES IDX 24 1 23 2 22 3 21 4 20 5 19 6 18 7 17 8 15 9 16 10 14 11
REMARK SMILES IDX 13 12 12 13 1 14 2 15 3 16 96 17 4 18 95 19 5 20 94 21 6 22
REMARK SMILES IDX 7 23 93 24 8 25 10 26 92 27 9 28 11 29 25 30 26 31 27 32
REMARK SMILES IDX 28 33 29 34 30 35 31 36 32 37 33 38 91 39 34 40 90 41 35 42
REMARK SMILES IDX 36 43 37 44 84 45 38 46 89 47 83 48 85 49 39 50 88 51 82 52
REMARK SMILES IDX 81 53 40 55 70 56 51 57 69 58 52 59 55 60 68 61 86 62 53 63
REMARK SMILES IDX 54 64 67 66 87 67 56 68 41 69 42 70 50 71 43 72 49 73 44 74
REMARK SMILES IDX 45 75 46 76 47 77 48 78 71 79 72 80 80 81 73 82 79 83 74 84
REMARK SMILES IDX 75 85 76 86 77 87 78 88 57 89 58 90 66 91 59 92 65 93 60 94
REMARK SMILES IDX 61 95 62 96 63 97 64 98
REMARK H PARENT 85 54 55 65
REMARK Flexibility Score: inf
ROOT
ATOM      1  C   UNL A   1      38.391  28.950  31.144  1.00  0.00     0.188 C 
ENDROOT
BRANCH   1   2
ATOM      2  O   UNL A   1      39.683  28.599  31.599  1.00  0.00    -0.377 OA
BRANCH   2   3
ATOM      3  C   UNL A   1      39.823  28.301  32.981  1.00  0.00     0.188 C 
BRANCH   3   4
ATOM      4  C   UNL A   1      40.617  29.254  33.906  1.00  0.00     0.188 C 
BRANCH   4   5
ATOM      5  O   UNL A   1      40.552  30.618  33.521  1.00  0.00    -0.376 OA
BRANCH   5   6
ATOM      6  C   UNL A   1      39.391  31.336  33.901  1.00  0.00     0.202 C 
BRANCH   6   7
ATOM      7  C   UNL A   1      39.499  31.946  35.290  1.00  0.00     0.261 C 
BRANCH   7   8
ATOM      8  O   UNL A   1      39.784  33.343  35.300  1.00  0.00    -0.460 OA
BRANCH   8   9
ATOM      9  C   UNL A   1      38.778  34.217  35.341  1.00  0.00     0.330 C 
ATOM     10  O   UNL A   1      38.735  35.298  34.760  1.00  0.00    -0.247 OA
BRANCH   9  11
ATOM     11  C   UNL A   1      37.607  33.624  36.016  1.00  0.00     0.097 C 
ATOM     12  C   UNL A   1      36.293  33.712  35.737  1.00  0.00     0.058 C 
BRANCH  12  13
ATOM     13  C   UNL A   1      35.568  34.351  34.680  1.00  0.00     0.175 A 
ATOM     14  C   UNL A   1      34.688  31.136  28.758  1.00  0.00     0.008 C 
ATOM     15  C   UNL A   1      35.727  32.259  28.775  1.00  0.00    -0.009 C 
ATOM     16  C   UNL A   1      35.573  33.231  27.588  1.00  0.00     0.009 C 
ATOM     17  C   UNL A   1      35.716  33.009  30.117  1.00  0.00     0.041 C 
ATOM     18  C   UNL A   1      34.322  34.130  27.677  1.00  0.00     0.047 C 
ATOM     19  C   UNL A   1      34.770  34.148  30.185  1.00  0.00    -0.020 A 
ATOM     20  C   UNL A   1      34.148  34.664  29.067  1.00  0.00     0.011 A 
ATOM     21  C   UNL A   1      34.416  34.882  31.339  1.00  0.00     0.060 A 
ATOM     22  S   UNL A   1      33.116  35.975  29.441  1.00  0.00    -0.120 S 
ATOM     23  C   UNL A   1      33.515  35.910  31.109  1.00  0.00     0.129 A 
ATOM     24  C   UNL A   1      34.834  34.754  32.748  1.00  0.00     0.168 A 
ATOM     25  N   UNL A   1      32.983  36.779  32.035  1.00  0.00    -0.225 NA
ATOM     26  N   UNL A   1      34.319  35.649  33.631  1.00  0.00    -0.201 N 
ATOM     27  N   UNL A   1      35.612  33.908  33.375  1.00  0.00    -0.207 NA
ATOM     28  C   UNL A   1      33.402  36.635  33.269  1.00  0.00     0.227 A 
ATOM     29  N   UNL A   1      34.775  35.423  34.878  1.00  0.00    -0.145 NA
ENDBRANCH  12  13
ENDBRANCH   9  11
ENDBRANCH   8   9
ENDBRANCH   7   8
ENDBRANCH   6   7
ENDBRANCH   5   6
ENDBRANCH   4   5
ENDBRANCH   3   4
ENDBRANCH   2   3
ENDBRANCH   1   2
BRANCH   1  30
ATOM     30  C   UNL A   1      38.361  29.509  29.705  1.00  0.00     0.188 C 
BRANCH  30  31
ATOM     31  O   UNL A   1      38.819  30.811  29.346  1.00  0.00    -0.376 OA
BRANCH  31  32
ATOM     32  C   UNL A   1      39.096  31.858  30.263  1.00  0.00     0.202 C 
BRANCH  32  33
ATOM     33  C   UNL A   1      40.488  32.397  30.570  1.00  0.00     0.261 C 
BRANCH  33  34
ATOM     34  O   UNL A   1      40.503  33.702  31.085  1.00  0.00    -0.460 OA
BRANCH  34  35
ATOM     35  C   UNL A   1      40.310  34.641  30.155  1.00  0.00     0.338 C 
ATOM     36  O   UNL A   1      39.273  35.284  29.951  1.00  0.00    -0.246 OA
BRANCH  35  37
ATOM     37  C   UNL A   1      41.490  34.690  29.297  1.00  0.00     0.060 A 
ATOM     38  C   UNL A   1      42.650  35.056  29.970  1.00  0.00     0.016 A 
ATOM     39  C   UNL A   1      41.307  34.911  27.920  1.00  0.00     0.016 A 
ATOM     40  C   UNL A   1      43.431  36.002  29.368  1.00  0.00     0.010 A 
ATOM     41  C   UNL A   1      42.092  35.860  27.319  1.00  0.00     0.010 A 
ATOM     42  C   UNL A   1      43.060  36.476  28.102  1.00  0.00    -0.014 A 
BRANCH  42  43
ATOM     43  C   UNL A   1      43.808  37.593  27.586  1.00  0.00     0.031 A 
ATOM     44  C   UNL A   1      45.231  37.254  27.452  1.00  0.00     0.074 A 
ATOM     45  C   UNL A   1      43.267  38.783  27.275  1.00  0.00     0.049 A 
ATOM     46  N   UNL A   1      46.173  37.551  28.280  1.00  0.00    -0.248 NA
ATOM     47  C   UNL A   1      45.594  36.256  26.436  1.00  0.00     0.031 C 
ATOM     48  C   UNL A   1      41.854  39.150  27.146  1.00  0.00     0.029 A 
ATOM     49  N   UNL A   1      43.914  39.921  26.919  1.00  0.00    -0.354 N 
ATOM     50  C   UNL A   1      47.311  36.970  27.747  1.00  0.00     0.074 A 
ATOM     51  C   UNL A   1      46.861  36.011  26.769  1.00  0.00     0.031 C 
ATOM     52  C   UNL A   1      41.763  40.348  26.516  1.00  0.00     0.029 A 
ATOM     53  C   UNL A   1      43.101  40.892  26.351  1.00  0.00     0.049 A 
ATOM     54  H   UNL A   1      44.881  40.048  27.052  1.00  0.00     0.167 HD
ATOM     55  C   UNL A   1      48.528  37.548  27.917  1.00  0.00     0.031 A 
ATOM     56  C   UNL A   1      43.539  42.026  25.749  1.00  0.00     0.031 A 
ATOM     57  C   UNL A   1      48.499  38.558  28.943  1.00  0.00     0.049 A 
ATOM     58  C   UNL A   1      44.897  42.297  26.279  1.00  0.00     0.074 A 
ATOM     59  C   UNL A   1      48.350  38.578  30.313  1.00  0.00     0.029 A 
ATOM     60  N   UNL A   1      48.234  39.829  28.489  1.00  0.00    -0.354 N 
ATOM     61  N   UNL A   1      45.130  42.628  27.517  1.00  0.00    -0.248 NA
ATOM     62  C   UNL A   1      46.059  41.845  25.526  1.00  0.00     0.031 C 
ATOM     63  C   UNL A   1      47.698  39.810  30.613  1.00  0.00     0.029 A 
ATOM     64  C   UNL A   1      47.508  40.518  29.424  1.00  0.00     0.049 A 
ATOM     65  H   UNL A   1      48.523  40.189  27.621  1.00  0.00     0.167 HD
ATOM     66  C   UNL A   1      46.343  42.033  27.818  1.00  0.00     0.074 A 
ATOM     67  C   UNL A   1      46.935  41.706  26.526  1.00  0.00     0.031 C 
ATOM     68  C   UNL A   1      46.614  41.609  29.086  1.00  0.00     0.031 A 
BRANCH  55  69
ATOM     69  C   UNL A   1      49.566  37.558  26.824  1.00  0.00    -0.014 A 
ATOM     70  C   UNL A   1      49.453  36.630  25.774  1.00  0.00     0.010 A 
ATOM     71  C   UNL A   1      50.794  38.246  26.944  1.00  0.00     0.010 A 
ATOM     72  C   UNL A   1      50.530  36.379  24.913  1.00  0.00     0.020 A 
ATOM     73  C   UNL A   1      51.855  38.038  26.068  1.00  0.00     0.020 A 
ATOM     74  C   UNL A   1      51.725  37.083  25.072  1.00  0.00     0.054 A 
BRANCH  74  75
ATOM     75  S   UNL A   1      53.136  36.697  24.009  1.00  0.00     0.124 S 
ATOM     76  O   UNL A   1      53.484  38.012  23.481  1.00  0.00    -0.237 OA
ATOM     77  O   UNL A   1      54.083  36.120  24.958  1.00  0.00    -0.237 OA
ATOM     78  O   UNL A   1      52.585  35.755  23.037  1.00  0.00    -0.744 OA
ENDBRANCH  74  75
ENDBRANCH  55  69
BRANCH  56  79
ATOM     79  C   UNL A   1      43.047  42.699  24.523  1.00  0.00    -0.014 A 
ATOM     80  C   UNL A   1      43.870  43.635  23.867  1.00  0.00     0.010 A 
ATOM     81  C   UNL A   1      41.958  42.162  23.811  1.00  0.00     0.010 A 
ATOM     82  C   UNL A   1      43.686  43.932  22.508  1.00  0.00     0.020 A 
ATOM     83  C   UNL A   1      41.763  42.462  22.455  1.00  0.00     0.020 A 
ATOM     84  C   UNL A   1      42.654  43.314  21.802  1.00  0.00     0.054 A 
BRANCH  84  85
ATOM     85  S   UNL A   1      42.580  43.514  19.996  1.00  0.00     0.124 S 
ATOM     86  O   UNL A   1      41.241  44.061  19.798  1.00  0.00    -0.237 OA
ATOM     87  O   UNL A   1      43.683  44.434  19.736  1.00  0.00    -0.237 OA
ATOM     88  O   UNL A   1      42.776  42.156  19.490  1.00  0.00    -0.744 OA
ENDBRANCH  84  85
ENDBRANCH  56  79
BRANCH  68  89
ATOM     89  C   UNL A   1      45.808  42.217  30.207  1.00  0.00    -0.014 A 
ATOM     90  C   UNL A   1      46.238  43.288  31.017  1.00  0.00     0.010 A 
ATOM     91  C   UNL A   1      44.511  41.711  30.395  1.00  0.00     0.010 A 
ATOM     92  C   UNL A   1      45.397  43.809  32.014  1.00  0.00     0.020 A 
ATOM     93  C   UNL A   1      43.664  42.237  31.371  1.00  0.00     0.020 A 
ATOM     94  C   UNL A   1      44.115  43.276  32.185  1.00  0.00     0.054 A 
BRANCH  94  95
ATOM     95  S   UNL A   1      43.025  43.953  33.469  1.00  0.00     0.124 S 
ATOM     96  O   UNL A   1      41.870  43.059  33.412  1.00  0.00    -0.237 OA
ATOM     97  O   UNL A   1      43.842  43.851  34.675  1.00  0.00    -0.237 OA
ATOM     98  O   UNL A   1      42.766  45.322  33.020  1.00  0.00    -0.744 OA
ENDBRANCH  94  95
ENDBRANCH  68  89
ENDBRANCH  42  43
ENDBRANCH  35  37
ENDBRANCH  34  35
ENDBRANCH  33  34
ENDBRANCH  32  33
ENDBRANCH  31  32
ENDBRANCH  30  31
ENDBRANCH   1  30
TORSDOF 24
ENDMDL
MODEL 3
REMARK VINA RESULT:     -10.1      4.772      8.550
REMARK SMILES C[C@H]1CCc2sc3ncn4nc(/C=C\C(=O)OCCOCCOCCOCCOC(=O)c5ccc(-c6c7nc(c(-c8ccc(S(=O)(=O)[O-])cc8)c8ccc([nH]8)c(-c8ccc(S(=O)(=O)[O-])cc8)c8nc(c(-c9ccc(S(=O)(=O)[O-])cc9)c9ccc6[nH]9)C=C8)C=C7)cc5)nc4c3c2C1
REMARK SMILES IDX 24 1 23 2 22 3 21 4 20 5 19 6 18 7 17 8 15 9 16 10 14 11
REMARK SMILES IDX 13 12 12 13 1 14 2 15 3 16 96 17 4 18 95 19 5 20 94 21 6 22
REMARK SMILES IDX 7 23 93 24 8 25 10 26 92 27 9 28 11 29 25 30 26 31 27 32
REMARK SMILES IDX 28 33 29 34 30 35 31 36 32 37 33 38 91 39 34 40 90 41 35 42
REMARK SMILES IDX 36 43 37 44 84 45 38 46 89 47 83 48 85 49 39 50 88 51 82 52
REMARK SMILES IDX 81 53 40 55 70 56 51 57 69 58 52 59 55 60 68 61 86 62 53 63
REMARK SMILES IDX 54 64 67 66 87 67 56 68 41 69 42 70 50 71 43 72 49 73 44 74
REMARK SMILES IDX 45 75 46 76 47 77 48 78 71 79 72 80 80 81 73 82 79 83 74 84
REMARK SMILES IDX 75 85 76 86 77 87 78 88 57 89 58 90 66 91 59 92 65 93 60 94
REMARK SMILES IDX 61 95 62 96 63 97 64 98
REMARK H PARENT 85 54 55 65
REMARK Flexibility Score: inf
ROOT
ATOM      1  C   UNL A   1      40.812  27.460  28.827  1.00  0.00     0.188 C 
ENDROOT
BRANCH   1   2
ATOM      2  O   UNL A   1      39.922  28.293  29.544  1.00  0.00    -0.377 OA
BRANCH   2   3
ATOM      3  C   UNL A   1      38.719  28.668  28.889  1.00  0.00     0.188 C 
BRANCH   3   4
ATOM      4  C   UNL A   1      38.251  30.143  28.903  1.00  0.00     0.188 C 
BRANCH   4   5
ATOM      5  O   UNL A   1      37.069  30.366  29.657  1.00  0.00    -0.376 OA
BRANCH   5   6
ATOM      6  C   UNL A   1      36.574  31.694  29.692  1.00  0.00     0.202 C 
BRANCH   6   7
ATOM      7  C   UNL A   1      35.231  31.844  28.994  1.00  0.00     0.261 C 
BRANCH   7   8
ATOM      8  O   UNL A   1      35.212  31.378  27.646  1.00  0.00    -0.460 OA
BRANCH   8   9
ATOM      9  C   UNL A   1      34.556  30.256  27.350  1.00  0.00     0.330 C 
ATOM     10  O   UNL A   1      34.926  29.113  27.605  1.00  0.00    -0.247 OA
BRANCH   9  11
ATOM     11  C   UNL A   1      33.202  30.566  26.851  1.00  0.00     0.097 C 
ATOM     12  C   UNL A   1      32.482  30.011  25.859  1.00  0.00     0.058 C 
BRANCH  12  13
ATOM     13  C   UNL A   1      32.733  28.910  24.978  1.00  0.00     0.175 A 
ATOM     14  C   UNL A   1      30.424  22.718  26.557  1.00  0.00     0.008 C 
ATOM     15  C   UNL A   1      31.922  22.955  26.751  1.00  0.00    -0.009 C 
ATOM     16  C   UNL A   1      32.786  21.828  26.150  1.00  0.00     0.009 C 
ATOM     17  C   UNL A   1      32.343  24.331  26.209  1.00  0.00     0.041 C 
ATOM     18  C   UNL A   1      32.796  21.804  24.608  1.00  0.00     0.047 C 
ATOM     19  C   UNL A   1      32.725  24.345  24.777  1.00  0.00    -0.020 A 
ATOM     20  C   UNL A   1      32.943  23.191  24.055  1.00  0.00     0.011 A 
ATOM     21  C   UNL A   1      32.966  25.487  23.980  1.00  0.00     0.060 A 
ATOM     22  S   UNL A   1      33.374  23.507  22.431  1.00  0.00    -0.120 S 
ATOM     23  C   UNL A   1      33.321  25.205  22.671  1.00  0.00     0.129 A 
ATOM     24  C   UNL A   1      32.907  26.928  24.291  1.00  0.00     0.168 A 
ATOM     25  N   UNL A   1      33.602  26.106  21.668  1.00  0.00    -0.225 NA
ATOM     26  N   UNL A   1      33.223  27.791  23.290  1.00  0.00    -0.201 N 
ATOM     27  N   UNL A   1      32.575  27.597  25.366  1.00  0.00    -0.207 NA
ATOM     28  C   UNL A   1      33.554  27.374  22.001  1.00  0.00     0.227 A 
ATOM     29  N   UNL A   1      33.129  29.070  23.699  1.00  0.00    -0.145 NA
ENDBRANCH  12  13
ENDBRANCH   9  11
ENDBRANCH   8   9
ENDBRANCH   7   8
ENDBRANCH   6   7
ENDBRANCH   5   6
ENDBRANCH   4   5
ENDBRANCH   3   4
ENDBRANCH   2   3
ENDBRANCH   1   2
BRANCH   1  30
ATOM     30  C   UNL A   1      40.183  26.786  27.589  1.00  0.00     0.188 C 
BRANCH  30  31
ATOM     31  O   UNL A   1      40.352  25.409  27.260  1.00  0.00    -0.376 OA
BRANCH  31  32
ATOM     32  C   UNL A   1      41.419  24.882  26.487  1.00  0.00     0.202 C 
BRANCH  32  33
ATOM     33  C   UNL A   1      42.267  25.693  25.513  1.00  0.00     0.261 C 
BRANCH  33  34
ATOM     34  O   UNL A   1      43.633  25.735  25.833  1.00  0.00    -0.460 OA
BRANCH  34  35
ATOM     35  C   UNL A   1      43.906  26.502  26.892  1.00  0.00     0.338 C 
ATOM     36  O   UNL A   1      43.914  26.156  28.079  1.00  0.00    -0.246 OA
BRANCH  35  37
ATOM     37  C   UNL A   1      44.051  27.882  26.437  1.00  0.00     0.060 A 
ATOM     38  C   UNL A   1      45.232  28.483  26.856  1.00  0.00     0.016 A 
ATOM     39  C   UNL A   1      42.887  28.614  26.143  1.00  0.00     0.016 A 
ATOM     40  C   UNL A   1      45.125  29.742  27.376  1.00  0.00     0.010 A 
ATOM     41  C   UNL A   1      42.782  29.877  26.667  1.00  0.00     0.010 A 
ATOM     42  C   UNL A   1      43.868  30.363  27.383  1.00  0.00    -0.014 A 
BRANCH  42  43
ATOM     43  C   UNL A   1      43.768  31.609  28.098  1.00  0.00     0.031 A 
ATOM     44  C   UNL A   1      44.509  32.671  27.405  1.00  0.00     0.074 A 
ATOM     45  C   UNL A   1      43.086  31.767  29.245  1.00  0.00     0.049 A 
ATOM     46  N   UNL A   1      45.694  33.091  27.691  1.00  0.00    -0.248 NA
ATOM     47  C   UNL A   1      43.991  33.118  26.105  1.00  0.00     0.031 C 
ATOM     48  C   UNL A   1      42.134  30.856  29.886  1.00  0.00     0.029 A 
ATOM     49  N   UNL A   1      43.056  32.860  30.048  1.00  0.00    -0.354 N 
ATOM     50  C   UNL A   1      45.972  34.048  26.729  1.00  0.00     0.074 A 
ATOM     51  C   UNL A   1      45.014  33.853  25.670  1.00  0.00     0.031 C 
ATOM     52  C   UNL A   1      41.450  31.533  30.843  1.00  0.00     0.029 A 
ATOM     53  C   UNL A   1      42.030  32.859  30.984  1.00  0.00     0.049 A 
ATOM     54  H   UNL A   1      43.706  33.595  29.973  1.00  0.00     0.167 HD
ATOM     55  C   UNL A   1      46.752  35.120  27.024  1.00  0.00     0.031 A 
ATOM     56  C   UNL A   1      41.681  33.912  31.764  1.00  0.00     0.031 A 
ATOM     57  C   UNL A   1      47.469  34.933  28.259  1.00  0.00     0.049 A 
ATOM     58  C   UNL A   1      42.864  34.802  31.841  1.00  0.00     0.074 A 
ATOM     59  C   UNL A   1      48.495  34.125  28.699  1.00  0.00     0.029 A 
ATOM     60  N   UNL A   1      46.822  35.409  29.375  1.00  0.00    -0.354 N 
ATOM     61  N   UNL A   1      43.971  34.470  32.442  1.00  0.00    -0.248 NA
ATOM     62  C   UNL A   1      42.965  35.935  30.931  1.00  0.00     0.031 C 
ATOM     63  C   UNL A   1      48.242  33.900  30.084  1.00  0.00     0.029 A 
ATOM     64  C   UNL A   1      47.096  34.609  30.452  1.00  0.00     0.049 A 
ATOM     65  H   UNL A   1      46.246  36.207  29.395  1.00  0.00     0.167 HD
ATOM     66  C   UNL A   1      44.972  35.055  31.685  1.00  0.00     0.074 A 
ATOM     67  C   UNL A   1      44.294  36.061  30.875  1.00  0.00     0.031 C 
ATOM     68  C   UNL A   1      46.200  34.469  31.584  1.00  0.00     0.031 A 
BRANCH  55  69
ATOM     69  C   UNL A   1      46.458  36.494  26.477  1.00  0.00    -0.014 A 
ATOM     70  C   UNL A   1      47.432  37.133  25.690  1.00  0.00     0.010 A 
ATOM     71  C   UNL A   1      45.388  37.288  26.947  1.00  0.00     0.010 A 
ATOM     72  C   UNL A   1      47.355  38.506  25.420  1.00  0.00     0.020 A 
ATOM     73  C   UNL A   1      45.278  38.643  26.648  1.00  0.00     0.020 A 
ATOM     74  C   UNL A   1      46.279  39.251  25.907  1.00  0.00     0.054 A 
BRANCH  74  75
ATOM     75  S   UNL A   1      46.228  41.035  25.623  1.00  0.00     0.124 S 
ATOM     76  O   UNL A   1      46.148  41.106  24.167  1.00  0.00    -0.237 OA
ATOM     77  O   UNL A   1      45.022  41.425  26.347  1.00  0.00    -0.237 OA
ATOM     78  O   UNL A   1      47.480  41.511  26.207  1.00  0.00    -0.744 OA
ENDBRANCH  74  75
ENDBRANCH  55  69
BRANCH  56  79
ATOM     79  C   UNL A   1      40.335  34.391  32.161  1.00  0.00    -0.014 A 
ATOM     80  C   UNL A   1      39.303  34.437  31.202  1.00  0.00     0.010 A 
ATOM     81  C   UNL A   1      39.977  34.444  33.521  1.00  0.00     0.010 A 
ATOM     82  C   UNL A   1      37.956  34.413  31.589  1.00  0.00     0.020 A 
ATOM     83  C   UNL A   1      38.631  34.430  33.914  1.00  0.00     0.020 A 
ATOM     84  C   UNL A   1      37.629  34.372  32.945  1.00  0.00     0.054 A 
BRANCH  84  85
ATOM     85  S   UNL A   1      35.899  34.091  33.427  1.00  0.00     0.124 S 
ATOM     86  O   UNL A   1      35.281  33.705  32.162  1.00  0.00    -0.237 OA
ATOM     87  O   UNL A   1      36.018  33.029  34.422  1.00  0.00    -0.237 OA
ATOM     88  O   UNL A   1      35.473  35.386  33.955  1.00  0.00    -0.744 OA
ENDBRANCH  84  85
ENDBRANCH  56  79
BRANCH  68  89
ATOM     89  C   UNL A   1      46.587  33.482  32.658  1.00  0.00    -0.014 A 
ATOM     90  C   UNL A   1      46.264  32.111  32.643  1.00  0.00     0.010 A 
ATOM     91  C   UNL A   1      47.386  33.974  33.704  1.00  0.00     0.010 A 
ATOM     92  C   UNL A   1      46.704  31.264  33.675  1.00  0.00     0.020 A 
ATOM     93  C   UNL A   1      47.842  33.135  34.721  1.00  0.00     0.020 A 
ATOM     94  C   UNL A   1      47.488  31.786  34.709  1.00  0.00     0.054 A 
BRANCH  94  95
ATOM     95  S   UNL A   1      48.062  30.693  36.040  1.00  0.00     0.124 S 
ATOM     96  O   UNL A   1      47.609  31.387  37.242  1.00  0.00    -0.237 OA
ATOM     97  O   UNL A   1      47.379  29.436  35.743  1.00  0.00    -0.237 OA
ATOM     98  O   UNL A   1      49.514  30.657  35.859  1.00  0.00    -0.744 OA
ENDBRANCH  94  95
ENDBRANCH  68  89
ENDBRANCH  42  43
ENDBRANCH  35  37
ENDBRANCH  34  35
ENDBRANCH  33  34
ENDBRANCH  32  33
ENDBRANCH  31  32
ENDBRANCH  30  31
ENDBRANCH   1  30
TORSDOF 24
ENDMDL
