MODEL 1
REMARK VINA RESULT:      -9.7      0.000      0.000
REMARK SMILES N#Cc1ccccc1S(=O)(=O)N1CCC(C(=O)OCCOCCOCCOCCOC(=O)c2ccc(-c3c4nc(c(-c5ccc(S(=O)(=O)[O-])cc5)c5ccc([nH]5)c(-c5ccc(S(=O)(=O)[O-])cc5)c5nc(c(-c6ccc(S(=O)(=O)[O-])cc6)c6ccc3[nH]6)C=C5)C=C4)cc2)CC1
REMARK SMILES IDX 24 1 23 2 22 3 21 4 20 5 19 6 18 7 16 8 17 9 15 10 12 11
REMARK SMILES IDX 13 12 94 13 14 14 93 15 9 16 10 17 11 18 8 19 3 20 4 21 5 22
REMARK SMILES IDX 7 23 6 24 2 25 1 26 25 27 26 28 27 29 28 30 29 31 30 32
REMARK SMILES IDX 31 33 32 34 33 35 34 36 92 37 35 38 91 39 36 40 37 41 38 42
REMARK SMILES IDX 85 43 39 44 90 45 84 46 86 47 40 48 89 49 83 50 82 51 41 53
REMARK SMILES IDX 71 54 52 55 70 56 53 57 56 58 69 59 87 60 54 61 55 62 68 64
REMARK SMILES IDX 88 65 57 66 42 67 43 68 51 69 44 70 50 71 45 72 46 73 47 74
REMARK SMILES IDX 48 75 49 76 72 77 73 78 81 79 74 80 80 81 75 82 76 83 77 84
REMARK SMILES IDX 78 85 79 86 58 87 59 88 67 89 60 90 66 91 61 92 62 93 63 94
REMARK SMILES IDX 64 95 65 96
REMARK H PARENT 86 52 56 63
REMARK Flexibility Score: inf
ROOT
ATOM      1  O   UNL A   1      34.762  24.358  22.877  1.00  0.00    -0.377 OA
ENDROOT
BRANCH   1   2
ATOM      2  C   UNL A   1      33.477  24.517  22.316  1.00  0.00     0.188 C 
BRANCH   2   3
ATOM      3  C   UNL A   1      33.062  25.949  21.968  1.00  0.00     0.188 C 
BRANCH   3   4
ATOM      4  O   UNL A   1      34.011  26.890  21.512  1.00  0.00    -0.376 OA
BRANCH   4   5
ATOM      5  C   UNL A   1      34.099  28.212  22.022  1.00  0.00     0.202 C 
BRANCH   5   6
ATOM      6  C   UNL A   1      32.997  28.963  22.788  1.00  0.00     0.261 C 
BRANCH   6   7
ATOM      7  O   UNL A   1      33.174  29.136  24.196  1.00  0.00    -0.463 OA
BRANCH   7   8
ATOM      8  C   UNL A   1      32.140  28.720  24.954  1.00  0.00     0.309 C 
ATOM      9  O   UNL A   1      31.210  29.438  25.314  1.00  0.00    -0.252 OA
BRANCH   8  10
ATOM     10  C   UNL A   1      32.183  27.256  25.331  1.00  0.00     0.102 C 
ATOM     11  N   UNL A   1      32.065  24.722  26.673  1.00  0.00    -0.198 NA
ATOM     12  C   UNL A   1      33.346  25.119  26.063  1.00  0.00     0.103 C 
ATOM     13  C   UNL A   1      30.865  25.572  26.601  1.00  0.00     0.103 C 
ATOM     14  C   UNL A   1      33.489  26.608  25.772  1.00  0.00     0.032 C 
ATOM     15  C   UNL A   1      31.180  27.044  26.450  1.00  0.00     0.032 C 
BRANCH  11  16
ATOM     16  S   UNL A   1      31.866  23.097  27.061  1.00  0.00     0.244 S 
ATOM     17  O   UNL A   1      30.449  22.898  27.293  1.00  0.00    -0.207 OA
ATOM     18  O   UNL A   1      32.842  22.742  28.070  1.00  0.00    -0.207 OA
BRANCH  16  19
ATOM     19  C   UNL A   1      32.244  22.055  25.663  1.00  0.00     0.100 A 
ATOM     20  C   UNL A   1      31.720  22.114  24.371  1.00  0.00     0.072 A 
ATOM     21  C   UNL A   1      32.095  21.127  23.434  1.00  0.00     0.021 A 
ATOM     22  C   UNL A   1      33.014  20.131  23.752  1.00  0.00     0.001 A 
ATOM     23  C   UNL A   1      33.189  21.051  25.966  1.00  0.00     0.023 A 
ATOM     24  C   UNL A   1      33.580  20.105  25.018  1.00  0.00     0.001 A 
BRANCH  20  25
ATOM     25  C   UNL A   1      30.870  23.123  23.836  1.00  0.00     0.101 C 
ATOM     26  N   UNL A   1      30.291  23.979  23.301  1.00  0.00    -0.192 NA
ENDBRANCH  20  25
ENDBRANCH  16  19
ENDBRANCH  11  16
ENDBRANCH   8  10
ENDBRANCH   7   8
ENDBRANCH   6   7
ENDBRANCH   5   6
ENDBRANCH   4   5
ENDBRANCH   3   4
ENDBRANCH   2   3
ENDBRANCH   1   2
BRANCH   1  27
ATOM     27  C   UNL A   1      35.228  23.055  23.209  1.00  0.00     0.188 C 
BRANCH  27  28
ATOM     28  C   UNL A   1      36.230  22.846  24.367  1.00  0.00     0.188 C 
BRANCH  28  29
ATOM     29  O   UNL A   1      36.527  23.995  25.133  1.00  0.00    -0.376 OA
BRANCH  29  30
ATOM     30  C   UNL A   1      37.379  23.899  26.262  1.00  0.00     0.202 C 
BRANCH  30  31
ATOM     31  C   UNL A   1      38.911  23.955  26.108  1.00  0.00     0.261 C 
BRANCH  31  32
ATOM     32  O   UNL A   1      39.656  24.640  27.123  1.00  0.00    -0.460 OA
BRANCH  32  33
ATOM     33  C   UNL A   1      40.270  25.793  26.784  1.00  0.00     0.338 C 
ATOM     34  O   UNL A   1      40.775  26.059  25.709  1.00  0.00    -0.246 OA
BRANCH  33  35
ATOM     35  C   UNL A   1      40.043  26.766  27.878  1.00  0.00     0.060 A 
ATOM     36  C   UNL A   1      40.677  28.015  27.823  1.00  0.00     0.016 A 
ATOM     37  C   UNL A   1      39.213  26.447  28.954  1.00  0.00     0.016 A 
ATOM     38  C   UNL A   1      40.520  28.931  28.863  1.00  0.00     0.010 A 
ATOM     39  C   UNL A   1      39.081  27.355  30.011  1.00  0.00     0.010 A 
ATOM     40  C   UNL A   1      39.765  28.584  29.987  1.00  0.00    -0.014 A 
BRANCH  40  41
ATOM     41  C   UNL A   1      39.858  29.411  31.216  1.00  0.00     0.031 A 
ATOM     42  C   UNL A   1      41.007  29.164  32.158  1.00  0.00     0.074 A 
ATOM     43  C   UNL A   1      38.965  30.382  31.479  1.00  0.00     0.049 A 
ATOM     44  N   UNL A   1      41.268  29.719  33.312  1.00  0.00    -0.248 NA
ATOM     45  C   UNL A   1      41.992  28.151  31.739  1.00  0.00     0.031 C 
ATOM     46  C   UNL A   1      37.847  30.761  30.616  1.00  0.00     0.029 A 
ATOM     47  N   UNL A   1      38.859  31.225  32.557  1.00  0.00    -0.354 N 
ATOM     48  C   UNL A   1      42.433  29.111  33.767  1.00  0.00     0.074 A 
ATOM     49  C   UNL A   1      42.812  28.125  32.779  1.00  0.00     0.031 C 
ATOM     50  C   UNL A   1      37.160  31.755  31.206  1.00  0.00     0.029 A 
ATOM     51  C   UNL A   1      37.763  32.052  32.504  1.00  0.00     0.049 A 
ATOM     52  H   UNL A   1      39.507  31.235  33.299  1.00  0.00     0.167 HD
ATOM     53  C   UNL A   1      43.127  29.354  34.905  1.00  0.00     0.031 A 
ATOM     54  C   UNL A   1      37.284  32.927  33.413  1.00  0.00     0.031 A 
ATOM     55  C   UNL A   1      42.735  30.326  35.891  1.00  0.00     0.049 A 
ATOM     56  C   UNL A   1      38.023  33.116  34.714  1.00  0.00     0.074 A 
ATOM     57  C   UNL A   1      43.377  30.659  37.071  1.00  0.00     0.029 A 
ATOM     58  N   UNL A   1      41.594  31.113  35.822  1.00  0.00    -0.354 N 
ATOM     59  N   UNL A   1      39.135  32.551  35.122  1.00  0.00    -0.248 NA
ATOM     60  C   UNL A   1      37.444  34.065  35.675  1.00  0.00     0.031 C 
ATOM     61  C   UNL A   1      42.584  31.587  37.752  1.00  0.00     0.029 A 
ATOM     62  C   UNL A   1      41.494  31.901  36.956  1.00  0.00     0.049 A 
ATOM     63  H   UNL A   1      40.951  31.110  35.076  1.00  0.00     0.167 HD
ATOM     64  C   UNL A   1      39.407  33.105  36.371  1.00  0.00     0.074 A 
ATOM     65  C   UNL A   1      38.351  34.059  36.642  1.00  0.00     0.031 C 
ATOM     66  C   UNL A   1      40.437  32.849  37.215  1.00  0.00     0.031 A 
BRANCH  53  67
ATOM     67  C   UNL A   1      44.357  28.522  35.166  1.00  0.00    -0.014 A 
ATOM     68  C   UNL A   1      44.275  27.254  35.770  1.00  0.00     0.010 A 
ATOM     69  C   UNL A   1      45.616  29.004  34.760  1.00  0.00     0.010 A 
ATOM     70  C   UNL A   1      45.430  26.502  35.998  1.00  0.00     0.020 A 
ATOM     71  C   UNL A   1      46.769  28.239  34.953  1.00  0.00     0.020 A 
ATOM     72  C   UNL A   1      46.671  26.998  35.585  1.00  0.00     0.054 A 
BRANCH  72  73
ATOM     73  S   UNL A   1      48.149  25.987  35.866  1.00  0.00     0.124 S 
ATOM     74  O   UNL A   1      47.601  24.633  35.821  1.00  0.00    -0.237 OA
ATOM     75  O   UNL A   1      49.004  26.355  34.740  1.00  0.00    -0.237 OA
ATOM     76  O   UNL A   1      48.627  26.421  37.176  1.00  0.00    -0.744 OA
ENDBRANCH  72  73
ENDBRANCH  53  67
BRANCH  54  77
ATOM     77  C   UNL A   1      36.025  33.677  33.137  1.00  0.00    -0.014 A 
ATOM     78  C   UNL A   1      34.773  33.133  33.470  1.00  0.00     0.010 A 
ATOM     79  C   UNL A   1      36.075  34.944  32.524  1.00  0.00     0.010 A 
ATOM     80  C   UNL A   1      33.596  33.832  33.184  1.00  0.00     0.020 A 
ATOM     81  C   UNL A   1      34.903  35.662  32.269  1.00  0.00     0.020 A 
ATOM     82  C   UNL A   1      33.670  35.095  32.591  1.00  0.00     0.054 A 
BRANCH  82  83
ATOM     83  S   UNL A   1      32.130  36.005  32.283  1.00  0.00     0.124 S 
ATOM     84  O   UNL A   1      32.275  36.382  30.880  1.00  0.00    -0.237 OA
ATOM     85  O   UNL A   1      31.111  34.998  32.567  1.00  0.00    -0.237 OA
ATOM     86  O   UNL A   1      32.188  37.110  33.237  1.00  0.00    -0.744 OA
ENDBRANCH  82  83
ENDBRANCH  54  77
BRANCH  66  87
ATOM     87  C   UNL A   1      40.507  33.641  38.498  1.00  0.00    -0.014 A 
ATOM     88  C   UNL A   1      39.876  33.200  39.674  1.00  0.00     0.010 A 
ATOM     89  C   UNL A   1      41.270  34.824  38.536  1.00  0.00     0.010 A 
ATOM     90  C   UNL A   1      39.978  33.944  40.854  1.00  0.00     0.020 A 
ATOM     91  C   UNL A   1      41.407  35.550  39.722  1.00  0.00     0.020 A 
ATOM     92  C   UNL A   1      40.746  35.112  40.870  1.00  0.00     0.054 A 
BRANCH  92  93
ATOM     93  S   UNL A   1      40.896  36.033  42.426  1.00  0.00     0.124 S 
ATOM     94  O   UNL A   1      41.141  34.964  43.391  1.00  0.00    -0.237 OA
ATOM     95  O   UNL A   1      42.030  36.917  42.165  1.00  0.00    -0.237 OA
ATOM     96  O   UNL A   1      39.605  36.705  42.559  1.00  0.00    -0.744 OA
ENDBRANCH  92  93
ENDBRANCH  66  87
ENDBRANCH  40  41
ENDBRANCH  33  35
ENDBRANCH  32  33
ENDBRANCH  31  32
ENDBRANCH  30  31
ENDBRANCH  29  30
ENDBRANCH  28  29
ENDBRANCH  27  28
ENDBRANCH   1  27
TORSDOF 26
ENDMDL
MODEL 2
REMARK VINA RESULT:      -9.1      0.561      7.816
REMARK SMILES N#Cc1ccccc1S(=O)(=O)N1CCC(C(=O)OCCOCCOCCOCCOC(=O)c2ccc(-c3c4nc(c(-c5ccc(S(=O)(=O)[O-])cc5)c5ccc([nH]5)c(-c5ccc(S(=O)(=O)[O-])cc5)c5nc(c(-c6ccc(S(=O)(=O)[O-])cc6)c6ccc3[nH]6)C=C5)C=C4)cc2)CC1
REMARK SMILES IDX 24 1 23 2 22 3 21 4 20 5 19 6 18 7 16 8 17 9 15 10 12 11
REMARK SMILES IDX 13 12 94 13 14 14 93 15 9 16 10 17 11 18 8 19 3 20 4 21 5 22
REMARK SMILES IDX 7 23 6 24 2 25 1 26 25 27 26 28 27 29 28 30 29 31 30 32
REMARK SMILES IDX 31 33 32 34 33 35 34 36 92 37 35 38 91 39 36 40 37 41 38 42
REMARK SMILES IDX 85 43 39 44 90 45 84 46 86 47 40 48 89 49 83 50 82 51 41 53
REMARK SMILES IDX 71 54 52 55 70 56 53 57 56 58 69 59 87 60 54 61 55 62 68 64
REMARK SMILES IDX 88 65 57 66 42 67 43 68 51 69 44 70 50 71 45 72 46 73 47 74
REMARK SMILES IDX 48 75 49 76 72 77 73 78 81 79 74 80 80 81 75 82 76 83 77 84
REMARK SMILES IDX 78 85 79 86 58 87 59 88 67 89 60 90 66 91 61 92 62 93 63 94
REMARK SMILES IDX 64 95 65 96
REMARK H PARENT 86 52 56 63
REMARK Flexibility Score: inf
ROOT
ATOM      1  O   UNL A   1      34.907  24.276  22.999  1.00  0.00    -0.377 OA
ENDROOT
BRANCH   1   2
ATOM      2  C   UNL A   1      33.681  24.472  22.329  1.00  0.00     0.188 C 
BRANCH   2   3
ATOM      3  C   UNL A   1      33.201  25.920  22.201  1.00  0.00     0.188 C 
BRANCH   3   4
ATOM      4  O   UNL A   1      34.010  26.902  21.588  1.00  0.00    -0.376 OA
BRANCH   4   5
ATOM      5  C   UNL A   1      34.024  28.260  21.999  1.00  0.00     0.202 C 
BRANCH   5   6
ATOM      6  C   UNL A   1      32.991  28.942  22.912  1.00  0.00     0.261 C 
BRANCH   6   7
ATOM      7  O   UNL A   1      33.369  29.188  24.268  1.00  0.00    -0.463 OA
BRANCH   7   8
ATOM      8  C   UNL A   1      32.443  28.847  25.186  1.00  0.00     0.309 C 
ATOM      9  O   UNL A   1      31.696  29.644  25.748  1.00  0.00    -0.252 OA
BRANCH   8  10
ATOM     10  C   UNL A   1      32.360  27.365  25.479  1.00  0.00     0.102 C 
ATOM     11  N   UNL A   1      32.007  24.778  26.670  1.00  0.00    -0.198 NA
ATOM     12  C   UNL A   1      33.331  25.104  26.111  1.00  0.00     0.103 C 
ATOM     13  C   UNL A   1      30.881  25.724  26.622  1.00  0.00     0.103 C 
ATOM     14  C   UNL A   1      33.599  26.590  25.909  1.00  0.00     0.032 C 
ATOM     15  C   UNL A   1      31.316  27.173  26.563  1.00  0.00     0.032 C 
BRANCH  11  16
ATOM     16  S   UNL A   1      31.670  23.156  26.960  1.00  0.00     0.244 S 
ATOM     17  O   UNL A   1      30.236  23.058  27.149  1.00  0.00    -0.207 OA
ATOM     18  O   UNL A   1      32.589  22.668  27.967  1.00  0.00    -0.207 OA
BRANCH  16  19
ATOM     19  C   UNL A   1      32.001  22.165  25.512  1.00  0.00     0.100 A 
ATOM     20  C   UNL A   1      31.519  22.341  24.214  1.00  0.00     0.072 A 
ATOM     21  C   UNL A   1      31.839  21.381  23.230  1.00  0.00     0.021 A 
ATOM     22  C   UNL A   1      32.665  20.295  23.511  1.00  0.00     0.001 A 
ATOM     23  C   UNL A   1      32.853  21.071  25.778  1.00  0.00     0.023 A 
ATOM     24  C   UNL A   1      33.191  20.151  24.786  1.00  0.00     0.001 A 
BRANCH  20  25
ATOM     25  C   UNL A   1      30.770  23.445  23.720  1.00  0.00     0.101 C 
ATOM     26  N   UNL A   1      30.294  24.422  23.301  1.00  0.00    -0.192 NA
ENDBRANCH  20  25
ENDBRANCH  16  19
ENDBRANCH  11  16
ENDBRANCH   8  10
ENDBRANCH   7   8
ENDBRANCH   6   7
ENDBRANCH   5   6
ENDBRANCH   4   5
ENDBRANCH   3   4
ENDBRANCH   2   3
ENDBRANCH   1   2
BRANCH   1  27
ATOM     27  C   UNL A   1      35.239  22.986  23.498  1.00  0.00     0.188 C 
BRANCH  27  28
ATOM     28  C   UNL A   1      36.165  22.827  24.724  1.00  0.00     0.188 C 
BRANCH  28  29
ATOM     29  O   UNL A   1      36.748  24.020  25.208  1.00  0.00    -0.376 OA
BRANCH  29  30
ATOM     30  C   UNL A   1      37.624  23.985  26.322  1.00  0.00     0.202 C 
BRANCH  30  31
ATOM     31  C   UNL A   1      39.152  24.024  26.132  1.00  0.00     0.261 C 
BRANCH  31  32
ATOM     32  O   UNL A   1      39.927  24.711  27.123  1.00  0.00    -0.460 OA
BRANCH  32  33
ATOM     33  C   UNL A   1      40.430  25.922  26.801  1.00  0.00     0.338 C 
ATOM     34  O   UNL A   1      40.800  26.286  25.700  1.00  0.00    -0.246 OA
BRANCH  33  35
ATOM     35  C   UNL A   1      40.263  26.809  27.976  1.00  0.00     0.060 A 
ATOM     36  C   UNL A   1      41.003  27.998  28.043  1.00  0.00     0.016 A 
ATOM     37  C   UNL A   1      39.386  26.469  29.006  1.00  0.00     0.016 A 
ATOM     38  C   UNL A   1      40.902  28.827  29.160  1.00  0.00     0.010 A 
ATOM     39  C   UNL A   1      39.308  27.286  30.139  1.00  0.00     0.010 A 
ATOM     40  C   UNL A   1      40.094  28.449  30.237  1.00  0.00    -0.014 A 
BRANCH  40  41
ATOM     41  C   UNL A   1      40.231  29.152  31.538  1.00  0.00     0.031 A 
ATOM     42  C   UNL A   1      39.212  30.201  31.893  1.00  0.00     0.074 A 
ATOM     43  C   UNL A   1      41.218  28.847  32.400  1.00  0.00     0.049 A 
ATOM     44  N   UNL A   1      39.154  30.981  32.940  1.00  0.00    -0.248 NA
ATOM     45  C   UNL A   1      38.110  30.397  30.934  1.00  0.00     0.031 C 
ATOM     46  C   UNL A   1      42.227  27.808  32.201  1.00  0.00     0.029 A 
ATOM     47  N   UNL A   1      41.532  29.392  33.621  1.00  0.00    -0.354 N 
ATOM     48  C   UNL A   1      38.025  31.773  32.758  1.00  0.00     0.074 A 
ATOM     49  C   UNL A   1      37.445  31.400  31.487  1.00  0.00     0.031 C 
ATOM     50  C   UNL A   1      43.057  27.799  33.259  1.00  0.00     0.029 A 
ATOM     51  C   UNL A   1      42.664  28.858  34.188  1.00  0.00     0.049 A 
ATOM     52  H   UNL A   1      40.997  30.099  34.048  1.00  0.00     0.167 HD
ATOM     53  C   UNL A   1      37.517  32.724  33.577  1.00  0.00     0.031 A 
ATOM     54  C   UNL A   1      43.324  29.204  35.312  1.00  0.00     0.031 A 
ATOM     55  C   UNL A   1      38.109  33.101  34.833  1.00  0.00     0.049 A 
ATOM     56  C   UNL A   1      42.790  30.329  36.163  1.00  0.00     0.074 A 
ATOM     57  C   UNL A   1      37.663  34.043  35.744  1.00  0.00     0.029 A 
ATOM     58  N   UNL A   1      39.280  32.568  35.351  1.00  0.00    -0.354 N 
ATOM     59  N   UNL A   1      41.709  31.054  35.991  1.00  0.00    -0.248 NA
ATOM     60  C   UNL A   1      43.562  30.677  37.364  1.00  0.00     0.031 C 
ATOM     61  C   UNL A   1      38.606  34.135  36.772  1.00  0.00     0.029 A 
ATOM     62  C   UNL A   1      39.593  33.188  36.549  1.00  0.00     0.049 A 
ATOM     63  H   UNL A   1      39.810  31.854  34.928  1.00  0.00     0.167 HD
ATOM     64  C   UNL A   1      41.655  31.919  37.082  1.00  0.00     0.074 A 
ATOM     65  C   UNL A   1      42.801  31.614  37.913  1.00  0.00     0.031 C 
ATOM     66  C   UNL A   1      40.738  32.876  37.370  1.00  0.00     0.031 A 
BRANCH  53  67
ATOM     67  C   UNL A   1      36.281  33.456  33.117  1.00  0.00    -0.014 A 
ATOM     68  C   UNL A   1      35.055  32.792  32.933  1.00  0.00     0.010 A 
ATOM     69  C   UNL A   1      36.341  34.847  32.904  1.00  0.00     0.010 A 
ATOM     70  C   UNL A   1      33.925  33.495  32.508  1.00  0.00     0.020 A 
ATOM     71  C   UNL A   1      35.204  35.560  32.515  1.00  0.00     0.020 A 
ATOM     72  C   UNL A   1      34.006  34.876  32.304  1.00  0.00     0.054 A 
BRANCH  72  73
ATOM     73  S   UNL A   1      32.515  35.767  31.784  1.00  0.00     0.124 S 
ATOM     74  O   UNL A   1      31.505  35.215  32.683  1.00  0.00    -0.237 OA
ATOM     75  O   UNL A   1      32.878  37.161  32.028  1.00  0.00    -0.237 OA
ATOM     76  O   UNL A   1      32.362  35.402  30.378  1.00  0.00    -0.744 OA
ENDBRANCH  72  73
ENDBRANCH  53  67
BRANCH  54  77
ATOM     77  C   UNL A   1      44.580  28.495  35.689  1.00  0.00    -0.014 A 
ATOM     78  C   UNL A   1      44.541  27.307  36.439  1.00  0.00     0.010 A 
ATOM     79  C   UNL A   1      45.831  29.016  35.306  1.00  0.00     0.010 A 
ATOM     80  C   UNL A   1      45.724  26.662  36.811  1.00  0.00     0.020 A 
ATOM     81  C   UNL A   1      47.015  28.355  35.645  1.00  0.00     0.020 A 
ATOM     82  C   UNL A   1      46.954  27.187  36.405  1.00  0.00     0.054 A 
BRANCH  82  83
ATOM     83  S   UNL A   1      48.472  26.300  36.852  1.00  0.00     0.124 S 
ATOM     84  O   UNL A   1      49.045  25.997  35.544  1.00  0.00    -0.237 OA
ATOM     85  O   UNL A   1      49.192  27.294  37.644  1.00  0.00    -0.237 OA
ATOM     86  O   UNL A   1      47.987  25.146  37.605  1.00  0.00    -0.744 OA
ENDBRANCH  82  83
ENDBRANCH  54  77
BRANCH  66  87
ATOM     87  C   UNL A   1      40.903  33.640  38.660  1.00  0.00    -0.014 A 
ATOM     88  C   UNL A   1      40.367  33.168  39.872  1.00  0.00     0.010 A 
ATOM     89  C   UNL A   1      41.660  34.827  38.667  1.00  0.00     0.010 A 
ATOM     90  C   UNL A   1      40.556  33.887  41.057  1.00  0.00     0.020 A 
ATOM     91  C   UNL A   1      41.884  35.528  39.855  1.00  0.00     0.020 A 
ATOM     92  C   UNL A   1      41.317  35.060  41.040  1.00  0.00     0.054 A 
BRANCH  92  93
ATOM     93  S   UNL A   1      41.583  35.947  42.600  1.00  0.00     0.124 S 
ATOM     94  O   UNL A   1      42.649  35.163  43.219  1.00  0.00    -0.237 OA
ATOM     95  O   UNL A   1      41.964  37.282  42.147  1.00  0.00    -0.237 OA
ATOM     96  O   UNL A   1      40.286  35.868  43.270  1.00  0.00    -0.744 OA
ENDBRANCH  92  93
ENDBRANCH  66  87
ENDBRANCH  40  41
ENDBRANCH  33  35
ENDBRANCH  32  33
ENDBRANCH  31  32
ENDBRANCH  30  31
ENDBRANCH  29  30
ENDBRANCH  28  29
ENDBRANCH  27  28
ENDBRANCH   1  27
TORSDOF 26
ENDMDL
MODEL 3
REMARK VINA RESULT:      -9.0      5.214      6.556
REMARK SMILES N#Cc1ccccc1S(=O)(=O)N1CCC(C(=O)OCCOCCOCCOCCOC(=O)c2ccc(-c3c4nc(c(-c5ccc(S(=O)(=O)[O-])cc5)c5ccc([nH]5)c(-c5ccc(S(=O)(=O)[O-])cc5)c5nc(c(-c6ccc(S(=O)(=O)[O-])cc6)c6ccc3[nH]6)C=C5)C=C4)cc2)CC1
REMARK SMILES IDX 24 1 23 2 22 3 21 4 20 5 19 6 18 7 16 8 17 9 15 10 12 11
REMARK SMILES IDX 13 12 94 13 14 14 93 15 9 16 10 17 11 18 8 19 3 20 4 21 5 22
REMARK SMILES IDX 7 23 6 24 2 25 1 26 25 27 26 28 27 29 28 30 29 31 30 32
REMARK SMILES IDX 31 33 32 34 33 35 34 36 92 37 35 38 91 39 36 40 37 41 38 42
REMARK SMILES IDX 85 43 39 44 90 45 84 46 86 47 40 48 89 49 83 50 82 51 41 53
REMARK SMILES IDX 71 54 52 55 70 56 53 57 56 58 69 59 87 60 54 61 55 62 68 64
REMARK SMILES IDX 88 65 57 66 42 67 43 68 51 69 44 70 50 71 45 72 46 73 47 74
REMARK SMILES IDX 48 75 49 76 72 77 73 78 81 79 74 80 80 81 75 82 76 83 77 84
REMARK SMILES IDX 78 85 79 86 58 87 59 88 67 89 60 90 66 91 61 92 62 93 63 94
REMARK SMILES IDX 64 95 65 96
REMARK H PARENT 86 52 56 63
REMARK Flexibility Score: inf
ROOT
ATOM      1  O   UNL A   1      34.412  24.693  22.745  1.00  0.00    -0.377 OA
ENDROOT
BRANCH   1   2
ATOM      2  C   UNL A   1      33.287  24.949  21.933  1.00  0.00     0.188 C 
BRANCH   2   3
ATOM      3  C   UNL A   1      32.967  26.421  21.661  1.00  0.00     0.188 C 
BRANCH   3   4
ATOM      4  O   UNL A   1      33.999  27.365  21.467  1.00  0.00    -0.376 OA
BRANCH   4   5
ATOM      5  C   UNL A   1      34.088  28.578  22.199  1.00  0.00     0.202 C 
BRANCH   5   6
ATOM      6  C   UNL A   1      32.991  29.179  23.094  1.00  0.00     0.261 C 
BRANCH   6   7
ATOM      7  O   UNL A   1      33.338  29.485  24.447  1.00  0.00    -0.463 OA
BRANCH   7   8
ATOM      8  C   UNL A   1      32.422  29.118  25.365  1.00  0.00     0.309 C 
ATOM      9  O   UNL A   1      31.706  29.903  25.983  1.00  0.00    -0.252 OA
BRANCH   8  10
ATOM     10  C   UNL A   1      32.309  27.626  25.582  1.00  0.00     0.102 C 
ATOM     11  N   UNL A   1      31.972  24.987  26.659  1.00  0.00    -0.198 NA
ATOM     12  C   UNL A   1      33.245  25.299  25.985  1.00  0.00     0.103 C 
ATOM     13  C   UNL A   1      30.887  25.973  26.779  1.00  0.00     0.103 C 
ATOM     14  C   UNL A   1      33.552  26.784  25.840  1.00  0.00     0.032 C 
ATOM     15  C   UNL A   1      31.372  27.406  26.755  1.00  0.00     0.032 C 
BRANCH  11  16
ATOM     16  S   UNL A   1      31.600  23.363  26.891  1.00  0.00     0.244 S 
ATOM     17  O   UNL A   1      30.171  23.295  27.125  1.00  0.00    -0.207 OA
ATOM     18  O   UNL A   1      32.537  22.808  27.845  1.00  0.00    -0.207 OA
BRANCH  16  19
ATOM     19  C   UNL A   1      31.855  22.427  25.393  1.00  0.00     0.100 A 
ATOM     20  C   UNL A   1      31.378  22.699  24.110  1.00  0.00     0.072 A 
ATOM     21  C   UNL A   1      31.628  21.771  23.076  1.00  0.00     0.021 A 
ATOM     22  C   UNL A   1      32.381  20.620  23.295  1.00  0.00     0.001 A 
ATOM     23  C   UNL A   1      32.634  21.267  25.596  1.00  0.00     0.023 A 
ATOM     24  C   UNL A   1      32.904  20.378  24.556  1.00  0.00     0.001 A 
BRANCH  20  25
ATOM     25  C   UNL A   1      30.701  23.874  23.678  1.00  0.00     0.101 C 
ATOM     26  N   UNL A   1      30.185  24.895  23.463  1.00  0.00    -0.192 NA
ENDBRANCH  20  25
ENDBRANCH  16  19
ENDBRANCH  11  16
ENDBRANCH   8  10
ENDBRANCH   7   8
ENDBRANCH   6   7
ENDBRANCH   5   6
ENDBRANCH   4   5
ENDBRANCH   3   4
ENDBRANCH   2   3
ENDBRANCH   1   2
BRANCH   1  27
ATOM     27  C   UNL A   1      34.959  23.381  22.795  1.00  0.00     0.188 C 
BRANCH  27  28
ATOM     28  C   UNL A   1      35.587  22.836  24.098  1.00  0.00     0.188 C 
BRANCH  28  29
ATOM     29  O   UNL A   1      36.696  21.976  23.929  1.00  0.00    -0.376 OA
BRANCH  29  30
ATOM     30  C   UNL A   1      36.986  20.987  24.902  1.00  0.00     0.202 C 
BRANCH  30  31
ATOM     31  C   UNL A   1      38.393  20.865  25.516  1.00  0.00     0.261 C 
BRANCH  31  32
ATOM     32  O   UNL A   1      39.080  22.078  25.849  1.00  0.00    -0.460 OA
BRANCH  32  33
ATOM     33  C   UNL A   1      40.074  22.010  26.760  1.00  0.00     0.338 C 
ATOM     34  O   UNL A   1      40.757  21.036  27.019  1.00  0.00    -0.246 OA
BRANCH  33  35
ATOM     35  C   UNL A   1      40.337  23.384  27.247  1.00  0.00     0.060 A 
ATOM     36  C   UNL A   1      39.760  24.469  26.572  1.00  0.00     0.016 A 
ATOM     37  C   UNL A   1      41.152  23.602  28.359  1.00  0.00     0.016 A 
ATOM     38  C   UNL A   1      40.030  25.775  26.979  1.00  0.00     0.010 A 
ATOM     39  C   UNL A   1      41.446  24.914  28.748  1.00  0.00     0.010 A 
ATOM     40  C   UNL A   1      40.917  26.006  28.035  1.00  0.00    -0.014 A 
BRANCH  40  41
ATOM     41  C   UNL A   1      41.450  27.373  28.259  1.00  0.00     0.031 A 
ATOM     42  C   UNL A   1      42.860  27.670  27.824  1.00  0.00     0.074 A 
ATOM     43  C   UNL A   1      40.692  28.341  28.806  1.00  0.00     0.049 A 
ATOM     44  N   UNL A   1      43.558  28.767  27.963  1.00  0.00    -0.248 NA
ATOM     45  C   UNL A   1      43.580  26.580  27.143  1.00  0.00     0.031 C 
ATOM     46  C   UNL A   1      39.294  28.197  29.210  1.00  0.00     0.029 A 
ATOM     47  N   UNL A   1      41.001  29.641  29.120  1.00  0.00    -0.354 N 
ATOM     48  C   UNL A   1      44.803  28.494  27.406  1.00  0.00     0.074 A 
ATOM     49  C   UNL A   1      44.774  27.120  26.954  1.00  0.00     0.031 C 
ATOM     50  C   UNL A   1      38.870  29.362  29.730  1.00  0.00     0.029 A 
ATOM     51  C   UNL A   1      39.976  30.318  29.736  1.00  0.00     0.049 A 
ATOM     52  H   UNL A   1      41.876  30.050  28.925  1.00  0.00     0.167 HD
ATOM     53  C   UNL A   1      45.873  29.315  27.280  1.00  0.00     0.031 A 
ATOM     54  C   UNL A   1      39.942  31.557  30.269  1.00  0.00     0.031 A 
ATOM     55  C   UNL A   1      45.899  30.675  27.746  1.00  0.00     0.049 A 
ATOM     56  C   UNL A   1      41.176  32.422  30.199  1.00  0.00     0.074 A 
ATOM     57  C   UNL A   1      46.929  31.595  27.653  1.00  0.00     0.029 A 
ATOM     58  N   UNL A   1      44.855  31.310  28.403  1.00  0.00    -0.354 N 
ATOM     59  N   UNL A   1      42.339  32.160  29.649  1.00  0.00    -0.248 NA
ATOM     60  C   UNL A   1      41.089  33.753  30.816  1.00  0.00     0.031 C 
ATOM     61  C   UNL A   1      46.537  32.757  28.324  1.00  0.00     0.029 A 
ATOM     62  C   UNL A   1      45.230  32.595  28.757  1.00  0.00     0.049 A 
ATOM     63  H   UNL A   1      43.977  30.905  28.592  1.00  0.00     0.167 HD
ATOM     64  C   UNL A   1      43.109  33.307  29.823  1.00  0.00     0.074 A 
ATOM     65  C   UNL A   1      42.273  34.268  30.514  1.00  0.00     0.031 C 
ATOM     66  C   UNL A   1      44.389  33.545  29.444  1.00  0.00     0.031 A 
BRANCH  53  67
ATOM     67  C   UNL A   1      47.121  28.746  26.652  1.00  0.00    -0.014 A 
ATOM     68  C   UNL A   1      48.289  28.524  27.402  1.00  0.00     0.010 A 
ATOM     69  C   UNL A   1      47.107  28.390  25.290  1.00  0.00     0.010 A 
ATOM     70  C   UNL A   1      49.430  27.993  26.796  1.00  0.00     0.020 A 
ATOM     71  C   UNL A   1      48.235  27.825  24.688  1.00  0.00     0.020 A 
ATOM     72  C   UNL A   1      49.396  27.645  25.442  1.00  0.00     0.054 A 
BRANCH  72  73
ATOM     73  S   UNL A   1      50.882  26.929  24.691  1.00  0.00     0.124 S 
ATOM     74  O   UNL A   1      50.460  26.745  23.304  1.00  0.00    -0.237 OA
ATOM     75  O   UNL A   1      51.881  27.972  24.909  1.00  0.00    -0.237 OA
ATOM     76  O   UNL A   1      51.097  25.696  25.444  1.00  0.00    -0.744 OA
ENDBRANCH  72  73
ENDBRANCH  53  67
BRANCH  54  77
ATOM     77  C   UNL A   1      38.705  32.048  30.940  1.00  0.00    -0.014 A 
ATOM     78  C   UNL A   1      38.559  31.962  32.335  1.00  0.00     0.010 A 
ATOM     79  C   UNL A   1      37.657  32.599  30.179  1.00  0.00     0.010 A 
ATOM     80  C   UNL A   1      37.384  32.401  32.955  1.00  0.00     0.020 A 
ATOM     81  C   UNL A   1      36.496  33.073  30.798  1.00  0.00     0.020 A 
ATOM     82  C   UNL A   1      36.363  32.960  32.181  1.00  0.00     0.054 A 
BRANCH  82  83
ATOM     83  S   UNL A   1      34.874  33.575  33.016  1.00  0.00     0.124 S 
ATOM     84  O   UNL A   1      33.849  32.658  32.526  1.00  0.00    -0.237 OA
ATOM     85  O   UNL A   1      35.227  33.436  34.426  1.00  0.00    -0.237 OA
ATOM     86  O   UNL A   1      34.759  34.953  32.542  1.00  0.00    -0.744 OA
ENDBRANCH  82  83
ENDBRANCH  54  77
BRANCH  66  87
ATOM     87  C   UNL A   1      44.962  34.913  29.723  1.00  0.00    -0.014 A 
ATOM     88  C   UNL A   1      45.471  35.257  30.988  1.00  0.00     0.010 A 
ATOM     89  C   UNL A   1      45.042  35.853  28.678  1.00  0.00     0.010 A 
ATOM     90  C   UNL A   1      46.016  36.525  31.211  1.00  0.00     0.020 A 
ATOM     91  C   UNL A   1      45.621  37.108  28.886  1.00  0.00     0.020 A 
ATOM     92  C   UNL A   1      46.091  37.441  30.157  1.00  0.00     0.054 A 
BRANCH  92  93
ATOM     93  S   UNL A   1      46.844  39.062  30.464  1.00  0.00     0.124 S 
ATOM     94  O   UNL A   1      46.869  39.116  31.923  1.00  0.00    -0.237 OA
ATOM     95  O   UNL A   1      48.147  38.935  29.816  1.00  0.00    -0.237 OA
ATOM     96  O   UNL A   1      45.924  40.000  29.823  1.00  0.00    -0.744 OA
ENDBRANCH  92  93
ENDBRANCH  66  87
ENDBRANCH  40  41
ENDBRANCH  33  35
ENDBRANCH  32  33
ENDBRANCH  31  32
ENDBRANCH  30  31
ENDBRANCH  29  30
ENDBRANCH  28  29
ENDBRANCH  27  28
ENDBRANCH   1  27
TORSDOF 26
ENDMDL
