MODEL 1
REMARK VINA RESULT:      -8.5      0.000      0.000
REMARK SMILES Cc1cc2c(c(C)c1Cl)C=C(C(=O)OCCOCCOCCOCCOC(=O)c1ccc(-c3c4nc(c(-c5ccc(S(=O)(=O)[O-])cc5)c5ccc([nH]5)c(-c5ccc(S(=O)(=O)[O-])cc5)c5nc(c(-c6ccc(S(=O)(=O)[O-])cc6)c6ccc3[nH]6)C=C5)C=C4)cc1)[C@@H](C(F)(F)F)O2
REMARK SMILES IDX 21 1 20 2 19 3 18 4 17 5 16 6 15 7 14 8 12 9 13 10 11 11
REMARK SMILES IDX 1 12 2 13 3 14 8 15 4 16 6 17 9 18 5 19 94 20 7 21 10 22
REMARK SMILES IDX 89 23 90 24 91 25 92 26 93 27 22 28 23 29 24 30 25 31 26 32
REMARK SMILES IDX 27 33 28 34 29 35 30 36 88 37 31 38 87 39 32 40 33 41 34 42
REMARK SMILES IDX 81 43 35 44 86 45 80 46 82 47 36 48 85 49 79 50 78 51 37 53
REMARK SMILES IDX 67 54 48 55 66 56 49 57 52 58 65 59 83 60 50 61 51 62 64 64
REMARK SMILES IDX 84 65 53 66 38 67 39 68 47 69 40 70 46 71 41 72 42 73 43 74
REMARK SMILES IDX 44 75 45 76 68 77 69 78 77 79 70 80 76 81 71 82 72 83 73 84
REMARK SMILES IDX 74 85 75 86 54 87 55 88 63 89 56 90 62 91 57 92 58 93 59 94
REMARK SMILES IDX 60 95 61 96
REMARK H PARENT 82 52 52 63
REMARK Flexibility Score: inf
ROOT
ATOM      1  C   UNL A   1      44.110  42.550  30.508  1.00  0.00     0.188 C 
ENDROOT
BRANCH   1   2
ATOM      2  O   UNL A   1      44.191  42.620  29.083  1.00  0.00    -0.377 OA
BRANCH   2   3
ATOM      3  C   UNL A   1      44.161  41.408  28.348  1.00  0.00     0.188 C 
BRANCH   3   4
ATOM      4  C   UNL A   1      44.735  41.539  26.924  1.00  0.00     0.188 C 
BRANCH   4   5
ATOM      5  O   UNL A   1      44.178  42.627  26.201  1.00  0.00    -0.376 OA
BRANCH   5   6
ATOM      6  C   UNL A   1      44.929  43.823  26.058  1.00  0.00     0.202 C 
BRANCH   6   7
ATOM      7  C   UNL A   1      44.911  44.616  24.739  1.00  0.00     0.261 C 
BRANCH   7   8
ATOM      8  O   UNL A   1      44.039  44.126  23.714  1.00  0.00    -0.460 OA
BRANCH   8   9
ATOM      9  C   UNL A   1      44.566  43.337  22.761  1.00  0.00     0.338 C 
ATOM     10  O   UNL A   1      44.992  42.204  22.900  1.00  0.00    -0.246 OA
BRANCH   9  11
ATOM     11  C   UNL A   1      44.361  44.012  21.459  1.00  0.00     0.087 C 
ATOM     12  C   UNL A   1      43.449  48.165  16.620  1.00  0.00     0.046 C 
ATOM     13  C   UNL A   1      44.057  47.380  17.751  1.00  0.00    -0.028 A 
ATOM     14  C   UNL A   1      43.544  46.094  17.973  1.00  0.00     0.052 A 
ATOM     15  C   UNL A   1      45.052  47.870  18.617  1.00  0.00     0.047 A 
ATOM     16  C   UNL A   1      43.925  45.354  19.089  1.00  0.00     0.128 A 
ATOM     17  C   UNL A   1      45.482  47.112  19.734  1.00  0.00    -0.021 A 
ATOM     18  Cl  UNL A   1      45.730  49.443  18.323  1.00  0.00    -0.084 Cl
ATOM     19  C   UNL A   1      44.840  45.877  20.005  1.00  0.00     0.022 A 
ATOM     20  O   UNL A   1      43.326  44.133  19.201  1.00  0.00    -0.475 OA
ATOM     21  C   UNL A   1      46.599  47.580  20.638  1.00  0.00     0.047 C 
ATOM     22  C   UNL A   1      45.031  45.156  21.261  1.00  0.00     0.027 C 
ATOM     23  C   UNL A   1      43.494  43.358  20.418  1.00  0.00     0.316 C 
BRANCH  23  24
ATOM     24  C   UNL A   1      42.096  43.012  20.948  1.00  0.00     0.430 C 
ATOM     25  F   UNL A   1      42.084  41.788  21.529  1.00  0.00    -0.167 F 
ATOM     26  F   UNL A   1      41.670  43.896  21.875  1.00  0.00    -0.167 F 
ATOM     27  F   UNL A   1      41.182  42.995  19.950  1.00  0.00    -0.167 F 
ENDBRANCH  23  24
ENDBRANCH   9  11
ENDBRANCH   8   9
ENDBRANCH   7   8
ENDBRANCH   6   7
ENDBRANCH   5   6
ENDBRANCH   4   5
ENDBRANCH   3   4
ENDBRANCH   2   3
ENDBRANCH   1   2
BRANCH   1  28
ATOM     28  C   UNL A   1      43.173  43.464  31.335  1.00  0.00     0.188 C 
BRANCH  28  29
ATOM     29  O   UNL A   1      42.796  42.935  32.602  1.00  0.00    -0.376 OA
BRANCH  29  30
ATOM     30  C   UNL A   1      42.865  41.528  32.767  1.00  0.00     0.202 C 
BRANCH  30  31
ATOM     31  C   UNL A   1      43.873  41.051  33.819  1.00  0.00     0.261 C 
BRANCH  31  32
ATOM     32  O   UNL A   1      44.395  39.730  33.620  1.00  0.00    -0.460 OA
BRANCH  32  33
ATOM     33  C   UNL A   1      45.353  39.570  32.680  1.00  0.00     0.338 C 
ATOM     34  O   UNL A   1      46.256  40.342  32.409  1.00  0.00    -0.246 OA
BRANCH  33  35
ATOM     35  C   UNL A   1      45.226  38.194  32.160  1.00  0.00     0.060 A 
ATOM     36  C   UNL A   1      44.945  37.998  30.803  1.00  0.00     0.016 A 
ATOM     37  C   UNL A   1      45.428  37.103  33.010  1.00  0.00     0.016 A 
ATOM     38  C   UNL A   1      44.848  36.701  30.296  1.00  0.00     0.010 A 
ATOM     39  C   UNL A   1      45.314  35.808  32.504  1.00  0.00     0.010 A 
ATOM     40  C   UNL A   1      45.000  35.601  31.151  1.00  0.00    -0.014 A 
BRANCH  40  41
ATOM     41  C   UNL A   1      44.671  34.239  30.667  1.00  0.00     0.031 A 
ATOM     42  C   UNL A   1      43.229  33.813  30.656  1.00  0.00     0.074 A 
ATOM     43  C   UNL A   1      45.630  33.406  30.222  1.00  0.00     0.049 A 
ATOM     44  N   UNL A   1      42.704  32.683  30.262  1.00  0.00    -0.248 NA
ATOM     45  C   UNL A   1      42.248  34.794  31.149  1.00  0.00     0.031 C 
ATOM     46  C   UNL A   1      47.056  33.718  30.149  1.00  0.00     0.029 A 
ATOM     47  N   UNL A   1      45.540  32.123  29.739  1.00  0.00    -0.354 N 
ATOM     48  C   UNL A   1      41.333  32.820  30.447  1.00  0.00     0.074 A 
ATOM     49  C   UNL A   1      41.111  34.125  31.029  1.00  0.00     0.031 C 
ATOM     50  C   UNL A   1      47.708  32.658  29.638  1.00  0.00     0.029 A 
ATOM     51  C   UNL A   1      46.752  31.583  29.376  1.00  0.00     0.049 A 
ATOM     52  H   UNL A   1      44.689  31.636  29.661  1.00  0.00     0.167 HD
ATOM     53  C   UNL A   1      40.347  31.946  30.144  1.00  0.00     0.031 A 
ATOM     54  C   UNL A   1      47.053  30.360  28.893  1.00  0.00     0.031 A 
ATOM     55  C   UNL A   1      40.572  30.639  29.590  1.00  0.00     0.049 A 
ATOM     56  C   UNL A   1      45.944  29.366  28.656  1.00  0.00     0.074 A 
ATOM     57  C   UNL A   1      39.635  29.676  29.255  1.00  0.00     0.029 A 
ATOM     58  N   UNL A   1      41.818  30.107  29.295  1.00  0.00    -0.354 N 
ATOM     59  N   UNL A   1      44.651  29.519  28.815  1.00  0.00    -0.248 NA
ATOM     60  C   UNL A   1      46.335  28.034  28.166  1.00  0.00     0.031 C 
ATOM     61  C   UNL A   1      40.320  28.541  28.811  1.00  0.00     0.029 A 
ATOM     62  C   UNL A   1      41.676  28.821  28.805  1.00  0.00     0.049 A 
ATOM     63  H   UNL A   1      42.675  30.576  29.416  1.00  0.00     0.167 HD
ATOM     64  C   UNL A   1      44.072  28.318  28.415  1.00  0.00     0.074 A 
ATOM     65  C   UNL A   1      45.155  27.449  28.001  1.00  0.00     0.031 C 
ATOM     66  C   UNL A   1      42.763  27.970  28.387  1.00  0.00     0.031 A 
BRANCH  53  67
ATOM     67  C   UNL A   1      38.930  32.371  30.419  1.00  0.00    -0.014 A 
ATOM     68  C   UNL A   1      38.175  33.039  29.438  1.00  0.00     0.010 A 
ATOM     69  C   UNL A   1      38.328  32.051  31.648  1.00  0.00     0.010 A 
ATOM     70  C   UNL A   1      36.850  33.402  29.692  1.00  0.00     0.020 A 
ATOM     71  C   UNL A   1      36.995  32.388  31.896  1.00  0.00     0.020 A 
ATOM     72  C   UNL A   1      36.268  33.072  30.920  1.00  0.00     0.054 A 
BRANCH  72  73
ATOM     73  S   UNL A   1      34.536  33.526  31.204  1.00  0.00     0.124 S 
ATOM     74  O   UNL A   1      33.964  33.387  29.867  1.00  0.00    -0.237 OA
ATOM     75  O   UNL A   1      34.102  32.528  32.179  1.00  0.00    -0.237 OA
ATOM     76  O   UNL A   1      34.612  34.896  31.708  1.00  0.00    -0.744 OA
ENDBRANCH  72  73
ENDBRANCH  53  67
BRANCH  54  77
ATOM     77  C   UNL A   1      48.467  30.010  28.582  1.00  0.00    -0.014 A 
ATOM     78  C   UNL A   1      49.323  29.535  29.591  1.00  0.00     0.010 A 
ATOM     79  C   UNL A   1      48.965  30.140  27.272  1.00  0.00     0.010 A 
ATOM     80  C   UNL A   1      50.650  29.206  29.300  1.00  0.00     0.020 A 
ATOM     81  C   UNL A   1      50.283  29.787  26.971  1.00  0.00     0.020 A 
ATOM     82  C   UNL A   1      51.120  29.328  27.989  1.00  0.00     0.054 A 
BRANCH  82  83
ATOM     83  S   UNL A   1      52.830  28.839  27.628  1.00  0.00     0.124 S 
ATOM     84  O   UNL A   1      53.192  28.089  28.826  1.00  0.00    -0.237 OA
ATOM     85  O   UNL A   1      52.677  28.049  26.408  1.00  0.00    -0.237 OA
ATOM     86  O   UNL A   1      53.522  30.113  27.455  1.00  0.00    -0.744 OA
ENDBRANCH  82  83
ENDBRANCH  54  77
BRANCH  66  87
ATOM     87  C   UNL A   1      42.399  26.606  27.861  1.00  0.00    -0.014 A 
ATOM     88  C   UNL A   1      42.439  26.322  26.485  1.00  0.00     0.010 A 
ATOM     89  C   UNL A   1      42.131  25.564  28.770  1.00  0.00     0.010 A 
ATOM     90  C   UNL A   1      42.212  25.021  26.028  1.00  0.00     0.020 A 
ATOM     91  C   UNL A   1      41.929  24.257  28.318  1.00  0.00     0.020 A 
ATOM     92  C   UNL A   1      41.968  23.995  26.947  1.00  0.00     0.054 A 
BRANCH  92  93
ATOM     93  S   UNL A   1      41.761  22.302  26.328  1.00  0.00     0.124 S 
ATOM     94  O   UNL A   1      42.375  21.511  27.391  1.00  0.00    -0.237 OA
ATOM     95  O   UNL A   1      40.309  22.181  26.212  1.00  0.00    -0.237 OA
ATOM     96  O   UNL A   1      42.484  22.305  25.058  1.00  0.00    -0.744 OA
ENDBRANCH  92  93
ENDBRANCH  66  87
ENDBRANCH  40  41
ENDBRANCH  33  35
ENDBRANCH  32  33
ENDBRANCH  31  32
ENDBRANCH  30  31
ENDBRANCH  29  30
ENDBRANCH  28  29
ENDBRANCH   1  28
TORSDOF 24
ENDMDL
MODEL 2
REMARK VINA RESULT:      -8.4      7.873     14.484
REMARK SMILES Cc1cc2c(c(C)c1Cl)C=C(C(=O)OCCOCCOCCOCCOC(=O)c1ccc(-c3c4nc(c(-c5ccc(S(=O)(=O)[O-])cc5)c5ccc([nH]5)c(-c5ccc(S(=O)(=O)[O-])cc5)c5nc(c(-c6ccc(S(=O)(=O)[O-])cc6)c6ccc3[nH]6)C=C5)C=C4)cc1)[C@@H](C(F)(F)F)O2
REMARK SMILES IDX 21 1 20 2 19 3 18 4 17 5 16 6 15 7 14 8 12 9 13 10 11 11
REMARK SMILES IDX 1 12 2 13 3 14 8 15 4 16 6 17 9 18 5 19 94 20 7 21 10 22
REMARK SMILES IDX 89 23 90 24 91 25 92 26 93 27 22 28 23 29 24 30 25 31 26 32
REMARK SMILES IDX 27 33 28 34 29 35 30 36 88 37 31 38 87 39 32 40 33 41 34 42
REMARK SMILES IDX 81 43 35 44 86 45 80 46 82 47 36 48 85 49 79 50 78 51 37 53
REMARK SMILES IDX 67 54 48 55 66 56 49 57 52 58 65 59 83 60 50 61 51 62 64 64
REMARK SMILES IDX 84 65 53 66 38 67 39 68 47 69 40 70 46 71 41 72 42 73 43 74
REMARK SMILES IDX 44 75 45 76 68 77 69 78 77 79 70 80 76 81 71 82 72 83 73 84
REMARK SMILES IDX 74 85 75 86 54 87 55 88 63 89 56 90 62 91 57 92 58 93 59 94
REMARK SMILES IDX 60 95 61 96
REMARK H PARENT 82 52 52 63
REMARK Flexibility Score: inf
ROOT
ATOM      1  C   UNL A   1      42.575  26.762  34.418  1.00  0.00     0.188 C 
ENDROOT
BRANCH   1   2
ATOM      2  O   UNL A   1      42.386  28.015  33.757  1.00  0.00    -0.377 OA
BRANCH   2   3
ATOM      3  C   UNL A   1      41.348  28.865  34.214  1.00  0.00     0.188 C 
BRANCH   3   4
ATOM      4  C   UNL A   1      40.278  29.157  33.145  1.00  0.00     0.188 C 
BRANCH   4   5
ATOM      5  O   UNL A   1      40.477  28.420  31.947  1.00  0.00    -0.376 OA
BRANCH   5   6
ATOM      6  C   UNL A   1      39.615  28.645  30.842  1.00  0.00     0.202 C 
BRANCH   6   7
ATOM      7  C   UNL A   1      39.161  27.480  29.943  1.00  0.00     0.261 C 
BRANCH   7   8
ATOM      8  O   UNL A   1      40.120  26.995  28.996  1.00  0.00    -0.460 OA
BRANCH   8   9
ATOM      9  C   UNL A   1      40.006  27.400  27.719  1.00  0.00     0.338 C 
ATOM     10  O   UNL A   1      39.441  28.400  27.313  1.00  0.00    -0.246 OA
BRANCH   9  11
ATOM     11  C   UNL A   1      40.861  26.515  26.893  1.00  0.00     0.087 C 
ATOM     12  C   UNL A   1      44.749  21.938  24.566  1.00  0.00     0.046 C 
ATOM     13  C   UNL A   1      43.561  22.673  25.125  1.00  0.00    -0.028 A 
ATOM     14  C   UNL A   1      43.480  24.045  24.848  1.00  0.00     0.052 A 
ATOM     15  C   UNL A   1      42.574  22.088  25.941  1.00  0.00     0.047 A 
ATOM     16  C   UNL A   1      42.512  24.842  25.450  1.00  0.00     0.128 A 
ATOM     17  C   UNL A   1      41.556  22.879  26.529  1.00  0.00    -0.021 A 
ATOM     18  Cl  UNL A   1      42.636  20.380  26.252  1.00  0.00    -0.084 Cl
ATOM     19  C   UNL A   1      41.589  24.283  26.338  1.00  0.00     0.022 A 
ATOM     20  O   UNL A   1      42.567  26.164  25.118  1.00  0.00    -0.475 OA
ATOM     21  C   UNL A   1      40.441  22.269  27.348  1.00  0.00     0.047 C 
ATOM     22  C   UNL A   1      40.746  25.197  27.105  1.00  0.00     0.027 C 
ATOM     23  C   UNL A   1      41.737  27.120  25.830  1.00  0.00     0.316 C 
BRANCH  23  24
ATOM     24  C   UNL A   1      42.657  28.219  26.380  1.00  0.00     0.430 C 
ATOM     25  F   UNL A   1      43.853  28.217  25.745  1.00  0.00    -0.167 F 
ATOM     26  F   UNL A   1      42.127  29.451  26.226  1.00  0.00    -0.167 F 
ATOM     27  F   UNL A   1      42.900  28.041  27.701  1.00  0.00    -0.167 F 
ENDBRANCH  23  24
ENDBRANCH   9  11
ENDBRANCH   8   9
ENDBRANCH   7   8
ENDBRANCH   6   7
ENDBRANCH   5   6
ENDBRANCH   4   5
ENDBRANCH   3   4
ENDBRANCH   2   3
ENDBRANCH   1   2
BRANCH   1  28
ATOM     28  C   UNL A   1      43.778  25.835  34.117  1.00  0.00     0.188 C 
BRANCH  28  29
ATOM     29  O   UNL A   1      43.681  24.534  34.688  1.00  0.00    -0.376 OA
BRANCH  29  30
ATOM     30  C   UNL A   1      44.285  23.464  33.978  1.00  0.00     0.202 C 
BRANCH  30  31
ATOM     31  C   UNL A   1      43.659  23.163  32.612  1.00  0.00     0.261 C 
BRANCH  31  32
ATOM     32  O   UNL A   1      44.543  23.280  31.488  1.00  0.00    -0.460 OA
BRANCH  32  33
ATOM     33  C   UNL A   1      44.000  23.629  30.300  1.00  0.00     0.338 C 
ATOM     34  O   UNL A   1      42.952  23.231  29.822  1.00  0.00    -0.246 OA
BRANCH  33  35
ATOM     35  C   UNL A   1      44.815  24.734  29.757  1.00  0.00     0.060 A 
ATOM     36  C   UNL A   1      44.820  24.968  28.377  1.00  0.00     0.016 A 
ATOM     37  C   UNL A   1      45.538  25.560  30.622  1.00  0.00     0.016 A 
ATOM     38  C   UNL A   1      45.567  26.025  27.857  1.00  0.00     0.010 A 
ATOM     39  C   UNL A   1      46.297  26.606  30.097  1.00  0.00     0.010 A 
ATOM     40  C   UNL A   1      46.334  26.829  28.711  1.00  0.00    -0.014 A 
BRANCH  40  41
ATOM     41  C   UNL A   1      47.302  27.798  28.142  1.00  0.00     0.031 A 
ATOM     42  C   UNL A   1      46.855  29.219  27.936  1.00  0.00     0.074 A 
ATOM     43  C   UNL A   1      48.560  27.430  27.838  1.00  0.00     0.049 A 
ATOM     44  N   UNL A   1      47.528  30.238  27.472  1.00  0.00    -0.248 NA
ATOM     45  C   UNL A   1      45.464  29.533  28.308  1.00  0.00     0.031 C 
ATOM     46  C   UNL A   1      49.120  26.093  28.028  1.00  0.00     0.029 A 
ATOM     47  N   UNL A   1      49.598  28.159  27.310  1.00  0.00    -0.354 N 
ATOM     48  C   UNL A   1      46.651  31.316  27.509  1.00  0.00     0.074 A 
ATOM     49  C   UNL A   1      45.385  30.818  27.997  1.00  0.00     0.031 C 
ATOM     50  C   UNL A   1      50.406  26.100  27.632  1.00  0.00     0.029 A 
ATOM     51  C   UNL A   1      50.751  27.432  27.134  1.00  0.00     0.049 A 
ATOM     52  H   UNL A   1      49.521  29.112  27.078  1.00  0.00     0.167 HD
ATOM     53  C   UNL A   1      46.884  32.607  27.181  1.00  0.00     0.031 A 
ATOM     54  C   UNL A   1      51.946  27.799  26.627  1.00  0.00     0.031 A 
ATOM     55  C   UNL A   1      48.136  33.095  26.670  1.00  0.00     0.049 A 
ATOM     56  C   UNL A   1      52.151  29.223  26.175  1.00  0.00     0.074 A 
ATOM     57  C   UNL A   1      48.468  34.388  26.303  1.00  0.00     0.029 A 
ATOM     58  N   UNL A   1      49.260  32.313  26.450  1.00  0.00    -0.354 N 
ATOM     59  N   UNL A   1      51.318  30.235  26.236  1.00  0.00    -0.248 NA
ATOM     60  C   UNL A   1      53.460  29.557  25.592  1.00  0.00     0.031 C 
ATOM     61  C   UNL A   1      49.774  34.376  25.805  1.00  0.00     0.029 A 
ATOM     62  C   UNL A   1      50.278  33.091  25.928  1.00  0.00     0.049 A 
ATOM     63  H   UNL A   1      49.323  31.349  26.637  1.00  0.00     0.167 HD
ATOM     64  C   UNL A   1      52.013  31.331  25.732  1.00  0.00     0.074 A 
ATOM     65  C   UNL A   1      53.335  30.860  25.374  1.00  0.00     0.031 C 
ATOM     66  C   UNL A   1      51.594  32.612  25.584  1.00  0.00     0.031 A 
BRANCH  53  67
ATOM     67  C   UNL A   1      45.753  33.584  27.353  1.00  0.00    -0.014 A 
ATOM     68  C   UNL A   1      45.602  34.309  28.549  1.00  0.00     0.010 A 
ATOM     69  C   UNL A   1      44.866  33.824  26.289  1.00  0.00     0.010 A 
ATOM     70  C   UNL A   1      44.568  35.237  28.686  1.00  0.00     0.020 A 
ATOM     71  C   UNL A   1      43.845  34.770  26.413  1.00  0.00     0.020 A 
ATOM     72  C   UNL A   1      43.696  35.463  27.616  1.00  0.00     0.054 A 
BRANCH  72  73
ATOM     73  S   UNL A   1      42.386  36.700  27.815  1.00  0.00     0.124 S 
ATOM     74  O   UNL A   1      42.398  37.364  26.514  1.00  0.00    -0.237 OA
ATOM     75  O   UNL A   1      41.211  35.876  28.089  1.00  0.00    -0.237 OA
ATOM     76  O   UNL A   1      42.846  37.519  28.934  1.00  0.00    -0.744 OA
ENDBRANCH  72  73
ENDBRANCH  53  67
BRANCH  54  77
ATOM     77  C   UNL A   1      53.051  26.805  26.533  1.00  0.00    -0.014 A 
ATOM     78  C   UNL A   1      54.010  26.704  27.556  1.00  0.00     0.010 A 
ATOM     79  C   UNL A   1      53.147  25.945  25.422  1.00  0.00     0.010 A 
ATOM     80  C   UNL A   1      55.047  25.771  27.468  1.00  0.00     0.020 A 
ATOM     81  C   UNL A   1      54.167  24.992  25.343  1.00  0.00     0.020 A 
ATOM     82  C   UNL A   1      55.115  24.916  26.364  1.00  0.00     0.054 A 
BRANCH  82  83
ATOM     83  S   UNL A   1      56.439  23.675  26.304  1.00  0.00     0.124 S 
ATOM     84  O   UNL A   1      55.704  22.435  26.533  1.00  0.00    -0.237 OA
ATOM     85  O   UNL A   1      56.973  23.855  24.956  1.00  0.00    -0.237 OA
ATOM     86  O   UNL A   1      57.337  24.078  27.382  1.00  0.00    -0.744 OA
ENDBRANCH  82  83
ENDBRANCH  54  77
BRANCH  66  87
ATOM     87  C   UNL A   1      52.572  33.623  25.047  1.00  0.00    -0.014 A 
ATOM     88  C   UNL A   1      53.477  34.284  25.896  1.00  0.00     0.010 A 
ATOM     89  C   UNL A   1      52.664  33.824  23.656  1.00  0.00     0.010 A 
ATOM     90  C   UNL A   1      54.453  35.131  25.363  1.00  0.00     0.020 A 
ATOM     91  C   UNL A   1      53.655  34.649  23.118  1.00  0.00     0.020 A 
ATOM     92  C   UNL A   1      54.542  35.301  23.977  1.00  0.00     0.054 A 
BRANCH  92  93
ATOM     93  S   UNL A   1      55.873  36.339  23.311  1.00  0.00     0.124 S 
ATOM     94  O   UNL A   1      57.067  35.653  23.795  1.00  0.00    -0.237 OA
ATOM     95  O   UNL A   1      55.644  36.263  21.870  1.00  0.00    -0.237 OA
ATOM     96  O   UNL A   1      55.623  37.650  23.908  1.00  0.00    -0.744 OA
ENDBRANCH  92  93
ENDBRANCH  66  87
ENDBRANCH  40  41
ENDBRANCH  33  35
ENDBRANCH  32  33
ENDBRANCH  31  32
ENDBRANCH  30  31
ENDBRANCH  29  30
ENDBRANCH  28  29
ENDBRANCH   1  28
TORSDOF 24
ENDMDL
MODEL 3
REMARK VINA RESULT:      -8.3      8.465     15.729
REMARK SMILES Cc1cc2c(c(C)c1Cl)C=C(C(=O)OCCOCCOCCOCCOC(=O)c1ccc(-c3c4nc(c(-c5ccc(S(=O)(=O)[O-])cc5)c5ccc([nH]5)c(-c5ccc(S(=O)(=O)[O-])cc5)c5nc(c(-c6ccc(S(=O)(=O)[O-])cc6)c6ccc3[nH]6)C=C5)C=C4)cc1)[C@@H](C(F)(F)F)O2
REMARK SMILES IDX 21 1 20 2 19 3 18 4 17 5 16 6 15 7 14 8 12 9 13 10 11 11
REMARK SMILES IDX 1 12 2 13 3 14 8 15 4 16 6 17 9 18 5 19 94 20 7 21 10 22
REMARK SMILES IDX 89 23 90 24 91 25 92 26 93 27 22 28 23 29 24 30 25 31 26 32
REMARK SMILES IDX 27 33 28 34 29 35 30 36 88 37 31 38 87 39 32 40 33 41 34 42
REMARK SMILES IDX 81 43 35 44 86 45 80 46 82 47 36 48 85 49 79 50 78 51 37 53
REMARK SMILES IDX 67 54 48 55 66 56 49 57 52 58 65 59 83 60 50 61 51 62 64 64
REMARK SMILES IDX 84 65 53 66 38 67 39 68 47 69 40 70 46 71 41 72 42 73 43 74
REMARK SMILES IDX 44 75 45 76 68 77 69 78 77 79 70 80 76 81 71 82 72 83 73 84
REMARK SMILES IDX 74 85 75 86 54 87 55 88 63 89 56 90 62 91 57 92 58 93 59 94
REMARK SMILES IDX 60 95 61 96
REMARK H PARENT 82 52 52 63
REMARK Flexibility Score: inf
ROOT
ATOM      1  C   UNL A   1      42.057  23.148  26.211  1.00  0.00     0.188 C 
ENDROOT
BRANCH   1   2
ATOM      2  O   UNL A   1      40.752  22.860  26.719  1.00  0.00    -0.377 OA
BRANCH   2   3
ATOM      3  C   UNL A   1      40.253  21.541  26.577  1.00  0.00     0.188 C 
BRANCH   3   4
ATOM      4  C   UNL A   1      38.957  21.462  25.746  1.00  0.00     0.188 C 
BRANCH   4   5
ATOM      5  O   UNL A   1      38.134  22.610  25.894  1.00  0.00    -0.376 OA
BRANCH   5   6
ATOM      6  C   UNL A   1      36.850  22.627  25.287  1.00  0.00     0.202 C 
BRANCH   6   7
ATOM      7  C   UNL A   1      35.674  23.370  25.946  1.00  0.00     0.261 C 
BRANCH   7   8
ATOM      8  O   UNL A   1      34.362  23.009  25.500  1.00  0.00    -0.460 OA
BRANCH   8   9
ATOM      9  C   UNL A   1      33.309  23.467  26.200  1.00  0.00     0.338 C 
ATOM     10  O   UNL A   1      32.950  23.105  27.306  1.00  0.00    -0.246 OA
BRANCH   9  11
ATOM     11  C   UNL A   1      32.766  24.638  25.474  1.00  0.00     0.087 C 
ATOM     12  C   UNL A   1      29.914  30.116  23.644  1.00  0.00     0.046 C 
ATOM     13  C   UNL A   1      30.858  29.117  24.258  1.00  0.00    -0.028 A 
ATOM     14  C   UNL A   1      30.957  27.871  23.623  1.00  0.00     0.052 A 
ATOM     15  C   UNL A   1      31.592  29.335  25.439  1.00  0.00     0.047 A 
ATOM     16  C   UNL A   1      31.675  26.828  24.200  1.00  0.00     0.128 A 
ATOM     17  C   UNL A   1      32.362  28.296  26.017  1.00  0.00    -0.021 A 
ATOM     18  Cl  UNL A   1      31.515  30.891  26.208  1.00  0.00    -0.084 Cl
ATOM     19  C   UNL A   1      32.325  27.009  25.423  1.00  0.00     0.022 A 
ATOM     20  O   UNL A   1      31.663  25.661  23.493  1.00  0.00    -0.475 OA
ATOM     21  C   UNL A   1      33.218  28.521  27.243  1.00  0.00     0.047 C 
ATOM     22  C   UNL A   1      32.872  25.827  26.083  1.00  0.00     0.027 C 
ATOM     23  C   UNL A   1      32.210  24.454  24.088  1.00  0.00     0.316 C 
BRANCH  23  24
ATOM     24  C   UNL A   1      31.124  23.370  24.030  1.00  0.00     0.430 C 
ATOM     25  F   UNL A   1      31.653  22.167  23.701  1.00  0.00    -0.167 F 
ATOM     26  F   UNL A   1      30.493  23.217  25.213  1.00  0.00    -0.167 F 
ATOM     27  F   UNL A   1      30.184  23.667  23.102  1.00  0.00    -0.167 F 
ENDBRANCH  23  24
ENDBRANCH   9  11
ENDBRANCH   8   9
ENDBRANCH   7   8
ENDBRANCH   6   7
ENDBRANCH   5   6
ENDBRANCH   4   5
ENDBRANCH   3   4
ENDBRANCH   2   3
ENDBRANCH   1   2
BRANCH   1  28
ATOM     28  C   UNL A   1      43.323  22.399  26.696  1.00  0.00     0.188 C 
BRANCH  28  29
ATOM     29  O   UNL A   1      43.958  21.603  25.700  1.00  0.00    -0.376 OA
BRANCH  29  30
ATOM     30  C   UNL A   1      45.249  22.006  25.271  1.00  0.00     0.202 C 
BRANCH  30  31
ATOM     31  C   UNL A   1      45.258  23.026  24.126  1.00  0.00     0.261 C 
BRANCH  31  32
ATOM     32  O   UNL A   1      45.225  24.403  24.525  1.00  0.00    -0.460 OA
BRANCH  32  33
ATOM     33  C   UNL A   1      46.392  24.975  24.896  1.00  0.00     0.338 C 
ATOM     34  O   UNL A   1      47.437  24.994  24.269  1.00  0.00    -0.246 OA
BRANCH  33  35
ATOM     35  C   UNL A   1      46.126  25.746  26.127  1.00  0.00     0.060 A 
ATOM     36  C   UNL A   1      47.183  26.411  26.760  1.00  0.00     0.016 A 
ATOM     37  C   UNL A   1      44.825  25.841  26.625  1.00  0.00     0.016 A 
ATOM     38  C   UNL A   1      46.938  27.163  27.909  1.00  0.00     0.010 A 
ATOM     39  C   UNL A   1      44.585  26.580  27.784  1.00  0.00     0.010 A 
ATOM     40  C   UNL A   1      45.645  27.225  28.445  1.00  0.00    -0.014 A 
BRANCH  40  41
ATOM     41  C   UNL A   1      45.427  27.826  29.783  1.00  0.00     0.031 A 
ATOM     42  C   UNL A   1      45.078  29.286  29.862  1.00  0.00     0.074 A 
ATOM     43  C   UNL A   1      45.512  27.085  30.903  1.00  0.00     0.049 A 
ATOM     44  N   UNL A   1      44.828  30.020  30.915  1.00  0.00    -0.248 NA
ATOM     45  C   UNL A   1      44.995  30.016  28.585  1.00  0.00     0.031 C 
ATOM     46  C   UNL A   1      45.805  25.653  30.950  1.00  0.00     0.029 A 
ATOM     47  N   UNL A   1      45.349  27.440  32.220  1.00  0.00    -0.354 N 
ATOM     48  C   UNL A   1      44.545  31.291  30.428  1.00  0.00     0.074 A 
ATOM     49  C   UNL A   1      44.698  31.241  28.991  1.00  0.00     0.031 C 
ATOM     50  C   UNL A   1      45.791  25.249  32.233  1.00  0.00     0.029 A 
ATOM     51  C   UNL A   1      45.516  26.396  33.099  1.00  0.00     0.049 A 
ATOM     52  H   UNL A   1      45.134  28.356  32.507  1.00  0.00     0.167 HD
ATOM     53  C   UNL A   1      44.175  32.396  31.114  1.00  0.00     0.031 A 
ATOM     54  C   UNL A   1      45.458  26.371  34.446  1.00  0.00     0.031 A 
ATOM     55  C   UNL A   1      44.049  32.451  32.545  1.00  0.00     0.049 A 
ATOM     56  C   UNL A   1      45.140  27.640  35.195  1.00  0.00     0.074 A 
ATOM     57  C   UNL A   1      43.685  33.529  33.334  1.00  0.00     0.029 A 
ATOM     58  N   UNL A   1      44.287  31.388  33.402  1.00  0.00    -0.354 N 
ATOM     59  N   UNL A   1      44.854  28.829  34.720  1.00  0.00    -0.248 NA
ATOM     60  C   UNL A   1      45.130  27.564  36.665  1.00  0.00     0.031 C 
ATOM     61  C   UNL A   1      43.760  33.132  34.672  1.00  0.00     0.029 A 
ATOM     62  C   UNL A   1      44.102  31.790  34.713  1.00  0.00     0.049 A 
ATOM     63  H   UNL A   1      44.548  30.481  33.120  1.00  0.00     0.167 HD
ATOM     64  C   UNL A   1      44.598  29.632  35.827  1.00  0.00     0.074 A 
ATOM     65  C   UNL A   1      44.758  28.793  36.998  1.00  0.00     0.031 C 
ATOM     66  C   UNL A   1      44.256  30.943  35.870  1.00  0.00     0.031 A 
BRANCH  53  67
ATOM     67  C   UNL A   1      43.891  33.644  30.324  1.00  0.00    -0.014 A 
ATOM     68  C   UNL A   1      44.908  34.582  30.068  1.00  0.00     0.010 A 
ATOM     69  C   UNL A   1      42.612  33.856  29.781  1.00  0.00     0.010 A 
ATOM     70  C   UNL A   1      44.643  35.722  29.306  1.00  0.00     0.020 A 
ATOM     71  C   UNL A   1      42.349  34.981  28.996  1.00  0.00     0.020 A 
ATOM     72  C   UNL A   1      43.364  35.914  28.774  1.00  0.00     0.054 A 
BRANCH  72  73
ATOM     73  S   UNL A   1      43.062  37.386  27.760  1.00  0.00     0.124 S 
ATOM     74  O   UNL A   1      42.860  38.415  28.776  1.00  0.00    -0.237 OA
ATOM     75  O   UNL A   1      44.297  37.499  26.988  1.00  0.00    -0.237 OA
ATOM     76  O   UNL A   1      41.874  37.037  26.984  1.00  0.00    -0.744 OA
ENDBRANCH  72  73
ENDBRANCH  53  67
BRANCH  54  77
ATOM     77  C   UNL A   1      45.690  25.095  35.177  1.00  0.00    -0.014 A 
ATOM     78  C   UNL A   1      46.991  24.704  35.537  1.00  0.00     0.010 A 
ATOM     79  C   UNL A   1      44.608  24.265  35.528  1.00  0.00     0.010 A 
ATOM     80  C   UNL A   1      47.209  23.506  36.224  1.00  0.00     0.020 A 
ATOM     81  C   UNL A   1      44.818  23.079  36.239  1.00  0.00     0.020 A 
ATOM     82  C   UNL A   1      46.119  22.704  36.577  1.00  0.00     0.054 A 
BRANCH  82  83
ATOM     83  S   UNL A   1      46.425  21.183  37.520  1.00  0.00     0.124 S 
ATOM     84  O   UNL A   1      45.717  20.185  36.725  1.00  0.00    -0.237 OA
ATOM     85  O   UNL A   1      47.883  21.092  37.499  1.00  0.00    -0.237 OA
ATOM     86  O   UNL A   1      45.843  21.468  38.828  1.00  0.00    -0.744 OA
ENDBRANCH  82  83
ENDBRANCH  54  77
BRANCH  66  87
ATOM     87  C   UNL A   1      43.989  31.566  37.215  1.00  0.00    -0.014 A 
ATOM     88  C   UNL A   1      45.005  32.229  37.924  1.00  0.00     0.010 A 
ATOM     89  C   UNL A   1      42.674  31.589  37.717  1.00  0.00     0.010 A 
ATOM     90  C   UNL A   1      44.711  32.900  39.115  1.00  0.00     0.020 A 
ATOM     91  C   UNL A   1      42.370  32.281  38.893  1.00  0.00     0.020 A 
ATOM     92  C   UNL A   1      43.394  32.930  39.587  1.00  0.00     0.054 A 
BRANCH  92  93
ATOM     93  S   UNL A   1      43.028  33.880  41.088  1.00  0.00     0.124 S 
ATOM     94  O   UNL A   1      42.461  32.859  41.965  1.00  0.00    -0.237 OA
ATOM     95  O   UNL A   1      44.344  34.381  41.476  1.00  0.00    -0.237 OA
ATOM     96  O   UNL A   1      42.088  34.903  40.633  1.00  0.00    -0.744 OA
ENDBRANCH  92  93
ENDBRANCH  66  87
ENDBRANCH  40  41
ENDBRANCH  33  35
ENDBRANCH  32  33
ENDBRANCH  31  32
ENDBRANCH  30  31
ENDBRANCH  29  30
ENDBRANCH  28  29
ENDBRANCH   1  28
TORSDOF 24
ENDMDL
