MODEL 1
REMARK VINA RESULT:      -6.8      0.000      0.000
REMARK SMILES CS(=O)(=O)c1ccc(C2=NN(c3ccc(C(=O)OCCOCCOCCOCCOC(=O)c4ccc(-c5c6nc(c(-c7ccc(S(=O)(=O)[O-])cc7)c7ccc([nH]7)c(-c7ccc(S(=O)(=O)[O-])cc7)c7nc(c(-c8ccc(S(=O)(=O)[O-])cc8)c8ccc5[nH]8)C=C7)C=C6)cc4)cc3)[C@H](c3ccccc3)C2)cc1
REMARK SMILES IDX 24 1 23 2 22 3 21 4 20 5 19 6 18 7 16 8 17 9 15 10 12 11
REMARK SMILES IDX 13 12 94 13 14 14 93 15 11 16 9 17 10 18 102 19 95 20 8 21
REMARK SMILES IDX 5 22 6 23 104 24 7 25 103 26 2 27 1 28 3 29 4 30 96 31 97 32
REMARK SMILES IDX 101 33 98 34 100 35 99 36 25 37 26 38 27 39 28 40 29 41
REMARK SMILES IDX 30 42 31 43 32 44 33 45 34 46 92 47 35 48 91 49 36 50 37 51
REMARK SMILES IDX 38 52 85 53 39 54 90 55 84 56 86 57 40 58 89 59 83 60 82 61
REMARK SMILES IDX 41 63 71 64 52 65 70 66 53 67 56 68 69 69 87 70 54 71 55 72
REMARK SMILES IDX 68 74 88 75 57 76 42 77 43 78 51 79 44 80 50 81 45 82 46 83
REMARK SMILES IDX 47 84 48 85 49 86 72 87 73 88 81 89 74 90 80 91 75 92 76 93
REMARK SMILES IDX 77 94 78 95 79 96 58 97 59 98 67 99 60 100 66 101 61 102
REMARK SMILES IDX 62 103 63 104 64 105 65 106
REMARK H PARENT 86 62 56 73
REMARK Flexibility Score: inf
ROOT
ATOM      1  O   UNL A   1      53.106  25.348  37.386  1.00  0.00    -0.377 OA
ENDROOT
BRANCH   1   2
ATOM      2  C   UNL A   1      53.920  24.239  37.722  1.00  0.00     0.188 C 
BRANCH   2   3
ATOM      3  C   UNL A   1      54.202  23.238  36.584  1.00  0.00     0.188 C 
BRANCH   3   4
ATOM      4  O   UNL A   1      53.805  23.697  35.306  1.00  0.00    -0.376 OA
BRANCH   4   5
ATOM      5  C   UNL A   1      54.111  22.967  34.133  1.00  0.00     0.202 C 
BRANCH   5   6
ATOM      6  C   UNL A   1      53.499  21.596  33.794  1.00  0.00     0.261 C 
BRANCH   6   7
ATOM      7  O   UNL A   1      52.457  21.570  32.822  1.00  0.00    -0.460 OA
BRANCH   7   8
ATOM      8  C   UNL A   1      51.413  22.403  33.000  1.00  0.00     0.338 C 
ATOM      9  O   UNL A   1      51.088  23.333  32.282  1.00  0.00    -0.246 OA
BRANCH   8  10
ATOM     10  C   UNL A   1      50.595  21.881  34.124  1.00  0.00     0.060 A 
ATOM     11  C   UNL A   1      48.925  20.887  36.147  1.00  0.00     0.060 A 
ATOM     12  C   UNL A   1      49.164  20.129  34.994  1.00  0.00     0.029 A 
ATOM     13  C   UNL A   1      49.648  22.072  36.338  1.00  0.00     0.029 A 
ATOM     14  C   UNL A   1      49.988  20.626  33.981  1.00  0.00     0.018 A 
ATOM     15  C   UNL A   1      50.464  22.583  35.326  1.00  0.00     0.018 A 
BRANCH  11  16
ATOM     16  N   UNL A   1      47.861  20.588  37.010  1.00  0.00    -0.257 N 
ATOM     17  C   UNL A   1      47.058  19.248  38.466  1.00  0.00     0.071 C 
ATOM     18  N   UNL A   1      48.117  19.939  38.182  1.00  0.00    -0.176 NA
ATOM     19  C   UNL A   1      45.975  19.238  37.424  1.00  0.00     0.091 C 
ATOM     20  C   UNL A   1      46.584  20.181  36.378  1.00  0.00     0.144 C 
BRANCH  17  21
ATOM     21  C   UNL A   1      46.887  18.539  39.747  1.00  0.00    -0.002 A 
ATOM     22  C   UNL A   1      46.689  17.253  42.208  1.00  0.00     0.067 A 
ATOM     23  C   UNL A   1      47.890  17.196  41.497  1.00  0.00     0.021 A 
ATOM     24  C   UNL A   1      45.588  17.955  41.701  1.00  0.00     0.021 A 
ATOM     25  C   UNL A   1      47.981  17.828  40.256  1.00  0.00     0.011 A 
ATOM     26  C   UNL A   1      45.690  18.604  40.465  1.00  0.00     0.011 A 
BRANCH  22  27
ATOM     27  S   UNL A   1      46.572  16.487  43.810  1.00  0.00     0.175 S 
ATOM     28  C   UNL A   1      47.843  17.289  44.752  1.00  0.00     0.163 C 
ATOM     29  O   UNL A   1      46.942  15.094  43.646  1.00  0.00    -0.224 OA
ATOM     30  O   UNL A   1      45.293  16.851  44.386  1.00  0.00    -0.224 OA
ENDBRANCH  22  27
ENDBRANCH  17  21
BRANCH  20  31
ATOM     31  C   UNL A   1      45.766  21.386  35.923  1.00  0.00    -0.023 A 
ATOM     32  C   UNL A   1      45.526  22.521  36.711  1.00  0.00     0.006 A 
ATOM     33  C   UNL A   1      45.249  21.391  34.610  1.00  0.00     0.006 A 
ATOM     34  C   UNL A   1      44.831  23.621  36.194  1.00  0.00     0.000 A 
ATOM     35  C   UNL A   1      44.608  22.510  34.075  1.00  0.00     0.000 A 
ATOM     36  C   UNL A   1      44.396  23.626  34.871  1.00  0.00     0.000 A 
ENDBRANCH  20  31
ENDBRANCH  11  16
ENDBRANCH   8  10
ENDBRANCH   7   8
ENDBRANCH   6   7
ENDBRANCH   5   6
ENDBRANCH   4   5
ENDBRANCH   3   4
ENDBRANCH   2   3
ENDBRANCH   1   2
BRANCH   1  37
ATOM     37  C   UNL A   1      51.748  25.384  37.824  1.00  0.00     0.188 C 
BRANCH  37  38
ATOM     38  C   UNL A   1      51.341  25.478  39.318  1.00  0.00     0.188 C 
BRANCH  38  39
ATOM     39  O   UNL A   1      50.051  26.016  39.562  1.00  0.00    -0.376 OA
BRANCH  39  40
ATOM     40  C   UNL A   1      49.135  25.256  40.327  1.00  0.00     0.202 C 
BRANCH  40  41
ATOM     41  C   UNL A   1      47.659  25.313  39.905  1.00  0.00     0.261 C 
BRANCH  41  42
ATOM     42  O   UNL A   1      47.246  26.501  39.220  1.00  0.00    -0.460 OA
BRANCH  42  43
ATOM     43  C   UNL A   1      46.290  26.364  38.277  1.00  0.00     0.338 C 
ATOM     44  O   UNL A   1      45.085  26.273  38.460  1.00  0.00    -0.246 OA
BRANCH  43  45
ATOM     45  C   UNL A   1      46.932  26.528  36.959  1.00  0.00     0.060 A 
ATOM     46  C   UNL A   1      46.667  27.683  36.211  1.00  0.00     0.016 A 
ATOM     47  C   UNL A   1      47.789  25.542  36.466  1.00  0.00     0.016 A 
ATOM     48  C   UNL A   1      47.219  27.827  34.937  1.00  0.00     0.010 A 
ATOM     49  C   UNL A   1      48.326  25.680  35.184  1.00  0.00     0.010 A 
ATOM     50  C   UNL A   1      48.005  26.802  34.397  1.00  0.00    -0.014 A 
BRANCH  50  51
ATOM     51  C   UNL A   1      48.289  26.783  32.942  1.00  0.00     0.031 A 
ATOM     52  C   UNL A   1      49.581  27.397  32.470  1.00  0.00     0.074 A 
ATOM     53  C   UNL A   1      47.443  26.220  32.062  1.00  0.00     0.049 A 
ATOM     54  N   UNL A   1      50.032  27.551  31.254  1.00  0.00    -0.248 NA
ATOM     55  C   UNL A   1      50.484  27.912  33.516  1.00  0.00     0.031 C 
ATOM     56  C   UNL A   1      46.189  25.547  32.400  1.00  0.00     0.029 A 
ATOM     57  N   UNL A   1      47.516  26.130  30.694  1.00  0.00    -0.354 N 
ATOM     58  C   UNL A   1      51.261  28.188  31.386  1.00  0.00     0.074 A 
ATOM     59  C   UNL A   1      51.470  28.423  32.797  1.00  0.00     0.031 C 
ATOM     60  C   UNL A   1      45.606  25.120  31.265  1.00  0.00     0.029 A 
ATOM     61  C   UNL A   1      46.424  25.522  30.121  1.00  0.00     0.049 A 
ATOM     62  H   UNL A   1      48.279  26.470  30.172  1.00  0.00     0.167 HD
ATOM     63  C   UNL A   1      52.142  28.541  30.420  1.00  0.00     0.031 A 
ATOM     64  C   UNL A   1      46.113  25.334  28.822  1.00  0.00     0.031 A 
ATOM     65  C   UNL A   1      51.924  28.318  29.017  1.00  0.00     0.049 A 
ATOM     66  C   UNL A   1      47.072  25.811  27.759  1.00  0.00     0.074 A 
ATOM     67  C   UNL A   1      52.757  28.631  27.957  1.00  0.00     0.029 A 
ATOM     68  N   UNL A   1      50.789  27.731  28.476  1.00  0.00    -0.354 N 
ATOM     69  N   UNL A   1      48.238  26.396  27.899  1.00  0.00    -0.248 NA
ATOM     70  C   UNL A   1      46.675  25.592  26.360  1.00  0.00     0.031 C 
ATOM     71  C   UNL A   1      52.098  28.292  26.772  1.00  0.00     0.029 A 
ATOM     72  C   UNL A   1      50.889  27.697  27.096  1.00  0.00     0.049 A 
ATOM     73  H   UNL A   1      50.026  27.391  28.996  1.00  0.00     0.167 HD
ATOM     74  C   UNL A   1      48.731  26.578  26.608  1.00  0.00     0.074 A 
ATOM     75  C   UNL A   1      47.740  26.031  25.705  1.00  0.00     0.031 C 
ATOM     76  C   UNL A   1      49.899  27.141  26.208  1.00  0.00     0.031 A 
BRANCH  63  77
ATOM     77  C   UNL A   1      53.405  29.240  30.850  1.00  0.00    -0.014 A 
ATOM     78  C   UNL A   1      53.414  30.611  31.161  1.00  0.00     0.010 A 
ATOM     79  C   UNL A   1      54.596  28.501  30.981  1.00  0.00     0.010 A 
ATOM     80  C   UNL A   1      54.597  31.237  31.564  1.00  0.00     0.020 A 
ATOM     81  C   UNL A   1      55.773  29.117  31.414  1.00  0.00     0.020 A 
ATOM     82  C   UNL A   1      55.769  30.485  31.690  1.00  0.00     0.054 A 
BRANCH  82  83
ATOM     83  S   UNL A   1      57.279  31.318  32.249  1.00  0.00     0.124 S 
ATOM     84  O   UNL A   1      57.993  30.231  32.917  1.00  0.00    -0.237 OA
ATOM     85  O   UNL A   1      57.871  31.782  30.997  1.00  0.00    -0.237 OA
ATOM     86  O   UNL A   1      56.789  32.374  33.133  1.00  0.00    -0.744 OA
ENDBRANCH  82  83
ENDBRANCH  63  77
BRANCH  64  87
ATOM     87  C   UNL A   1      44.826  24.682  28.446  1.00  0.00    -0.014 A 
ATOM     88  C   UNL A   1      43.693  25.452  28.129  1.00  0.00     0.010 A 
ATOM     89  C   UNL A   1      44.722  23.279  28.424  1.00  0.00     0.010 A 
ATOM     90  C   UNL A   1      42.477  24.833  27.822  1.00  0.00     0.020 A 
ATOM     91  C   UNL A   1      43.518  22.656  28.085  1.00  0.00     0.020 A 
ATOM     92  C   UNL A   1      42.398  23.439  27.799  1.00  0.00     0.054 A 
BRANCH  92  93
ATOM     93  S   UNL A   1      40.820  22.658  27.357  1.00  0.00     0.124 S 
ATOM     94  O   UNL A   1      40.788  21.508  28.254  1.00  0.00    -0.237 OA
ATOM     95  O   UNL A   1      39.855  23.716  27.649  1.00  0.00    -0.237 OA
ATOM     96  O   UNL A   1      40.979  22.344  25.939  1.00  0.00    -0.744 OA
ENDBRANCH  92  93
ENDBRANCH  64  87
BRANCH  76  97
ATOM     97  C   UNL A   1      50.206  27.144  24.732  1.00  0.00    -0.014 A 
ATOM     98  C   UNL A   1      51.489  26.839  24.244  1.00  0.00     0.010 A 
ATOM     99  C   UNL A   1      49.169  27.397  23.815  1.00  0.00     0.010 A 
ATOM    100  C   UNL A   1      51.735  26.822  22.867  1.00  0.00     0.020 A 
ATOM    101  C   UNL A   1      49.402  27.349  22.439  1.00  0.00     0.020 A 
ATOM    102  C   UNL A   1      50.690  27.075  21.974  1.00  0.00     0.054 A 
BRANCH 102 103
ATOM    103  S   UNL A   1      51.026  27.006  20.193  1.00  0.00     0.124 S 
ATOM    104  O   UNL A   1      51.585  25.666  20.040  1.00  0.00    -0.237 OA
ATOM    105  O   UNL A   1      49.701  27.204  19.611  1.00  0.00    -0.237 OA
ATOM    106  O   UNL A   1      51.967  28.102  19.973  1.00  0.00    -0.744 OA
ENDBRANCH 102 103
ENDBRANCH  76  97
ENDBRANCH  50  51
ENDBRANCH  43  45
ENDBRANCH  42  43
ENDBRANCH  41  42
ENDBRANCH  40  41
ENDBRANCH  39  40
ENDBRANCH  38  39
ENDBRANCH  37  38
ENDBRANCH   1  37
TORSDOF 27
ENDMDL
MODEL 2
REMARK VINA RESULT:      -6.7      6.736     11.363
REMARK SMILES CS(=O)(=O)c1ccc(C2=NN(c3ccc(C(=O)OCCOCCOCCOCCOC(=O)c4ccc(-c5c6nc(c(-c7ccc(S(=O)(=O)[O-])cc7)c7ccc([nH]7)c(-c7ccc(S(=O)(=O)[O-])cc7)c7nc(c(-c8ccc(S(=O)(=O)[O-])cc8)c8ccc5[nH]8)C=C7)C=C6)cc4)cc3)[C@H](c3ccccc3)C2)cc1
REMARK SMILES IDX 24 1 23 2 22 3 21 4 20 5 19 6 18 7 16 8 17 9 15 10 12 11
REMARK SMILES IDX 13 12 94 13 14 14 93 15 11 16 9 17 10 18 102 19 95 20 8 21
REMARK SMILES IDX 5 22 6 23 104 24 7 25 103 26 2 27 1 28 3 29 4 30 96 31 97 32
REMARK SMILES IDX 101 33 98 34 100 35 99 36 25 37 26 38 27 39 28 40 29 41
REMARK SMILES IDX 30 42 31 43 32 44 33 45 34 46 92 47 35 48 91 49 36 50 37 51
REMARK SMILES IDX 38 52 85 53 39 54 90 55 84 56 86 57 40 58 89 59 83 60 82 61
REMARK SMILES IDX 41 63 71 64 52 65 70 66 53 67 56 68 69 69 87 70 54 71 55 72
REMARK SMILES IDX 68 74 88 75 57 76 42 77 43 78 51 79 44 80 50 81 45 82 46 83
REMARK SMILES IDX 47 84 48 85 49 86 72 87 73 88 81 89 74 90 80 91 75 92 76 93
REMARK SMILES IDX 77 94 78 95 79 96 58 97 59 98 67 99 60 100 66 101 61 102
REMARK SMILES IDX 62 103 63 104 64 105 65 106
REMARK H PARENT 86 62 56 73
REMARK Flexibility Score: inf
ROOT
ATOM      1  O   UNL A   1      47.925  26.151  32.221  1.00  0.00    -0.377 OA
ENDROOT
BRANCH   1   2
ATOM      2  C   UNL A   1      47.295  26.365  30.971  1.00  0.00     0.188 C 
BRANCH   2   3
ATOM      3  C   UNL A   1      46.399  25.218  30.461  1.00  0.00     0.188 C 
BRANCH   3   4
ATOM      4  O   UNL A   1      45.015  25.509  30.506  1.00  0.00    -0.376 OA
BRANCH   4   5
ATOM      5  C   UNL A   1      44.201  25.055  31.572  1.00  0.00     0.202 C 
BRANCH   5   6
ATOM      6  C   UNL A   1      44.697  24.119  32.688  1.00  0.00     0.261 C 
BRANCH   6   7
ATOM      7  O   UNL A   1      43.762  23.181  33.213  1.00  0.00    -0.460 OA
BRANCH   7   8
ATOM      8  C   UNL A   1      43.545  23.188  34.543  1.00  0.00     0.338 C 
ATOM      9  O   UNL A   1      42.506  23.470  35.114  1.00  0.00    -0.246 OA
BRANCH   8  10
ATOM     10  C   UNL A   1      44.738  22.602  35.207  1.00  0.00     0.060 A 
ATOM     11  C   UNL A   1      47.070  21.627  36.424  1.00  0.00     0.060 A 
ATOM     12  C   UNL A   1      46.470  22.804  36.889  1.00  0.00     0.029 A 
ATOM     13  C   UNL A   1      46.406  20.872  35.447  1.00  0.00     0.029 A 
ATOM     14  C   UNL A   1      45.313  23.296  36.278  1.00  0.00     0.018 A 
ATOM     15  C   UNL A   1      45.257  21.361  34.823  1.00  0.00     0.018 A 
BRANCH  11  16
ATOM     16  N   UNL A   1      48.386  21.292  36.771  1.00  0.00    -0.257 N 
ATOM     17  C   UNL A   1      50.423  21.149  36.143  1.00  0.00     0.071 C 
ATOM     18  N   UNL A   1      49.419  21.968  36.192  1.00  0.00    -0.176 NA
ATOM     19  C   UNL A   1      50.145  19.737  36.573  1.00  0.00     0.091 C 
ATOM     20  C   UNL A   1      48.673  19.855  36.990  1.00  0.00     0.144 C 
BRANCH  17  21
ATOM     21  C   UNL A   1      51.775  21.568  35.734  1.00  0.00    -0.002 A 
ATOM     22  C   UNL A   1      54.308  22.479  35.026  1.00  0.00     0.067 A 
ATOM     23  C   UNL A   1      53.205  23.320  34.863  1.00  0.00     0.021 A 
ATOM     24  C   UNL A   1      54.156  21.189  35.548  1.00  0.00     0.021 A 
ATOM     25  C   UNL A   1      51.934  22.854  35.204  1.00  0.00     0.011 A 
ATOM     26  C   UNL A   1      52.883  20.733  35.907  1.00  0.00     0.011 A 
BRANCH  22  27
ATOM     27  S   UNL A   1      55.939  23.076  34.635  1.00  0.00     0.175 S 
ATOM     28  C   UNL A   1      55.927  24.749  35.225  1.00  0.00     0.163 C 
ATOM     29  O   UNL A   1      56.047  23.107  33.189  1.00  0.00    -0.224 OA
ATOM     30  O   UNL A   1      56.890  22.329  35.435  1.00  0.00    -0.224 OA
ENDBRANCH  22  27
ENDBRANCH  17  21
BRANCH  20  31
ATOM     31  C   UNL A   1      48.278  19.405  38.394  1.00  0.00    -0.023 A 
ATOM     32  C   UNL A   1      49.168  19.316  39.474  1.00  0.00     0.006 A 
ATOM     33  C   UNL A   1      46.924  19.100  38.647  1.00  0.00     0.006 A 
ATOM     34  C   UNL A   1      48.714  18.970  40.753  1.00  0.00     0.000 A 
ATOM     35  C   UNL A   1      46.461  18.814  39.932  1.00  0.00     0.000 A 
ATOM     36  C   UNL A   1      47.359  18.746  40.987  1.00  0.00     0.000 A 
ENDBRANCH  20  31
ENDBRANCH  11  16
ENDBRANCH   8  10
ENDBRANCH   7   8
ENDBRANCH   6   7
ENDBRANCH   5   6
ENDBRANCH   4   5
ENDBRANCH   3   4
ENDBRANCH   2   3
ENDBRANCH   1   2
BRANCH   1  37
ATOM     37  C   UNL A   1      47.336  26.681  33.408  1.00  0.00     0.188 C 
BRANCH  37  38
ATOM     38  C   UNL A   1      47.546  26.056  34.812  1.00  0.00     0.188 C 
BRANCH  38  39
ATOM     39  O   UNL A   1      48.890  25.753  35.146  1.00  0.00    -0.376 OA
BRANCH  39  40
ATOM     40  C   UNL A   1      49.407  26.227  36.375  1.00  0.00     0.202 C 
BRANCH  40  41
ATOM     41  C   UNL A   1      49.326  27.739  36.629  1.00  0.00     0.261 C 
BRANCH  41  42
ATOM     42  O   UNL A   1      49.248  28.143  38.001  1.00  0.00    -0.460 OA
BRANCH  42  43
ATOM     43  C   UNL A   1      48.029  28.113  38.580  1.00  0.00     0.338 C 
ATOM     44  O   UNL A   1      47.784  27.989  39.771  1.00  0.00    -0.246 OA
BRANCH  43  45
ATOM     45  C   UNL A   1      47.032  28.444  37.545  1.00  0.00     0.060 A 
ATOM     46  C   UNL A   1      47.205  29.603  36.777  1.00  0.00     0.016 A 
ATOM     47  C   UNL A   1      45.929  27.612  37.339  1.00  0.00     0.016 A 
ATOM     48  C   UNL A   1      46.241  29.962  35.834  1.00  0.00     0.010 A 
ATOM     49  C   UNL A   1      44.957  27.983  36.407  1.00  0.00     0.010 A 
ATOM     50  C   UNL A   1      45.087  29.183  35.685  1.00  0.00    -0.014 A 
BRANCH  50  51
ATOM     51  C   UNL A   1      43.915  29.737  34.966  1.00  0.00     0.031 A 
ATOM     52  C   UNL A   1      42.961  30.608  35.742  1.00  0.00     0.074 A 
ATOM     53  C   UNL A   1      43.707  29.499  33.659  1.00  0.00     0.049 A 
ATOM     54  N   UNL A   1      41.844  31.165  35.357  1.00  0.00    -0.248 NA
ATOM     55  C   UNL A   1      43.318  30.884  37.146  1.00  0.00     0.031 C 
ATOM     56  C   UNL A   1      44.584  28.717  32.788  1.00  0.00     0.029 A 
ATOM     57  N   UNL A   1      42.680  29.894  32.838  1.00  0.00    -0.354 N 
ATOM     58  C   UNL A   1      41.360  31.845  36.469  1.00  0.00     0.074 A 
ATOM     59  C   UNL A   1      42.285  31.603  37.553  1.00  0.00     0.031 C 
ATOM     60  C   UNL A   1      44.052  28.684  31.553  1.00  0.00     0.029 A 
ATOM     61  C   UNL A   1      42.781  29.408  31.555  1.00  0.00     0.049 A 
ATOM     62  H   UNL A   1      41.942  30.472  33.139  1.00  0.00     0.167 HD
ATOM     63  C   UNL A   1      40.246  32.608  36.579  1.00  0.00     0.031 A 
ATOM     64  C   UNL A   1      41.931  29.516  30.513  1.00  0.00     0.031 A 
ATOM     65  C   UNL A   1      39.321  32.834  35.502  1.00  0.00     0.049 A 
ATOM     66  C   UNL A   1      40.654  30.302  30.683  1.00  0.00     0.074 A 
ATOM     67  C   UNL A   1      38.167  33.597  35.506  1.00  0.00     0.029 A 
ATOM     68  N   UNL A   1      39.441  32.294  34.229  1.00  0.00    -0.354 N 
ATOM     69  N   UNL A   1      40.217  30.954  31.735  1.00  0.00    -0.248 NA
ATOM     70  C   UNL A   1      39.760  30.377  29.518  1.00  0.00     0.031 C 
ATOM     71  C   UNL A   1      37.555  33.466  34.257  1.00  0.00     0.029 A 
ATOM     72  C   UNL A   1      38.367  32.686  33.448  1.00  0.00     0.049 A 
ATOM     73  H   UNL A   1      40.179  31.718  33.927  1.00  0.00     0.167 HD
ATOM     74  C   UNL A   1      39.019  31.547  31.345  1.00  0.00     0.074 A 
ATOM     75  C   UNL A   1      38.807  31.185  29.959  1.00  0.00     0.031 C 
ATOM     76  C   UNL A   1      38.174  32.325  32.067  1.00  0.00     0.031 A 
BRANCH  63  77
ATOM     77  C   UNL A   1      39.951  33.222  37.922  1.00  0.00    -0.014 A 
ATOM     78  C   UNL A   1      40.365  34.528  38.237  1.00  0.00     0.010 A 
ATOM     79  C   UNL A   1      39.211  32.491  38.870  1.00  0.00     0.010 A 
ATOM     80  C   UNL A   1      40.074  35.080  39.487  1.00  0.00     0.020 A 
ATOM     81  C   UNL A   1      38.891  33.052  40.110  1.00  0.00     0.020 A 
ATOM     82  C   UNL A   1      39.337  34.339  40.415  1.00  0.00     0.054 A 
BRANCH  82  83
ATOM     83  S   UNL A   1      38.943  35.095  42.016  1.00  0.00     0.124 S 
ATOM     84  O   UNL A   1      39.007  33.946  42.916  1.00  0.00    -0.237 OA
ATOM     85  O   UNL A   1      40.011  36.078  42.176  1.00  0.00    -0.237 OA
ATOM     86  O   UNL A   1      37.609  35.656  41.818  1.00  0.00    -0.744 OA
ENDBRANCH  82  83
ENDBRANCH  63  77
BRANCH  64  87
ATOM     87  C   UNL A   1      42.244  28.848  29.218  1.00  0.00    -0.014 A 
ATOM     88  C   UNL A   1      41.756  27.559  28.935  1.00  0.00     0.010 A 
ATOM     89  C   UNL A   1      43.054  29.492  28.265  1.00  0.00     0.010 A 
ATOM     90  C   UNL A   1      42.092  26.919  27.738  1.00  0.00     0.020 A 
ATOM     91  C   UNL A   1      43.365  28.870  27.052  1.00  0.00     0.020 A 
ATOM     92  C   UNL A   1      42.892  27.581  26.802  1.00  0.00     0.054 A 
BRANCH  92  93
ATOM     93  S   UNL A   1      43.280  26.747  25.238  1.00  0.00     0.124 S 
ATOM     94  O   UNL A   1      42.738  27.678  24.254  1.00  0.00    -0.237 OA
ATOM     95  O   UNL A   1      44.737  26.654  25.285  1.00  0.00    -0.237 OA
ATOM     96  O   UNL A   1      42.577  25.470  25.346  1.00  0.00    -0.744 OA
ENDBRANCH  92  93
ENDBRANCH  64  87
BRANCH  76  97
ATOM     97  C   UNL A   1      36.967  32.893  31.361  1.00  0.00    -0.014 A 
ATOM     98  C   UNL A   1      35.728  32.228  31.367  1.00  0.00     0.010 A 
ATOM     99  C   UNL A   1      37.066  34.150  30.736  1.00  0.00     0.010 A 
ATOM    100  C   UNL A   1      34.621  32.794  30.727  1.00  0.00     0.020 A 
ATOM    101  C   UNL A   1      35.954  34.735  30.126  1.00  0.00     0.020 A 
ATOM    102  C   UNL A   1      34.740  34.045  30.113  1.00  0.00     0.054 A 
BRANCH 102 103
ATOM    103  S   UNL A   1      33.278  34.777  29.328  1.00  0.00     0.124 S 
ATOM    104  O   UNL A   1      32.692  33.626  28.644  1.00  0.00    -0.237 OA
ATOM    105  O   UNL A   1      32.521  35.280  30.471  1.00  0.00    -0.237 OA
ATOM    106  O   UNL A   1      33.831  35.806  28.451  1.00  0.00    -0.744 OA
ENDBRANCH 102 103
ENDBRANCH  76  97
ENDBRANCH  50  51
ENDBRANCH  43  45
ENDBRANCH  42  43
ENDBRANCH  41  42
ENDBRANCH  40  41
ENDBRANCH  39  40
ENDBRANCH  38  39
ENDBRANCH  37  38
ENDBRANCH   1  37
TORSDOF 27
ENDMDL
MODEL 3
REMARK VINA RESULT:      -6.6      7.276     12.744
REMARK SMILES CS(=O)(=O)c1ccc(C2=NN(c3ccc(C(=O)OCCOCCOCCOCCOC(=O)c4ccc(-c5c6nc(c(-c7ccc(S(=O)(=O)[O-])cc7)c7ccc([nH]7)c(-c7ccc(S(=O)(=O)[O-])cc7)c7nc(c(-c8ccc(S(=O)(=O)[O-])cc8)c8ccc5[nH]8)C=C7)C=C6)cc4)cc3)[C@H](c3ccccc3)C2)cc1
REMARK SMILES IDX 24 1 23 2 22 3 21 4 20 5 19 6 18 7 16 8 17 9 15 10 12 11
REMARK SMILES IDX 13 12 94 13 14 14 93 15 11 16 9 17 10 18 102 19 95 20 8 21
REMARK SMILES IDX 5 22 6 23 104 24 7 25 103 26 2 27 1 28 3 29 4 30 96 31 97 32
REMARK SMILES IDX 101 33 98 34 100 35 99 36 25 37 26 38 27 39 28 40 29 41
REMARK SMILES IDX 30 42 31 43 32 44 33 45 34 46 92 47 35 48 91 49 36 50 37 51
REMARK SMILES IDX 38 52 85 53 39 54 90 55 84 56 86 57 40 58 89 59 83 60 82 61
REMARK SMILES IDX 41 63 71 64 52 65 70 66 53 67 56 68 69 69 87 70 54 71 55 72
REMARK SMILES IDX 68 74 88 75 57 76 42 77 43 78 51 79 44 80 50 81 45 82 46 83
REMARK SMILES IDX 47 84 48 85 49 86 72 87 73 88 81 89 74 90 80 91 75 92 76 93
REMARK SMILES IDX 77 94 78 95 79 96 58 97 59 98 67 99 60 100 66 101 61 102
REMARK SMILES IDX 62 103 63 104 64 105 65 106
REMARK H PARENT 86 62 56 73
REMARK Flexibility Score: inf
ROOT
ATOM      1  O   UNL A   1      47.314  26.173  31.273  1.00  0.00    -0.377 OA
ENDROOT
BRANCH   1   2
ATOM      2  C   UNL A   1      46.655  26.047  30.026  1.00  0.00     0.188 C 
BRANCH   2   3
ATOM      3  C   UNL A   1      45.852  24.748  29.814  1.00  0.00     0.188 C 
BRANCH   3   4
ATOM      4  O   UNL A   1      44.459  24.897  30.017  1.00  0.00    -0.376 OA
BRANCH   4   5
ATOM      5  C   UNL A   1      43.877  24.715  31.294  1.00  0.00     0.202 C 
BRANCH   5   6
ATOM      6  C   UNL A   1      44.544  23.923  32.433  1.00  0.00     0.261 C 
BRANCH   6   7
ATOM      7  O   UNL A   1      43.729  22.994  33.144  1.00  0.00    -0.460 OA
BRANCH   7   8
ATOM      8  C   UNL A   1      43.541  23.204  34.461  1.00  0.00     0.338 C 
ATOM      9  O   UNL A   1      42.534  23.632  34.998  1.00  0.00    -0.246 OA
BRANCH   8  10
ATOM     10  C   UNL A   1      44.708  22.640  35.188  1.00  0.00     0.060 A 
ATOM     11  C   UNL A   1      46.993  21.709  36.523  1.00  0.00     0.060 A 
ATOM     12  C   UNL A   1      46.369  22.894  36.934  1.00  0.00     0.029 A 
ATOM     13  C   UNL A   1      46.372  20.926  35.540  1.00  0.00     0.029 A 
ATOM     14  C   UNL A   1      45.236  23.364  36.264  1.00  0.00     0.018 A 
ATOM     15  C   UNL A   1      45.248  21.394  34.857  1.00  0.00     0.018 A 
BRANCH  11  16
ATOM     16  N   UNL A   1      48.295  21.389  36.932  1.00  0.00    -0.257 N 
ATOM     17  C   UNL A   1      50.371  21.352  36.431  1.00  0.00     0.071 C 
ATOM     18  N   UNL A   1      49.339  22.135  36.470  1.00  0.00    -0.176 NA
ATOM     19  C   UNL A   1      50.115  19.905  36.743  1.00  0.00     0.091 C 
ATOM     20  C   UNL A   1      48.616  19.950  37.070  1.00  0.00     0.144 C 
BRANCH  17  21
ATOM     21  C   UNL A   1      51.732  21.838  36.140  1.00  0.00    -0.002 A 
ATOM     22  C   UNL A   1      54.337  22.726  35.724  1.00  0.00     0.067 A 
ATOM     23  C   UNL A   1      53.650  23.126  36.873  1.00  0.00     0.021 A 
ATOM     24  C   UNL A   1      53.734  21.879  34.786  1.00  0.00     0.021 A 
ATOM     25  C   UNL A   1      52.338  22.692  37.071  1.00  0.00     0.011 A 
ATOM     26  C   UNL A   1      52.426  21.431  34.998  1.00  0.00     0.011 A 
BRANCH  22  27
ATOM     27  S   UNL A   1      56.024  23.238  35.481  1.00  0.00     0.175 S 
ATOM     28  C   UNL A   1      55.920  25.007  35.406  1.00  0.00     0.163 C 
ATOM     29  O   UNL A   1      56.434  22.754  34.176  1.00  0.00    -0.224 OA
ATOM     30  O   UNL A   1      56.772  22.885  36.671  1.00  0.00    -0.224 OA
ENDBRANCH  22  27
ENDBRANCH  17  21
BRANCH  20  31
ATOM     31  C   UNL A   1      48.150  19.390  38.411  1.00  0.00    -0.023 A 
ATOM     32  C   UNL A   1      48.886  19.471  39.601  1.00  0.00     0.006 A 
ATOM     33  C   UNL A   1      46.874  18.789  38.482  1.00  0.00     0.006 A 
ATOM     34  C   UNL A   1      48.355  19.003  40.809  1.00  0.00     0.000 A 
ATOM     35  C   UNL A   1      46.321  18.377  39.695  1.00  0.00     0.000 A 
ATOM     36  C   UNL A   1      47.065  18.481  40.861  1.00  0.00     0.000 A 
ENDBRANCH  20  31
ENDBRANCH  11  16
ENDBRANCH   8  10
ENDBRANCH   7   8
ENDBRANCH   6   7
ENDBRANCH   5   6
ENDBRANCH   4   5
ENDBRANCH   3   4
ENDBRANCH   2   3
ENDBRANCH   1   2
BRANCH   1  37
ATOM     37  C   UNL A   1      46.733  26.977  32.300  1.00  0.00     0.188 C 
BRANCH  37  38
ATOM     38  C   UNL A   1      47.208  26.942  33.775  1.00  0.00     0.188 C 
BRANCH  38  39
ATOM     39  O   UNL A   1      48.426  26.254  34.005  1.00  0.00    -0.376 OA
BRANCH  39  40
ATOM     40  C   UNL A   1      49.076  26.423  35.251  1.00  0.00     0.202 C 
BRANCH  40  41
ATOM     41  C   UNL A   1      49.329  27.864  35.716  1.00  0.00     0.261 C 
BRANCH  41  42
ATOM     42  O   UNL A   1      49.366  28.070  37.133  1.00  0.00    -0.460 OA
BRANCH  42  43
ATOM     43  C   UNL A   1      48.283  27.679  37.838  1.00  0.00     0.338 C 
ATOM     44  O   UNL A   1      48.274  27.153  38.941  1.00  0.00    -0.246 OA
BRANCH  43  45
ATOM     45  C   UNL A   1      47.086  28.166  37.127  1.00  0.00     0.060 A 
ATOM     46  C   UNL A   1      47.130  29.414  36.492  1.00  0.00     0.016 A 
ATOM     47  C   UNL A   1      45.924  27.391  37.094  1.00  0.00     0.016 A 
ATOM     48  C   UNL A   1      45.988  29.916  35.865  1.00  0.00     0.010 A 
ATOM     49  C   UNL A   1      44.778  27.903  36.481  1.00  0.00     0.010 A 
ATOM     50  C   UNL A   1      44.793  29.187  35.906  1.00  0.00    -0.014 A 
BRANCH  50  51
ATOM     51  C   UNL A   1      43.513  29.856  35.570  1.00  0.00     0.031 A 
ATOM     52  C   UNL A   1      42.894  29.555  34.230  1.00  0.00     0.074 A 
ATOM     53  C   UNL A   1      42.902  30.689  36.430  1.00  0.00     0.049 A 
ATOM     54  N   UNL A   1      41.814  30.049  33.685  1.00  0.00    -0.248 NA
ATOM     55  C   UNL A   1      43.592  28.564  33.392  1.00  0.00     0.031 C 
ATOM     56  C   UNL A   1      43.373  31.018  37.775  1.00  0.00     0.029 A 
ATOM     57  N   UNL A   1      41.744  31.414  36.292  1.00  0.00    -0.354 N 
ATOM     58  C   UNL A   1      41.710  29.440  32.439  1.00  0.00     0.074 A 
ATOM     59  C   UNL A   1      42.853  28.567  32.294  1.00  0.00     0.031 C 
ATOM     60  C   UNL A   1      42.514  31.889  38.335  1.00  0.00     0.029 A 
ATOM     61  C   UNL A   1      41.456  32.207  37.377  1.00  0.00     0.049 A 
ATOM     62  H   UNL A   1      41.175  31.371  35.489  1.00  0.00     0.167 HD
ATOM     63  C   UNL A   1      40.746  29.589  31.500  1.00  0.00     0.031 A 
ATOM     64  C   UNL A   1      40.465  33.103  37.563  1.00  0.00     0.031 A 
ATOM     65  C   UNL A   1      39.618  30.469  31.643  1.00  0.00     0.049 A 
ATOM     66  C   UNL A   1      39.448  33.314  36.469  1.00  0.00     0.074 A 
ATOM     67  C   UNL A   1      38.580  30.688  30.754  1.00  0.00     0.029 A 
ATOM     68  N   UNL A   1      39.381  31.281  32.743  1.00  0.00    -0.354 N 
ATOM     69  N   UNL A   1      39.352  32.719  35.303  1.00  0.00    -0.248 NA
ATOM     70  C   UNL A   1      38.397  34.311  36.721  1.00  0.00     0.031 C 
ATOM     71  C   UNL A   1      37.752  31.679  31.288  1.00  0.00     0.029 A 
ATOM     72  C   UNL A   1      38.229  32.021  32.544  1.00  0.00     0.049 A 
ATOM     73  H   UNL A   1      39.950  31.325  33.545  1.00  0.00     0.167 HD
ATOM     74  C   UNL A   1      38.209  33.242  34.702  1.00  0.00     0.074 A 
ATOM     75  C   UNL A   1      37.644  34.192  35.637  1.00  0.00     0.031 C 
ATOM     76  C   UNL A   1      37.673  32.957  33.488  1.00  0.00     0.031 A 
BRANCH  63  77
ATOM     77  C   UNL A   1      40.892  28.809  30.220  1.00  0.00    -0.014 A 
ATOM     78  C   UNL A   1      41.507  29.369  29.087  1.00  0.00     0.010 A 
ATOM     79  C   UNL A   1      40.440  27.477  30.165  1.00  0.00     0.010 A 
ATOM     80  C   UNL A   1      41.638  28.624  27.912  1.00  0.00     0.020 A 
ATOM     81  C   UNL A   1      40.597  26.718  29.002  1.00  0.00     0.020 A 
ATOM     82  C   UNL A   1      41.184  27.302  27.878  1.00  0.00     0.054 A 
BRANCH  82  83
ATOM     83  S   UNL A   1      41.400  26.349  26.351  1.00  0.00     0.124 S 
ATOM     84  O   UNL A   1      42.579  25.544  26.662  1.00  0.00    -0.237 OA
ATOM     85  O   UNL A   1      40.143  25.611  26.254  1.00  0.00    -0.237 OA
ATOM     86  O   UNL A   1      41.599  27.371  25.326  1.00  0.00    -0.744 OA
ENDBRANCH  82  83
ENDBRANCH  63  77
BRANCH  64  87
ATOM     87  C   UNL A   1      40.391  33.888  38.829  1.00  0.00    -0.014 A 
ATOM     88  C   UNL A   1      41.121  35.080  38.981  1.00  0.00     0.010 A 
ATOM     89  C   UNL A   1      39.603  33.432  39.902  1.00  0.00     0.010 A 
ATOM     90  C   UNL A   1      41.084  35.787  40.187  1.00  0.00     0.020 A 
ATOM     91  C   UNL A   1      39.536  34.153  41.097  1.00  0.00     0.020 A 
ATOM     92  C   UNL A   1      40.289  35.321  41.236  1.00  0.00     0.054 A 
BRANCH  92  93
ATOM     93  S   UNL A   1      40.224  36.277  42.777  1.00  0.00     0.124 S 
ATOM     94  O   UNL A   1      41.634  36.561  43.019  1.00  0.00    -0.237 OA
ATOM     95  O   UNL A   1      39.403  37.425  42.399  1.00  0.00    -0.237 OA
ATOM     96  O   UNL A   1      39.598  35.358  43.725  1.00  0.00    -0.744 OA
ENDBRANCH  92  93
ENDBRANCH  64  87
BRANCH  76  97
ATOM     97  C   UNL A   1      36.377  33.633  33.117  1.00  0.00    -0.014 A 
ATOM     98  C   UNL A   1      35.158  33.275  33.720  1.00  0.00     0.010 A 
ATOM     99  C   UNL A   1      36.396  34.693  32.192  1.00  0.00     0.010 A 
ATOM    100  C   UNL A   1      33.978  33.941  33.376  1.00  0.00     0.020 A 
ATOM    101  C   UNL A   1      35.226  35.384  31.870  1.00  0.00     0.020 A 
ATOM    102  C   UNL A   1      34.019  34.993  32.454  1.00  0.00     0.054 A 
BRANCH 102 103
ATOM    103  S   UNL A   1      32.481  35.868  32.057  1.00  0.00     0.124 S 
ATOM    104  O   UNL A   1      32.612  37.089  32.848  1.00  0.00    -0.237 OA
ATOM    105  O   UNL A   1      32.580  36.044  30.610  1.00  0.00    -0.237 OA
ATOM    106  O   UNL A   1      31.434  34.950  32.498  1.00  0.00    -0.744 OA
ENDBRANCH 102 103
ENDBRANCH  76  97
ENDBRANCH  50  51
ENDBRANCH  43  45
ENDBRANCH  42  43
ENDBRANCH  41  42
ENDBRANCH  40  41
ENDBRANCH  39  40
ENDBRANCH  38  39
ENDBRANCH  37  38
ENDBRANCH   1  37
TORSDOF 27
ENDMDL
