MODEL 1
REMARK VINA RESULT:      -6.5      0.000      0.000
REMARK SMILES Cc1ccc(C(C)C)c(OCC(=O)Nc2nc(CC(=O)OCCOCCOCCOCCOC(=O)c3ccc(-c4c5nc(c(-c6ccc(S(=O)(=O)[O-])cc6)c6ccc([nH]6)c(-c6ccc(S(=O)(=O)[O-])cc6)c6nc(c(-c7ccc(S(=O)(=O)[O-])cc7)c7ccc4[nH]7)C=C6)C=C5)cc3)cs2)c1
REMARK SMILES IDX 25 1 24 2 23 3 22 4 21 5 19 6 20 7 18 8 17 9 15 10 16 11
REMARK SMILES IDX 97 12 96 13 14 14 12 15 13 16 11 18 10 19 9 20 1 21 2 22
REMARK SMILES IDX 3 23 98 24 4 25 5 26 6 27 7 28 8 29 26 30 27 31 28 32 29 33
REMARK SMILES IDX 30 34 31 35 32 36 33 37 34 38 35 39 36 40 37 41 95 42 38 43
REMARK SMILES IDX 94 44 39 45 40 46 41 47 88 48 42 49 93 50 87 51 89 52 43 53
REMARK SMILES IDX 92 54 86 55 85 56 44 58 74 59 55 60 73 61 56 62 59 63 72 64
REMARK SMILES IDX 90 65 57 66 58 67 71 69 91 70 60 71 45 72 46 73 54 74 47 75
REMARK SMILES IDX 53 76 48 77 49 78 50 79 51 80 52 81 75 82 76 83 84 84 77 85
REMARK SMILES IDX 83 86 78 87 79 88 80 89 81 90 82 91 61 92 62 93 70 94 63 95
REMARK SMILES IDX 69 96 64 97 65 98 66 99 67 100 68 101
REMARK H PARENT 14 17 89 57 59 68
REMARK Flexibility Score: inf
ROOT
ATOM      1  C   UNL A   1      46.043  33.840  27.626  1.00  0.00     0.188 C 
ENDROOT
BRANCH   1   2
ATOM      2  O   UNL A   1      45.121  34.926  27.580  1.00  0.00    -0.376 OA
BRANCH   2   3
ATOM      3  C   UNL A   1      44.447  35.233  28.794  1.00  0.00     0.202 C 
BRANCH   3   4
ATOM      4  C   UNL A   1      43.024  34.696  28.904  1.00  0.00     0.261 C 
BRANCH   4   5
ATOM      5  O   UNL A   1      42.612  34.610  30.282  1.00  0.00    -0.463 OA
BRANCH   5   6
ATOM      6  C   UNL A   1      41.874  33.522  30.593  1.00  0.00     0.311 C 
ATOM      7  O   UNL A   1      42.296  32.370  30.551  1.00  0.00    -0.252 OA
BRANCH   6   8
ATOM      8  C   UNL A   1      40.516  33.845  31.165  1.00  0.00     0.179 C 
BRANCH   8   9
ATOM      9  C   UNL A   1      39.311  33.575  30.319  1.00  0.00     0.065 A 
ATOM     10  C   UNL A   1      37.709  32.243  29.587  1.00  0.00     0.189 A 
ATOM     11  N   UNL A   1      38.791  32.295  30.315  1.00  0.00    -0.224 NA
ATOM     12  S   UNL A   1      37.234  33.686  28.829  1.00  0.00    -0.105 S 
ATOM     13  C   UNL A   1      38.516  34.494  29.653  1.00  0.00     0.093 A 
BRANCH  10  14
ATOM     14  N   UNL A   1      36.812  31.226  29.497  1.00  0.00    -0.299 N 
ATOM     15  C   UNL A   1      36.964  30.175  28.639  1.00  0.00     0.264 C 
ATOM     16  O   UNL A   1      36.140  29.252  28.677  1.00  0.00    -0.271 OA
ATOM     17  H   UNL A   1      36.017  31.248  30.076  1.00  0.00     0.172 HD
BRANCH  15  18
ATOM     18  C   UNL A   1      38.246  30.048  27.774  1.00  0.00     0.329 C 
BRANCH  18  19
ATOM     19  O   UNL A   1      39.486  29.705  28.360  1.00  0.00    -0.483 OA
BRANCH  19  20
ATOM     20  C   UNL A   1      39.941  28.430  28.169  1.00  0.00     0.123 A 
ATOM     21  C   UNL A   1      41.525  26.254  25.482  1.00  0.00     0.044 C 
ATOM     22  C   UNL A   1      40.952  26.691  26.795  1.00  0.00    -0.047 A 
ATOM     23  C   UNL A   1      40.914  25.824  27.885  1.00  0.00     0.004 A 
ATOM     24  C   UNL A   1      40.438  27.981  26.941  1.00  0.00     0.050 A 
ATOM     25  C   UNL A   1      40.375  26.246  29.103  1.00  0.00     0.008 A 
ATOM     26  C   UNL A   1      39.875  27.551  29.266  1.00  0.00    -0.003 A 
BRANCH  26  27
ATOM     27  C   UNL A   1      39.313  27.989  30.615  1.00  0.00     0.017 C 
ATOM     28  C   UNL A   1      38.262  27.012  31.151  1.00  0.00     0.012 C 
ATOM     29  C   UNL A   1      40.428  28.177  31.640  1.00  0.00     0.012 C 
ENDBRANCH  26  27
ENDBRANCH  19  20
ENDBRANCH  18  19
ENDBRANCH  15  18
ENDBRANCH  10  14
ENDBRANCH   8   9
ENDBRANCH   6   8
ENDBRANCH   5   6
ENDBRANCH   4   5
ENDBRANCH   3   4
ENDBRANCH   2   3
ENDBRANCH   1   2
BRANCH   1  30
ATOM     30  C   UNL A   1      47.271  33.820  26.695  1.00  0.00     0.188 C 
BRANCH  30  31
ATOM     31  O   UNL A   1      47.509  32.562  26.094  1.00  0.00    -0.377 OA
BRANCH  31  32
ATOM     32  C   UNL A   1      47.256  31.452  26.960  1.00  0.00     0.188 C 
BRANCH  32  33
ATOM     33  C   UNL A   1      46.249  30.495  26.320  1.00  0.00     0.188 C 
BRANCH  33  34
ATOM     34  O   UNL A   1      46.989  29.454  25.677  1.00  0.00    -0.376 OA
BRANCH  34  35
ATOM     35  C   UNL A   1      46.256  28.326  25.255  1.00  0.00     0.202 C 
BRANCH  35  36
ATOM     36  C   UNL A   1      45.395  27.764  26.381  1.00  0.00     0.261 C 
BRANCH  36  37
ATOM     37  O   UNL A   1      45.127  26.372  26.122  1.00  0.00    -0.460 OA
BRANCH  37  38
ATOM     38  C   UNL A   1      46.029  25.524  26.687  1.00  0.00     0.338 C 
ATOM     39  O   UNL A   1      46.961  25.025  26.077  1.00  0.00    -0.246 OA
BRANCH  38  40
ATOM     40  C   UNL A   1      45.729  25.315  28.130  1.00  0.00     0.060 A 
ATOM     41  C   UNL A   1      44.436  24.962  28.542  1.00  0.00     0.016 A 
ATOM     42  C   UNL A   1      46.700  25.597  29.089  1.00  0.00     0.016 A 
ATOM     43  C   UNL A   1      44.098  24.965  29.907  1.00  0.00     0.010 A 
ATOM     44  C   UNL A   1      46.341  25.672  30.426  1.00  0.00     0.010 A 
ATOM     45  C   UNL A   1      45.040  25.365  30.859  1.00  0.00    -0.014 A 
BRANCH  45  46
ATOM     46  C   UNL A   1      44.762  25.657  32.279  1.00  0.00     0.031 A 
ATOM     47  C   UNL A   1      44.311  27.019  32.721  1.00  0.00     0.074 A 
ATOM     48  C   UNL A   1      44.589  24.633  33.153  1.00  0.00     0.049 A 
ATOM     49  N   UNL A   1      44.078  27.346  33.953  1.00  0.00    -0.248 NA
ATOM     50  C   UNL A   1      44.113  28.156  31.821  1.00  0.00     0.031 C 
ATOM     51  C   UNL A   1      43.748  24.670  34.351  1.00  0.00     0.029 A 
ATOM     52  N   UNL A   1      45.148  23.359  33.210  1.00  0.00    -0.354 N 
ATOM     53  C   UNL A   1      43.325  28.498  33.950  1.00  0.00     0.074 A 
ATOM     54  C   UNL A   1      43.519  29.043  32.630  1.00  0.00     0.031 C 
ATOM     55  C   UNL A   1      43.986  23.597  35.103  1.00  0.00     0.029 A 
ATOM     56  C   UNL A   1      45.142  22.943  34.544  1.00  0.00     0.049 A 
ATOM     57  H   UNL A   1      45.487  22.842  32.445  1.00  0.00     0.167 HD
ATOM     58  C   UNL A   1      42.501  28.764  35.011  1.00  0.00     0.031 A 
ATOM     59  C   UNL A   1      46.239  22.601  35.275  1.00  0.00     0.031 A 
ATOM     60  C   UNL A   1      42.740  27.858  36.149  1.00  0.00     0.049 A 
ATOM     61  C   UNL A   1      46.398  23.485  36.494  1.00  0.00     0.074 A 
ATOM     62  C   UNL A   1      41.956  26.972  36.872  1.00  0.00     0.029 A 
ATOM     63  N   UNL A   1      44.046  27.669  36.605  1.00  0.00    -0.354 N 
ATOM     64  N   UNL A   1      45.749  24.613  36.617  1.00  0.00    -0.248 NA
ATOM     65  C   UNL A   1      47.235  23.221  37.660  1.00  0.00     0.031 C 
ATOM     66  C   UNL A   1      42.813  26.205  37.713  1.00  0.00     0.029 A 
ATOM     67  C   UNL A   1      44.112  26.651  37.534  1.00  0.00     0.049 A 
ATOM     68  H   UNL A   1      44.822  28.195  36.304  1.00  0.00     0.167 HD
ATOM     69  C   UNL A   1      45.997  25.184  37.826  1.00  0.00     0.074 A 
ATOM     70  C   UNL A   1      46.972  24.296  38.434  1.00  0.00     0.031 C 
ATOM     71  C   UNL A   1      45.371  26.335  38.209  1.00  0.00     0.031 A 
BRANCH  58  72
ATOM     72  C   UNL A   1      41.332  29.751  34.978  1.00  0.00    -0.014 A 
ATOM     73  C   UNL A   1      40.949  30.363  33.762  1.00  0.00     0.010 A 
ATOM     74  C   UNL A   1      40.611  30.174  36.112  1.00  0.00     0.010 A 
ATOM     75  C   UNL A   1      39.922  31.328  33.687  1.00  0.00     0.020 A 
ATOM     76  C   UNL A   1      39.563  31.111  36.050  1.00  0.00     0.020 A 
ATOM     77  C   UNL A   1      39.228  31.692  34.836  1.00  0.00     0.054 A 
BRANCH  77  78
ATOM     78  S   UNL A   1      37.885  32.907  34.737  1.00  0.00     0.124 S 
ATOM     79  O   UNL A   1      38.413  33.881  33.785  1.00  0.00    -0.237 OA
ATOM     80  O   UNL A   1      36.762  32.104  34.262  1.00  0.00    -0.237 OA
ATOM     81  O   UNL A   1      37.756  33.395  36.109  1.00  0.00    -0.744 OA
ENDBRANCH  77  78
ENDBRANCH  58  72
BRANCH  59  82
ATOM     82  C   UNL A   1      47.224  21.770  34.535  1.00  0.00    -0.014 A 
ATOM     83  C   UNL A   1      48.387  22.479  34.154  1.00  0.00     0.010 A 
ATOM     84  C   UNL A   1      47.334  20.395  34.822  1.00  0.00     0.010 A 
ATOM     85  C   UNL A   1      49.650  21.919  34.351  1.00  0.00     0.020 A 
ATOM     86  C   UNL A   1      48.606  19.830  35.021  1.00  0.00     0.020 A 
ATOM     87  C   UNL A   1      49.747  20.628  34.869  1.00  0.00     0.054 A 
BRANCH  87  88
ATOM     88  S   UNL A   1      51.324  20.144  35.653  1.00  0.00     0.124 S 
ATOM     89  O   UNL A   1      51.422  21.088  36.760  1.00  0.00    -0.237 OA
ATOM     90  O   UNL A   1      51.080  18.749  36.028  1.00  0.00    -0.237 OA
ATOM     91  O   UNL A   1      52.297  20.318  34.579  1.00  0.00    -0.744 OA
ENDBRANCH  87  88
ENDBRANCH  59  82
BRANCH  71  92
ATOM     92  C   UNL A   1      45.848  27.270  39.291  1.00  0.00    -0.014 A 
ATOM     93  C   UNL A   1      46.885  28.197  39.108  1.00  0.00     0.010 A 
ATOM     94  C   UNL A   1      45.094  27.376  40.487  1.00  0.00     0.010 A 
ATOM     95  C   UNL A   1      47.171  29.168  40.077  1.00  0.00     0.020 A 
ATOM     96  C   UNL A   1      45.344  28.368  41.439  1.00  0.00     0.020 A 
ATOM     97  C   UNL A   1      46.393  29.254  41.232  1.00  0.00     0.054 A 
BRANCH  97  98
ATOM     98  S   UNL A   1      46.697  30.594  42.408  1.00  0.00     0.124 S 
ATOM     99  O   UNL A   1      48.109  30.399  42.727  1.00  0.00    -0.237 OA
ATOM    100  O   UNL A   1      46.394  31.789  41.623  1.00  0.00    -0.237 OA
ATOM    101  O   UNL A   1      45.763  30.320  43.496  1.00  0.00    -0.744 OA
ENDBRANCH  97  98
ENDBRANCH  71  92
ENDBRANCH  45  46
ENDBRANCH  38  40
ENDBRANCH  37  38
ENDBRANCH  36  37
ENDBRANCH  35  36
ENDBRANCH  34  35
ENDBRANCH  33  34
ENDBRANCH  32  33
ENDBRANCH  31  32
ENDBRANCH  30  31
ENDBRANCH   1  30
TORSDOF 29
ENDMDL
MODEL 2
REMARK VINA RESULT:      -6.3      5.579     14.675
REMARK SMILES Cc1ccc(C(C)C)c(OCC(=O)Nc2nc(CC(=O)OCCOCCOCCOCCOC(=O)c3ccc(-c4c5nc(c(-c6ccc(S(=O)(=O)[O-])cc6)c6ccc([nH]6)c(-c6ccc(S(=O)(=O)[O-])cc6)c6nc(c(-c7ccc(S(=O)(=O)[O-])cc7)c7ccc4[nH]7)C=C6)C=C5)cc3)cs2)c1
REMARK SMILES IDX 25 1 24 2 23 3 22 4 21 5 19 6 20 7 18 8 17 9 15 10 16 11
REMARK SMILES IDX 97 12 96 13 14 14 12 15 13 16 11 18 10 19 9 20 1 21 2 22
REMARK SMILES IDX 3 23 98 24 4 25 5 26 6 27 7 28 8 29 26 30 27 31 28 32 29 33
REMARK SMILES IDX 30 34 31 35 32 36 33 37 34 38 35 39 36 40 37 41 95 42 38 43
REMARK SMILES IDX 94 44 39 45 40 46 41 47 88 48 42 49 93 50 87 51 89 52 43 53
REMARK SMILES IDX 92 54 86 55 85 56 44 58 74 59 55 60 73 61 56 62 59 63 72 64
REMARK SMILES IDX 90 65 57 66 58 67 71 69 91 70 60 71 45 72 46 73 54 74 47 75
REMARK SMILES IDX 53 76 48 77 49 78 50 79 51 80 52 81 75 82 76 83 84 84 77 85
REMARK SMILES IDX 83 86 78 87 79 88 80 89 81 90 82 91 61 92 62 93 70 94 63 95
REMARK SMILES IDX 69 96 64 97 65 98 66 99 67 100 68 101
REMARK H PARENT 14 17 89 57 59 68
REMARK Flexibility Score: inf
ROOT
ATOM      1  C   UNL A   1      45.481  18.155  43.569  1.00  0.00     0.188 C 
ENDROOT
BRANCH   1   2
ATOM      2  O   UNL A   1      45.045  17.845  44.890  1.00  0.00    -0.376 OA
BRANCH   2   3
ATOM      3  C   UNL A   1      44.547  18.930  45.662  1.00  0.00     0.202 C 
BRANCH   3   4
ATOM      4  C   UNL A   1      45.112  20.301  45.301  1.00  0.00     0.261 C 
BRANCH   4   5
ATOM      5  O   UNL A   1      46.507  20.389  45.646  1.00  0.00    -0.463 OA
BRANCH   5   6
ATOM      6  C   UNL A   1      46.776  21.083  46.774  1.00  0.00     0.311 C 
ATOM      7  O   UNL A   1      46.236  20.873  47.856  1.00  0.00    -0.252 OA
BRANCH   6   8
ATOM      8  C   UNL A   1      47.933  22.044  46.641  1.00  0.00     0.179 C 
BRANCH   8   9
ATOM      9  C   UNL A   1      49.290  21.575  47.060  1.00  0.00     0.065 A 
ATOM     10  C   UNL A   1      50.863  20.029  47.177  1.00  0.00     0.189 A 
ATOM     11  N   UNL A   1      49.630  20.258  46.817  1.00  0.00    -0.224 NA
ATOM     12  S   UNL A   1      51.712  21.336  47.853  1.00  0.00    -0.105 S 
ATOM     13  C   UNL A   1      50.352  22.341  47.516  1.00  0.00     0.093 A 
BRANCH  10  14
ATOM     14  N   UNL A   1      51.617  18.928  46.919  1.00  0.00    -0.299 N 
ATOM     15  C   UNL A   1      52.140  18.657  45.687  1.00  0.00     0.264 C 
ATOM     16  O   UNL A   1      52.881  17.674  45.558  1.00  0.00    -0.271 OA
ATOM     17  H   UNL A   1      51.795  18.297  47.653  1.00  0.00     0.172 HD
BRANCH  15  18
ATOM     18  C   UNL A   1      51.966  19.668  44.523  1.00  0.00     0.329 C 
BRANCH  18  19
ATOM     19  O   UNL A   1      51.259  19.313  43.351  1.00  0.00    -0.483 OA
BRANCH  19  20
ATOM     20  C   UNL A   1      51.056  20.291  42.418  1.00  0.00     0.123 A 
ATOM     21  C   UNL A   1      51.107  24.080  42.083  1.00  0.00     0.044 C 
ATOM     22  C   UNL A   1      50.974  22.629  41.736  1.00  0.00    -0.047 A 
ATOM     23  C   UNL A   1      50.691  22.226  40.432  1.00  0.00     0.004 A 
ATOM     24  C   UNL A   1      51.127  21.655  42.725  1.00  0.00     0.050 A 
ATOM     25  C   UNL A   1      50.569  20.870  40.125  1.00  0.00     0.008 A 
ATOM     26  C   UNL A   1      50.743  19.879  41.109  1.00  0.00    -0.003 A 
BRANCH  26  27
ATOM     27  C   UNL A   1      50.625  18.405  40.738  1.00  0.00     0.017 C 
ATOM     28  C   UNL A   1      49.174  17.914  40.760  1.00  0.00     0.012 C 
ATOM     29  C   UNL A   1      51.251  18.130  39.372  1.00  0.00     0.012 C 
ENDBRANCH  26  27
ENDBRANCH  19  20
ENDBRANCH  18  19
ENDBRANCH  15  18
ENDBRANCH  10  14
ENDBRANCH   8   9
ENDBRANCH   6   8
ENDBRANCH   5   6
ENDBRANCH   4   5
ENDBRANCH   3   4
ENDBRANCH   2   3
ENDBRANCH   1   2
BRANCH   1  30
ATOM     30  C   UNL A   1      44.710  17.618  42.348  1.00  0.00     0.188 C 
BRANCH  30  31
ATOM     31  O   UNL A   1      44.944  18.351  41.162  1.00  0.00    -0.377 OA
BRANCH  31  32
ATOM     32  C   UNL A   1      45.774  19.501  41.347  1.00  0.00     0.188 C 
BRANCH  32  33
ATOM     33  C   UNL A   1      46.313  19.992  40.002  1.00  0.00     0.188 C 
BRANCH  33  34
ATOM     34  O   UNL A   1      45.711  21.261  39.731  1.00  0.00    -0.376 OA
BRANCH  34  35
ATOM     35  C   UNL A   1      46.113  21.910  38.546  1.00  0.00     0.202 C 
BRANCH  35  36
ATOM     36  C   UNL A   1      47.117  21.073  37.761  1.00  0.00     0.261 C 
BRANCH  36  37
ATOM     37  O   UNL A   1      47.097  21.483  36.379  1.00  0.00    -0.460 OA
BRANCH  37  38
ATOM     38  C   UNL A   1      45.927  21.205  35.741  1.00  0.00     0.338 C 
ATOM     39  O   UNL A   1      45.322  20.152  35.867  1.00  0.00    -0.246 OA
BRANCH  38  40
ATOM     40  C   UNL A   1      45.496  22.354  34.898  1.00  0.00     0.060 A 
ATOM     41  C   UNL A   1      46.354  23.444  34.692  1.00  0.00     0.016 A 
ATOM     42  C   UNL A   1      44.188  22.411  34.420  1.00  0.00     0.016 A 
ATOM     43  C   UNL A   1      45.880  24.615  34.074  1.00  0.00     0.010 A 
ATOM     44  C   UNL A   1      43.707  23.594  33.881  1.00  0.00     0.010 A 
ATOM     45  C   UNL A   1      44.536  24.715  33.703  1.00  0.00    -0.014 A 
BRANCH  45  46
ATOM     46  C   UNL A   1      43.847  25.950  33.283  1.00  0.00     0.031 A 
ATOM     47  C   UNL A   1      43.100  26.800  34.270  1.00  0.00     0.074 A 
ATOM     48  C   UNL A   1      44.146  26.511  32.084  1.00  0.00     0.049 A 
ATOM     49  N   UNL A   1      42.452  27.879  33.960  1.00  0.00    -0.248 NA
ATOM     50  C   UNL A   1      42.981  26.498  35.697  1.00  0.00     0.031 C 
ATOM     51  C   UNL A   1      44.074  27.939  31.771  1.00  0.00     0.029 A 
ATOM     52  N   UNL A   1      44.528  25.950  30.869  1.00  0.00    -0.354 N 
ATOM     53  C   UNL A   1      42.240  28.593  35.117  1.00  0.00     0.074 A 
ATOM     54  C   UNL A   1      42.432  27.625  36.168  1.00  0.00     0.031 C 
ATOM     55  C   UNL A   1      44.201  28.121  30.457  1.00  0.00     0.029 A 
ATOM     56  C   UNL A   1      44.132  26.818  29.847  1.00  0.00     0.049 A 
ATOM     57  H   UNL A   1      44.995  25.092  30.749  1.00  0.00     0.167 HD
ATOM     58  C   UNL A   1      42.086  29.952  35.050  1.00  0.00     0.031 A 
ATOM     59  C   UNL A   1      43.285  26.510  28.826  1.00  0.00     0.031 A 
ATOM     60  C   UNL A   1      41.925  30.430  33.665  1.00  0.00     0.049 A 
ATOM     61  C   UNL A   1      42.061  27.400  28.825  1.00  0.00     0.074 A 
ATOM     62  C   UNL A   1      42.602  31.333  32.859  1.00  0.00     0.029 A 
ATOM     63  N   UNL A   1      40.987  29.811  32.836  1.00  0.00    -0.354 N 
ATOM     64  N   UNL A   1      41.736  28.126  29.863  1.00  0.00    -0.248 NA
ATOM     65  C   UNL A   1      41.121  27.590  27.725  1.00  0.00     0.031 C 
ATOM     66  C   UNL A   1      42.109  31.198  31.530  1.00  0.00     0.029 A 
ATOM     67  C   UNL A   1      41.104  30.245  31.531  1.00  0.00     0.049 A 
ATOM     68  H   UNL A   1      40.326  29.149  33.142  1.00  0.00     0.167 HD
ATOM     69  C   UNL A   1      40.647  28.895  29.593  1.00  0.00     0.074 A 
ATOM     70  C   UNL A   1      40.265  28.494  28.251  1.00  0.00     0.031 C 
ATOM     71  C   UNL A   1      40.167  29.789  30.505  1.00  0.00     0.031 A 
BRANCH  58  72
ATOM     72  C   UNL A   1      42.251  30.905  36.235  1.00  0.00    -0.014 A 
ATOM     73  C   UNL A   1      41.242  31.848  36.539  1.00  0.00     0.010 A 
ATOM     74  C   UNL A   1      43.399  30.977  37.050  1.00  0.00     0.010 A 
ATOM     75  C   UNL A   1      41.372  32.793  37.578  1.00  0.00     0.020 A 
ATOM     76  C   UNL A   1      43.532  31.891  38.110  1.00  0.00     0.020 A 
ATOM     77  C   UNL A   1      42.519  32.803  38.365  1.00  0.00     0.054 A 
BRANCH  77  78
ATOM     78  S   UNL A   1      42.675  33.995  39.724  1.00  0.00     0.124 S 
ATOM     79  O   UNL A   1      44.052  34.461  39.578  1.00  0.00    -0.237 OA
ATOM     80  O   UNL A   1      41.640  34.976  39.409  1.00  0.00    -0.237 OA
ATOM     81  O   UNL A   1      42.419  33.194  40.920  1.00  0.00    -0.744 OA
ENDBRANCH  77  78
ENDBRANCH  58  72
BRANCH  59  82
ATOM     82  C   UNL A   1      43.520  25.169  28.230  1.00  0.00    -0.014 A 
ATOM     83  C   UNL A   1      43.222  24.102  29.108  1.00  0.00     0.010 A 
ATOM     84  C   UNL A   1      43.334  24.978  26.846  1.00  0.00     0.010 A 
ATOM     85  C   UNL A   1      42.483  23.005  28.661  1.00  0.00     0.020 A 
ATOM     86  C   UNL A   1      42.589  23.874  26.395  1.00  0.00     0.020 A 
ATOM     87  C   UNL A   1      42.096  22.947  27.323  1.00  0.00     0.054 A 
BRANCH  87  88
ATOM     88  S   UNL A   1      40.687  21.869  26.892  1.00  0.00     0.124 S 
ATOM     89  O   UNL A   1      40.720  20.874  27.958  1.00  0.00    -0.237 OA
ATOM     90  O   UNL A   1      39.553  22.795  26.923  1.00  0.00    -0.237 OA
ATOM     91  O   UNL A   1      41.034  21.385  25.558  1.00  0.00    -0.744 OA
ENDBRANCH  87  88
ENDBRANCH  59  82
BRANCH  71  92
ATOM     92  C   UNL A   1      38.776  30.372  30.509  1.00  0.00    -0.014 A 
ATOM     93  C   UNL A   1      37.838  30.122  31.522  1.00  0.00     0.010 A 
ATOM     94  C   UNL A   1      38.452  31.379  29.566  1.00  0.00     0.010 A 
ATOM     95  C   UNL A   1      36.628  30.827  31.581  1.00  0.00     0.020 A 
ATOM     96  C   UNL A   1      37.267  32.116  29.641  1.00  0.00     0.020 A 
ATOM     97  C   UNL A   1      36.354  31.825  30.646  1.00  0.00     0.054 A 
BRANCH  97  98
ATOM     98  S   UNL A   1      34.845  32.809  30.816  1.00  0.00     0.124 S 
ATOM     99  O   UNL A   1      34.347  32.372  32.118  1.00  0.00    -0.237 OA
ATOM    100  O   UNL A   1      35.346  34.181  30.768  1.00  0.00    -0.237 OA
ATOM    101  O   UNL A   1      34.038  32.409  29.667  1.00  0.00    -0.744 OA
ENDBRANCH  97  98
ENDBRANCH  71  92
ENDBRANCH  45  46
ENDBRANCH  38  40
ENDBRANCH  37  38
ENDBRANCH  36  37
ENDBRANCH  35  36
ENDBRANCH  34  35
ENDBRANCH  33  34
ENDBRANCH  32  33
ENDBRANCH  31  32
ENDBRANCH  30  31
ENDBRANCH   1  30
TORSDOF 29
ENDMDL
MODEL 3
REMARK VINA RESULT:      -6.1      6.707     11.854
REMARK SMILES Cc1ccc(C(C)C)c(OCC(=O)Nc2nc(CC(=O)OCCOCCOCCOCCOC(=O)c3ccc(-c4c5nc(c(-c6ccc(S(=O)(=O)[O-])cc6)c6ccc([nH]6)c(-c6ccc(S(=O)(=O)[O-])cc6)c6nc(c(-c7ccc(S(=O)(=O)[O-])cc7)c7ccc4[nH]7)C=C6)C=C5)cc3)cs2)c1
REMARK SMILES IDX 25 1 24 2 23 3 22 4 21 5 19 6 20 7 18 8 17 9 15 10 16 11
REMARK SMILES IDX 97 12 96 13 14 14 12 15 13 16 11 18 10 19 9 20 1 21 2 22
REMARK SMILES IDX 3 23 98 24 4 25 5 26 6 27 7 28 8 29 26 30 27 31 28 32 29 33
REMARK SMILES IDX 30 34 31 35 32 36 33 37 34 38 35 39 36 40 37 41 95 42 38 43
REMARK SMILES IDX 94 44 39 45 40 46 41 47 88 48 42 49 93 50 87 51 89 52 43 53
REMARK SMILES IDX 92 54 86 55 85 56 44 58 74 59 55 60 73 61 56 62 59 63 72 64
REMARK SMILES IDX 90 65 57 66 58 67 71 69 91 70 60 71 45 72 46 73 54 74 47 75
REMARK SMILES IDX 53 76 48 77 49 78 50 79 51 80 52 81 75 82 76 83 84 84 77 85
REMARK SMILES IDX 83 86 78 87 79 88 80 89 81 90 82 91 61 92 62 93 70 94 63 95
REMARK SMILES IDX 69 96 64 97 65 98 66 99 67 100 68 101
REMARK H PARENT 14 17 89 57 59 68
REMARK Flexibility Score: inf
ROOT
ATOM      1  C   UNL A   1      33.613  35.710  32.533  1.00  0.00     0.188 C 
ENDROOT
BRANCH   1   2
ATOM      2  O   UNL A   1      34.795  35.004  32.901  1.00  0.00    -0.376 OA
BRANCH   2   3
ATOM      3  C   UNL A   1      34.610  33.708  33.456  1.00  0.00     0.202 C 
BRANCH   3   4
ATOM      4  C   UNL A   1      35.891  32.971  33.835  1.00  0.00     0.261 C 
BRANCH   4   5
ATOM      5  O   UNL A   1      36.919  33.898  34.234  1.00  0.00    -0.463 OA
BRANCH   5   6
ATOM      6  C   UNL A   1      37.433  33.690  35.466  1.00  0.00     0.311 C 
ATOM      7  O   UNL A   1      36.814  33.168  36.390  1.00  0.00    -0.252 OA
BRANCH   6   8
ATOM      8  C   UNL A   1      38.905  34.001  35.577  1.00  0.00     0.179 C 
BRANCH   8   9
ATOM      9  C   UNL A   1      39.387  34.701  36.808  1.00  0.00     0.065 A 
ATOM     10  C   UNL A   1      40.237  34.686  38.847  1.00  0.00     0.189 A 
ATOM     11  N   UNL A   1      39.782  33.930  37.885  1.00  0.00    -0.224 NA
ATOM     12  S   UNL A   1      40.211  36.362  38.572  1.00  0.00    -0.105 S 
ATOM     13  C   UNL A   1      39.664  36.050  36.967  1.00  0.00     0.093 A 
BRANCH  10  14
ATOM     14  N   UNL A   1      40.894  34.301  39.972  1.00  0.00    -0.299 N 
ATOM     15  C   UNL A   1      40.325  34.332  41.212  1.00  0.00     0.264 C 
ATOM     16  O   UNL A   1      40.967  33.888  42.174  1.00  0.00    -0.271 OA
ATOM     17  H   UNL A   1      41.822  33.984  39.890  1.00  0.00     0.172 HD
BRANCH  15  18
ATOM     18  C   UNL A   1      38.836  34.733  41.381  1.00  0.00     0.329 C 
BRANCH  18  19
ATOM     19  O   UNL A   1      37.829  33.750  41.517  1.00  0.00    -0.483 OA
BRANCH  19  20
ATOM     20  C   UNL A   1      37.385  33.474  42.780  1.00  0.00     0.123 A 
ATOM     21  C   UNL A   1      35.374  35.058  45.593  1.00  0.00     0.044 C 
ATOM     22  C   UNL A   1      36.179  34.065  44.813  1.00  0.00    -0.047 A 
ATOM     23  C   UNL A   1      36.457  32.802  45.332  1.00  0.00     0.004 A 
ATOM     24  C   UNL A   1      36.671  34.399  43.550  1.00  0.00     0.050 A 
ATOM     25  C   UNL A   1      37.210  31.887  44.592  1.00  0.00     0.008 A 
ATOM     26  C   UNL A   1      37.692  32.206  43.309  1.00  0.00    -0.003 A 
BRANCH  26  27
ATOM     27  C   UNL A   1      38.494  31.178  42.518  1.00  0.00     0.017 C 
ATOM     28  C   UNL A   1      39.129  30.117  43.421  1.00  0.00     0.012 C 
ATOM     29  C   UNL A   1      37.630  30.510  41.451  1.00  0.00     0.012 C 
ENDBRANCH  26  27
ENDBRANCH  19  20
ENDBRANCH  18  19
ENDBRANCH  15  18
ENDBRANCH  10  14
ENDBRANCH   8   9
ENDBRANCH   6   8
ENDBRANCH   5   6
ENDBRANCH   4   5
ENDBRANCH   3   4
ENDBRANCH   2   3
ENDBRANCH   1   2
BRANCH   1  30
ATOM     30  C   UNL A   1      33.228  35.864  31.049  1.00  0.00     0.188 C 
BRANCH  30  31
ATOM     31  O   UNL A   1      33.177  34.640  30.345  1.00  0.00    -0.377 OA
BRANCH  31  32
ATOM     32  C   UNL A   1      33.694  34.717  29.013  1.00  0.00     0.188 C 
BRANCH  32  33
ATOM     33  C   UNL A   1      34.050  33.322  28.497  1.00  0.00     0.188 C 
BRANCH  33  34
ATOM     34  O   UNL A   1      35.226  33.444  27.693  1.00  0.00    -0.376 OA
BRANCH  34  35
ATOM     35  C   UNL A   1      36.278  32.549  27.974  1.00  0.00     0.202 C 
BRANCH  35  36
ATOM     36  C   UNL A   1      37.074  32.986  29.199  1.00  0.00     0.261 C 
BRANCH  36  37
ATOM     37  O   UNL A   1      38.382  32.379  29.155  1.00  0.00    -0.460 OA
BRANCH  37  38
ATOM     38  C   UNL A   1      38.819  31.930  30.362  1.00  0.00     0.338 C 
ATOM     39  O   UNL A   1      38.390  30.924  30.905  1.00  0.00    -0.246 OA
BRANCH  38  40
ATOM     40  C   UNL A   1      39.886  32.816  30.904  1.00  0.00     0.060 A 
ATOM     41  C   UNL A   1      41.235  32.442  30.808  1.00  0.00     0.016 A 
ATOM     42  C   UNL A   1      39.541  33.956  31.626  1.00  0.00     0.016 A 
ATOM     43  C   UNL A   1      42.225  33.168  31.495  1.00  0.00     0.010 A 
ATOM     44  C   UNL A   1      40.510  34.621  32.360  1.00  0.00     0.010 A 
ATOM     45  C   UNL A   1      41.862  34.240  32.315  1.00  0.00    -0.014 A 
BRANCH  45  46
ATOM     46  C   UNL A   1      42.745  34.926  33.279  1.00  0.00     0.031 A 
ATOM     47  C   UNL A   1      43.366  36.254  32.957  1.00  0.00     0.074 A 
ATOM     48  C   UNL A   1      42.747  34.538  34.580  1.00  0.00     0.049 A 
ATOM     49  N   UNL A   1      44.170  36.894  33.748  1.00  0.00    -0.248 NA
ATOM     50  C   UNL A   1      43.169  36.975  31.700  1.00  0.00     0.031 C 
ATOM     51  C   UNL A   1      43.027  35.406  35.725  1.00  0.00     0.029 A 
ATOM     52  N   UNL A   1      42.557  33.296  35.177  1.00  0.00    -0.354 N 
ATOM     53  C   UNL A   1      44.223  38.203  33.330  1.00  0.00     0.074 A 
ATOM     54  C   UNL A   1      43.728  38.161  31.976  1.00  0.00     0.031 C 
ATOM     55  C   UNL A   1      43.181  34.669  36.823  1.00  0.00     0.029 A 
ATOM     56  C   UNL A   1      43.234  33.294  36.400  1.00  0.00     0.049 A 
ATOM     57  H   UNL A   1      42.036  32.548  34.803  1.00  0.00     0.167 HD
ATOM     58  C   UNL A   1      44.526  39.185  34.233  1.00  0.00     0.031 A 
ATOM     59  C   UNL A   1      44.229  32.435  36.756  1.00  0.00     0.031 A 
ATOM     60  C   UNL A   1      45.006  38.639  35.516  1.00  0.00     0.049 A 
ATOM     61  C   UNL A   1      45.515  33.168  37.074  1.00  0.00     0.074 A 
ATOM     62  C   UNL A   1      44.599  38.748  36.837  1.00  0.00     0.029 A 
ATOM     63  N   UNL A   1      46.020  37.678  35.510  1.00  0.00    -0.354 N 
ATOM     64  N   UNL A   1      45.702  34.414  36.725  1.00  0.00    -0.248 NA
ATOM     65  C   UNL A   1      46.668  32.635  37.793  1.00  0.00     0.031 C 
ATOM     66  C   UNL A   1      45.327  37.796  37.606  1.00  0.00     0.029 A 
ATOM     67  C   UNL A   1      46.208  37.137  36.765  1.00  0.00     0.049 A 
ATOM     68  H   UNL A   1      46.535  37.421  34.712  1.00  0.00     0.167 HD
ATOM     69  C   UNL A   1      46.897  34.871  37.188  1.00  0.00     0.074 A 
ATOM     70  C   UNL A   1      47.492  33.705  37.818  1.00  0.00     0.031 C 
ATOM     71  C   UNL A   1      47.277  36.169  37.008  1.00  0.00     0.031 A 
BRANCH  58  72
ATOM     72  C   UNL A   1      44.230  40.673  34.034  1.00  0.00    -0.014 A 
ATOM     73  C   UNL A   1      43.055  41.083  33.362  1.00  0.00     0.010 A 
ATOM     74  C   UNL A   1      45.092  41.719  34.419  1.00  0.00     0.010 A 
ATOM     75  C   UNL A   1      42.766  42.437  33.093  1.00  0.00     0.020 A 
ATOM     76  C   UNL A   1      44.804  43.077  34.188  1.00  0.00     0.020 A 
ATOM     77  C   UNL A   1      43.643  43.430  33.517  1.00  0.00     0.054 A 
BRANCH  77  78
ATOM     78  S   UNL A   1      43.257  45.175  33.203  1.00  0.00     0.124 S 
ATOM     79  O   UNL A   1      44.210  45.868  34.066  1.00  0.00    -0.237 OA
ATOM     80  O   UNL A   1      43.497  45.302  31.768  1.00  0.00    -0.237 OA
ATOM     81  O   UNL A   1      41.857  45.299  33.605  1.00  0.00    -0.744 OA
ENDBRANCH  77  78
ENDBRANCH  58  72
BRANCH  59  82
ATOM     82  C   UNL A   1      43.980  31.024  36.362  1.00  0.00    -0.014 A 
ATOM     83  C   UNL A   1      42.753  30.512  36.844  1.00  0.00     0.010 A 
ATOM     84  C   UNL A   1      44.477  30.544  35.134  1.00  0.00     0.010 A 
ATOM     85  C   UNL A   1      41.910  29.788  35.999  1.00  0.00     0.020 A 
ATOM     86  C   UNL A   1      43.628  29.815  34.282  1.00  0.00     0.020 A 
ATOM     87  C   UNL A   1      42.321  29.524  34.693  1.00  0.00     0.054 A 
BRANCH  87  88
ATOM     88  S   UNL A   1      41.034  29.122  33.461  1.00  0.00     0.124 S 
ATOM     89  O   UNL A   1      40.481  27.879  33.985  1.00  0.00    -0.237 OA
ATOM     90  O   UNL A   1      40.150  30.288  33.529  1.00  0.00    -0.237 OA
ATOM     91  O   UNL A   1      41.788  29.010  32.216  1.00  0.00    -0.744 OA
ENDBRANCH  87  88
ENDBRANCH  59  82
BRANCH  71  92
ATOM     92  C   UNL A   1      48.693  36.683  37.086  1.00  0.00    -0.014 A 
ATOM     93  C   UNL A   1      49.666  36.412  36.113  1.00  0.00     0.010 A 
ATOM     94  C   UNL A   1      49.018  37.652  38.068  1.00  0.00     0.010 A 
ATOM     95  C   UNL A   1      50.910  37.058  36.129  1.00  0.00     0.020 A 
ATOM     96  C   UNL A   1      50.238  38.333  38.068  1.00  0.00     0.020 A 
ATOM     97  C   UNL A   1      51.184  38.020  37.101  1.00  0.00     0.054 A 
BRANCH  97  98
ATOM     98  S   UNL A   1      52.745  38.933  37.028  1.00  0.00     0.124 S 
ATOM     99  O   UNL A   1      53.722  37.876  37.273  1.00  0.00    -0.237 OA
ATOM    100  O   UNL A   1      52.739  39.476  35.670  1.00  0.00    -0.237 OA
ATOM    101  O   UNL A   1      52.614  39.929  38.088  1.00  0.00    -0.744 OA
ENDBRANCH  97  98
ENDBRANCH  71  92
ENDBRANCH  45  46
ENDBRANCH  38  40
ENDBRANCH  37  38
ENDBRANCH  36  37
ENDBRANCH  35  36
ENDBRANCH  34  35
ENDBRANCH  33  34
ENDBRANCH  32  33
ENDBRANCH  31  32
ENDBRANCH  30  31
ENDBRANCH   1  30
TORSDOF 29
ENDMDL
