MODEL 1
REMARK VINA RESULT:      -8.7      0.000      0.000
REMARK SMILES CC(C)=CC[C@@]1(C(=O)OCCOCCOCCOCCOC(=O)c2ccc(-c3c4nc(c(-c5ccc(S(=O)(=O)[O-])cc5)c5ccc([nH]5)c(-c5ccc(S(=O)(=O)[O-])cc5)c5nc(c(-c6ccc(S(=O)(=O)[O-])cc6)c6ccc3[nH]6)C=C5)C=C4)cc2)CCC[C@H](C)C1
REMARK SMILES IDX 16 1 15 2 14 3 13 4 12 5 11 6 10 7 9 8 7 9 8 10 6 11 84 12
REMARK SMILES IDX 89 13 85 14 87 15 86 16 88 17 5 18 4 19 1 20 2 21 3 22 17 23
REMARK SMILES IDX 18 24 19 25 20 26 21 27 22 28 23 29 24 30 25 31 83 32 26 33
REMARK SMILES IDX 82 34 27 35 28 36 29 37 76 38 30 39 81 40 75 41 77 42 31 43
REMARK SMILES IDX 80 44 74 45 73 46 32 48 62 49 43 50 61 51 44 52 47 53 60 54
REMARK SMILES IDX 78 55 45 56 46 57 59 59 79 60 48 61 33 62 34 63 42 64 35 65
REMARK SMILES IDX 41 66 36 67 37 68 38 69 39 70 40 71 63 72 64 73 72 74 65 75
REMARK SMILES IDX 71 76 66 77 67 78 68 79 69 80 70 81 49 82 50 83 58 84 51 85
REMARK SMILES IDX 57 86 52 87 53 88 54 89 55 90 56 91
REMARK H PARENT 77 47 47 58
REMARK Flexibility Score: inf
ROOT
ATOM      1  C   UNL A   1      42.276  20.541  26.267  1.00  0.00     0.188 C 
ENDROOT
BRANCH   1   2
ATOM      2  O   UNL A   1      41.498  21.569  26.864  1.00  0.00    -0.377 OA
BRANCH   2   3
ATOM      3  C   UNL A   1      40.086  21.581  26.765  1.00  0.00     0.188 C 
BRANCH   3   4
ATOM      4  C   UNL A   1      39.317  22.873  26.469  1.00  0.00     0.188 C 
BRANCH   4   5
ATOM      5  O   UNL A   1      38.234  22.686  25.577  1.00  0.00    -0.376 OA
BRANCH   5   6
ATOM      6  C   UNL A   1      37.259  23.706  25.540  1.00  0.00     0.202 C 
BRANCH   6   7
ATOM      7  C   UNL A   1      36.038  23.515  26.449  1.00  0.00     0.261 C 
BRANCH   7   8
ATOM      8  O   UNL A   1      35.466  22.201  26.501  1.00  0.00    -0.463 OA
BRANCH   8   9
ATOM      9  C   UNL A   1      34.175  22.075  26.140  1.00  0.00     0.312 C 
ATOM     10  O   UNL A   1      33.252  22.454  26.859  1.00  0.00    -0.252 OA
BRANCH   9  11
ATOM     11  C   UNL A   1      33.948  21.308  24.814  1.00  0.00     0.072 C 
ATOM     12  C   UNL A   1      32.414  21.004  24.762  1.00  0.00     0.019 C 
ATOM     13  C   UNL A   1      34.741  19.985  25.012  1.00  0.00     0.022 C 
ATOM     14  C   UNL A   1      32.034  19.880  23.806  1.00  0.00     0.001 C 
ATOM     15  C   UNL A   1      34.290  18.801  24.140  1.00  0.00    -0.013 C 
ATOM     16  C   UNL A   1      32.770  18.605  24.177  1.00  0.00     0.003 C 
ATOM     17  C   UNL A   1      34.994  17.516  24.591  1.00  0.00     0.007 C 
BRANCH  11  18
ATOM     18  C   UNL A   1      34.328  21.995  23.451  1.00  0.00     0.046 C 
BRANCH  18  19
ATOM     19  C   UNL A   1      34.342  23.490  23.275  1.00  0.00    -0.027 C 
ATOM     20  C   UNL A   1      31.874  23.966  23.102  1.00  0.00     0.039 C 
ATOM     21  C   UNL A   1      33.316  24.360  23.190  1.00  0.00    -0.080 C 
ATOM     22  C   UNL A   1      33.612  25.839  23.266  1.00  0.00     0.039 C 
ENDBRANCH  18  19
ENDBRANCH  11  18
ENDBRANCH   9  11
ENDBRANCH   8   9
ENDBRANCH   7   8
ENDBRANCH   6   7
ENDBRANCH   5   6
ENDBRANCH   4   5
ENDBRANCH   3   4
ENDBRANCH   2   3
ENDBRANCH   1   2
BRANCH   1  23
ATOM     23  C   UNL A   1      43.594  20.908  25.561  1.00  0.00     0.188 C 
BRANCH  23  24
ATOM     24  O   UNL A   1      44.402  21.957  26.080  1.00  0.00    -0.376 OA
BRANCH  24  25
ATOM     25  C   UNL A   1      43.810  23.218  26.343  1.00  0.00     0.202 C 
BRANCH  25  26
ATOM     26  C   UNL A   1      43.406  24.075  25.145  1.00  0.00     0.261 C 
BRANCH  26  27
ATOM     27  O   UNL A   1      43.321  25.477  25.438  1.00  0.00    -0.460 OA
BRANCH  27  28
ATOM     28  C   UNL A   1      42.103  25.910  25.813  1.00  0.00     0.338 C 
ATOM     29  O   UNL A   1      41.040  25.752  25.202  1.00  0.00    -0.246 OA
BRANCH  28  30
ATOM     30  C   UNL A   1      42.156  26.517  27.149  1.00  0.00     0.060 A 
ATOM     31  C   UNL A   1      41.221  26.101  28.106  1.00  0.00     0.016 A 
ATOM     32  C   UNL A   1      43.038  27.566  27.425  1.00  0.00     0.016 A 
ATOM     33  C   UNL A   1      41.112  26.784  29.314  1.00  0.00     0.010 A 
ATOM     34  C   UNL A   1      42.919  28.256  28.634  1.00  0.00     0.010 A 
ATOM     35  C   UNL A   1      41.922  27.899  29.558  1.00  0.00    -0.014 A 
BRANCH  35  36
ATOM     36  C   UNL A   1      41.586  28.811  30.675  1.00  0.00     0.031 A 
ATOM     37  C   UNL A   1      42.420  28.748  31.928  1.00  0.00     0.074 A 
ATOM     38  C   UNL A   1      40.582  29.698  30.567  1.00  0.00     0.049 A 
ATOM     39  N   UNL A   1      42.295  29.422  33.042  1.00  0.00    -0.248 NA
ATOM     40  C   UNL A   1      43.544  27.796  31.924  1.00  0.00     0.031 C 
ATOM     41  C   UNL A   1      39.742  29.882  29.385  1.00  0.00     0.029 A 
ATOM     42  N   UNL A   1      40.099  30.608  31.471  1.00  0.00    -0.354 N 
ATOM     43  C   UNL A   1      43.314  28.969  33.873  1.00  0.00     0.074 A 
ATOM     44  C   UNL A   1      44.031  27.944  33.147  1.00  0.00     0.031 C 
ATOM     45  C   UNL A   1      38.837  30.845  29.641  1.00  0.00     0.029 A 
ATOM     46  C   UNL A   1      39.015  31.316  31.013  1.00  0.00     0.049 A 
ATOM     47  H   UNL A   1      40.492  30.741  32.364  1.00  0.00     0.167 HD
ATOM     48  C   UNL A   1      43.628  29.374  35.127  1.00  0.00     0.031 A 
ATOM     49  C   UNL A   1      38.243  32.226  31.640  1.00  0.00     0.031 A 
ATOM     50  C   UNL A   1      42.902  30.385  35.847  1.00  0.00     0.049 A 
ATOM     51  C   UNL A   1      38.566  32.610  33.060  1.00  0.00     0.074 A 
ATOM     52  C   UNL A   1      43.140  30.876  37.118  1.00  0.00     0.029 A 
ATOM     53  N   UNL A   1      41.788  31.054  35.361  1.00  0.00    -0.354 N 
ATOM     54  N   UNL A   1      39.543  32.185  33.827  1.00  0.00    -0.248 NA
ATOM     55  C   UNL A   1      37.689  33.602  33.696  1.00  0.00     0.031 C 
ATOM     56  C   UNL A   1      42.136  31.801  37.422  1.00  0.00     0.029 A 
ATOM     57  C   UNL A   1      41.312  31.935  36.316  1.00  0.00     0.049 A 
ATOM     58  H   UNL A   1      41.395  30.923  34.468  1.00  0.00     0.167 HD
ATOM     59  C   UNL A   1      39.415  32.881  35.026  1.00  0.00     0.074 A 
ATOM     60  C   UNL A   1      38.274  33.762  34.875  1.00  0.00     0.031 C 
ATOM     61  C   UNL A   1      40.173  32.803  36.148  1.00  0.00     0.031 A 
BRANCH  48  62
ATOM     62  C   UNL A   1      44.783  28.691  35.811  1.00  0.00    -0.014 A 
ATOM     63  C   UNL A   1      46.080  29.236  35.779  1.00  0.00     0.010 A 
ATOM     64  C   UNL A   1      44.562  27.498  36.524  1.00  0.00     0.010 A 
ATOM     65  C   UNL A   1      47.139  28.582  36.415  1.00  0.00     0.020 A 
ATOM     66  C   UNL A   1      45.613  26.856  37.185  1.00  0.00     0.020 A 
ATOM     67  C   UNL A   1      46.899  27.394  37.112  1.00  0.00     0.054 A 
BRANCH  67  68
ATOM     68  S   UNL A   1      48.288  26.578  37.946  1.00  0.00     0.124 S 
ATOM     69  O   UNL A   1      47.732  25.258  38.236  1.00  0.00    -0.237 OA
ATOM     70  O   UNL A   1      49.335  26.607  36.928  1.00  0.00    -0.237 OA
ATOM     71  O   UNL A   1      48.535  27.420  39.114  1.00  0.00    -0.744 OA
ENDBRANCH  67  68
ENDBRANCH  48  62
BRANCH  49  72
ATOM     72  C   UNL A   1      37.077  32.822  30.932  1.00  0.00    -0.014 A 
ATOM     73  C   UNL A   1      37.257  33.835  29.974  1.00  0.00     0.010 A 
ATOM     74  C   UNL A   1      35.773  32.371  31.212  1.00  0.00     0.010 A 
ATOM     75  C   UNL A   1      36.155  34.396  29.321  1.00  0.00     0.020 A 
ATOM     76  C   UNL A   1      34.672  32.909  30.541  1.00  0.00     0.020 A 
ATOM     77  C   UNL A   1      34.869  33.926  29.606  1.00  0.00     0.054 A 
BRANCH  77  78
ATOM     78  S   UNL A   1      33.459  34.629  28.705  1.00  0.00     0.124 S 
ATOM     79  O   UNL A   1      32.526  34.927  29.787  1.00  0.00    -0.237 OA
ATOM     80  O   UNL A   1      34.055  35.788  28.045  1.00  0.00    -0.237 OA
ATOM     81  O   UNL A   1      33.055  33.550  27.808  1.00  0.00    -0.744 OA
ENDBRANCH  77  78
ENDBRANCH  49  72
BRANCH  61  82
ATOM     82  C   UNL A   1      39.821  33.721  37.289  1.00  0.00    -0.014 A 
ATOM     83  C   UNL A   1      38.884  33.345  38.268  1.00  0.00     0.010 A 
ATOM     84  C   UNL A   1      40.482  34.957  37.411  1.00  0.00     0.010 A 
ATOM     85  C   UNL A   1      38.589  34.206  39.329  1.00  0.00     0.020 A 
ATOM     86  C   UNL A   1      40.211  35.807  38.486  1.00  0.00     0.020 A 
ATOM     87  C   UNL A   1      39.254  35.432  39.430  1.00  0.00     0.054 A 
BRANCH  87  88
ATOM     88  S   UNL A   1      38.879  36.516  40.836  1.00  0.00     0.124 S 
ATOM     89  O   UNL A   1      38.246  37.656  40.180  1.00  0.00    -0.237 OA
ATOM     90  O   UNL A   1      37.995  35.689  41.653  1.00  0.00    -0.237 OA
ATOM     91  O   UNL A   1      40.189  36.786  41.425  1.00  0.00    -0.744 OA
ENDBRANCH  87  88
ENDBRANCH  61  82
ENDBRANCH  35  36
ENDBRANCH  28  30
ENDBRANCH  27  28
ENDBRANCH  26  27
ENDBRANCH  25  26
ENDBRANCH  24  25
ENDBRANCH  23  24
ENDBRANCH   1  23
TORSDOF 25
ENDMDL
MODEL 2
REMARK VINA RESULT:      -8.6      1.134      2.389
REMARK SMILES CC(C)=CC[C@@]1(C(=O)OCCOCCOCCOCCOC(=O)c2ccc(-c3c4nc(c(-c5ccc(S(=O)(=O)[O-])cc5)c5ccc([nH]5)c(-c5ccc(S(=O)(=O)[O-])cc5)c5nc(c(-c6ccc(S(=O)(=O)[O-])cc6)c6ccc3[nH]6)C=C5)C=C4)cc2)CCC[C@H](C)C1
REMARK SMILES IDX 16 1 15 2 14 3 13 4 12 5 11 6 10 7 9 8 7 9 8 10 6 11 84 12
REMARK SMILES IDX 89 13 85 14 87 15 86 16 88 17 5 18 4 19 1 20 2 21 3 22 17 23
REMARK SMILES IDX 18 24 19 25 20 26 21 27 22 28 23 29 24 30 25 31 83 32 26 33
REMARK SMILES IDX 82 34 27 35 28 36 29 37 76 38 30 39 81 40 75 41 77 42 31 43
REMARK SMILES IDX 80 44 74 45 73 46 32 48 62 49 43 50 61 51 44 52 47 53 60 54
REMARK SMILES IDX 78 55 45 56 46 57 59 59 79 60 48 61 33 62 34 63 42 64 35 65
REMARK SMILES IDX 41 66 36 67 37 68 38 69 39 70 40 71 63 72 64 73 72 74 65 75
REMARK SMILES IDX 71 76 66 77 67 78 68 79 69 80 70 81 49 82 50 83 58 84 51 85
REMARK SMILES IDX 57 86 52 87 53 88 54 89 55 90 56 91
REMARK H PARENT 77 47 47 58
REMARK Flexibility Score: inf
ROOT
ATOM      1  C   UNL A   1      43.095  20.043  25.832  1.00  0.00     0.188 C 
ENDROOT
BRANCH   1   2
ATOM      2  O   UNL A   1      42.031  20.748  26.457  1.00  0.00    -0.377 OA
BRANCH   2   3
ATOM      3  C   UNL A   1      40.689  20.314  26.343  1.00  0.00     0.188 C 
BRANCH   3   4
ATOM      4  C   UNL A   1      39.518  21.293  26.489  1.00  0.00     0.188 C 
BRANCH   4   5
ATOM      5  O   UNL A   1      38.785  21.468  25.292  1.00  0.00    -0.376 OA
BRANCH   5   6
ATOM      6  C   UNL A   1      37.868  20.450  24.954  1.00  0.00     0.202 C 
BRANCH   6   7
ATOM      7  C   UNL A   1      36.380  20.815  25.044  1.00  0.00     0.261 C 
BRANCH   7   8
ATOM      8  O   UNL A   1      35.987  21.672  26.125  1.00  0.00    -0.463 OA
BRANCH   8   9
ATOM      9  C   UNL A   1      35.927  22.994  25.873  1.00  0.00     0.312 C 
ATOM     10  O   UNL A   1      36.814  23.770  26.226  1.00  0.00    -0.252 OA
BRANCH   9  11
ATOM     11  C   UNL A   1      34.604  23.468  25.223  1.00  0.00     0.072 C 
ATOM     12  C   UNL A   1      34.961  23.790  23.734  1.00  0.00     0.019 C 
ATOM     13  C   UNL A   1      34.269  24.782  25.982  1.00  0.00     0.022 C 
ATOM     14  C   UNL A   1      33.953  24.694  23.035  1.00  0.00     0.001 C 
ATOM     15  C   UNL A   1      33.348  25.765  25.238  1.00  0.00    -0.013 C 
ATOM     16  C   UNL A   1      33.805  26.001  23.795  1.00  0.00     0.003 C 
ATOM     17  C   UNL A   1      33.283  27.099  25.991  1.00  0.00     0.007 C 
BRANCH  11  18
ATOM     18  C   UNL A   1      33.366  22.498  25.200  1.00  0.00     0.046 C 
BRANCH  18  19
ATOM     19  C   UNL A   1      32.208  22.641  26.153  1.00  0.00    -0.027 C 
ATOM     20  C   UNL A   1      30.517  23.773  24.669  1.00  0.00     0.039 C 
ATOM     21  C   UNL A   1      30.967  23.118  25.938  1.00  0.00    -0.080 C 
ATOM     22  C   UNL A   1      29.919  22.918  27.008  1.00  0.00     0.039 C 
ENDBRANCH  18  19
ENDBRANCH  11  18
ENDBRANCH   9  11
ENDBRANCH   8   9
ENDBRANCH   7   8
ENDBRANCH   6   7
ENDBRANCH   5   6
ENDBRANCH   4   5
ENDBRANCH   3   4
ENDBRANCH   2   3
ENDBRANCH   1   2
BRANCH   1  23
ATOM     23  C   UNL A   1      44.205  20.834  25.117  1.00  0.00     0.188 C 
BRANCH  23  24
ATOM     24  O   UNL A   1      44.883  21.877  25.807  1.00  0.00    -0.376 OA
BRANCH  24  25
ATOM     25  C   UNL A   1      44.123  22.885  26.451  1.00  0.00     0.202 C 
BRANCH  25  26
ATOM     26  C   UNL A   1      43.379  23.886  25.569  1.00  0.00     0.261 C 
BRANCH  26  27
ATOM     27  O   UNL A   1      43.855  25.233  25.693  1.00  0.00    -0.460 OA
BRANCH  27  28
ATOM     28  C   UNL A   1      42.895  26.168  25.825  1.00  0.00     0.338 C 
ATOM     29  O   UNL A   1      42.016  26.450  25.003  1.00  0.00    -0.246 OA
BRANCH  28  30
ATOM     30  C   UNL A   1      42.933  26.766  27.167  1.00  0.00     0.060 A 
ATOM     31  C   UNL A   1      42.105  26.226  28.159  1.00  0.00     0.016 A 
ATOM     32  C   UNL A   1      43.688  27.916  27.418  1.00  0.00     0.016 A 
ATOM     33  C   UNL A   1      41.968  26.878  29.381  1.00  0.00     0.010 A 
ATOM     34  C   UNL A   1      43.540  28.575  28.640  1.00  0.00     0.010 A 
ATOM     35  C   UNL A   1      42.640  28.086  29.604  1.00  0.00    -0.014 A 
BRANCH  35  36
ATOM     36  C   UNL A   1      42.244  28.937  30.748  1.00  0.00     0.031 A 
ATOM     37  C   UNL A   1      43.066  28.872  32.009  1.00  0.00     0.074 A 
ATOM     38  C   UNL A   1      41.197  29.775  30.658  1.00  0.00     0.049 A 
ATOM     39  N   UNL A   1      42.894  29.497  33.145  1.00  0.00    -0.248 NA
ATOM     40  C   UNL A   1      44.237  27.980  31.986  1.00  0.00     0.031 C 
ATOM     41  C   UNL A   1      40.362  29.958  29.472  1.00  0.00     0.029 A 
ATOM     42  N   UNL A   1      40.657  30.625  31.588  1.00  0.00    -0.354 N 
ATOM     43  C   UNL A   1      43.925  29.067  33.972  1.00  0.00     0.074 A 
ATOM     44  C   UNL A   1      44.702  28.108  33.220  1.00  0.00     0.031 C 
ATOM     45  C   UNL A   1      39.406  30.863  29.750  1.00  0.00     0.029 A 
ATOM     46  C   UNL A   1      39.543  31.293  31.141  1.00  0.00     0.049 A 
ATOM     47  H   UNL A   1      41.032  30.746  32.490  1.00  0.00     0.167 HD
ATOM     48  C   UNL A   1      44.203  29.442  35.244  1.00  0.00     0.031 A 
ATOM     49  C   UNL A   1      38.717  32.138  31.789  1.00  0.00     0.031 A 
ATOM     50  C   UNL A   1      43.416  30.387  35.990  1.00  0.00     0.049 A 
ATOM     51  C   UNL A   1      39.004  32.486  33.227  1.00  0.00     0.074 A 
ATOM     52  C   UNL A   1      43.614  30.843  37.281  1.00  0.00     0.029 A 
ATOM     53  N   UNL A   1      42.275  31.015  35.514  1.00  0.00    -0.354 N 
ATOM     54  N   UNL A   1      39.992  32.085  33.991  1.00  0.00    -0.248 NA
ATOM     55  C   UNL A   1      38.069  33.408  33.886  1.00  0.00     0.031 C 
ATOM     56  C   UNL A   1      42.560  31.704  37.605  1.00  0.00     0.029 A 
ATOM     57  C   UNL A   1      41.743  31.836  36.493  1.00  0.00     0.049 A 
ATOM     58  H   UNL A   1      41.900  30.897  34.611  1.00  0.00     0.167 HD
ATOM     59  C   UNL A   1      39.815  32.729  35.212  1.00  0.00     0.074 A 
ATOM     60  C   UNL A   1      38.631  33.555  35.078  1.00  0.00     0.031 C 
ATOM     61  C   UNL A   1      40.562  32.650  36.341  1.00  0.00     0.031 A 
BRANCH  48  62
ATOM     62  C   UNL A   1      45.384  28.795  35.919  1.00  0.00    -0.014 A 
ATOM     63  C   UNL A   1      45.246  27.599  36.648  1.00  0.00     0.010 A 
ATOM     64  C   UNL A   1      46.659  29.376  35.796  1.00  0.00     0.010 A 
ATOM     65  C   UNL A   1      46.354  27.019  37.272  1.00  0.00     0.020 A 
ATOM     66  C   UNL A   1      47.774  28.784  36.395  1.00  0.00     0.020 A 
ATOM     67  C   UNL A   1      47.612  27.617  37.144  1.00  0.00     0.054 A 
BRANCH  67  68
ATOM     68  S   UNL A   1      49.036  26.832  37.947  1.00  0.00     0.124 S 
ATOM     69  O   UNL A   1      50.121  27.163  37.027  1.00  0.00    -0.237 OA
ATOM     70  O   UNL A   1      49.084  27.503  39.242  1.00  0.00    -0.237 OA
ATOM     71  O   UNL A   1      48.671  25.417  37.995  1.00  0.00    -0.744 OA
ENDBRANCH  67  68
ENDBRANCH  48  62
BRANCH  49  72
ATOM     72  C   UNL A   1      37.531  32.699  31.088  1.00  0.00    -0.014 A 
ATOM     73  C   UNL A   1      37.646  33.841  30.276  1.00  0.00     0.010 A 
ATOM     74  C   UNL A   1      36.271  32.085  31.226  1.00  0.00     0.010 A 
ATOM     75  C   UNL A   1      36.523  34.367  29.628  1.00  0.00     0.020 A 
ATOM     76  C   UNL A   1      35.153  32.590  30.558  1.00  0.00     0.020 A 
ATOM     77  C   UNL A   1      35.285  33.734  29.770  1.00  0.00     0.054 A 
BRANCH  77  78
ATOM     78  S   UNL A   1      33.853  34.401  28.875  1.00  0.00     0.124 S 
ATOM     79  O   UNL A   1      33.465  33.271  28.038  1.00  0.00    -0.237 OA
ATOM     80  O   UNL A   1      32.932  34.734  29.959  1.00  0.00    -0.237 OA
ATOM     81  O   UNL A   1      34.403  35.551  28.161  1.00  0.00    -0.744 OA
ENDBRANCH  77  78
ENDBRANCH  49  72
BRANCH  61  82
ATOM     82  C   UNL A   1      40.150  33.505  37.510  1.00  0.00    -0.014 A 
ATOM     83  C   UNL A   1      40.748  34.754  37.750  1.00  0.00     0.010 A 
ATOM     84  C   UNL A   1      39.106  33.072  38.349  1.00  0.00     0.010 A 
ATOM     85  C   UNL A   1      40.334  35.539  38.830  1.00  0.00     0.020 A 
ATOM     86  C   UNL A   1      38.669  33.866  39.412  1.00  0.00     0.020 A 
ATOM     87  C   UNL A   1      39.298  35.089  39.655  1.00  0.00     0.054 A 
BRANCH  87  88
ATOM     88  S   UNL A   1      38.754  36.141  41.028  1.00  0.00     0.124 S 
ATOM     89  O   UNL A   1      38.446  37.395  40.346  1.00  0.00    -0.237 OA
ATOM     90  O   UNL A   1      37.603  35.413  41.555  1.00  0.00    -0.237 OA
ATOM     91  O   UNL A   1      39.916  36.184  41.914  1.00  0.00    -0.744 OA
ENDBRANCH  87  88
ENDBRANCH  61  82
ENDBRANCH  35  36
ENDBRANCH  28  30
ENDBRANCH  27  28
ENDBRANCH  26  27
ENDBRANCH  25  26
ENDBRANCH  24  25
ENDBRANCH  23  24
ENDBRANCH   1  23
TORSDOF 25
ENDMDL
MODEL 3
REMARK VINA RESULT:      -8.3      5.962      9.746
REMARK SMILES CC(C)=CC[C@@]1(C(=O)OCCOCCOCCOCCOC(=O)c2ccc(-c3c4nc(c(-c5ccc(S(=O)(=O)[O-])cc5)c5ccc([nH]5)c(-c5ccc(S(=O)(=O)[O-])cc5)c5nc(c(-c6ccc(S(=O)(=O)[O-])cc6)c6ccc3[nH]6)C=C5)C=C4)cc2)CCC[C@H](C)C1
REMARK SMILES IDX 16 1 15 2 14 3 13 4 12 5 11 6 10 7 9 8 7 9 8 10 6 11 84 12
REMARK SMILES IDX 89 13 85 14 87 15 86 16 88 17 5 18 4 19 1 20 2 21 3 22 17 23
REMARK SMILES IDX 18 24 19 25 20 26 21 27 22 28 23 29 24 30 25 31 83 32 26 33
REMARK SMILES IDX 82 34 27 35 28 36 29 37 76 38 30 39 81 40 75 41 77 42 31 43
REMARK SMILES IDX 80 44 74 45 73 46 32 48 62 49 43 50 61 51 44 52 47 53 60 54
REMARK SMILES IDX 78 55 45 56 46 57 59 59 79 60 48 61 33 62 34 63 42 64 35 65
REMARK SMILES IDX 41 66 36 67 37 68 38 69 39 70 40 71 63 72 64 73 72 74 65 75
REMARK SMILES IDX 71 76 66 77 67 78 68 79 69 80 70 81 49 82 50 83 58 84 51 85
REMARK SMILES IDX 57 86 52 87 53 88 54 89 55 90 56 91
REMARK H PARENT 77 47 47 58
REMARK Flexibility Score: inf
ROOT
ATOM      1  C   UNL A   1      33.537  31.640  27.398  1.00  0.00     0.188 C 
ENDROOT
BRANCH   1   2
ATOM      2  O   UNL A   1      32.755  30.476  27.171  1.00  0.00    -0.377 OA
BRANCH   2   3
ATOM      3  C   UNL A   1      31.797  30.419  26.131  1.00  0.00     0.188 C 
BRANCH   3   4
ATOM      4  C   UNL A   1      31.736  29.230  25.165  1.00  0.00     0.188 C 
BRANCH   4   5
ATOM      5  O   UNL A   1      31.495  27.996  25.814  1.00  0.00    -0.376 OA
BRANCH   5   6
ATOM      6  C   UNL A   1      30.621  27.098  25.164  1.00  0.00     0.202 C 
BRANCH   6   7
ATOM      7  C   UNL A   1      30.282  25.808  25.924  1.00  0.00     0.261 C 
BRANCH   7   8
ATOM      8  O   UNL A   1      31.340  25.201  26.676  1.00  0.00    -0.463 OA
BRANCH   8   9
ATOM      9  C   UNL A   1      31.493  23.867  26.560  1.00  0.00     0.312 C 
ATOM     10  O   UNL A   1      31.011  23.078  27.370  1.00  0.00    -0.252 OA
BRANCH   9  11
ATOM     11  C   UNL A   1      32.424  23.423  25.404  1.00  0.00     0.072 C 
ATOM     12  C   UNL A   1      31.506  23.322  24.141  1.00  0.00     0.019 C 
ATOM     13  C   UNL A   1      32.893  22.004  25.831  1.00  0.00     0.022 C 
ATOM     14  C   UNL A   1      32.087  22.473  23.017  1.00  0.00     0.001 C 
ATOM     15  C   UNL A   1      33.369  21.088  24.691  1.00  0.00    -0.013 C 
ATOM     16  C   UNL A   1      32.384  21.070  23.517  1.00  0.00     0.003 C 
ATOM     17  C   UNL A   1      33.585  19.664  25.214  1.00  0.00     0.007 C 
BRANCH  11  18
ATOM     18  C   UNL A   1      33.649  24.328  25.010  1.00  0.00     0.046 C 
BRANCH  18  19
ATOM     19  C   UNL A   1      35.036  24.092  25.550  1.00  0.00    -0.027 C 
ATOM     20  C   UNL A   1      36.179  23.152  23.512  1.00  0.00     0.039 C 
ATOM     21  C   UNL A   1      36.144  23.656  24.922  1.00  0.00    -0.080 C 
ATOM     22  C   UNL A   1      37.469  23.746  25.642  1.00  0.00     0.039 C 
ENDBRANCH  18  19
ENDBRANCH  11  18
ENDBRANCH   9  11
ENDBRANCH   8   9
ENDBRANCH   7   8
ENDBRANCH   6   7
ENDBRANCH   5   6
ENDBRANCH   4   5
ENDBRANCH   3   4
ENDBRANCH   2   3
ENDBRANCH   1   2
BRANCH   1  23
ATOM     23  C   UNL A   1      34.999  31.488  27.855  1.00  0.00     0.188 C 
BRANCH  23  24
ATOM     24  O   UNL A   1      35.586  30.194  27.917  1.00  0.00    -0.376 OA
BRANCH  24  25
ATOM     25  C   UNL A   1      36.559  29.924  28.911  1.00  0.00     0.202 C 
BRANCH  25  26
ATOM     26  C   UNL A   1      36.766  30.972  30.003  1.00  0.00     0.261 C 
BRANCH  26  27
ATOM     27  O   UNL A   1      35.915  30.796  31.145  1.00  0.00    -0.460 OA
BRANCH  27  28
ATOM     28  C   UNL A   1      35.399  31.931  31.653  1.00  0.00     0.338 C 
ATOM     29  O   UNL A   1      34.482  32.608  31.173  1.00  0.00    -0.246 OA
BRANCH  28  30
ATOM     30  C   UNL A   1      35.990  32.229  32.964  1.00  0.00     0.060 A 
ATOM     31  C   UNL A   1      35.568  33.383  33.637  1.00  0.00     0.016 A 
ATOM     32  C   UNL A   1      37.029  31.447  33.477  1.00  0.00     0.016 A 
ATOM     33  C   UNL A   1      36.237  33.804  34.783  1.00  0.00     0.010 A 
ATOM     34  C   UNL A   1      37.705  31.876  34.620  1.00  0.00     0.010 A 
ATOM     35  C   UNL A   1      37.344  33.083  35.245  1.00  0.00    -0.014 A 
BRANCH  35  36
ATOM     36  C   UNL A   1      38.244  33.698  36.247  1.00  0.00     0.031 A 
ATOM     37  C   UNL A   1      39.409  34.518  35.757  1.00  0.00     0.074 A 
ATOM     38  C   UNL A   1      38.014  33.557  37.564  1.00  0.00     0.049 A 
ATOM     39  N   UNL A   1      40.345  35.123  36.443  1.00  0.00    -0.248 NA
ATOM     40  C   UNL A   1      39.537  34.675  34.298  1.00  0.00     0.031 C 
ATOM     41  C   UNL A   1      36.890  32.829  38.151  1.00  0.00     0.029 A 
ATOM     42  N   UNL A   1      38.719  34.021  38.644  1.00  0.00    -0.354 N 
ATOM     43  C   UNL A   1      41.175  35.721  35.502  1.00  0.00     0.074 A 
ATOM     44  C   UNL A   1      40.651  35.385  34.197  1.00  0.00     0.031 C 
ATOM     45  C   UNL A   1      36.988  32.889  39.492  1.00  0.00     0.029 A 
ATOM     46  C   UNL A   1      38.197  33.628  39.852  1.00  0.00     0.049 A 
ATOM     47  H   UNL A   1      39.524  34.582  38.561  1.00  0.00     0.167 HD
ATOM     48  C   UNL A   1      42.273  36.486  35.706  1.00  0.00     0.031 A 
ATOM     49  C   UNL A   1      38.655  33.826  41.104  1.00  0.00     0.031 A 
ATOM     50  C   UNL A   1      42.796  36.805  37.008  1.00  0.00     0.049 A 
ATOM     51  C   UNL A   1      39.920  34.621  41.305  1.00  0.00     0.074 A 
ATOM     52  C   UNL A   1      43.897  37.578  37.328  1.00  0.00     0.029 A 
ATOM     53  N   UNL A   1      42.258  36.359  38.206  1.00  0.00    -0.354 N 
ATOM     54  N   UNL A   1      40.685  35.194  40.406  1.00  0.00    -0.248 NA
ATOM     55  C   UNL A   1      40.377  34.802  42.689  1.00  0.00     0.031 C 
ATOM     56  C   UNL A   1      44.058  37.553  38.717  1.00  0.00     0.029 A 
ATOM     57  C   UNL A   1      43.019  36.820  39.266  1.00  0.00     0.049 A 
ATOM     58  H   UNL A   1      41.453  35.799  38.290  1.00  0.00     0.167 HD
ATOM     59  C   UNL A   1      41.698  35.830  41.119  1.00  0.00     0.074 A 
ATOM     60  C   UNL A   1      41.438  35.579  42.523  1.00  0.00     0.031 C 
ATOM     61  C   UNL A   1      42.745  36.557  40.658  1.00  0.00     0.031 A 
BRANCH  48  62
ATOM     62  C   UNL A   1      43.004  36.995  34.491  1.00  0.00    -0.014 A 
ATOM     63  C   UNL A   1      42.968  38.355  34.131  1.00  0.00     0.010 A 
ATOM     64  C   UNL A   1      43.765  36.104  33.714  1.00  0.00     0.010 A 
ATOM     65  C   UNL A   1      43.647  38.805  32.995  1.00  0.00     0.020 A 
ATOM     66  C   UNL A   1      44.469  36.554  32.594  1.00  0.00     0.020 A 
ATOM     67  C   UNL A   1      44.392  37.901  32.232  1.00  0.00     0.054 A 
BRANCH  67  68
ATOM     68  S   UNL A   1      45.282  38.515  30.776  1.00  0.00     0.124 S 
ATOM     69  O   UNL A   1      44.629  37.783  29.693  1.00  0.00    -0.237 OA
ATOM     70  O   UNL A   1      45.010  39.950  30.816  1.00  0.00    -0.237 OA
ATOM     71  O   UNL A   1      46.671  38.140  31.033  1.00  0.00    -0.744 OA
ENDBRANCH  67  68
ENDBRANCH  48  62
BRANCH  49  72
ATOM     72  C   UNL A   1      37.923  33.247  42.262  1.00  0.00    -0.014 A 
ATOM     73  C   UNL A   1      36.936  33.989  42.935  1.00  0.00     0.010 A 
ATOM     74  C   UNL A   1      38.207  31.938  42.696  1.00  0.00     0.010 A 
ATOM     75  C   UNL A   1      36.260  33.439  44.029  1.00  0.00     0.020 A 
ATOM     76  C   UNL A   1      37.514  31.375  43.770  1.00  0.00     0.020 A 
ATOM     77  C   UNL A   1      36.550  32.133  44.436  1.00  0.00     0.054 A 
BRANCH  77  78
ATOM     78  S   UNL A   1      35.620  31.421  45.822  1.00  0.00     0.124 S 
ATOM     79  O   UNL A   1      34.328  32.088  45.695  1.00  0.00    -0.237 OA
ATOM     80  O   UNL A   1      35.631  29.994  45.509  1.00  0.00    -0.237 OA
ATOM     81  O   UNL A   1      36.407  31.800  46.993  1.00  0.00    -0.744 OA
ENDBRANCH  77  78
ENDBRANCH  49  72
BRANCH  61  82
ATOM     82  C   UNL A   1      43.669  37.170  41.677  1.00  0.00    -0.014 A 
ATOM     83  C   UNL A   1      44.820  36.496  42.121  1.00  0.00     0.010 A 
ATOM     84  C   UNL A   1      43.406  38.467  42.157  1.00  0.00     0.010 A 
ATOM     85  C   UNL A   1      45.672  37.094  43.053  1.00  0.00     0.020 A 
ATOM     86  C   UNL A   1      44.271  39.079  43.067  1.00  0.00     0.020 A 
ATOM     87  C   UNL A   1      45.392  38.381  43.521  1.00  0.00     0.054 A 
BRANCH  87  88
ATOM     88  S   UNL A   1      46.533  39.150  44.703  1.00  0.00     0.124 S 
ATOM     89  O   UNL A   1      45.637  39.515  45.797  1.00  0.00    -0.237 OA
ATOM     90  O   UNL A   1      47.471  38.069  44.993  1.00  0.00    -0.237 OA
ATOM     91  O   UNL A   1      47.097  40.275  43.960  1.00  0.00    -0.744 OA
ENDBRANCH  87  88
ENDBRANCH  61  82
ENDBRANCH  35  36
ENDBRANCH  28  30
ENDBRANCH  27  28
ENDBRANCH  26  27
ENDBRANCH  25  26
ENDBRANCH  24  25
ENDBRANCH  23  24
ENDBRANCH   1  23
TORSDOF 25
ENDMDL
