MODEL 1
REMARK VINA RESULT:     -11.0      0.000      0.000
REMARK SMILES O=C(OCCOCCOCCOCCOC(=O)c1ccn(-c2cc(-c3ccncc3)nc(-c3ccccc3F)n2)n1)c1ccc(-c2c3nc(c(-c4ccc(S(=O)(=O)[O-])cc4)c4ccc([nH]4)c(-c4ccc(S(=O)(=O)[O-])cc4)c4nc(c(-c5ccc(S(=O)(=O)[O-])cc5)c5ccc2[nH]5)C=C4)C=C3)cc1
REMARK SMILES IDX 8 1 7 2 6 3 5 4 4 5 3 6 2 7 1 8 42 9 43 10 101 11 44 12
REMARK SMILES IDX 100 13 45 14 46 15 47 16 94 17 48 18 99 19 93 20 95 21 49 22
REMARK SMILES IDX 98 23 92 24 91 25 50 27 80 28 61 29 79 30 62 31 65 32 78 33
REMARK SMILES IDX 96 34 63 35 64 36 77 38 97 39 66 40 51 41 52 42 60 43 53 44
REMARK SMILES IDX 59 45 54 46 55 47 56 48 57 49 58 50 81 51 82 52 90 53 83 54
REMARK SMILES IDX 89 55 84 56 85 57 86 58 87 59 88 60 67 61 68 62 76 63 69 64
REMARK SMILES IDX 75 65 70 66 71 67 72 68 73 69 74 70 9 71 10 72 11 73 12 74
REMARK SMILES IDX 13 75 14 76 15 77 16 78 17 79 18 80 19 81 41 82 20 83 21 84
REMARK SMILES IDX 22 85 23 86 40 87 24 88 32 89 31 90 25 91 26 92 30 93 27 94
REMARK SMILES IDX 29 95 28 96 33 97 34 98 38 99 35 100 37 101 39 102 36 103
REMARK H PARENT 95 26 65 37
REMARK Flexibility Score: inf
ROOT
ATOM      1  C   UNL A   1      34.080  22.943  27.170  1.00  0.00     0.188 C 
ENDROOT
BRANCH   1   2
ATOM      2  C   UNL A   1      35.419  22.824  26.415  1.00  0.00     0.188 C 
BRANCH   2   3
ATOM      3  O   UNL A   1      35.825  21.502  26.124  1.00  0.00    -0.376 OA
BRANCH   3   4
ATOM      4  C   UNL A   1      36.870  21.129  25.248  1.00  0.00     0.202 C 
BRANCH   4   5
ATOM      5  C   UNL A   1      38.349  21.488  25.436  1.00  0.00     0.261 C 
BRANCH   5   6
ATOM      6  O   UNL A   1      38.690  22.333  26.531  1.00  0.00    -0.460 OA
BRANCH   6   7
ATOM      7  C   UNL A   1      39.887  22.588  27.090  1.00  0.00     0.338 C 
ATOM      8  O   UNL A   1      40.558  21.637  27.488  1.00  0.00    -0.246 OA
BRANCH   7   9
ATOM      9  C   UNL A   1      40.346  23.963  27.420  1.00  0.00     0.060 A 
ATOM     10  C   UNL A   1      41.545  24.300  28.049  1.00  0.00     0.016 A 
ATOM     11  C   UNL A   1      39.445  24.990  27.074  1.00  0.00     0.016 A 
ATOM     12  C   UNL A   1      41.786  25.608  28.432  1.00  0.00     0.010 A 
ATOM     13  C   UNL A   1      39.682  26.301  27.454  1.00  0.00     0.010 A 
ATOM     14  C   UNL A   1      40.816  26.582  28.205  1.00  0.00    -0.014 A 
BRANCH  14  15
ATOM     15  C   UNL A   1      40.982  27.837  28.920  1.00  0.00     0.031 A 
ATOM     16  C   UNL A   1      42.083  28.728  28.481  1.00  0.00     0.074 A 
ATOM     17  C   UNL A   1      40.182  28.143  29.958  1.00  0.00     0.049 A 
ATOM     18  N   UNL A   1      43.129  29.099  29.148  1.00  0.00    -0.248 NA
ATOM     19  C   UNL A   1      42.048  29.206  27.093  1.00  0.00     0.031 C 
ATOM     20  C   UNL A   1      38.929  27.494  30.360  1.00  0.00     0.029 A 
ATOM     21  N   UNL A   1      40.285  29.183  30.826  1.00  0.00    -0.354 N 
ATOM     22  C   UNL A   1      43.809  29.994  28.327  1.00  0.00     0.074 A 
ATOM     23  C   UNL A   1      43.162  29.938  27.037  1.00  0.00     0.031 C 
ATOM     24  C   UNL A   1      38.274  28.297  31.227  1.00  0.00     0.029 A 
ATOM     25  C   UNL A   1      39.130  29.425  31.550  1.00  0.00     0.049 A 
ATOM     26  H   UNL A   1      41.106  29.717  30.930  1.00  0.00     0.167 HD
ATOM     27  C   UNL A   1      44.754  30.857  28.793  1.00  0.00     0.031 A 
ATOM     28  C   UNL A   1      38.861  30.523  32.294  1.00  0.00     0.031 A 
ATOM     29  C   UNL A   1      45.264  30.478  30.081  1.00  0.00     0.049 A 
ATOM     30  C   UNL A   1      40.155  31.160  32.636  1.00  0.00     0.074 A 
ATOM     31  C   UNL A   1      45.976  29.396  30.560  1.00  0.00     0.029 A 
ATOM     32  N   UNL A   1      44.759  31.115  31.188  1.00  0.00    -0.354 N 
ATOM     33  N   UNL A   1      41.043  30.611  33.418  1.00  0.00    -0.248 NA
ATOM     34  C   UNL A   1      40.659  32.221  31.777  1.00  0.00     0.031 C 
ATOM     35  C   UNL A   1      45.468  29.170  31.872  1.00  0.00     0.029 A 
ATOM     36  C   UNL A   1      44.506  30.148  32.131  1.00  0.00     0.049 A 
ATOM     37  H   UNL A   1      44.606  32.082  31.287  1.00  0.00     0.167 HD
ATOM     38  C   UNL A   1      42.271  30.957  32.872  1.00  0.00     0.074 A 
ATOM     39  C   UNL A   1      41.973  32.036  31.934  1.00  0.00     0.031 C 
ATOM     40  C   UNL A   1      43.370  30.160  33.033  1.00  0.00     0.031 A 
BRANCH  27  41
ATOM     41  C   UNL A   1      44.990  32.217  28.189  1.00  0.00    -0.014 A 
ATOM     42  C   UNL A   1      46.259  32.555  27.679  1.00  0.00     0.010 A 
ATOM     43  C   UNL A   1      44.057  33.265  28.333  1.00  0.00     0.010 A 
ATOM     44  C   UNL A   1      46.582  33.884  27.360  1.00  0.00     0.020 A 
ATOM     45  C   UNL A   1      44.352  34.581  27.979  1.00  0.00     0.020 A 
ATOM     46  C   UNL A   1      45.627  34.889  27.524  1.00  0.00     0.054 A 
BRANCH  46  47
ATOM     47  S   UNL A   1      46.078  36.614  27.209  1.00  0.00     0.124 S 
ATOM     48  O   UNL A   1      47.121  36.838  28.206  1.00  0.00    -0.237 OA
ATOM     49  O   UNL A   1      46.527  36.572  25.820  1.00  0.00    -0.237 OA
ATOM     50  O   UNL A   1      44.831  37.341  27.433  1.00  0.00    -0.744 OA
ENDBRANCH  46  47
ENDBRANCH  27  41
BRANCH  28  51
ATOM     51  C   UNL A   1      37.555  31.217  32.375  1.00  0.00    -0.014 A 
ATOM     52  C   UNL A   1      37.218  32.008  33.486  1.00  0.00     0.010 A 
ATOM     53  C   UNL A   1      36.740  31.312  31.226  1.00  0.00     0.010 A 
ATOM     54  C   UNL A   1      36.136  32.900  33.428  1.00  0.00     0.020 A 
ATOM     55  C   UNL A   1      35.656  32.190  31.164  1.00  0.00     0.020 A 
ATOM     56  C   UNL A   1      35.374  32.999  32.260  1.00  0.00     0.054 A 
BRANCH  56  57
ATOM     57  S   UNL A   1      34.092  34.280  32.131  1.00  0.00     0.124 S 
ATOM     58  O   UNL A   1      34.793  35.469  32.607  1.00  0.00    -0.237 OA
ATOM     59  O   UNL A   1      33.769  34.261  30.707  1.00  0.00    -0.237 OA
ATOM     60  O   UNL A   1      33.030  33.793  33.009  1.00  0.00    -0.744 OA
ENDBRANCH  56  57
ENDBRANCH  28  51
BRANCH  40  61
ATOM     61  C   UNL A   1      43.290  29.025  34.034  1.00  0.00    -0.014 A 
ATOM     62  C   UNL A   1      43.673  29.162  35.383  1.00  0.00     0.010 A 
ATOM     63  C   UNL A   1      42.668  27.828  33.637  1.00  0.00     0.010 A 
ATOM     64  C   UNL A   1      43.466  28.122  36.300  1.00  0.00     0.020 A 
ATOM     65  C   UNL A   1      42.441  26.794  34.551  1.00  0.00     0.020 A 
ATOM     66  C   UNL A   1      42.848  26.942  35.878  1.00  0.00     0.054 A 
BRANCH  66  67
ATOM     67  S   UNL A   1      42.529  25.624  37.085  1.00  0.00     0.124 S 
ATOM     68  O   UNL A   1      42.240  24.474  36.233  1.00  0.00    -0.237 OA
ATOM     69  O   UNL A   1      43.786  25.556  37.830  1.00  0.00    -0.237 OA
ATOM     70  O   UNL A   1      41.390  26.125  37.855  1.00  0.00    -0.744 OA
ENDBRANCH  66  67
ENDBRANCH  40  61
ENDBRANCH  14  15
ENDBRANCH   7   9
ENDBRANCH   6   7
ENDBRANCH   5   6
ENDBRANCH   4   5
ENDBRANCH   3   4
ENDBRANCH   2   3
ENDBRANCH   1   2
BRANCH   1  71
ATOM     71  O   UNL A   1      33.112  23.805  26.570  1.00  0.00    -0.377 OA
BRANCH  71  72
ATOM     72  C   UNL A   1      31.768  23.512  26.920  1.00  0.00     0.188 C 
BRANCH  72  73
ATOM     73  C   UNL A   1      30.919  22.847  25.808  1.00  0.00     0.188 C 
BRANCH  73  74
ATOM     74  O   UNL A   1      30.975  21.453  25.526  1.00  0.00    -0.376 OA
BRANCH  74  75
ATOM     75  C   UNL A   1      32.206  20.755  25.510  1.00  0.00     0.202 C 
BRANCH  75  76
ATOM     76  C   UNL A   1      33.086  20.800  24.253  1.00  0.00     0.261 C 
BRANCH  76  77
ATOM     77  O   UNL A   1      33.339  22.108  23.723  1.00  0.00    -0.458 OA
BRANCH  77  78
ATOM     78  C   UNL A   1      32.593  22.465  22.638  1.00  0.00     0.358 C 
ATOM     79  O   UNL A   1      31.851  21.710  22.016  1.00  0.00    -0.244 OA
BRANCH  78  80
ATOM     80  C   UNL A   1      32.733  23.894  22.332  1.00  0.00     0.170 A 
ATOM     81  C   UNL A   1      33.118  24.468  21.095  1.00  0.00     0.058 A 
ATOM     82  N   UNL A   1      32.528  24.850  23.265  1.00  0.00    -0.159 NA
ATOM     83  C   UNL A   1      33.010  25.824  21.282  1.00  0.00     0.118 A 
ATOM     84  N   UNL A   1      32.688  26.016  22.604  1.00  0.00    -0.222 N 
BRANCH  84  85
ATOM     85  C   UNL A   1      32.318  27.248  23.190  1.00  0.00     0.158 A 
ATOM     86  C   UNL A   1      31.242  27.948  22.675  1.00  0.00     0.078 A 
ATOM     87  N   UNL A   1      33.015  27.628  24.278  1.00  0.00    -0.209 NA
ATOM     88  C   UNL A   1      30.890  29.089  23.375  1.00  0.00     0.077 A 
ATOM     89  C   UNL A   1      32.641  28.785  24.835  1.00  0.00     0.165 A 
ATOM     90  N   UNL A   1      31.605  29.534  24.432  1.00  0.00    -0.228 NA
BRANCH  88  91
ATOM     91  C   UNL A   1      29.678  29.876  23.102  1.00  0.00     0.003 A 
ATOM     92  C   UNL A   1      28.803  29.535  22.062  1.00  0.00     0.030 A 
ATOM     93  C   UNL A   1      29.303  30.931  23.945  1.00  0.00     0.030 A 
ATOM     94  C   UNL A   1      27.616  30.239  21.922  1.00  0.00     0.111 A 
ATOM     95  C   UNL A   1      28.100  31.583  23.719  1.00  0.00     0.111 A 
ATOM     96  N   UNL A   1      27.247  31.257  22.726  1.00  0.00    -0.265 NA
ENDBRANCH  88  91
BRANCH  89  97
ATOM     97  C   UNL A   1      33.461  29.274  25.928  1.00  0.00     0.055 A 
ATOM     98  C   UNL A   1      34.609  28.572  26.335  1.00  0.00     0.015 A 
ATOM     99  C   UNL A   1      33.111  30.431  26.627  1.00  0.00     0.134 A 
ATOM    100  C   UNL A   1      35.380  29.025  27.408  1.00  0.00     0.001 A 
ATOM    101  C   UNL A   1      33.871  30.884  27.704  1.00  0.00     0.040 A 
ATOM    102  F   UNL A   1      32.004  31.116  26.297  1.00  0.00    -0.206 F 
ATOM    103  C   UNL A   1      35.009  30.180  28.095  1.00  0.00     0.003 A 
ENDBRANCH  89  97
ENDBRANCH  84  85
ENDBRANCH  78  80
ENDBRANCH  77  78
ENDBRANCH  76  77
ENDBRANCH  75  76
ENDBRANCH  74  75
ENDBRANCH  73  74
ENDBRANCH  72  73
ENDBRANCH  71  72
ENDBRANCH   1  71
TORSDOF 26
ENDMDL
MODEL 2
REMARK VINA RESULT:     -10.6      0.973      2.829
REMARK SMILES O=C(OCCOCCOCCOCCOC(=O)c1ccn(-c2cc(-c3ccncc3)nc(-c3ccccc3F)n2)n1)c1ccc(-c2c3nc(c(-c4ccc(S(=O)(=O)[O-])cc4)c4ccc([nH]4)c(-c4ccc(S(=O)(=O)[O-])cc4)c4nc(c(-c5ccc(S(=O)(=O)[O-])cc5)c5ccc2[nH]5)C=C4)C=C3)cc1
REMARK SMILES IDX 8 1 7 2 6 3 5 4 4 5 3 6 2 7 1 8 42 9 43 10 101 11 44 12
REMARK SMILES IDX 100 13 45 14 46 15 47 16 94 17 48 18 99 19 93 20 95 21 49 22
REMARK SMILES IDX 98 23 92 24 91 25 50 27 80 28 61 29 79 30 62 31 65 32 78 33
REMARK SMILES IDX 96 34 63 35 64 36 77 38 97 39 66 40 51 41 52 42 60 43 53 44
REMARK SMILES IDX 59 45 54 46 55 47 56 48 57 49 58 50 81 51 82 52 90 53 83 54
REMARK SMILES IDX 89 55 84 56 85 57 86 58 87 59 88 60 67 61 68 62 76 63 69 64
REMARK SMILES IDX 75 65 70 66 71 67 72 68 73 69 74 70 9 71 10 72 11 73 12 74
REMARK SMILES IDX 13 75 14 76 15 77 16 78 17 79 18 80 19 81 41 82 20 83 21 84
REMARK SMILES IDX 22 85 23 86 40 87 24 88 32 89 31 90 25 91 26 92 30 93 27 94
REMARK SMILES IDX 29 95 28 96 33 97 34 98 38 99 35 100 37 101 39 102 36 103
REMARK H PARENT 95 26 65 37
REMARK Flexibility Score: inf
ROOT
ATOM      1  C   UNL A   1      33.790  22.920  26.991  1.00  0.00     0.188 C 
ENDROOT
BRANCH   1   2
ATOM      2  C   UNL A   1      35.052  22.842  26.110  1.00  0.00     0.188 C 
BRANCH   2   3
ATOM      3  O   UNL A   1      35.699  21.586  26.104  1.00  0.00    -0.376 OA
BRANCH   3   4
ATOM      4  C   UNL A   1      36.750  21.198  25.241  1.00  0.00     0.202 C 
BRANCH   4   5
ATOM      5  C   UNL A   1      38.196  21.696  25.335  1.00  0.00     0.261 C 
BRANCH   5   6
ATOM      6  O   UNL A   1      38.610  22.299  26.557  1.00  0.00    -0.460 OA
BRANCH   6   7
ATOM      7  C   UNL A   1      39.846  22.539  27.031  1.00  0.00     0.338 C 
ATOM      8  O   UNL A   1      40.553  21.577  27.329  1.00  0.00    -0.246 OA
BRANCH   7   9
ATOM      9  C   UNL A   1      40.322  23.901  27.391  1.00  0.00     0.060 A 
ATOM     10  C   UNL A   1      41.507  24.207  28.059  1.00  0.00     0.016 A 
ATOM     11  C   UNL A   1      39.451  24.949  27.032  1.00  0.00     0.016 A 
ATOM     12  C   UNL A   1      41.763  25.506  28.465  1.00  0.00     0.010 A 
ATOM     13  C   UNL A   1      39.701  26.251  27.435  1.00  0.00     0.010 A 
ATOM     14  C   UNL A   1      40.818  26.501  28.222  1.00  0.00    -0.014 A 
BRANCH  14  15
ATOM     15  C   UNL A   1      40.987  27.744  28.957  1.00  0.00     0.031 A 
ATOM     16  C   UNL A   1      42.034  28.679  28.479  1.00  0.00     0.074 A 
ATOM     17  C   UNL A   1      40.237  28.002  30.045  1.00  0.00     0.049 A 
ATOM     18  N   UNL A   1      43.105  29.066  29.097  1.00  0.00    -0.248 NA
ATOM     19  C   UNL A   1      41.909  29.186  27.108  1.00  0.00     0.031 C 
ATOM     20  C   UNL A   1      39.028  27.306  30.499  1.00  0.00     0.029 A 
ATOM     21  N   UNL A   1      40.358  29.025  30.930  1.00  0.00    -0.354 N 
ATOM     22  C   UNL A   1      43.712  29.999  28.261  1.00  0.00     0.074 A 
ATOM     23  C   UNL A   1      42.996  29.952  27.009  1.00  0.00     0.031 C 
ATOM     24  C   UNL A   1      38.400  28.069  31.420  1.00  0.00     0.029 A 
ATOM     25  C   UNL A   1      39.238  29.216  31.722  1.00  0.00     0.049 A 
ATOM     26  H   UNL A   1      41.167  29.582  31.002  1.00  0.00     0.167 HD
ATOM     27  C   UNL A   1      44.656  30.880  28.696  1.00  0.00     0.031 A 
ATOM     28  C   UNL A   1      38.979  30.288  32.507  1.00  0.00     0.031 A 
ATOM     29  C   UNL A   1      45.248  30.488  29.944  1.00  0.00     0.049 A 
ATOM     30  C   UNL A   1      40.271  30.956  32.792  1.00  0.00     0.074 A 
ATOM     31  C   UNL A   1      46.016  29.418  30.357  1.00  0.00     0.029 A 
ATOM     32  N   UNL A   1      44.786  31.084  31.092  1.00  0.00    -0.354 N 
ATOM     33  N   UNL A   1      41.217  30.417  33.511  1.00  0.00    -0.248 NA
ATOM     34  C   UNL A   1      40.696  32.051  31.933  1.00  0.00     0.031 C 
ATOM     35  C   UNL A   1      45.589  29.147  31.689  1.00  0.00     0.029 A 
ATOM     36  C   UNL A   1      44.615  30.090  32.024  1.00  0.00     0.049 A 
ATOM     37  H   UNL A   1      44.611  32.044  31.223  1.00  0.00     0.167 HD
ATOM     38  C   UNL A   1      42.402  30.812  32.906  1.00  0.00     0.074 A 
ATOM     39  C   UNL A   1      42.020  31.903  32.013  1.00  0.00     0.031 C 
ATOM     40  C   UNL A   1      43.531  30.046  32.987  1.00  0.00     0.031 A 
BRANCH  27  41
ATOM     41  C   UNL A   1      44.818  32.260  28.113  1.00  0.00    -0.014 A 
ATOM     42  C   UNL A   1      45.687  32.471  27.024  1.00  0.00     0.010 A 
ATOM     43  C   UNL A   1      44.321  33.406  28.769  1.00  0.00     0.010 A 
ATOM     44  C   UNL A   1      46.061  33.768  26.636  1.00  0.00     0.020 A 
ATOM     45  C   UNL A   1      44.652  34.699  28.365  1.00  0.00     0.020 A 
ATOM     46  C   UNL A   1      45.547  34.873  27.319  1.00  0.00     0.054 A 
BRANCH  46  47
ATOM     47  S   UNL A   1      46.111  36.537  26.882  1.00  0.00     0.124 S 
ATOM     48  O   UNL A   1      44.852  37.206  26.564  1.00  0.00    -0.237 OA
ATOM     49  O   UNL A   1      46.770  36.977  28.108  1.00  0.00    -0.237 OA
ATOM     50  O   UNL A   1      47.003  36.310  25.747  1.00  0.00    -0.744 OA
ENDBRANCH  46  47
ENDBRANCH  27  41
BRANCH  28  51
ATOM     51  C   UNL A   1      37.660  30.940  32.676  1.00  0.00    -0.014 A 
ATOM     52  C   UNL A   1      37.380  31.735  33.799  1.00  0.00     0.010 A 
ATOM     53  C   UNL A   1      36.760  30.991  31.589  1.00  0.00     0.010 A 
ATOM     54  C   UNL A   1      36.266  32.590  33.811  1.00  0.00     0.020 A 
ATOM     55  C   UNL A   1      35.645  31.832  31.598  1.00  0.00     0.020 A 
ATOM     56  C   UNL A   1      35.417  32.647  32.701  1.00  0.00     0.054 A 
BRANCH  56  57
ATOM     57  S   UNL A   1      34.087  33.883  32.653  1.00  0.00     0.124 S 
ATOM     58  O   UNL A   1      33.920  34.103  31.220  1.00  0.00    -0.237 OA
ATOM     59  O   UNL A   1      32.988  33.190  33.320  1.00  0.00    -0.237 OA
ATOM     60  O   UNL A   1      34.641  35.014  33.395  1.00  0.00    -0.744 OA
ENDBRANCH  56  57
ENDBRANCH  28  51
BRANCH  40  61
ATOM     61  C   UNL A   1      43.540  28.887  33.963  1.00  0.00    -0.014 A 
ATOM     62  C   UNL A   1      44.006  29.003  35.288  1.00  0.00     0.010 A 
ATOM     63  C   UNL A   1      42.920  27.685  33.577  1.00  0.00     0.010 A 
ATOM     64  C   UNL A   1      43.881  27.937  36.192  1.00  0.00     0.020 A 
ATOM     65  C   UNL A   1      42.775  26.626  34.479  1.00  0.00     0.020 A 
ATOM     66  C   UNL A   1      43.263  26.753  35.780  1.00  0.00     0.054 A 
BRANCH  66  67
ATOM     67  S   UNL A   1      43.051  25.400  36.973  1.00  0.00     0.124 S 
ATOM     68  O   UNL A   1      42.291  26.037  38.045  1.00  0.00    -0.237 OA
ATOM     69  O   UNL A   1      42.326  24.395  36.199  1.00  0.00    -0.237 OA
ATOM     70  O   UNL A   1      44.422  25.028  37.324  1.00  0.00    -0.744 OA
ENDBRANCH  66  67
ENDBRANCH  40  61
ENDBRANCH  14  15
ENDBRANCH   7   9
ENDBRANCH   6   7
ENDBRANCH   5   6
ENDBRANCH   4   5
ENDBRANCH   3   4
ENDBRANCH   2   3
ENDBRANCH   1   2
BRANCH   1  71
ATOM     71  O   UNL A   1      33.030  24.124  26.870  1.00  0.00    -0.377 OA
BRANCH  71  72
ATOM     72  C   UNL A   1      31.624  23.938  26.911  1.00  0.00     0.188 C 
BRANCH  72  73
ATOM     73  C   UNL A   1      30.925  23.818  25.534  1.00  0.00     0.188 C 
BRANCH  73  74
ATOM     74  O   UNL A   1      30.760  22.575  24.859  1.00  0.00    -0.376 OA
BRANCH  74  75
ATOM     75  C   UNL A   1      31.538  21.444  25.202  1.00  0.00     0.202 C 
BRANCH  75  76
ATOM     76  C   UNL A   1      32.626  20.951  24.237  1.00  0.00     0.261 C 
BRANCH  76  77
ATOM     77  O   UNL A   1      33.344  21.978  23.542  1.00  0.00    -0.458 OA
BRANCH  77  78
ATOM     78  C   UNL A   1      32.773  22.428  22.389  1.00  0.00     0.358 C 
ATOM     79  O   UNL A   1      32.202  21.720  21.564  1.00  0.00    -0.244 OA
BRANCH  78  80
ATOM     80  C   UNL A   1      32.864  23.889  22.274  1.00  0.00     0.170 A 
ATOM     81  C   UNL A   1      33.168  24.636  21.108  1.00  0.00     0.058 A 
ATOM     82  N   UNL A   1      32.690  24.704  23.337  1.00  0.00    -0.159 NA
ATOM     83  C   UNL A   1      33.040  25.950  21.483  1.00  0.00     0.118 A 
ATOM     84  N   UNL A   1      32.788  25.952  22.833  1.00  0.00    -0.222 N 
BRANCH  84  85
ATOM     85  C   UNL A   1      32.424  27.083  23.600  1.00  0.00     0.158 A 
ATOM     86  C   UNL A   1      33.250  27.498  24.629  1.00  0.00     0.078 A 
ATOM     87  N   UNL A   1      31.307  27.733  23.219  1.00  0.00    -0.209 NA
ATOM     88  C   UNL A   1      32.868  28.671  25.256  1.00  0.00     0.077 A 
ATOM     89  C   UNL A   1      30.986  28.812  23.940  1.00  0.00     0.165 A 
ATOM     90  N   UNL A   1      31.720  29.314  24.944  1.00  0.00    -0.228 NA
BRANCH  88  91
ATOM     91  C   UNL A   1      33.693  29.375  26.249  1.00  0.00     0.003 A 
ATOM     92  C   UNL A   1      33.319  30.626  26.757  1.00  0.00     0.030 A 
ATOM     93  C   UNL A   1      34.827  28.765  26.802  1.00  0.00     0.030 A 
ATOM     94  C   UNL A   1      34.071  31.192  27.777  1.00  0.00     0.111 A 
ATOM     95  C   UNL A   1      35.521  29.413  27.812  1.00  0.00     0.111 A 
ATOM     96  N   UNL A   1      35.165  30.614  28.313  1.00  0.00    -0.265 NA
ENDBRANCH  88  91
BRANCH  89  97
ATOM     97  C   UNL A   1      29.720  29.449  23.628  1.00  0.00     0.055 A 
ATOM     98  C   UNL A   1      29.581  30.846  23.702  1.00  0.00     0.015 A 
ATOM     99  C   UNL A   1      28.600  28.691  23.283  1.00  0.00     0.134 A 
ATOM    100  C   UNL A   1      28.355  31.458  23.433  1.00  0.00     0.001 A 
ATOM    101  C   UNL A   1      27.371  29.293  23.021  1.00  0.00     0.040 A 
ATOM    102  F   UNL A   1      28.675  27.351  23.233  1.00  0.00    -0.206 F 
ATOM    103  C   UNL A   1      27.248  30.680  23.095  1.00  0.00     0.003 A 
ENDBRANCH  89  97
ENDBRANCH  84  85
ENDBRANCH  78  80
ENDBRANCH  77  78
ENDBRANCH  76  77
ENDBRANCH  75  76
ENDBRANCH  74  75
ENDBRANCH  73  74
ENDBRANCH  72  73
ENDBRANCH  71  72
ENDBRANCH   1  71
TORSDOF 26
ENDMDL
MODEL 3
REMARK VINA RESULT:      -8.7      7.518     15.669
REMARK SMILES O=C(OCCOCCOCCOCCOC(=O)c1ccn(-c2cc(-c3ccncc3)nc(-c3ccccc3F)n2)n1)c1ccc(-c2c3nc(c(-c4ccc(S(=O)(=O)[O-])cc4)c4ccc([nH]4)c(-c4ccc(S(=O)(=O)[O-])cc4)c4nc(c(-c5ccc(S(=O)(=O)[O-])cc5)c5ccc2[nH]5)C=C4)C=C3)cc1
REMARK SMILES IDX 8 1 7 2 6 3 5 4 4 5 3 6 2 7 1 8 42 9 43 10 101 11 44 12
REMARK SMILES IDX 100 13 45 14 46 15 47 16 94 17 48 18 99 19 93 20 95 21 49 22
REMARK SMILES IDX 98 23 92 24 91 25 50 27 80 28 61 29 79 30 62 31 65 32 78 33
REMARK SMILES IDX 96 34 63 35 64 36 77 38 97 39 66 40 51 41 52 42 60 43 53 44
REMARK SMILES IDX 59 45 54 46 55 47 56 48 57 49 58 50 81 51 82 52 90 53 83 54
REMARK SMILES IDX 89 55 84 56 85 57 86 58 87 59 88 60 67 61 68 62 76 63 69 64
REMARK SMILES IDX 75 65 70 66 71 67 72 68 73 69 74 70 9 71 10 72 11 73 12 74
REMARK SMILES IDX 13 75 14 76 15 77 16 78 17 79 18 80 19 81 41 82 20 83 21 84
REMARK SMILES IDX 22 85 23 86 40 87 24 88 32 89 31 90 25 91 26 92 30 93 27 94
REMARK SMILES IDX 29 95 28 96 33 97 34 98 38 99 35 100 37 101 39 102 36 103
REMARK H PARENT 95 26 65 37
REMARK Flexibility Score: inf
ROOT
ATOM      1  C   UNL A   1      43.917  27.731  33.695  1.00  0.00     0.188 C 
ENDROOT
BRANCH   1   2
ATOM      2  C   UNL A   1      43.912  29.132  34.338  1.00  0.00     0.188 C 
BRANCH   2   3
ATOM      3  O   UNL A   1      44.971  29.380  35.240  1.00  0.00    -0.376 OA
BRANCH   3   4
ATOM      4  C   UNL A   1      45.482  28.467  36.191  1.00  0.00     0.202 C 
BRANCH   4   5
ATOM      5  C   UNL A   1      45.228  28.533  37.701  1.00  0.00     0.261 C 
BRANCH   5   6
ATOM      6  O   UNL A   1      45.636  29.711  38.389  1.00  0.00    -0.460 OA
BRANCH   6   7
ATOM      7  C   UNL A   1      44.943  30.824  38.690  1.00  0.00     0.338 C 
ATOM      8  O   UNL A   1      45.019  31.267  39.835  1.00  0.00    -0.246 OA
BRANCH   7   9
ATOM      9  C   UNL A   1      43.947  31.428  37.766  1.00  0.00     0.060 A 
ATOM     10  C   UNL A   1      42.711  30.881  37.419  1.00  0.00     0.016 A 
ATOM     11  C   UNL A   1      44.338  32.653  37.187  1.00  0.00     0.016 A 
ATOM     12  C   UNL A   1      41.940  31.473  36.433  1.00  0.00     0.010 A 
ATOM     13  C   UNL A   1      43.570  33.249  36.200  1.00  0.00     0.010 A 
ATOM     14  C   UNL A   1      42.415  32.606  35.774  1.00  0.00    -0.014 A 
BRANCH  14  15
ATOM     15  C   UNL A   1      41.732  32.971  34.545  1.00  0.00     0.031 A 
ATOM     16  C   UNL A   1      40.254  33.075  34.593  1.00  0.00     0.074 A 
ATOM     17  C   UNL A   1      42.427  33.167  33.408  1.00  0.00     0.049 A 
ATOM     18  N   UNL A   1      39.378  32.360  33.961  1.00  0.00    -0.248 NA
ATOM     19  C   UNL A   1      39.679  34.052  35.527  1.00  0.00     0.031 C 
ATOM     20  C   UNL A   1      43.877  33.329  33.249  1.00  0.00     0.029 A 
ATOM     21  N   UNL A   1      41.953  33.362  32.151  1.00  0.00    -0.354 N 
ATOM     22  C   UNL A   1      38.137  32.902  34.284  1.00  0.00     0.074 A 
ATOM     23  C   UNL A   1      38.373  33.866  35.333  1.00  0.00     0.031 C 
ATOM     24  C   UNL A   1      44.132  33.835  32.023  1.00  0.00     0.029 A 
ATOM     25  C   UNL A   1      42.889  33.882  31.273  1.00  0.00     0.049 A 
ATOM     26  H   UNL A   1      41.027  33.154  31.887  1.00  0.00     0.167 HD
ATOM     27  C   UNL A   1      37.010  32.658  33.558  1.00  0.00     0.031 A 
ATOM     28  C   UNL A   1      42.644  34.398  30.046  1.00  0.00     0.031 A 
ATOM     29  C   UNL A   1      37.132  31.501  32.717  1.00  0.00     0.049 A 
ATOM     30  C   UNL A   1      41.345  33.856  29.584  1.00  0.00     0.074 A 
ATOM     31  C   UNL A   1      37.310  30.151  32.946  1.00  0.00     0.029 A 
ATOM     32  N   UNL A   1      37.422  31.697  31.388  1.00  0.00    -0.354 N 
ATOM     33  N   UNL A   1      41.149  32.596  29.304  1.00  0.00    -0.248 NA
ATOM     34  C   UNL A   1      40.137  34.628  29.833  1.00  0.00     0.031 C 
ATOM     35  C   UNL A   1      38.147  29.702  31.884  1.00  0.00     0.029 A 
ATOM     36  C   UNL A   1      38.399  30.792  31.049  1.00  0.00     0.049 A 
ATOM     37  H   UNL A   1      37.009  32.362  30.792  1.00  0.00     0.167 HD
ATOM     38  C   UNL A   1      39.859  32.324  29.739  1.00  0.00     0.074 A 
ATOM     39  C   UNL A   1      39.251  33.635  29.950  1.00  0.00     0.031 C 
ATOM     40  C   UNL A   1      39.494  31.070  30.140  1.00  0.00     0.031 A 
BRANCH  27  41
ATOM     41  C   UNL A   1      35.901  33.666  33.405  1.00  0.00    -0.014 A 
ATOM     42  C   UNL A   1      34.557  33.266  33.542  1.00  0.00     0.010 A 
ATOM     43  C   UNL A   1      36.137  34.956  32.886  1.00  0.00     0.010 A 
ATOM     44  C   UNL A   1      33.506  34.110  33.146  1.00  0.00     0.020 A 
ATOM     45  C   UNL A   1      35.100  35.818  32.529  1.00  0.00     0.020 A 
ATOM     46  C   UNL A   1      33.788  35.377  32.631  1.00  0.00     0.054 A 
BRANCH  46  47
ATOM     47  S   UNL A   1      32.437  36.420  32.028  1.00  0.00     0.124 S 
ATOM     48  O   UNL A   1      32.508  36.198  30.587  1.00  0.00    -0.237 OA
ATOM     49  O   UNL A   1      31.275  35.848  32.701  1.00  0.00    -0.237 OA
ATOM     50  O   UNL A   1      32.812  37.760  32.475  1.00  0.00    -0.744 OA
ENDBRANCH  46  47
ENDBRANCH  27  41
BRANCH  28  51
ATOM     51  C   UNL A   1      43.287  35.601  29.467  1.00  0.00    -0.014 A 
ATOM     52  C   UNL A   1      43.674  35.640  28.118  1.00  0.00     0.010 A 
ATOM     53  C   UNL A   1      43.279  36.814  30.188  1.00  0.00     0.010 A 
ATOM     54  C   UNL A   1      43.990  36.861  27.500  1.00  0.00     0.020 A 
ATOM     55  C   UNL A   1      43.602  38.031  29.582  1.00  0.00     0.020 A 
ATOM     56  C   UNL A   1      43.933  38.051  28.232  1.00  0.00     0.054 A 
BRANCH  56  57
ATOM     57  S   UNL A   1      44.168  39.639  27.382  1.00  0.00     0.124 S 
ATOM     58  O   UNL A   1      44.447  40.545  28.491  1.00  0.00    -0.237 OA
ATOM     59  O   UNL A   1      45.293  39.358  26.495  1.00  0.00    -0.237 OA
ATOM     60  O   UNL A   1      42.891  39.859  26.705  1.00  0.00    -0.744 OA
ENDBRANCH  56  57
ENDBRANCH  28  51
BRANCH  40  61
ATOM     61  C   UNL A   1      40.445  29.924  29.859  1.00  0.00    -0.014 A 
ATOM     62  C   UNL A   1      41.498  29.569  30.725  1.00  0.00     0.010 A 
ATOM     63  C   UNL A   1      40.175  29.087  28.761  1.00  0.00     0.010 A 
ATOM     64  C   UNL A   1      42.275  28.426  30.485  1.00  0.00     0.020 A 
ATOM     65  C   UNL A   1      40.933  27.935  28.527  1.00  0.00     0.020 A 
ATOM     66  C   UNL A   1      41.986  27.613  29.385  1.00  0.00     0.054 A 
BRANCH  66  67
ATOM     67  S   UNL A   1      42.958  26.104  29.115  1.00  0.00     0.124 S 
ATOM     68  O   UNL A   1      41.944  25.144  28.688  1.00  0.00    -0.237 OA
ATOM     69  O   UNL A   1      43.912  26.512  28.086  1.00  0.00    -0.237 OA
ATOM     70  O   UNL A   1      43.552  25.834  30.425  1.00  0.00    -0.744 OA
ENDBRANCH  66  67
ENDBRANCH  40  61
ENDBRANCH  14  15
ENDBRANCH   7   9
ENDBRANCH   6   7
ENDBRANCH   5   6
ENDBRANCH   4   5
ENDBRANCH   3   4
ENDBRANCH   2   3
ENDBRANCH   1   2
BRANCH   1  71
ATOM     71  O   UNL A   1      42.924  26.828  34.184  1.00  0.00    -0.377 OA
BRANCH  71  72
ATOM     72  C   UNL A   1      43.435  25.764  34.972  1.00  0.00     0.188 C 
BRANCH  72  73
ATOM     73  C   UNL A   1      43.482  24.381  34.276  1.00  0.00     0.188 C 
BRANCH  73  74
ATOM     74  O   UNL A   1      43.761  23.174  34.977  1.00  0.00    -0.376 OA
BRANCH  74  75
ATOM     75  C   UNL A   1      45.062  22.618  34.994  1.00  0.00     0.202 C 
BRANCH  75  76
ATOM     76  C   UNL A   1      45.235  21.093  35.008  1.00  0.00     0.261 C 
BRANCH  76  77
ATOM     77  O   UNL A   1      45.610  20.527  36.270  1.00  0.00    -0.458 OA
BRANCH  77  78
ATOM     78  C   UNL A   1      45.577  19.166  36.345  1.00  0.00     0.358 C 
ATOM     79  O   UNL A   1      45.380  18.414  35.394  1.00  0.00    -0.244 OA
BRANCH  78  80
ATOM     80  C   UNL A   1      45.871  18.690  37.702  1.00  0.00     0.170 A 
ATOM     81  C   UNL A   1      47.091  18.829  38.410  1.00  0.00     0.058 A 
ATOM     82  N   UNL A   1      44.964  18.007  38.434  1.00  0.00    -0.159 NA
ATOM     83  C   UNL A   1      46.840  18.314  39.658  1.00  0.00     0.118 A 
ATOM     84  N   UNL A   1      45.568  17.799  39.624  1.00  0.00    -0.222 N 
BRANCH  84  85
ATOM     85  C   UNL A   1      44.844  17.321  40.740  1.00  0.00     0.158 A 
ATOM     86  C   UNL A   1      43.961  16.269  40.576  1.00  0.00     0.078 A 
ATOM     87  N   UNL A   1      45.125  17.893  41.927  1.00  0.00    -0.209 NA
ATOM     88  C   UNL A   1      43.377  15.802  41.740  1.00  0.00     0.077 A 
ATOM     89  C   UNL A   1      44.448  17.418  42.978  1.00  0.00     0.165 A 
ATOM     90  N   UNL A   1      43.585  16.392  42.938  1.00  0.00    -0.228 NA
BRANCH  88  91
ATOM     91  C   UNL A   1      42.549  14.588  41.811  1.00  0.00     0.003 A 
ATOM     92  C   UNL A   1      42.179  14.024  43.039  1.00  0.00     0.030 A 
ATOM     93  C   UNL A   1      42.013  14.016  40.649  1.00  0.00     0.030 A 
ATOM     94  C   UNL A   1      41.303  12.949  43.051  1.00  0.00     0.111 A 
ATOM     95  C   UNL A   1      41.152  12.935  40.761  1.00  0.00     0.111 A 
ATOM     96  N   UNL A   1      40.784  12.392  41.938  1.00  0.00    -0.265 NA
ENDBRANCH  88  91
BRANCH  89  97
ATOM     97  C   UNL A   1      44.641  18.106  44.241  1.00  0.00     0.055 A 
ATOM     98  C   UNL A   1      44.890  17.385  45.422  1.00  0.00     0.015 A 
ATOM     99  C   UNL A   1      44.549  19.496  44.323  1.00  0.00     0.134 A 
ATOM    100  C   UNL A   1      45.044  18.044  46.643  1.00  0.00     0.001 A 
ATOM    101  C   UNL A   1      44.694  20.161  45.539  1.00  0.00     0.040 A 
ATOM    102  F   UNL A   1      44.279  20.226  43.228  1.00  0.00    -0.206 F 
ATOM    103  C   UNL A   1      44.943  19.434  46.702  1.00  0.00     0.003 A 
ENDBRANCH  89  97
ENDBRANCH  84  85
ENDBRANCH  78  80
ENDBRANCH  77  78
ENDBRANCH  76  77
ENDBRANCH  75  76
ENDBRANCH  74  75
ENDBRANCH  73  74
ENDBRANCH  72  73
ENDBRANCH  71  72
ENDBRANCH   1  71
TORSDOF 26
ENDMDL
