MODEL 1
REMARK VINA RESULT:      -9.4      0.000      0.000
REMARK SMILES O=C(Cc1cc(=O)[nH]c(=O)[nH]1)Nc1cccc(C(=O)OCCOCCOCCOCCOC(=O)c2ccc(-c3c4nc(c(-c5ccc(S(=O)(=O)[O-])cc5)c5ccc([nH]5)c(-c5ccc(S(=O)(=O)[O-])cc5)c5nc(c(-c6ccc(S(=O)(=O)[O-])cc6)c6ccc3[nH]6)C=C5)C=C4)cc2)c1
REMARK SMILES IDX 26 1 25 2 24 3 23 4 22 5 21 6 20 7 18 8 19 9 17 10 13 11
REMARK SMILES IDX 14 12 95 13 15 14 16 15 12 16 1 17 2 18 3 20 4 21 5 22 11 23
REMARK SMILES IDX 6 24 9 25 7 27 8 28 10 29 27 31 28 32 29 33 30 34 31 35
REMARK SMILES IDX 32 36 33 37 34 38 35 39 36 40 94 41 37 42 93 43 38 44 39 45
REMARK SMILES IDX 40 46 87 47 41 48 92 49 86 50 88 51 42 52 91 53 85 54 84 55
REMARK SMILES IDX 43 57 73 58 54 59 72 60 55 61 58 62 71 63 89 64 56 65 57 66
REMARK SMILES IDX 70 68 90 69 59 70 44 71 45 72 53 73 46 74 52 75 47 76 48 77
REMARK SMILES IDX 49 78 50 79 51 80 74 81 75 82 83 83 76 84 82 85 77 86 78 87
REMARK SMILES IDX 79 88 80 89 81 90 60 91 61 92 69 93 62 94 68 95 63 96 64 97
REMARK SMILES IDX 65 98 66 99 67 100
REMARK H PARENT 12 19 11 26 8 30 88 56 58 67
REMARK Flexibility Score: inf
ROOT
ATOM      1  O   UNL A   1      40.953  20.416  27.686  1.00  0.00    -0.377 OA
ENDROOT
BRANCH   1   2
ATOM      2  C   UNL A   1      40.791  21.799  27.965  1.00  0.00     0.188 C 
BRANCH   2   3
ATOM      3  C   UNL A   1      40.459  22.796  26.832  1.00  0.00     0.188 C 
BRANCH   3   4
ATOM      4  O   UNL A   1      39.132  22.708  26.349  1.00  0.00    -0.376 OA
BRANCH   4   5
ATOM      5  C   UNL A   1      38.379  23.887  26.148  1.00  0.00     0.202 C 
BRANCH   5   6
ATOM      6  C   UNL A   1      36.858  23.791  25.974  1.00  0.00     0.261 C 
BRANCH   6   7
ATOM      7  O   UNL A   1      36.308  22.470  25.959  1.00  0.00    -0.460 OA
BRANCH   7   8
ATOM      8  C   UNL A   1      36.195  21.842  24.768  1.00  0.00     0.338 C 
ATOM      9  O   UNL A   1      37.094  21.367  24.097  1.00  0.00    -0.246 OA
BRANCH   8  10
ATOM     10  C   UNL A   1      34.749  21.598  24.552  1.00  0.00     0.062 A 
ATOM     11  C   UNL A   1      32.532  22.438  24.078  1.00  0.00     0.042 A 
ATOM     12  C   UNL A   1      31.995  21.211  24.489  1.00  0.00     0.026 A 
ATOM     13  C   UNL A   1      33.910  22.639  24.141  1.00  0.00     0.041 A 
ATOM     14  C   UNL A   1      32.834  20.165  24.881  1.00  0.00     0.003 A 
ATOM     15  C   UNL A   1      34.215  20.350  24.893  1.00  0.00     0.016 A 
BRANCH  11  16
ATOM     16  N   UNL A   1      31.638  23.421  23.615  1.00  0.00    -0.326 N 
ATOM     17  O   UNL A   1      31.222  24.577  25.593  1.00  0.00    -0.274 OA
ATOM     18  C   UNL A   1      31.033  24.398  24.394  1.00  0.00     0.230 C 
ATOM     19  H   UNL A   1      31.421  23.416  22.654  1.00  0.00     0.169 HD
BRANCH  18  20
ATOM     20  C   UNL A   1      30.127  25.334  23.600  1.00  0.00     0.154 C 
BRANCH  20  21
ATOM     21  C   UNL A   1      30.643  26.748  23.684  1.00  0.00     0.034 A 
ATOM     22  C   UNL A   1      29.847  27.822  23.581  1.00  0.00     0.093 A 
ATOM     23  N   UNL A   1      31.998  26.923  23.858  1.00  0.00    -0.311 N 
ATOM     24  C   UNL A   1      30.438  29.174  23.679  1.00  0.00     0.253 A 
ATOM     25  C   UNL A   1      32.598  28.141  24.017  1.00  0.00     0.325 A 
ATOM     26  H   UNL A   1      32.569  26.122  23.868  1.00  0.00     0.171 HD
ATOM     27  O   UNL A   1      29.754  30.181  23.533  1.00  0.00    -0.269 OA
ATOM     28  N   UNL A   1      31.778  29.224  23.933  1.00  0.00    -0.274 N 
ATOM     29  O   UNL A   1      33.805  28.235  24.221  1.00  0.00    -0.248 OA
ATOM     30  H   UNL A   1      32.182  30.112  24.066  1.00  0.00     0.175 HD
ENDBRANCH  20  21
ENDBRANCH  18  20
ENDBRANCH  11  16
ENDBRANCH   8  10
ENDBRANCH   7   8
ENDBRANCH   6   7
ENDBRANCH   5   6
ENDBRANCH   4   5
ENDBRANCH   3   4
ENDBRANCH   2   3
ENDBRANCH   1   2
BRANCH   1  31
ATOM     31  C   UNL A   1      42.256  19.852  27.580  1.00  0.00     0.188 C 
BRANCH  31  32
ATOM     32  C   UNL A   1      42.478  18.332  27.753  1.00  0.00     0.188 C 
BRANCH  32  33
ATOM     33  O   UNL A   1      43.034  17.685  26.619  1.00  0.00    -0.376 OA
BRANCH  33  34
ATOM     34  C   UNL A   1      43.663  18.495  25.645  1.00  0.00     0.202 C 
BRANCH  34  35
ATOM     35  C   UNL A   1      45.189  18.381  25.519  1.00  0.00     0.261 C 
BRANCH  35  36
ATOM     36  O   UNL A   1      45.856  19.469  24.864  1.00  0.00    -0.460 OA
BRANCH  36  37
ATOM     37  C   UNL A   1      45.104  20.261  24.071  1.00  0.00     0.338 C 
ATOM     38  O   UNL A   1      44.482  19.922  23.074  1.00  0.00    -0.246 OA
BRANCH  37  39
ATOM     39  C   UNL A   1      44.999  21.583  24.718  1.00  0.00     0.060 A 
ATOM     40  C   UNL A   1      44.501  22.666  23.982  1.00  0.00     0.016 A 
ATOM     41  C   UNL A   1      45.392  21.749  26.049  1.00  0.00     0.016 A 
ATOM     42  C   UNL A   1      44.438  23.932  24.563  1.00  0.00     0.010 A 
ATOM     43  C   UNL A   1      45.346  23.023  26.622  1.00  0.00     0.010 A 
ATOM     44  C   UNL A   1      44.909  24.126  25.867  1.00  0.00    -0.014 A 
BRANCH  44  45
ATOM     45  C   UNL A   1      45.146  25.506  26.357  1.00  0.00     0.031 A 
ATOM     46  C   UNL A   1      46.531  26.081  26.218  1.00  0.00     0.074 A 
ATOM     47  C   UNL A   1      44.153  26.247  26.878  1.00  0.00     0.049 A 
ATOM     48  N   UNL A   1      46.982  27.254  26.579  1.00  0.00    -0.248 NA
ATOM     49  C   UNL A   1      47.543  25.213  25.591  1.00  0.00     0.031 C 
ATOM     50  C   UNL A   1      42.763  25.818  27.026  1.00  0.00     0.029 A 
ATOM     51  N   UNL A   1      44.168  27.524  27.383  1.00  0.00    -0.354 N 
ATOM     52  C   UNL A   1      48.330  27.259  26.234  1.00  0.00     0.074 A 
ATOM     53  C   UNL A   1      48.630  25.965  25.667  1.00  0.00     0.031 C 
ATOM     54  C   UNL A   1      42.059  26.814  27.591  1.00  0.00     0.029 A 
ATOM     55  C   UNL A   1      42.953  27.936  27.876  1.00  0.00     0.049 A 
ATOM     56  H   UNL A   1      44.972  28.090  27.391  1.00  0.00     0.167 HD
ATOM     57  C   UNL A   1      49.235  28.257  26.373  1.00  0.00     0.031 A 
ATOM     58  C   UNL A   1      42.608  29.079  28.504  1.00  0.00     0.031 A 
ATOM     59  C   UNL A   1      48.935  29.539  26.951  1.00  0.00     0.049 A 
ATOM     60  C   UNL A   1      43.650  30.150  28.708  1.00  0.00     0.074 A 
ATOM     61  C   UNL A   1      49.777  30.625  27.117  1.00  0.00     0.029 A 
ATOM     62  N   UNL A   1      47.702  29.906  27.469  1.00  0.00    -0.354 N 
ATOM     63  N   UNL A   1      44.911  30.156  28.347  1.00  0.00    -0.248 NA
ATOM     64  C   UNL A   1      43.216  31.376  29.395  1.00  0.00     0.031 C 
ATOM     65  C   UNL A   1      49.073  31.621  27.800  1.00  0.00     0.029 A 
ATOM     66  C   UNL A   1      47.769  31.188  27.987  1.00  0.00     0.049 A 
ATOM     67  H   UNL A   1      46.897  29.338  27.469  1.00  0.00     0.167 HD
ATOM     68  C   UNL A   1      45.413  31.395  28.734  1.00  0.00     0.074 A 
ATOM     69  C   UNL A   1      44.315  32.117  29.343  1.00  0.00     0.031 C 
ATOM     70  C   UNL A   1      46.668  31.893  28.595  1.00  0.00     0.031 A 
BRANCH  57  71
ATOM     71  C   UNL A   1      50.650  27.978  25.936  1.00  0.00    -0.014 A 
ATOM     72  C   UNL A   1      51.042  28.093  24.589  1.00  0.00     0.010 A 
ATOM     73  C   UNL A   1      51.614  27.624  26.899  1.00  0.00     0.010 A 
ATOM     74  C   UNL A   1      52.358  27.818  24.208  1.00  0.00     0.020 A 
ATOM     75  C   UNL A   1      52.939  27.380  26.527  1.00  0.00     0.020 A 
ATOM     76  C   UNL A   1      53.298  27.462  25.181  1.00  0.00     0.054 A 
BRANCH  76  77
ATOM     77  S   UNL A   1      55.004  27.133  24.662  1.00  0.00     0.124 S 
ATOM     78  O   UNL A   1      55.623  28.449  24.812  1.00  0.00    -0.237 OA
ATOM     79  O   UNL A   1      55.440  26.120  25.619  1.00  0.00    -0.237 OA
ATOM     80  O   UNL A   1      54.865  26.667  23.284  1.00  0.00    -0.744 OA
ENDBRANCH  76  77
ENDBRANCH  57  71
BRANCH  58  81
ATOM     81  C   UNL A   1      41.217  29.261  29.005  1.00  0.00    -0.014 A 
ATOM     82  C   UNL A   1      40.889  28.998  30.346  1.00  0.00     0.010 A 
ATOM     83  C   UNL A   1      40.206  29.704  28.130  1.00  0.00     0.010 A 
ATOM     84  C   UNL A   1      39.577  29.161  30.800  1.00  0.00     0.020 A 
ATOM     85  C   UNL A   1      38.900  29.899  28.587  1.00  0.00     0.020 A 
ATOM     86  C   UNL A   1      38.591  29.617  29.918  1.00  0.00     0.054 A 
BRANCH  86  87
ATOM     87  S   UNL A   1      36.909  29.876  30.545  1.00  0.00     0.124 S 
ATOM     88  O   UNL A   1      36.918  29.093  31.776  1.00  0.00    -0.237 OA
ATOM     89  O   UNL A   1      36.859  31.327  30.716  1.00  0.00    -0.237 OA
ATOM     90  O   UNL A   1      36.061  29.353  29.477  1.00  0.00    -0.744 OA
ENDBRANCH  86  87
ENDBRANCH  58  81
BRANCH  70  91
ATOM     91  C   UNL A   1      46.917  33.303  29.071  1.00  0.00    -0.014 A 
ATOM     92  C   UNL A   1      46.659  34.415  28.250  1.00  0.00     0.010 A 
ATOM     93  C   UNL A   1      47.368  33.517  30.387  1.00  0.00     0.010 A 
ATOM     94  C   UNL A   1      46.888  35.711  28.721  1.00  0.00     0.020 A 
ATOM     95  C   UNL A   1      47.565  34.812  30.874  1.00  0.00     0.020 A 
ATOM     96  C   UNL A   1      47.340  35.900  30.031  1.00  0.00     0.054 A 
BRANCH  96  97
ATOM     97  S   UNL A   1      47.600  37.594  30.629  1.00  0.00     0.124 S 
ATOM     98  O   UNL A   1      47.037  37.532  31.974  1.00  0.00    -0.237 OA
ATOM     99  O   UNL A   1      49.053  37.737  30.561  1.00  0.00    -0.237 OA
ATOM    100  O   UNL A   1      46.855  38.416  29.678  1.00  0.00    -0.744 OA
ENDBRANCH  96  97
ENDBRANCH  70  91
ENDBRANCH  44  45
ENDBRANCH  37  39
ENDBRANCH  36  37
ENDBRANCH  35  36
ENDBRANCH  34  35
ENDBRANCH  33  34
ENDBRANCH  32  33
ENDBRANCH  31  32
ENDBRANCH   1  31
TORSDOF 26
ENDMDL
MODEL 2
REMARK VINA RESULT:      -9.4      4.543      5.397
REMARK SMILES O=C(Cc1cc(=O)[nH]c(=O)[nH]1)Nc1cccc(C(=O)OCCOCCOCCOCCOC(=O)c2ccc(-c3c4nc(c(-c5ccc(S(=O)(=O)[O-])cc5)c5ccc([nH]5)c(-c5ccc(S(=O)(=O)[O-])cc5)c5nc(c(-c6ccc(S(=O)(=O)[O-])cc6)c6ccc3[nH]6)C=C5)C=C4)cc2)c1
REMARK SMILES IDX 26 1 25 2 24 3 23 4 22 5 21 6 20 7 18 8 19 9 17 10 13 11
REMARK SMILES IDX 14 12 95 13 15 14 16 15 12 16 1 17 2 18 3 20 4 21 5 22 11 23
REMARK SMILES IDX 6 24 9 25 7 27 8 28 10 29 27 31 28 32 29 33 30 34 31 35
REMARK SMILES IDX 32 36 33 37 34 38 35 39 36 40 94 41 37 42 93 43 38 44 39 45
REMARK SMILES IDX 40 46 87 47 41 48 92 49 86 50 88 51 42 52 91 53 85 54 84 55
REMARK SMILES IDX 43 57 73 58 54 59 72 60 55 61 58 62 71 63 89 64 56 65 57 66
REMARK SMILES IDX 70 68 90 69 59 70 44 71 45 72 53 73 46 74 52 75 47 76 48 77
REMARK SMILES IDX 49 78 50 79 51 80 74 81 75 82 83 83 76 84 82 85 77 86 78 87
REMARK SMILES IDX 79 88 80 89 81 90 60 91 61 92 69 93 62 94 68 95 63 96 64 97
REMARK SMILES IDX 65 98 66 99 67 100
REMARK H PARENT 12 19 11 26 8 30 88 56 58 67
REMARK Flexibility Score: inf
ROOT
ATOM      1  O   UNL A   1      40.975  19.737  27.196  1.00  0.00    -0.377 OA
ENDROOT
BRANCH   1   2
ATOM      2  C   UNL A   1      40.744  21.088  27.568  1.00  0.00     0.188 C 
BRANCH   2   3
ATOM      3  C   UNL A   1      40.156  22.093  26.552  1.00  0.00     0.188 C 
BRANCH   3   4
ATOM      4  O   UNL A   1      39.056  21.599  25.813  1.00  0.00    -0.376 OA
BRANCH   4   5
ATOM      5  C   UNL A   1      37.900  22.398  25.656  1.00  0.00     0.202 C 
BRANCH   5   6
ATOM      6  C   UNL A   1      36.517  21.733  25.659  1.00  0.00     0.261 C 
BRANCH   6   7
ATOM      7  O   UNL A   1      35.959  21.437  24.375  1.00  0.00    -0.460 OA
BRANCH   7   8
ATOM      8  C   UNL A   1      35.257  22.406  23.747  1.00  0.00     0.338 C 
ATOM      9  O   UNL A   1      35.659  23.161  22.880  1.00  0.00    -0.246 OA
BRANCH   8  10
ATOM     10  C   UNL A   1      33.836  22.206  24.113  1.00  0.00     0.062 A 
ATOM     11  C   UNL A   1      31.664  23.121  24.652  1.00  0.00     0.042 A 
ATOM     12  C   UNL A   1      31.271  21.865  25.135  1.00  0.00     0.026 A 
ATOM     13  C   UNL A   1      32.960  23.295  24.171  1.00  0.00     0.041 A 
ATOM     14  C   UNL A   1      32.138  20.772  25.059  1.00  0.00     0.003 A 
ATOM     15  C   UNL A   1      33.417  20.937  24.528  1.00  0.00     0.016 A 
BRANCH  11  16
ATOM     16  N   UNL A   1      30.714  24.159  24.680  1.00  0.00    -0.326 N 
ATOM     17  O   UNL A   1      31.031  25.078  22.564  1.00  0.00    -0.274 OA
ATOM     18  C   UNL A   1      30.477  25.069  23.660  1.00  0.00     0.230 C 
ATOM     19  H   UNL A   1      30.169  24.248  25.496  1.00  0.00     0.169 HD
BRANCH  18  20
ATOM     20  C   UNL A   1      29.368  26.066  23.980  1.00  0.00     0.154 C 
BRANCH  20  21
ATOM     21  C   UNL A   1      29.916  27.471  23.963  1.00  0.00     0.034 A 
ATOM     22  C   UNL A   1      30.996  27.841  24.666  1.00  0.00     0.093 A 
ATOM     23  N   UNL A   1      29.252  28.405  23.199  1.00  0.00    -0.311 N 
ATOM     24  C   UNL A   1      31.467  29.241  24.589  1.00  0.00     0.253 A 
ATOM     25  C   UNL A   1      29.669  29.697  23.036  1.00  0.00     0.325 A 
ATOM     26  H   UNL A   1      28.427  28.126  22.742  1.00  0.00     0.171 HD
ATOM     27  O   UNL A   1      32.414  29.633  25.259  1.00  0.00    -0.269 OA
ATOM     28  N   UNL A   1      30.780  30.057  23.737  1.00  0.00    -0.274 N 
ATOM     29  O   UNL A   1      29.067  30.473  22.301  1.00  0.00    -0.248 OA
ATOM     30  H   UNL A   1      31.113  30.975  23.619  1.00  0.00     0.175 HD
ENDBRANCH  20  21
ENDBRANCH  18  20
ENDBRANCH  11  16
ENDBRANCH   8  10
ENDBRANCH   7   8
ENDBRANCH   6   7
ENDBRANCH   5   6
ENDBRANCH   4   5
ENDBRANCH   3   4
ENDBRANCH   2   3
ENDBRANCH   1   2
BRANCH   1  31
ATOM     31  C   UNL A   1      42.254  19.145  27.398  1.00  0.00     0.188 C 
BRANCH  31  32
ATOM     32  C   UNL A   1      42.784  18.056  26.437  1.00  0.00     0.188 C 
BRANCH  32  33
ATOM     33  O   UNL A   1      43.559  18.551  25.357  1.00  0.00    -0.376 OA
BRANCH  33  34
ATOM     34  C   UNL A   1      43.805  19.943  25.310  1.00  0.00     0.202 C 
BRANCH  34  35
ATOM     35  C   UNL A   1      45.148  20.398  24.723  1.00  0.00     0.261 C 
BRANCH  35  36
ATOM     36  O   UNL A   1      45.459  21.793  24.851  1.00  0.00    -0.460 OA
BRANCH  36  37
ATOM     37  C   UNL A   1      44.612  22.666  24.267  1.00  0.00     0.338 C 
ATOM     38  O   UNL A   1      44.163  22.605  23.131  1.00  0.00    -0.246 OA
BRANCH  37  39
ATOM     39  C   UNL A   1      44.157  23.617  25.301  1.00  0.00     0.060 A 
ATOM     40  C   UNL A   1      44.477  24.974  25.167  1.00  0.00     0.016 A 
ATOM     41  C   UNL A   1      43.418  23.166  26.397  1.00  0.00     0.016 A 
ATOM     42  C   UNL A   1      44.097  25.880  26.157  1.00  0.00     0.010 A 
ATOM     43  C   UNL A   1      43.055  24.072  27.398  1.00  0.00     0.010 A 
ATOM     44  C   UNL A   1      43.431  25.423  27.301  1.00  0.00    -0.014 A 
BRANCH  44  45
ATOM     45  C   UNL A   1      43.323  26.313  28.483  1.00  0.00     0.031 A 
ATOM     46  C   UNL A   1      44.419  26.262  29.514  1.00  0.00     0.074 A 
ATOM     47  C   UNL A   1      42.299  27.173  28.624  1.00  0.00     0.049 A 
ATOM     48  N   UNL A   1      44.541  26.932  30.630  1.00  0.00    -0.248 NA
ATOM     49  C   UNL A   1      45.524  25.325  29.250  1.00  0.00     0.031 C 
ATOM     50  C   UNL A   1      41.200  27.346  27.675  1.00  0.00     0.029 A 
ATOM     51  N   UNL A   1      42.020  28.064  29.631  1.00  0.00    -0.354 N 
ATOM     52  C   UNL A   1      45.728  26.489  31.205  1.00  0.00     0.074 A 
ATOM     53  C   UNL A   1      46.270  25.472  30.334  1.00  0.00     0.031 C 
ATOM     54  C   UNL A   1      40.361  28.284  28.149  1.00  0.00     0.029 A 
ATOM     55  C   UNL A   1      40.843  28.751  29.448  1.00  0.00     0.049 A 
ATOM     56  H   UNL A   1      42.606  28.199  30.409  1.00  0.00     0.167 HD
ATOM     57  C   UNL A   1      46.315  26.898  32.355  1.00  0.00     0.031 A 
ATOM     58  C   UNL A   1      40.217  29.639  30.248  1.00  0.00     0.031 A 
ATOM     59  C   UNL A   1      45.764  27.902  33.226  1.00  0.00     0.049 A 
ATOM     60  C   UNL A   1      40.857  30.030  31.556  1.00  0.00     0.074 A 
ATOM     61  C   UNL A   1      46.293  28.402  34.403  1.00  0.00     0.029 A 
ATOM     62  N   UNL A   1      44.555  28.549  33.023  1.00  0.00    -0.354 N 
ATOM     63  N   UNL A   1      41.995  29.629  32.073  1.00  0.00    -0.248 NA
ATOM     64  C   UNL A   1      40.132  31.004  32.385  1.00  0.00     0.031 C 
ATOM     65  C   UNL A   1      45.369  29.299  34.948  1.00  0.00     0.029 A 
ATOM     66  C   UNL A   1      44.303  29.419  34.071  1.00  0.00     0.049 A 
ATOM     67  H   UNL A   1      43.962  28.411  32.249  1.00  0.00     0.167 HD
ATOM     68  C   UNL A   1      42.137  30.325  33.269  1.00  0.00     0.074 A 
ATOM     69  C   UNL A   1      40.977  31.183  33.392  1.00  0.00     0.031 C 
ATOM     70  C   UNL A   1      43.139  30.264  34.183  1.00  0.00     0.031 A 
BRANCH  57  71
ATOM     71  C   UNL A   1      47.599  26.221  32.760  1.00  0.00    -0.014 A 
ATOM     72  C   UNL A   1      47.605  25.096  33.606  1.00  0.00     0.010 A 
ATOM     73  C   UNL A   1      48.822  26.702  32.257  1.00  0.00     0.010 A 
ATOM     74  C   UNL A   1      48.810  24.493  33.974  1.00  0.00     0.020 A 
ATOM     75  C   UNL A   1      50.028  26.082  32.597  1.00  0.00     0.020 A 
ATOM     76  C   UNL A   1      50.015  24.992  33.468  1.00  0.00     0.054 A 
BRANCH  76  77
ATOM     77  S   UNL A   1      51.563  24.176  33.945  1.00  0.00     0.124 S 
ATOM     78  O   UNL A   1      52.103  23.776  32.647  1.00  0.00    -0.237 OA
ATOM     79  O   UNL A   1      52.290  25.244  34.626  1.00  0.00    -0.237 OA
ATOM     80  O   UNL A   1      51.127  23.077  34.803  1.00  0.00    -0.744 OA
ENDBRANCH  76  77
ENDBRANCH  57  71
BRANCH  58  81
ATOM     81  C   UNL A   1      38.899  30.204  29.843  1.00  0.00    -0.014 A 
ATOM     82  C   UNL A   1      38.818  31.394  29.100  1.00  0.00     0.010 A 
ATOM     83  C   UNL A   1      37.709  29.543  30.204  1.00  0.00     0.010 A 
ATOM     84  C   UNL A   1      37.574  31.921  28.738  1.00  0.00     0.020 A 
ATOM     85  C   UNL A   1      36.466  30.048  29.817  1.00  0.00     0.020 A 
ATOM     86  C   UNL A   1      36.405  31.240  29.094  1.00  0.00     0.054 A 
BRANCH  86  87
ATOM     87  S   UNL A   1      34.806  31.912  28.563  1.00  0.00     0.124 S 
ATOM     88  O   UNL A   1      34.213  32.325  29.831  1.00  0.00    -0.237 OA
ATOM     89  O   UNL A   1      35.204  32.994  27.666  1.00  0.00    -0.237 OA
ATOM     90  O   UNL A   1      34.158  30.778  27.909  1.00  0.00    -0.744 OA
ENDBRANCH  86  87
ENDBRANCH  58  81
BRANCH  70  91
ATOM     91  C   UNL A   1      43.051  31.178  35.380  1.00  0.00    -0.014 A 
ATOM     92  C   UNL A   1      42.483  30.752  36.593  1.00  0.00     0.010 A 
ATOM     93  C   UNL A   1      43.595  32.474  35.299  1.00  0.00     0.010 A 
ATOM     94  C   UNL A   1      42.425  31.617  37.690  1.00  0.00     0.020 A 
ATOM     95  C   UNL A   1      43.571  33.330  36.404  1.00  0.00     0.020 A 
ATOM     96  C   UNL A   1      42.970  32.901  37.587  1.00  0.00     0.054 A 
BRANCH  96  97
ATOM     97  S   UNL A   1      42.910  33.993  39.034  1.00  0.00     0.124 S 
ATOM     98  O   UNL A   1      44.113  33.601  39.762  1.00  0.00    -0.237 OA
ATOM     99  O   UNL A   1      42.944  35.324  38.432  1.00  0.00    -0.237 OA
ATOM    100  O   UNL A   1      41.647  33.643  39.682  1.00  0.00    -0.744 OA
ENDBRANCH  96  97
ENDBRANCH  70  91
ENDBRANCH  44  45
ENDBRANCH  37  39
ENDBRANCH  36  37
ENDBRANCH  35  36
ENDBRANCH  34  35
ENDBRANCH  33  34
ENDBRANCH  32  33
ENDBRANCH  31  32
ENDBRANCH   1  31
TORSDOF 26
ENDMDL
MODEL 3
REMARK VINA RESULT:      -9.3      5.259      6.852
REMARK SMILES O=C(Cc1cc(=O)[nH]c(=O)[nH]1)Nc1cccc(C(=O)OCCOCCOCCOCCOC(=O)c2ccc(-c3c4nc(c(-c5ccc(S(=O)(=O)[O-])cc5)c5ccc([nH]5)c(-c5ccc(S(=O)(=O)[O-])cc5)c5nc(c(-c6ccc(S(=O)(=O)[O-])cc6)c6ccc3[nH]6)C=C5)C=C4)cc2)c1
REMARK SMILES IDX 26 1 25 2 24 3 23 4 22 5 21 6 20 7 18 8 19 9 17 10 13 11
REMARK SMILES IDX 14 12 95 13 15 14 16 15 12 16 1 17 2 18 3 20 4 21 5 22 11 23
REMARK SMILES IDX 6 24 9 25 7 27 8 28 10 29 27 31 28 32 29 33 30 34 31 35
REMARK SMILES IDX 32 36 33 37 34 38 35 39 36 40 94 41 37 42 93 43 38 44 39 45
REMARK SMILES IDX 40 46 87 47 41 48 92 49 86 50 88 51 42 52 91 53 85 54 84 55
REMARK SMILES IDX 43 57 73 58 54 59 72 60 55 61 58 62 71 63 89 64 56 65 57 66
REMARK SMILES IDX 70 68 90 69 59 70 44 71 45 72 53 73 46 74 52 75 47 76 48 77
REMARK SMILES IDX 49 78 50 79 51 80 74 81 75 82 83 83 76 84 82 85 77 86 78 87
REMARK SMILES IDX 79 88 80 89 81 90 60 91 61 92 69 93 62 94 68 95 63 96 64 97
REMARK SMILES IDX 65 98 66 99 67 100
REMARK H PARENT 12 19 11 26 8 30 88 56 58 67
REMARK Flexibility Score: inf
ROOT
ATOM      1  O   UNL A   1      40.869  20.613  26.631  1.00  0.00    -0.377 OA
ENDROOT
BRANCH   1   2
ATOM      2  C   UNL A   1      40.390  21.711  27.394  1.00  0.00     0.188 C 
BRANCH   2   3
ATOM      3  C   UNL A   1      40.292  23.120  26.767  1.00  0.00     0.188 C 
BRANCH   3   4
ATOM      4  O   UNL A   1      39.203  23.290  25.881  1.00  0.00    -0.376 OA
BRANCH   4   5
ATOM      5  C   UNL A   1      38.091  24.068  26.277  1.00  0.00     0.202 C 
BRANCH   5   6
ATOM      6  C   UNL A   1      36.687  23.677  25.798  1.00  0.00     0.261 C 
BRANCH   6   7
ATOM      7  O   UNL A   1      36.621  22.619  24.837  1.00  0.00    -0.460 OA
BRANCH   7   8
ATOM      8  C   UNL A   1      35.918  22.833  23.703  1.00  0.00     0.338 C 
ATOM      9  O   UNL A   1      36.363  23.001  22.582  1.00  0.00    -0.246 OA
BRANCH   8  10
ATOM     10  C   UNL A   1      34.498  22.558  24.024  1.00  0.00     0.062 A 
ATOM     11  C   UNL A   1      32.253  23.353  24.440  1.00  0.00     0.042 A 
ATOM     12  C   UNL A   1      31.921  22.096  24.965  1.00  0.00     0.026 A 
ATOM     13  C   UNL A   1      33.555  23.589  24.000  1.00  0.00     0.041 A 
ATOM     14  C   UNL A   1      32.858  21.059  24.971  1.00  0.00     0.003 A 
ATOM     15  C   UNL A   1      34.143  21.283  24.481  1.00  0.00     0.016 A 
BRANCH  11  16
ATOM     16  N   UNL A   1      31.240  24.327  24.386  1.00  0.00    -0.326 N 
ATOM     17  O   UNL A   1      31.339  25.162  26.557  1.00  0.00    -0.274 OA
ATOM     18  C   UNL A   1      30.840  25.141  25.437  1.00  0.00     0.230 C 
ATOM     19  H   UNL A   1      30.773  24.442  23.526  1.00  0.00     0.169 HD
BRANCH  18  20
ATOM     20  C   UNL A   1      29.727  26.114  25.062  1.00  0.00     0.154 C 
BRANCH  20  21
ATOM     21  C   UNL A   1      30.291  27.260  24.261  1.00  0.00     0.034 A 
ATOM     22  C   UNL A   1      29.628  27.840  23.249  1.00  0.00     0.093 A 
ATOM     23  N   UNL A   1      31.552  27.706  24.586  1.00  0.00    -0.311 N 
ATOM     24  C   UNL A   1      30.256  28.962  22.518  1.00  0.00     0.253 A 
ATOM     25  C   UNL A   1      32.164  28.775  23.993  1.00  0.00     0.325 A 
ATOM     26  H   UNL A   1      32.044  27.226  25.290  1.00  0.00     0.171 HD
ATOM     27  O   UNL A   1      29.708  29.480  21.553  1.00  0.00    -0.269 OA
ATOM     28  N   UNL A   1      31.473  29.371  22.982  1.00  0.00    -0.274 N 
ATOM     29  O   UNL A   1      33.270  29.162  24.360  1.00  0.00    -0.248 OA
ATOM     30  H   UNL A   1      31.882  30.156  22.553  1.00  0.00     0.175 HD
ENDBRANCH  20  21
ENDBRANCH  18  20
ENDBRANCH  11  16
ENDBRANCH   8  10
ENDBRANCH   7   8
ENDBRANCH   6   7
ENDBRANCH   5   6
ENDBRANCH   4   5
ENDBRANCH   3   4
ENDBRANCH   2   3
ENDBRANCH   1   2
BRANCH   1  31
ATOM     31  C   UNL A   1      42.260  20.312  26.599  1.00  0.00     0.188 C 
BRANCH  31  32
ATOM     32  C   UNL A   1      42.882  19.563  25.398  1.00  0.00     0.188 C 
BRANCH  32  33
ATOM     33  O   UNL A   1      43.855  20.307  24.681  1.00  0.00    -0.376 OA
BRANCH  33  34
ATOM     34  C   UNL A   1      44.552  21.320  25.380  1.00  0.00     0.202 C 
BRANCH  34  35
ATOM     35  C   UNL A   1      44.044  22.760  25.218  1.00  0.00     0.261 C 
BRANCH  35  36
ATOM     36  O   UNL A   1      43.931  23.533  26.421  1.00  0.00    -0.460 OA
BRANCH  36  37
ATOM     37  C   UNL A   1      44.820  24.534  26.593  1.00  0.00     0.338 C 
ATOM     38  O   UNL A   1      45.904  24.655  26.040  1.00  0.00    -0.246 OA
BRANCH  37  39
ATOM     39  C   UNL A   1      44.179  25.571  27.424  1.00  0.00     0.060 A 
ATOM     40  C   UNL A   1      44.536  26.913  27.236  1.00  0.00     0.016 A 
ATOM     41  C   UNL A   1      43.230  25.217  28.386  1.00  0.00     0.016 A 
ATOM     42  C   UNL A   1      43.975  27.902  28.044  1.00  0.00     0.010 A 
ATOM     43  C   UNL A   1      42.685  26.207  29.208  1.00  0.00     0.010 A 
ATOM     44  C   UNL A   1      43.088  27.547  29.067  1.00  0.00    -0.014 A 
BRANCH  44  45
ATOM     45  C   UNL A   1      42.756  28.539  30.118  1.00  0.00     0.031 A 
ATOM     46  C   UNL A   1      43.683  28.663  31.298  1.00  0.00     0.074 A 
ATOM     47  C   UNL A   1      41.680  29.339  30.015  1.00  0.00     0.049 A 
ATOM     48  N   UNL A   1      43.600  29.447  32.341  1.00  0.00    -0.248 NA
ATOM     49  C   UNL A   1      44.862  27.780  31.301  1.00  0.00     0.031 C 
ATOM     50  C   UNL A   1      40.731  29.345  28.903  1.00  0.00     0.029 A 
ATOM     51  N   UNL A   1      41.205  30.305  30.869  1.00  0.00    -0.354 N 
ATOM     52  C   UNL A   1      44.706  29.142  33.128  1.00  0.00     0.074 A 
ATOM     53  C   UNL A   1      45.426  28.083  32.460  1.00  0.00     0.031 C 
ATOM     54  C   UNL A   1      39.782  30.266  29.145  1.00  0.00     0.029 A 
ATOM     55  C   UNL A   1      40.036  30.890  30.444  1.00  0.00     0.049 A 
ATOM     56  H   UNL A   1      41.658  30.553  31.705  1.00  0.00     0.167 HD
ATOM     57  C   UNL A   1      45.089  29.700  34.301  1.00  0.00     0.031 A 
ATOM     58  C   UNL A   1      39.252  31.808  31.043  1.00  0.00     0.031 A 
ATOM     59  C   UNL A   1      44.362  30.746  34.969  1.00  0.00     0.049 A 
ATOM     60  C   UNL A   1      39.664  32.368  32.382  1.00  0.00     0.074 A 
ATOM     61  C   UNL A   1      44.679  31.393  36.150  1.00  0.00     0.029 A 
ATOM     62  N   UNL A   1      43.166  31.288  34.523  1.00  0.00    -0.354 N 
ATOM     63  N   UNL A   1      40.729  32.097  33.099  1.00  0.00    -0.248 NA
ATOM     64  C   UNL A   1      38.772  33.369  32.986  1.00  0.00     0.031 C 
ATOM     65  C   UNL A   1      43.638  32.276  36.455  1.00  0.00     0.029 A 
ATOM     66  C   UNL A   1      42.713  32.238  35.424  1.00  0.00     0.049 A 
ATOM     67  H   UNL A   1      42.706  31.035  33.690  1.00  0.00     0.167 HD
ATOM     68  C   UNL A   1      40.651  32.915  34.222  1.00  0.00     0.074 A 
ATOM     69  C   UNL A   1      39.444  33.701  34.081  1.00  0.00     0.031 C 
ATOM     70  C   UNL A   1      41.504  33.011  35.273  1.00  0.00     0.031 A 
BRANCH  57  71
ATOM     71  C   UNL A   1      46.329  29.153  34.959  1.00  0.00    -0.014 A 
ATOM     72  C   UNL A   1      46.270  28.081  35.869  1.00  0.00     0.010 A 
ATOM     73  C   UNL A   1      47.583  29.704  34.636  1.00  0.00     0.010 A 
ATOM     74  C   UNL A   1      47.434  27.600  36.474  1.00  0.00     0.020 A 
ATOM     75  C   UNL A   1      48.754  29.204  35.214  1.00  0.00     0.020 A 
ATOM     76  C   UNL A   1      48.669  28.166  36.143  1.00  0.00     0.054 A 
BRANCH  76  77
ATOM     77  S   UNL A   1      50.166  27.507  36.925  1.00  0.00     0.124 S 
ATOM     78  O   UNL A   1      51.210  27.960  36.008  1.00  0.00    -0.237 OA
ATOM     79  O   UNL A   1      50.154  28.155  38.234  1.00  0.00    -0.237 OA
ATOM     80  O   UNL A   1      49.941  26.063  36.946  1.00  0.00    -0.744 OA
ENDBRANCH  76  77
ENDBRANCH  57  71
BRANCH  58  81
ATOM     81  C   UNL A   1      37.984  32.242  30.392  1.00  0.00    -0.014 A 
ATOM     82  C   UNL A   1      36.767  31.598  30.674  1.00  0.00     0.010 A 
ATOM     83  C   UNL A   1      37.992  33.314  29.479  1.00  0.00     0.010 A 
ATOM     84  C   UNL A   1      35.586  32.006  30.047  1.00  0.00     0.020 A 
ATOM     85  C   UNL A   1      36.809  33.746  28.874  1.00  0.00     0.020 A 
ATOM     86  C   UNL A   1      35.614  33.083  29.154  1.00  0.00     0.054 A 
BRANCH  86  87
ATOM     87  S   UNL A   1      34.060  33.632  28.397  1.00  0.00     0.124 S 
ATOM     88  O   UNL A   1      33.352  34.207  29.536  1.00  0.00    -0.237 OA
ATOM     89  O   UNL A   1      34.522  34.585  27.390  1.00  0.00    -0.237 OA
ATOM     90  O   UNL A   1      33.486  32.400  27.860  1.00  0.00    -0.744 OA
ENDBRANCH  86  87
ENDBRANCH  58  81
BRANCH  70  91
ATOM     91  C   UNL A   1      41.188  34.031  36.339  1.00  0.00    -0.014 A 
ATOM     92  C   UNL A   1      41.591  35.372  36.218  1.00  0.00     0.010 A 
ATOM     93  C   UNL A   1      40.427  33.645  37.458  1.00  0.00     0.010 A 
ATOM     94  C   UNL A   1      41.275  36.298  37.216  1.00  0.00     0.020 A 
ATOM     95  C   UNL A   1      40.077  34.576  38.440  1.00  0.00     0.020 A 
ATOM     96  C   UNL A   1      40.519  35.894  38.321  1.00  0.00     0.054 A 
BRANCH  96  97
ATOM     97  S   UNL A   1      40.095  37.122  39.587  1.00  0.00     0.124 S 
ATOM     98  O   UNL A   1      40.017  36.303  40.792  1.00  0.00    -0.237 OA
ATOM     99  O   UNL A   1      41.226  38.046  39.526  1.00  0.00    -0.237 OA
ATOM    100  O   UNL A   1      38.824  37.674  39.124  1.00  0.00    -0.744 OA
ENDBRANCH  96  97
ENDBRANCH  70  91
ENDBRANCH  44  45
ENDBRANCH  37  39
ENDBRANCH  36  37
ENDBRANCH  35  36
ENDBRANCH  34  35
ENDBRANCH  33  34
ENDBRANCH  32  33
ENDBRANCH  31  32
ENDBRANCH   1  31
TORSDOF 26
ENDMDL
