MODEL 1
REMARK VINA RESULT:     -10.0      0.000      0.000
REMARK SMILES COC(=O)c1ccccc1-c1ccc(/C=C(\C#N)C(=O)OCCOCCOCCOCCOC(=O)c2ccc(-c3c4nc(c(-c5ccc(S(=O)(=O)[O-])cc5)c5ccc([nH]5)c(-c5ccc(S(=O)(=O)[O-])cc5)c5nc(c(-c6ccc(S(=O)(=O)[O-])cc6)c6ccc3[nH]6)C=C5)C=C4)cc2)o1
REMARK SMILES IDX 26 1 25 2 24 3 23 4 22 5 21 6 19 7 20 8 16 9 15 10 14 11
REMARK SMILES IDX 11 12 12 13 96 14 13 15 10 16 5 17 6 18 7 19 9 20 8 21 3 22
REMARK SMILES IDX 4 23 2 24 1 25 17 26 18 27 27 28 28 29 29 30 30 31 31 32
REMARK SMILES IDX 32 33 33 34 34 35 35 36 36 37 37 38 95 39 38 40 94 41 39 42
REMARK SMILES IDX 40 43 41 44 88 45 42 46 93 47 87 48 89 49 43 50 92 51 86 52
REMARK SMILES IDX 85 53 44 55 74 56 55 57 73 58 56 59 59 60 72 61 90 62 57 63
REMARK SMILES IDX 58 64 71 66 91 67 60 68 45 69 46 70 54 71 47 72 53 73 48 74
REMARK SMILES IDX 49 75 50 76 51 77 52 78 75 79 76 80 84 81 77 82 83 83 78 84
REMARK SMILES IDX 79 85 80 86 81 87 82 88 61 89 62 90 70 91 63 92 69 93 64 94
REMARK SMILES IDX 65 95 66 96 67 97 68 98
REMARK H PARENT 89 54 59 65
REMARK Flexibility Score: inf
ROOT
ATOM      1  C   UNL A   1      38.401  22.354  25.856  1.00  0.00     0.188 C 
ENDROOT
BRANCH   1   2
ATOM      2  C   UNL A   1      37.772  20.985  25.530  1.00  0.00     0.188 C 
BRANCH   2   3
ATOM      3  O   UNL A   1      36.673  20.837  24.645  1.00  0.00    -0.376 OA
BRANCH   3   4
ATOM      4  C   UNL A   1      35.332  20.546  25.020  1.00  0.00     0.202 C 
BRANCH   4   5
ATOM      5  C   UNL A   1      34.114  21.458  24.789  1.00  0.00     0.261 C 
BRANCH   5   6
ATOM      6  O   UNL A   1      33.906  21.867  23.445  1.00  0.00    -0.459 OA
BRANCH   6   7
ATOM      7  C   UNL A   1      34.432  23.070  23.165  1.00  0.00     0.349 C 
ATOM      8  O   UNL A   1      35.523  23.278  22.649  1.00  0.00    -0.245 OA
BRANCH   7   9
ATOM      9  C   UNL A   1      33.435  24.128  23.437  1.00  0.00     0.141 C 
ATOM     10  C   UNL A   1      33.145  24.868  22.340  1.00  0.00     0.074 C 
BRANCH  10  11
ATOM     11  C   UNL A   1      32.793  26.252  22.343  1.00  0.00     0.129 A 
ATOM     12  C   UNL A   1      31.558  28.104  22.476  1.00  0.00     0.135 A 
ATOM     13  C   UNL A   1      32.870  28.518  22.507  1.00  0.00     0.051 A 
ATOM     14  O   UNL A   1      31.509  26.749  22.380  1.00  0.00    -0.457 OA
ATOM     15  C   UNL A   1      33.653  27.344  22.418  1.00  0.00     0.051 A 
BRANCH  12  16
ATOM     16  C   UNL A   1      30.280  28.803  22.505  1.00  0.00     0.032 A 
ATOM     17  C   UNL A   1      29.142  28.262  23.130  1.00  0.00     0.071 A 
ATOM     18  C   UNL A   1      27.895  28.900  23.029  1.00  0.00     0.016 A 
ATOM     19  C   UNL A   1      27.779  30.099  22.327  1.00  0.00     0.001 A 
ATOM     20  C   UNL A   1      30.146  30.023  21.823  1.00  0.00     0.013 A 
ATOM     21  C   UNL A   1      28.905  30.663  21.732  1.00  0.00     0.001 A 
BRANCH  17  22
ATOM     22  C   UNL A   1      29.186  26.997  23.894  1.00  0.00     0.338 C 
ATOM     23  O   UNL A   1      28.462  26.042  23.664  1.00  0.00    -0.246 OA
BRANCH  22  24
ATOM     24  O   UNL A   1      30.108  27.095  24.880  1.00  0.00    -0.465 OA
ATOM     25  C   UNL A   1      30.153  25.973  25.758  1.00  0.00     0.282 C 
ENDBRANCH  22  24
ENDBRANCH  17  22
ENDBRANCH  12  16
ENDBRANCH  10  11
BRANCH   9  26
ATOM     26  C   UNL A   1      33.467  24.777  24.811  1.00  0.00     0.107 C 
ATOM     27  N   UNL A   1      33.493  25.316  25.952  1.00  0.00    -0.192 NA
ENDBRANCH   9  26
ENDBRANCH   7   9
ENDBRANCH   6   7
ENDBRANCH   5   6
ENDBRANCH   4   5
ENDBRANCH   3   4
ENDBRANCH   2   3
ENDBRANCH   1   2
BRANCH   1  28
ATOM     28  O   UNL A   1      39.603  22.263  26.579  1.00  0.00    -0.377 OA
BRANCH  28  29
ATOM     29  C   UNL A   1      40.392  21.108  26.343  1.00  0.00     0.188 C 
BRANCH  29  30
ATOM     30  C   UNL A   1      41.928  21.195  26.522  1.00  0.00     0.188 C 
BRANCH  30  31
ATOM     31  O   UNL A   1      42.648  21.707  25.408  1.00  0.00    -0.376 OA
BRANCH  31  32
ATOM     32  C   UNL A   1      43.295  22.966  25.501  1.00  0.00     0.202 C 
BRANCH  32  33
ATOM     33  C   UNL A   1      42.807  23.969  26.561  1.00  0.00     0.261 C 
BRANCH  33  34
ATOM     34  O   UNL A   1      41.672  24.765  26.206  1.00  0.00    -0.460 OA
BRANCH  34  35
ATOM     35  C   UNL A   1      41.892  26.047  25.848  1.00  0.00     0.338 C 
ATOM     36  O   UNL A   1      42.221  26.460  24.750  1.00  0.00    -0.246 OA
BRANCH  35  37
ATOM     37  C   UNL A   1      41.467  26.892  26.981  1.00  0.00     0.060 A 
ATOM     38  C   UNL A   1      42.019  28.173  27.131  1.00  0.00     0.016 A 
ATOM     39  C   UNL A   1      40.502  26.422  27.872  1.00  0.00     0.016 A 
ATOM     40  C   UNL A   1      41.631  28.976  28.204  1.00  0.00     0.010 A 
ATOM     41  C   UNL A   1      40.137  27.213  28.959  1.00  0.00     0.010 A 
ATOM     42  C   UNL A   1      40.729  28.475  29.149  1.00  0.00    -0.014 A 
BRANCH  42  43
ATOM     43  C   UNL A   1      40.590  29.117  30.475  1.00  0.00     0.031 A 
ATOM     44  C   UNL A   1      39.541  30.188  30.610  1.00  0.00     0.074 A 
ATOM     45  C   UNL A   1      41.389  28.802  31.509  1.00  0.00     0.049 A 
ATOM     46  N   UNL A   1      39.346  31.040  31.580  1.00  0.00    -0.248 NA
ATOM     47  C   UNL A   1      38.592  30.319  29.490  1.00  0.00     0.031 C 
ATOM     48  C   UNL A   1      42.388  27.736  31.521  1.00  0.00     0.029 A 
ATOM     49  N   UNL A   1      41.495  29.379  32.750  1.00  0.00    -0.354 N 
ATOM     50  C   UNL A   1      38.264  31.816  31.180  1.00  0.00     0.074 A 
ATOM     51  C   UNL A   1      37.860  31.354  29.873  1.00  0.00     0.031 C 
ATOM     52  C   UNL A   1      43.025  27.749  32.707  1.00  0.00     0.029 A 
ATOM     53  C   UNL A   1      42.514  28.859  33.513  1.00  0.00     0.049 A 
ATOM     54  H   UNL A   1      40.899  30.097  33.064  1.00  0.00     0.167 HD
ATOM     55  C   UNL A   1      37.660  32.825  31.846  1.00  0.00     0.031 A 
ATOM     56  C   UNL A   1      42.999  29.262  34.705  1.00  0.00     0.031 A 
ATOM     57  C   UNL A   1      38.083  33.294  33.136  1.00  0.00     0.049 A 
ATOM     58  C   UNL A   1      42.383  30.468  35.378  1.00  0.00     0.074 A 
ATOM     59  C   UNL A   1      37.559  34.328  33.890  1.00  0.00     0.029 A 
ATOM     60  N   UNL A   1      39.132  32.754  33.864  1.00  0.00    -0.354 N 
ATOM     61  N   UNL A   1      41.371  31.207  34.985  1.00  0.00    -0.248 NA
ATOM     62  C   UNL A   1      42.973  30.893  36.656  1.00  0.00     0.031 C 
ATOM     63  C   UNL A   1      38.322  34.445  35.054  1.00  0.00     0.029 A 
ATOM     64  C   UNL A   1      39.274  33.438  35.057  1.00  0.00     0.049 A 
ATOM     65  H   UNL A   1      39.690  31.996  33.576  1.00  0.00     0.167 HD
ATOM     66  C   UNL A   1      41.172  32.146  35.995  1.00  0.00     0.074 A 
ATOM     67  C   UNL A   1      42.169  31.886  37.012  1.00  0.00     0.031 C 
ATOM     68  C   UNL A   1      40.244  33.130  36.077  1.00  0.00     0.031 A 
BRANCH  55  69
ATOM     69  C   UNL A   1      36.493  33.502  31.182  1.00  0.00    -0.014 A 
ATOM     70  C   UNL A   1      35.415  33.992  31.941  1.00  0.00     0.010 A 
ATOM     71  C   UNL A   1      36.498  33.699  29.789  1.00  0.00     0.010 A 
ATOM     72  C   UNL A   1      34.351  34.647  31.316  1.00  0.00     0.020 A 
ATOM     73  C   UNL A   1      35.449  34.379  29.164  1.00  0.00     0.020 A 
ATOM     74  C   UNL A   1      34.378  34.840  29.931  1.00  0.00     0.054 A 
BRANCH  74  75
ATOM     75  S   UNL A   1      33.006  35.738  29.157  1.00  0.00     0.124 S 
ATOM     76  O   UNL A   1      33.703  36.826  28.476  1.00  0.00    -0.237 OA
ATOM     77  O   UNL A   1      32.417  34.726  28.283  1.00  0.00    -0.237 OA
ATOM     78  O   UNL A   1      32.173  36.143  30.286  1.00  0.00    -0.744 OA
ENDBRANCH  74  75
ENDBRANCH  55  69
BRANCH  56  79
ATOM     79  C   UNL A   1      44.149  28.555  35.340  1.00  0.00    -0.014 A 
ATOM     80  C   UNL A   1      43.930  27.615  36.363  1.00  0.00     0.010 A 
ATOM     81  C   UNL A   1      45.471  28.859  34.967  1.00  0.00     0.010 A 
ATOM     82  C   UNL A   1      45.009  27.028  37.031  1.00  0.00     0.020 A 
ATOM     83  C   UNL A   1      46.553  28.247  35.608  1.00  0.00     0.020 A 
ATOM     84  C   UNL A   1      46.315  27.352  36.653  1.00  0.00     0.054 A 
BRANCH  84  85
ATOM     85  S   UNL A   1      47.698  26.578  37.536  1.00  0.00     0.124 S 
ATOM     86  O   UNL A   1      48.846  27.041  36.764  1.00  0.00    -0.237 OA
ATOM     87  O   UNL A   1      47.568  27.140  38.878  1.00  0.00    -0.237 OA
ATOM     88  O   UNL A   1      47.411  25.149  37.435  1.00  0.00    -0.744 OA
ENDBRANCH  84  85
ENDBRANCH  56  79
BRANCH  68  89
ATOM     89  C   UNL A   1      40.181  33.945  37.343  1.00  0.00    -0.014 A 
ATOM     90  C   UNL A   1      41.104  34.968  37.612  1.00  0.00     0.010 A 
ATOM     91  C   UNL A   1      39.098  33.747  38.222  1.00  0.00     0.010 A 
ATOM     92  C   UNL A   1      40.950  35.773  38.745  1.00  0.00     0.020 A 
ATOM     93  C   UNL A   1      38.925  34.568  39.337  1.00  0.00     0.020 A 
ATOM     94  C   UNL A   1      39.856  35.574  39.595  1.00  0.00     0.054 A 
BRANCH  94  95
ATOM     95  S   UNL A   1      39.630  36.692  41.005  1.00  0.00     0.124 S 
ATOM     96  O   UNL A   1      38.566  37.573  40.529  1.00  0.00    -0.237 OA
ATOM     97  O   UNL A   1      39.255  35.777  42.080  1.00  0.00    -0.237 OA
ATOM     98  O   UNL A   1      40.938  37.324  41.161  1.00  0.00    -0.744 OA
ENDBRANCH  94  95
ENDBRANCH  68  89
ENDBRANCH  42  43
ENDBRANCH  35  37
ENDBRANCH  34  35
ENDBRANCH  33  34
ENDBRANCH  32  33
ENDBRANCH  31  32
ENDBRANCH  30  31
ENDBRANCH  29  30
ENDBRANCH  28  29
ENDBRANCH   1  28
TORSDOF 28
ENDMDL
MODEL 2
REMARK VINA RESULT:      -9.1      5.807     10.382
REMARK SMILES COC(=O)c1ccccc1-c1ccc(/C=C(\C#N)C(=O)OCCOCCOCCOCCOC(=O)c2ccc(-c3c4nc(c(-c5ccc(S(=O)(=O)[O-])cc5)c5ccc([nH]5)c(-c5ccc(S(=O)(=O)[O-])cc5)c5nc(c(-c6ccc(S(=O)(=O)[O-])cc6)c6ccc3[nH]6)C=C5)C=C4)cc2)o1
REMARK SMILES IDX 26 1 25 2 24 3 23 4 22 5 21 6 19 7 20 8 16 9 15 10 14 11
REMARK SMILES IDX 11 12 12 13 96 14 13 15 10 16 5 17 6 18 7 19 9 20 8 21 3 22
REMARK SMILES IDX 4 23 2 24 1 25 17 26 18 27 27 28 28 29 29 30 30 31 31 32
REMARK SMILES IDX 32 33 33 34 34 35 35 36 36 37 37 38 95 39 38 40 94 41 39 42
REMARK SMILES IDX 40 43 41 44 88 45 42 46 93 47 87 48 89 49 43 50 92 51 86 52
REMARK SMILES IDX 85 53 44 55 74 56 55 57 73 58 56 59 59 60 72 61 90 62 57 63
REMARK SMILES IDX 58 64 71 66 91 67 60 68 45 69 46 70 54 71 47 72 53 73 48 74
REMARK SMILES IDX 49 75 50 76 51 77 52 78 75 79 76 80 84 81 77 82 83 83 78 84
REMARK SMILES IDX 79 85 80 86 81 87 82 88 61 89 62 90 70 91 63 92 69 93 64 94
REMARK SMILES IDX 65 95 66 96 67 97 68 98
REMARK H PARENT 89 54 59 65
REMARK Flexibility Score: inf
ROOT
ATOM      1  C   UNL A   1      36.033  23.486  25.251  1.00  0.00     0.188 C 
ENDROOT
BRANCH   1   2
ATOM      2  C   UNL A   1      35.565  23.068  26.659  1.00  0.00     0.188 C 
BRANCH   2   3
ATOM      3  O   UNL A   1      35.182  21.739  26.977  1.00  0.00    -0.376 OA
BRANCH   3   4
ATOM      4  C   UNL A   1      34.328  20.908  26.201  1.00  0.00     0.202 C 
BRANCH   4   5
ATOM      5  C   UNL A   1      34.755  20.057  24.992  1.00  0.00     0.261 C 
BRANCH   5   6
ATOM      6  O   UNL A   1      34.023  20.285  23.798  1.00  0.00    -0.459 OA
BRANCH   6   7
ATOM      7  C   UNL A   1      32.806  20.812  24.008  1.00  0.00     0.349 C 
ATOM      8  O   UNL A   1      31.785  20.189  24.270  1.00  0.00    -0.245 OA
BRANCH   7   9
ATOM      9  C   UNL A   1      32.896  22.289  24.023  1.00  0.00     0.141 C 
ATOM     10  C   UNL A   1      32.097  22.852  24.961  1.00  0.00     0.074 C 
BRANCH  10  11
ATOM     11  C   UNL A   1      31.454  24.122  24.848  1.00  0.00     0.129 A 
ATOM     12  C   UNL A   1      31.092  26.315  25.030  1.00  0.00     0.135 A 
ATOM     13  C   UNL A   1      30.132  25.841  24.165  1.00  0.00     0.051 A 
ATOM     14  O   UNL A   1      31.885  25.289  25.439  1.00  0.00    -0.457 OA
ATOM     15  C   UNL A   1      30.359  24.449  24.053  1.00  0.00     0.051 A 
BRANCH  12  16
ATOM     16  C   UNL A   1      31.391  27.630  25.578  1.00  0.00     0.032 A 
ATOM     17  C   UNL A   1      31.782  28.712  24.767  1.00  0.00     0.071 A 
ATOM     18  C   UNL A   1      32.188  29.928  25.338  1.00  0.00     0.016 A 
ATOM     19  C   UNL A   1      32.180  30.087  26.722  1.00  0.00     0.001 A 
ATOM     20  C   UNL A   1      31.370  27.819  26.970  1.00  0.00     0.013 A 
ATOM     21  C   UNL A   1      31.764  29.036  27.537  1.00  0.00     0.001 A 
BRANCH  17  22
ATOM     22  C   UNL A   1      31.813  28.621  23.292  1.00  0.00     0.338 C 
ATOM     23  O   UNL A   1      30.818  28.689  22.589  1.00  0.00    -0.246 OA
BRANCH  22  24
ATOM     24  O   UNL A   1      33.085  28.417  22.876  1.00  0.00    -0.465 OA
ATOM     25  C   UNL A   1      33.320  27.133  22.304  1.00  0.00     0.282 C 
ENDBRANCH  22  24
ENDBRANCH  17  22
ENDBRANCH  12  16
ENDBRANCH  10  11
BRANCH   9  26
ATOM     26  C   UNL A   1      33.120  22.985  22.691  1.00  0.00     0.107 C 
ATOM     27  N   UNL A   1      33.307  23.564  21.585  1.00  0.00    -0.192 NA
ENDBRANCH   9  26
ENDBRANCH   7   9
ENDBRANCH   6   7
ENDBRANCH   5   6
ENDBRANCH   4   5
ENDBRANCH   3   4
ENDBRANCH   2   3
ENDBRANCH   1   2
BRANCH   1  28
ATOM     28  O   UNL A   1      37.431  23.539  25.114  1.00  0.00    -0.377 OA
BRANCH  28  29
ATOM     29  C   UNL A   1      38.152  24.036  26.231  1.00  0.00     0.188 C 
BRANCH  29  30
ATOM     30  C   UNL A   1      39.348  23.218  26.779  1.00  0.00     0.188 C 
BRANCH  30  31
ATOM     31  O   UNL A   1      39.855  22.214  25.910  1.00  0.00    -0.376 OA
BRANCH  31  32
ATOM     32  C   UNL A   1      39.992  20.879  26.372  1.00  0.00     0.202 C 
BRANCH  32  33
ATOM     33  C   UNL A   1      41.009  20.588  27.489  1.00  0.00     0.261 C 
BRANCH  33  34
ATOM     34  O   UNL A   1      42.081  19.701  27.157  1.00  0.00    -0.460 OA
BRANCH  34  35
ATOM     35  C   UNL A   1      42.740  19.921  26.000  1.00  0.00     0.338 C 
ATOM     36  O   UNL A   1      42.727  19.224  25.000  1.00  0.00    -0.246 OA
BRANCH  35  37
ATOM     37  C   UNL A   1      43.327  21.271  26.086  1.00  0.00     0.060 A 
ATOM     38  C   UNL A   1      43.992  21.661  27.259  1.00  0.00     0.016 A 
ATOM     39  C   UNL A   1      43.244  22.135  24.993  1.00  0.00     0.016 A 
ATOM     40  C   UNL A   1      44.542  22.939  27.355  1.00  0.00     0.010 A 
ATOM     41  C   UNL A   1      43.768  23.421  25.101  1.00  0.00     0.010 A 
ATOM     42  C   UNL A   1      44.383  23.839  26.294  1.00  0.00    -0.014 A 
BRANCH  42  43
ATOM     43  C   UNL A   1      44.601  25.289  26.496  1.00  0.00     0.031 A 
ATOM     44  C   UNL A   1      45.990  25.813  26.252  1.00  0.00     0.074 A 
ATOM     45  C   UNL A   1      43.621  26.105  26.922  1.00  0.00     0.049 A 
ATOM     46  N   UNL A   1      46.500  26.980  26.544  1.00  0.00    -0.248 NA
ATOM     47  C   UNL A   1      46.934  24.887  25.601  1.00  0.00     0.031 C 
ATOM     48  C   UNL A   1      42.224  25.730  27.120  1.00  0.00     0.029 A 
ATOM     49  N   UNL A   1      43.672  27.428  27.289  1.00  0.00    -0.354 N 
ATOM     50  C   UNL A   1      47.824  26.921  26.126  1.00  0.00     0.074 A 
ATOM     51  C   UNL A   1      48.049  25.601  25.586  1.00  0.00     0.031 C 
ATOM     52  C   UNL A   1      41.551  26.795  27.597  1.00  0.00     0.029 A 
ATOM     53  C   UNL A   1      42.483  27.906  27.786  1.00  0.00     0.049 A 
ATOM     54  H   UNL A   1      44.482  27.981  27.203  1.00  0.00     0.167 HD
ATOM     55  C   UNL A   1      48.770  27.885  26.188  1.00  0.00     0.031 A 
ATOM     56  C   UNL A   1      42.198  29.091  28.364  1.00  0.00     0.031 A 
ATOM     57  C   UNL A   1      48.543  29.188  26.749  1.00  0.00     0.049 A 
ATOM     58  C   UNL A   1      43.302  30.111  28.529  1.00  0.00     0.074 A 
ATOM     59  C   UNL A   1      49.439  30.232  26.886  1.00  0.00     0.029 A 
ATOM     60  N   UNL A   1      47.332  29.624  27.261  1.00  0.00    -0.354 N 
ATOM     61  N   UNL A   1      44.556  30.042  28.148  1.00  0.00    -0.248 NA
ATOM     62  C   UNL A   1      42.951  31.371  29.202  1.00  0.00     0.031 C 
ATOM     63  C   UNL A   1      48.782  31.285  27.527  1.00  0.00     0.029 A 
ATOM     64  C   UNL A   1      47.459  30.922  27.722  1.00  0.00     0.049 A 
ATOM     65  H   UNL A   1      46.505  29.091  27.292  1.00  0.00     0.167 HD
ATOM     66  C   UNL A   1      45.124  31.269  28.485  1.00  0.00     0.074 A 
ATOM     67  C   UNL A   1      44.081  32.058  29.104  1.00  0.00     0.031 C 
ATOM     68  C   UNL A   1      46.393  31.705  28.292  1.00  0.00     0.031 A 
BRANCH  55  69
ATOM     69  C   UNL A   1      50.137  27.559  25.655  1.00  0.00    -0.014 A 
ATOM     70  C   UNL A   1      51.112  26.972  26.482  1.00  0.00     0.010 A 
ATOM     71  C   UNL A   1      50.436  27.793  24.301  1.00  0.00     0.010 A 
ATOM     72  C   UNL A   1      52.369  26.644  25.968  1.00  0.00     0.020 A 
ATOM     73  C   UNL A   1      51.682  27.440  23.776  1.00  0.00     0.020 A 
ATOM     74  C   UNL A   1      52.644  26.877  24.617  1.00  0.00     0.054 A 
BRANCH  74  75
ATOM     75  S   UNL A   1      54.268  26.395  23.969  1.00  0.00     0.124 S 
ATOM     76  O   UNL A   1      55.114  27.493  24.428  1.00  0.00    -0.237 OA
ATOM     77  O   UNL A   1      54.501  25.108  24.622  1.00  0.00    -0.237 OA
ATOM     78  O   UNL A   1      54.062  26.330  22.525  1.00  0.00    -0.744 OA
ENDBRANCH  74  75
ENDBRANCH  55  69
BRANCH  56  79
ATOM     79  C   UNL A   1      40.825  29.384  28.868  1.00  0.00    -0.014 A 
ATOM     80  C   UNL A   1      39.793  29.714  27.971  1.00  0.00     0.010 A 
ATOM     81  C   UNL A   1      40.554  29.392  30.248  1.00  0.00     0.010 A 
ATOM     82  C   UNL A   1      38.533  30.090  28.445  1.00  0.00     0.020 A 
ATOM     83  C   UNL A   1      39.284  29.732  30.726  1.00  0.00     0.020 A 
ATOM     84  C   UNL A   1      38.287  30.101  29.821  1.00  0.00     0.054 A 
BRANCH  84  85
ATOM     85  S   UNL A   1      36.644  30.595  30.411  1.00  0.00     0.124 S 
ATOM     86  O   UNL A   1      36.843  30.639  31.856  1.00  0.00    -0.237 OA
ATOM     87  O   UNL A   1      36.450  31.887  29.758  1.00  0.00    -0.237 OA
ATOM     88  O   UNL A   1      35.772  29.525  29.931  1.00  0.00    -0.744 OA
ENDBRANCH  84  85
ENDBRANCH  56  79
BRANCH  68  89
ATOM     89  C   UNL A   1      46.717  33.131  28.657  1.00  0.00    -0.014 A 
ATOM     90  C   UNL A   1      46.585  34.180  27.733  1.00  0.00     0.010 A 
ATOM     91  C   UNL A   1      47.054  33.429  29.992  1.00  0.00     0.010 A 
ATOM     92  C   UNL A   1      46.792  35.503  28.137  1.00  0.00     0.020 A 
ATOM     93  C   UNL A   1      47.231  34.749  30.405  1.00  0.00     0.020 A 
ATOM     94  C   UNL A   1      47.104  35.779  29.473  1.00  0.00     0.054 A 
BRANCH  94  95
ATOM     95  S   UNL A   1      47.277  37.510  29.989  1.00  0.00     0.124 S 
ATOM     96  O   UNL A   1      48.657  37.549  30.467  1.00  0.00    -0.237 OA
ATOM     97  O   UNL A   1      47.019  38.239  28.751  1.00  0.00    -0.237 OA
ATOM     98  O   UNL A   1      46.256  37.668  31.023  1.00  0.00    -0.744 OA
ENDBRANCH  94  95
ENDBRANCH  68  89
ENDBRANCH  42  43
ENDBRANCH  35  37
ENDBRANCH  34  35
ENDBRANCH  33  34
ENDBRANCH  32  33
ENDBRANCH  31  32
ENDBRANCH  30  31
ENDBRANCH  29  30
ENDBRANCH  28  29
ENDBRANCH   1  28
TORSDOF 28
ENDMDL
MODEL 3
REMARK VINA RESULT:      -8.0     14.034     17.405
REMARK SMILES COC(=O)c1ccccc1-c1ccc(/C=C(\C#N)C(=O)OCCOCCOCCOCCOC(=O)c2ccc(-c3c4nc(c(-c5ccc(S(=O)(=O)[O-])cc5)c5ccc([nH]5)c(-c5ccc(S(=O)(=O)[O-])cc5)c5nc(c(-c6ccc(S(=O)(=O)[O-])cc6)c6ccc3[nH]6)C=C5)C=C4)cc2)o1
REMARK SMILES IDX 26 1 25 2 24 3 23 4 22 5 21 6 19 7 20 8 16 9 15 10 14 11
REMARK SMILES IDX 11 12 12 13 96 14 13 15 10 16 5 17 6 18 7 19 9 20 8 21 3 22
REMARK SMILES IDX 4 23 2 24 1 25 17 26 18 27 27 28 28 29 29 30 30 31 31 32
REMARK SMILES IDX 32 33 33 34 34 35 35 36 36 37 37 38 95 39 38 40 94 41 39 42
REMARK SMILES IDX 40 43 41 44 88 45 42 46 93 47 87 48 89 49 43 50 92 51 86 52
REMARK SMILES IDX 85 53 44 55 74 56 55 57 73 58 56 59 59 60 72 61 90 62 57 63
REMARK SMILES IDX 58 64 71 66 91 67 60 68 45 69 46 70 54 71 47 72 53 73 48 74
REMARK SMILES IDX 49 75 50 76 51 77 52 78 75 79 76 80 84 81 77 82 83 83 78 84
REMARK SMILES IDX 79 85 80 86 81 87 82 88 61 89 62 90 70 91 63 92 69 93 64 94
REMARK SMILES IDX 65 95 66 96 67 97 68 98
REMARK H PARENT 89 54 59 65
REMARK Flexibility Score: inf
ROOT
ATOM      1  C   UNL A   1      42.129  39.314  28.275  1.00  0.00     0.188 C 
ENDROOT
BRANCH   1   2
ATOM      2  C   UNL A   1      42.645  37.869  28.419  1.00  0.00     0.188 C 
BRANCH   2   3
ATOM      3  O   UNL A   1      41.790  36.738  28.356  1.00  0.00    -0.376 OA
BRANCH   3   4
ATOM      4  C   UNL A   1      42.192  35.401  28.091  1.00  0.00     0.202 C 
BRANCH   4   5
ATOM      5  C   UNL A   1      42.943  34.476  29.065  1.00  0.00     0.261 C 
BRANCH   5   6
ATOM      6  O   UNL A   1      42.148  33.482  29.695  1.00  0.00    -0.459 OA
BRANCH   6   7
ATOM      7  C   UNL A   1      41.651  33.867  30.882  1.00  0.00     0.349 C 
ATOM      8  O   UNL A   1      41.966  34.874  31.504  1.00  0.00    -0.245 OA
BRANCH   7   9
ATOM      9  C   UNL A   1      40.546  32.967  31.278  1.00  0.00     0.141 C 
ATOM     10  C   UNL A   1      39.560  32.911  30.350  1.00  0.00     0.074 C 
BRANCH  10  11
ATOM     11  C   UNL A   1      38.171  32.720  30.626  1.00  0.00     0.129 A 
ATOM     12  C   UNL A   1      35.985  33.132  30.775  1.00  0.00     0.135 A 
ATOM     13  C   UNL A   1      36.135  31.784  31.005  1.00  0.00     0.051 A 
ATOM     14  O   UNL A   1      37.202  33.695  30.546  1.00  0.00    -0.457 OA
ATOM     15  C   UNL A   1      37.522  31.523  30.915  1.00  0.00     0.051 A 
BRANCH  12  16
ATOM     16  C   UNL A   1      34.837  34.027  30.751  1.00  0.00     0.032 A 
ATOM     17  C   UNL A   1      34.135  34.319  29.567  1.00  0.00     0.071 A 
ATOM     18  C   UNL A   1      33.116  35.285  29.555  1.00  0.00     0.016 A 
ATOM     19  C   UNL A   1      32.767  35.947  30.730  1.00  0.00     0.001 A 
ATOM     20  C   UNL A   1      34.454  34.690  31.929  1.00  0.00     0.013 A 
ATOM     21  C   UNL A   1      33.431  35.644  31.918  1.00  0.00     0.001 A 
BRANCH  17  22
ATOM     22  C   UNL A   1      34.445  33.657  28.282  1.00  0.00     0.338 C 
ATOM     23  O   UNL A   1      35.167  34.142  27.427  1.00  0.00    -0.246 OA
BRANCH  22  24
ATOM     24  O   UNL A   1      33.781  32.480  28.207  1.00  0.00    -0.465 OA
ATOM     25  C   UNL A   1      34.552  31.399  27.688  1.00  0.00     0.282 C 
ENDBRANCH  22  24
ENDBRANCH  17  22
ENDBRANCH  12  16
ENDBRANCH  10  11
BRANCH   9  26
ATOM     26  C   UNL A   1      40.209  32.888  32.758  1.00  0.00     0.107 C 
ATOM     27  N   UNL A   1      39.929  32.822  33.986  1.00  0.00    -0.192 NA
ENDBRANCH   9  26
ENDBRANCH   7   9
ENDBRANCH   6   7
ENDBRANCH   5   6
ENDBRANCH   4   5
ENDBRANCH   3   4
ENDBRANCH   2   3
ENDBRANCH   1   2
BRANCH   1  28
ATOM     28  O   UNL A   1      43.021  40.166  27.601  1.00  0.00    -0.377 OA
BRANCH  28  29
ATOM     29  C   UNL A   1      42.668  40.522  26.273  1.00  0.00     0.188 C 
BRANCH  29  30
ATOM     30  C   UNL A   1      41.178  40.766  25.930  1.00  0.00     0.188 C 
BRANCH  30  31
ATOM     31  O   UNL A   1      40.929  41.779  24.963  1.00  0.00    -0.376 OA
BRANCH  31  32
ATOM     32  C   UNL A   1      41.917  42.093  23.994  1.00  0.00     0.202 C 
BRANCH  32  33
ATOM     33  C   UNL A   1      41.491  42.206  22.519  1.00  0.00     0.261 C 
BRANCH  33  34
ATOM     34  O   UNL A   1      41.737  43.463  21.882  1.00  0.00    -0.460 OA
BRANCH  34  35
ATOM     35  C   UNL A   1      42.851  43.577  21.130  1.00  0.00     0.338 C 
ATOM     36  O   UNL A   1      42.921  43.600  19.914  1.00  0.00    -0.246 OA
BRANCH  35  37
ATOM     37  C   UNL A   1      43.966  43.873  22.050  1.00  0.00     0.060 A 
ATOM     38  C   UNL A   1      45.095  43.040  22.058  1.00  0.00     0.016 A 
ATOM     39  C   UNL A   1      43.901  44.993  22.879  1.00  0.00     0.016 A 
ATOM     40  C   UNL A   1      46.150  43.305  22.931  1.00  0.00     0.010 A 
ATOM     41  C   UNL A   1      44.943  45.241  23.771  1.00  0.00     0.010 A 
ATOM     42  C   UNL A   1      46.051  44.376  23.826  1.00  0.00    -0.014 A 
BRANCH  42  43
ATOM     43  C   UNL A   1      46.943  44.461  25.004  1.00  0.00     0.031 A 
ATOM     44  C   UNL A   1      48.364  44.891  24.756  1.00  0.00     0.074 A 
ATOM     45  C   UNL A   1      46.530  44.128  26.239  1.00  0.00     0.049 A 
ATOM     46  N   UNL A   1      49.394  44.855  25.558  1.00  0.00    -0.248 NA
ATOM     47  C   UNL A   1      48.662  45.422  23.413  1.00  0.00     0.031 C 
ATOM     48  C   UNL A   1      45.164  43.769  26.614  1.00  0.00     0.029 A 
ATOM     49  N   UNL A   1      47.243  44.016  27.407  1.00  0.00    -0.354 N 
ATOM     50  C   UNL A   1      50.461  45.343  24.814  1.00  0.00     0.074 A 
ATOM     51  C   UNL A   1      49.964  45.645  23.492  1.00  0.00     0.031 C 
ATOM     52  C   UNL A   1      45.142  43.453  27.923  1.00  0.00     0.029 A 
ATOM     53  C   UNL A   1      46.500  43.536  28.460  1.00  0.00     0.049 A 
ATOM     54  H   UNL A   1      48.194  44.257  27.484  1.00  0.00     0.167 HD
ATOM     55  C   UNL A   1      51.744  45.525  25.201  1.00  0.00     0.031 A 
ATOM     56  C   UNL A   1      46.887  43.169  29.698  1.00  0.00     0.031 A 
ATOM     57  C   UNL A   1      52.234  45.200  26.511  1.00  0.00     0.049 A 
ATOM     58  C   UNL A   1      48.348  43.270  30.072  1.00  0.00     0.074 A 
ATOM     59  C   UNL A   1      53.521  45.319  27.001  1.00  0.00     0.029 A 
ATOM     60  N   UNL A   1      51.454  44.696  27.540  1.00  0.00    -0.354 N 
ATOM     61  N   UNL A   1      49.355  43.716  29.357  1.00  0.00    -0.248 NA
ATOM     62  C   UNL A   1      48.726  42.819  31.419  1.00  0.00     0.031 C 
ATOM     63  C   UNL A   1      53.531  44.841  28.314  1.00  0.00     0.029 A 
ATOM     64  C   UNL A   1      52.235  44.493  28.663  1.00  0.00     0.049 A 
ATOM     65  H   UNL A   1      50.489  44.512  27.481  1.00  0.00     0.167 HD
ATOM     66  C   UNL A   1      50.470  43.651  30.189  1.00  0.00     0.074 A 
ATOM     67  C   UNL A   1      50.018  43.119  31.456  1.00  0.00     0.031 C 
ATOM     68  C   UNL A   1      51.753  44.006  29.930  1.00  0.00     0.031 A 
BRANCH  55  69
ATOM     69  C   UNL A   1      52.708  46.079  24.189  1.00  0.00    -0.014 A 
ATOM     70  C   UNL A   1      53.440  45.224  23.346  1.00  0.00     0.010 A 
ATOM     71  C   UNL A   1      52.846  47.472  24.042  1.00  0.00     0.010 A 
ATOM     72  C   UNL A   1      54.310  45.751  22.388  1.00  0.00     0.020 A 
ATOM     73  C   UNL A   1      53.693  48.003  23.066  1.00  0.00     0.020 A 
ATOM     74  C   UNL A   1      54.427  47.138  22.252  1.00  0.00     0.054 A 
BRANCH  74  75
ATOM     75  S   UNL A   1      55.527  47.791  20.967  1.00  0.00     0.124 S 
ATOM     76  O   UNL A   1      54.574  48.246  19.957  1.00  0.00    -0.237 OA
ATOM     77  O   UNL A   1      56.247  48.849  21.672  1.00  0.00    -0.237 OA
ATOM     78  O   UNL A   1      56.337  46.638  20.582  1.00  0.00    -0.744 OA
ENDBRANCH  74  75
ENDBRANCH  55  69
BRANCH  56  79
ATOM     79  C   UNL A   1      45.898  42.636  30.680  1.00  0.00    -0.014 A 
ATOM     80  C   UNL A   1      45.278  43.496  31.605  1.00  0.00     0.010 A 
ATOM     81  C   UNL A   1      45.613  41.259  30.736  1.00  0.00     0.010 A 
ATOM     82  C   UNL A   1      44.430  42.986  32.593  1.00  0.00     0.020 A 
ATOM     83  C   UNL A   1      44.737  40.749  31.700  1.00  0.00     0.020 A 
ATOM     84  C   UNL A   1      44.169  41.614  32.637  1.00  0.00     0.054 A 
BRANCH  84  85
ATOM     85  S   UNL A   1      43.067  40.976  33.930  1.00  0.00     0.124 S 
ATOM     86  O   UNL A   1      43.777  41.357  35.147  1.00  0.00    -0.237 OA
ATOM     87  O   UNL A   1      41.825  41.699  33.669  1.00  0.00    -0.237 OA
ATOM     88  O   UNL A   1      43.014  39.542  33.658  1.00  0.00    -0.744 OA
ENDBRANCH  84  85
ENDBRANCH  56  79
BRANCH  68  89
ATOM     89  C   UNL A   1      52.752  43.934  31.055  1.00  0.00    -0.014 A 
ATOM     90  C   UNL A   1      53.553  42.799  31.262  1.00  0.00     0.010 A 
ATOM     91  C   UNL A   1      52.964  45.079  31.847  1.00  0.00     0.010 A 
ATOM     92  C   UNL A   1      54.544  42.809  32.249  1.00  0.00     0.020 A 
ATOM     93  C   UNL A   1      53.971  45.103  32.812  1.00  0.00     0.020 A 
ATOM     94  C   UNL A   1      54.753  43.965  33.011  1.00  0.00     0.054 A 
BRANCH  94  95
ATOM     95  S   UNL A   1      56.105  43.981  34.220  1.00  0.00     0.124 S 
ATOM     96  O   UNL A   1      57.011  42.971  33.678  1.00  0.00    -0.237 OA
ATOM     97  O   UNL A   1      56.583  45.359  34.146  1.00  0.00    -0.237 OA
ATOM     98  O   UNL A   1      55.453  43.621  35.477  1.00  0.00    -0.744 OA
ENDBRANCH  94  95
ENDBRANCH  68  89
ENDBRANCH  42  43
ENDBRANCH  35  37
ENDBRANCH  34  35
ENDBRANCH  33  34
ENDBRANCH  32  33
ENDBRANCH  31  32
ENDBRANCH  30  31
ENDBRANCH  29  30
ENDBRANCH  28  29
ENDBRANCH   1  28
TORSDOF 28
ENDMDL
