MODEL 1
REMARK VINA RESULT:      -8.5      0.000      0.000
REMARK SMILES CC[C@H]([NH3+])C(=O)N(C)c1snc(C)c1C(=O)OCCOCCOCCOCCOC(=O)c1ccc(-c2c3nc(c(-c4ccc(S(=O)(=O)[O-])cc4)c4ccc([nH]4)c(-c4ccc(S(=O)(=O)[O-])cc4)c4nc(c(-c5ccc(S(=O)(=O)[O-])cc5)c5ccc2[nH]5)C=C4)C=C3)cc1
REMARK SMILES IDX 22 1 21 2 20 3 19 4 18 5 17 6 15 7 16 8 14 9 9 10 10 11
REMARK SMILES IDX 11 12 12 13 13 14 7 15 8 16 5 17 6 18 3 19 2 20 1 21 4 22
REMARK SMILES IDX 23 26 24 27 25 28 26 29 27 30 28 31 29 32 30 33 31 34 32 35
REMARK SMILES IDX 33 36 91 37 34 38 90 39 35 40 36 41 37 42 84 43 38 44 89 45
REMARK SMILES IDX 83 46 85 47 39 48 88 49 82 50 81 51 40 53 70 54 51 55 69 56
REMARK SMILES IDX 52 57 55 58 68 59 86 60 53 61 54 62 67 64 87 65 56 66 41 67
REMARK SMILES IDX 42 68 50 69 43 70 49 71 44 72 45 73 46 74 47 75 48 76 71 77
REMARK SMILES IDX 72 78 80 79 73 80 79 81 74 82 75 83 76 84 77 85 78 86 57 87
REMARK SMILES IDX 58 88 66 89 59 90 65 91 60 92 61 93 62 94 63 95 64 96
REMARK H PARENT 4 23 4 24 4 25 85 52 55 63
REMARK Flexibility Score: inf
ROOT
ATOM      1  C   UNL A   1      34.636  23.876  25.073  1.00  0.00     0.188 C 
ENDROOT
BRANCH   1   2
ATOM      2  C   UNL A   1      33.370  24.640  24.626  1.00  0.00     0.188 C 
BRANCH   2   3
ATOM      3  O   UNL A   1      32.414  24.048  23.762  1.00  0.00    -0.376 OA
BRANCH   3   4
ATOM      4  C   UNL A   1      31.590  24.791  22.881  1.00  0.00     0.202 C 
BRANCH   4   5
ATOM      5  C   UNL A   1      31.650  26.314  22.692  1.00  0.00     0.261 C 
BRANCH   5   6
ATOM      6  O   UNL A   1      30.426  26.958  22.369  1.00  0.00    -0.460 OA
BRANCH   6   7
ATOM      7  C   UNL A   1      29.637  27.340  23.417  1.00  0.00     0.343 C 
ATOM      8  O   UNL A   1      29.260  26.591  24.310  1.00  0.00    -0.246 OA
BRANCH   7   9
ATOM      9  C   UNL A   1      29.514  28.791  23.477  1.00  0.00     0.117 A 
ATOM     10  C   UNL A   1      30.461  29.673  24.002  1.00  0.00     0.133 A 
ATOM     11  S   UNL A   1      29.762  31.239  24.023  1.00  0.00    -0.017 S 
ATOM     12  N   UNL A   1      28.291  30.815  23.427  1.00  0.00    -0.195 NA
ATOM     13  C   UNL A   1      28.269  29.499  23.219  1.00  0.00     0.068 A 
ATOM     14  C   UNL A   1      26.936  28.907  22.882  1.00  0.00     0.069 C 
BRANCH  10  15
ATOM     15  N   UNL A   1      31.770  29.514  24.525  1.00  0.00    -0.300 N 
ATOM     16  C   UNL A   1      32.904  29.275  23.625  1.00  0.00     0.154 C 
BRANCH  15  17
ATOM     17  C   UNL A   1      31.906  29.589  25.918  1.00  0.00     0.285 C 
ATOM     18  O   UNL A   1      31.717  30.647  26.537  1.00  0.00    -0.268 OA
BRANCH  17  19
ATOM     19  C   UNL A   1      32.230  28.314  26.753  1.00  0.00     0.271 C 
BRANCH  19  20
ATOM     20  C   UNL A   1      33.723  27.976  26.900  1.00  0.00     0.072 C 
ATOM     21  C   UNL A   1      34.607  29.220  26.923  1.00  0.00     0.011 C 
ENDBRANCH  19  20
BRANCH  19  22
ATOM     22  N   UNL A   1      31.379  27.181  26.338  1.00  0.00    -0.347 N 
ATOM     23  H   UNL A   1      31.793  26.307  26.666  1.00  0.00     0.345 HD
ATOM     24  H   UNL A   1      31.309  27.163  25.321  1.00  0.00     0.345 HD
ATOM     25  H   UNL A   1      30.449  27.288  26.741  1.00  0.00     0.345 HD
ENDBRANCH  19  22
ENDBRANCH  17  19
ENDBRANCH  15  17
ENDBRANCH  10  15
ENDBRANCH   7   9
ENDBRANCH   6   7
ENDBRANCH   5   6
ENDBRANCH   4   5
ENDBRANCH   3   4
ENDBRANCH   2   3
ENDBRANCH   1   2
BRANCH   1  26
ATOM     26  O   UNL A   1      34.477  22.476  25.165  1.00  0.00    -0.377 OA
BRANCH  26  27
ATOM     27  C   UNL A   1      35.621  21.716  25.554  1.00  0.00     0.188 C 
BRANCH  27  28
ATOM     28  C   UNL A   1      37.041  22.348  25.658  1.00  0.00     0.188 C 
BRANCH  28  29
ATOM     29  O   UNL A   1      38.093  21.600  25.074  1.00  0.00    -0.376 OA
BRANCH  29  30
ATOM     30  C   UNL A   1      38.794  20.537  25.690  1.00  0.00     0.202 C 
BRANCH  30  31
ATOM     31  C   UNL A   1      40.245  20.733  26.113  1.00  0.00     0.261 C 
BRANCH  31  32
ATOM     32  O   UNL A   1      40.673  22.070  26.000  1.00  0.00    -0.460 OA
BRANCH  32  33
ATOM     33  C   UNL A   1      40.749  22.709  27.184  1.00  0.00     0.338 C 
ATOM     34  O   UNL A   1      40.793  22.214  28.288  1.00  0.00    -0.246 OA
BRANCH  33  35
ATOM     35  C   UNL A   1      40.730  24.145  26.900  1.00  0.00     0.060 A 
ATOM     36  C   UNL A   1      41.974  24.748  26.740  1.00  0.00     0.016 A 
ATOM     37  C   UNL A   1      39.555  24.862  27.181  1.00  0.00     0.016 A 
ATOM     38  C   UNL A   1      42.110  26.014  27.241  1.00  0.00     0.010 A 
ATOM     39  C   UNL A   1      39.692  26.124  27.676  1.00  0.00     0.010 A 
ATOM     40  C   UNL A   1      40.988  26.597  27.837  1.00  0.00    -0.014 A 
BRANCH  40  41
ATOM     41  C   UNL A   1      41.200  27.691  28.743  1.00  0.00     0.031 A 
ATOM     42  C   UNL A   1      42.231  28.618  28.265  1.00  0.00     0.074 A 
ATOM     43  C   UNL A   1      40.433  27.839  29.840  1.00  0.00     0.049 A 
ATOM     44  N   UNL A   1      43.437  28.735  28.705  1.00  0.00    -0.248 NA
ATOM     45  C   UNL A   1      41.967  29.321  26.999  1.00  0.00     0.031 C 
ATOM     46  C   UNL A   1      39.213  27.116  30.223  1.00  0.00     0.029 A 
ATOM     47  N   UNL A   1      40.532  28.782  30.802  1.00  0.00    -0.354 N 
ATOM     48  C   UNL A   1      44.010  29.713  27.909  1.00  0.00     0.074 A 
ATOM     49  C   UNL A   1      43.166  29.843  26.749  1.00  0.00     0.031 C 
ATOM     50  C   UNL A   1      38.559  27.828  31.173  1.00  0.00     0.029 A 
ATOM     51  C   UNL A   1      39.381  28.966  31.553  1.00  0.00     0.049 A 
ATOM     52  H   UNL A   1      41.356  29.297  30.959  1.00  0.00     0.167 HD
ATOM     53  C   UNL A   1      44.953  30.559  28.398  1.00  0.00     0.031 A 
ATOM     54  C   UNL A   1      39.109  30.043  32.336  1.00  0.00     0.031 A 
ATOM     55  C   UNL A   1      45.489  30.100  29.653  1.00  0.00     0.049 A 
ATOM     56  C   UNL A   1      40.412  30.713  32.610  1.00  0.00     0.074 A 
ATOM     57  C   UNL A   1      46.179  28.973  30.053  1.00  0.00     0.029 A 
ATOM     58  N   UNL A   1      44.957  30.650  30.800  1.00  0.00    -0.354 N 
ATOM     59  N   UNL A   1      41.370  30.148  33.297  1.00  0.00    -0.248 NA
ATOM     60  C   UNL A   1      40.848  31.762  31.697  1.00  0.00     0.031 C 
ATOM     61  C   UNL A   1      45.642  28.646  31.332  1.00  0.00     0.029 A 
ATOM     62  C   UNL A   1      44.706  29.624  31.678  1.00  0.00     0.049 A 
ATOM     63  H   UNL A   1      44.788  31.606  30.959  1.00  0.00     0.167 HD
ATOM     64  C   UNL A   1      42.540  30.454  32.611  1.00  0.00     0.074 A 
ATOM     65  C   UNL A   1      42.164  31.520  31.681  1.00  0.00     0.031 C 
ATOM     66  C   UNL A   1      43.625  29.621  32.645  1.00  0.00     0.031 A 
BRANCH  53  67
ATOM     67  C   UNL A   1      45.056  31.987  27.945  1.00  0.00    -0.014 A 
ATOM     68  C   UNL A   1      46.302  32.484  27.534  1.00  0.00     0.010 A 
ATOM     69  C   UNL A   1      44.019  32.924  28.154  1.00  0.00     0.010 A 
ATOM     70  C   UNL A   1      46.511  33.860  27.387  1.00  0.00     0.020 A 
ATOM     71  C   UNL A   1      44.203  34.290  27.962  1.00  0.00     0.020 A 
ATOM     72  C   UNL A   1      45.461  34.753  27.613  1.00  0.00     0.054 A 
BRANCH  72  73
ATOM     73  S   UNL A   1      45.769  36.530  27.527  1.00  0.00     0.124 S 
ATOM     74  O   UNL A   1      45.651  36.921  28.928  1.00  0.00    -0.237 OA
ATOM     75  O   UNL A   1      47.115  36.581  26.963  1.00  0.00    -0.237 OA
ATOM     76  O   UNL A   1      44.710  37.020  26.648  1.00  0.00    -0.744 OA
ENDBRANCH  72  73
ENDBRANCH  53  67
BRANCH  54  77
ATOM     77  C   UNL A   1      37.793  30.729  32.453  1.00  0.00    -0.014 A 
ATOM     78  C   UNL A   1      37.427  31.451  33.604  1.00  0.00     0.010 A 
ATOM     79  C   UNL A   1      36.987  30.886  31.305  1.00  0.00     0.010 A 
ATOM     80  C   UNL A   1      36.316  32.318  33.594  1.00  0.00     0.020 A 
ATOM     81  C   UNL A   1      35.882  31.743  31.287  1.00  0.00     0.020 A 
ATOM     82  C   UNL A   1      35.558  32.469  32.428  1.00  0.00     0.054 A 
BRANCH  82  83
ATOM     83  S   UNL A   1      34.213  33.693  32.372  1.00  0.00     0.124 S 
ATOM     84  O   UNL A   1      34.842  34.876  32.950  1.00  0.00    -0.237 OA
ATOM     85  O   UNL A   1      33.911  33.768  30.945  1.00  0.00    -0.237 OA
ATOM     86  O   UNL A   1      33.163  33.089  33.191  1.00  0.00    -0.744 OA
ENDBRANCH  82  83
ENDBRANCH  54  77
BRANCH  66  87
ATOM     87  C   UNL A   1      43.607  28.465  33.625  1.00  0.00    -0.014 A 
ATOM     88  C   UNL A   1      44.419  28.399  34.777  1.00  0.00     0.010 A 
ATOM     89  C   UNL A   1      42.616  27.484  33.454  1.00  0.00     0.010 A 
ATOM     90  C   UNL A   1      44.261  27.362  35.712  1.00  0.00     0.020 A 
ATOM     91  C   UNL A   1      42.443  26.459  34.388  1.00  0.00     0.020 A 
ATOM     92  C   UNL A   1      43.274  26.395  35.507  1.00  0.00     0.054 A 
BRANCH  92  93
ATOM     93  S   UNL A   1      43.052  25.067  36.727  1.00  0.00     0.124 S 
ATOM     94  O   UNL A   1      43.951  25.473  37.804  1.00  0.00    -0.237 OA
ATOM     95  O   UNL A   1      41.625  25.144  37.035  1.00  0.00    -0.237 OA
ATOM     96  O   UNL A   1      43.456  23.861  36.006  1.00  0.00    -0.744 OA
ENDBRANCH  92  93
ENDBRANCH  66  87
ENDBRANCH  40  41
ENDBRANCH  33  35
ENDBRANCH  32  33
ENDBRANCH  31  32
ENDBRANCH  30  31
ENDBRANCH  29  30
ENDBRANCH  28  29
ENDBRANCH  27  28
ENDBRANCH  26  27
ENDBRANCH   1  26
TORSDOF 28
ENDMDL
MODEL 2
REMARK VINA RESULT:      -8.5      5.905     13.191
REMARK SMILES CC[C@H]([NH3+])C(=O)N(C)c1snc(C)c1C(=O)OCCOCCOCCOCCOC(=O)c1ccc(-c2c3nc(c(-c4ccc(S(=O)(=O)[O-])cc4)c4ccc([nH]4)c(-c4ccc(S(=O)(=O)[O-])cc4)c4nc(c(-c5ccc(S(=O)(=O)[O-])cc5)c5ccc2[nH]5)C=C4)C=C3)cc1
REMARK SMILES IDX 22 1 21 2 20 3 19 4 18 5 17 6 15 7 16 8 14 9 9 10 10 11
REMARK SMILES IDX 11 12 12 13 13 14 7 15 8 16 5 17 6 18 3 19 2 20 1 21 4 22
REMARK SMILES IDX 23 26 24 27 25 28 26 29 27 30 28 31 29 32 30 33 31 34 32 35
REMARK SMILES IDX 33 36 91 37 34 38 90 39 35 40 36 41 37 42 84 43 38 44 89 45
REMARK SMILES IDX 83 46 85 47 39 48 88 49 82 50 81 51 40 53 70 54 51 55 69 56
REMARK SMILES IDX 52 57 55 58 68 59 86 60 53 61 54 62 67 64 87 65 56 66 41 67
REMARK SMILES IDX 42 68 50 69 43 70 49 71 44 72 45 73 46 74 47 75 48 76 71 77
REMARK SMILES IDX 72 78 80 79 73 80 79 81 74 82 75 83 76 84 77 85 78 86 57 87
REMARK SMILES IDX 58 88 66 89 59 90 65 91 60 92 61 93 62 94 63 95 64 96
REMARK H PARENT 4 23 4 24 4 25 85 52 55 63
REMARK Flexibility Score: inf
ROOT
ATOM      1  C   UNL A   1      37.392  33.258  36.217  1.00  0.00     0.188 C 
ENDROOT
BRANCH   1   2
ATOM      2  C   UNL A   1      37.768  31.826  36.662  1.00  0.00     0.188 C 
BRANCH   2   3
ATOM      3  O   UNL A   1      37.260  31.265  37.859  1.00  0.00    -0.376 OA
BRANCH   3   4
ATOM      4  C   UNL A   1      37.011  32.018  39.033  1.00  0.00     0.202 C 
BRANCH   4   5
ATOM      5  C   UNL A   1      37.746  31.837  40.369  1.00  0.00     0.261 C 
BRANCH   5   6
ATOM      6  O   UNL A   1      37.116  30.997  41.327  1.00  0.00    -0.460 OA
BRANCH   6   7
ATOM      7  C   UNL A   1      37.935  30.339  42.199  1.00  0.00     0.343 C 
ATOM      8  O   UNL A   1      38.363  29.204  42.028  1.00  0.00    -0.246 OA
BRANCH   7   9
ATOM      9  C   UNL A   1      38.439  31.243  43.226  1.00  0.00     0.117 A 
ATOM     10  C   UNL A   1      37.663  32.024  44.083  1.00  0.00     0.133 A 
ATOM     11  S   UNL A   1      38.722  33.052  44.958  1.00  0.00    -0.017 S 
ATOM     12  N   UNL A   1      40.118  32.560  44.247  1.00  0.00    -0.195 NA
ATOM     13  C   UNL A   1      39.836  31.638  43.327  1.00  0.00     0.068 A 
ATOM     14  C   UNL A   1      40.966  31.235  42.431  1.00  0.00     0.069 C 
BRANCH  10  15
ATOM     15  N   UNL A   1      36.267  32.148  44.309  1.00  0.00    -0.300 N 
ATOM     16  C   UNL A   1      35.491  33.172  43.600  1.00  0.00     0.154 C 
BRANCH  15  17
ATOM     17  C   UNL A   1      35.696  31.262  45.232  1.00  0.00     0.285 C 
ATOM     18  O   UNL A   1      35.811  30.033  45.114  1.00  0.00    -0.268 OA
BRANCH  17  19
ATOM     19  C   UNL A   1      34.951  31.799  46.490  1.00  0.00     0.271 C 
BRANCH  19  20
ATOM     20  C   UNL A   1      35.777  31.837  47.787  1.00  0.00     0.072 C 
ATOM     21  C   UNL A   1      34.941  32.225  49.004  1.00  0.00     0.011 C 
ENDBRANCH  19  20
BRANCH  19  22
ATOM     22  N   UNL A   1      33.621  31.173  46.624  1.00  0.00    -0.347 N 
ATOM     23  H   UNL A   1      33.299  30.858  45.709  1.00  0.00     0.345 HD
ATOM     24  H   UNL A   1      32.961  31.855  47.000  1.00  0.00     0.345 HD
ATOM     25  H   UNL A   1      33.682  30.376  47.257  1.00  0.00     0.345 HD
ENDBRANCH  19  22
ENDBRANCH  17  19
ENDBRANCH  15  17
ENDBRANCH  10  15
ENDBRANCH   7   9
ENDBRANCH   6   7
ENDBRANCH   5   6
ENDBRANCH   4   5
ENDBRANCH   3   4
ENDBRANCH   2   3
ENDBRANCH   1   2
BRANCH   1  26
ATOM     26  O   UNL A   1      36.130  33.366  35.593  1.00  0.00    -0.377 OA
BRANCH  26  27
ATOM     27  C   UNL A   1      36.065  34.128  34.388  1.00  0.00     0.188 C 
BRANCH  27  28
ATOM     28  C   UNL A   1      34.740  34.773  33.883  1.00  0.00     0.188 C 
BRANCH  28  29
ATOM     29  O   UNL A   1      34.834  36.119  33.452  1.00  0.00    -0.376 OA
BRANCH  29  30
ATOM     30  C   UNL A   1      33.795  36.871  32.853  1.00  0.00     0.202 C 
BRANCH  30  31
ATOM     31  C   UNL A   1      33.217  36.427  31.515  1.00  0.00     0.261 C 
BRANCH  31  32
ATOM     32  O   UNL A   1      34.157  35.762  30.705  1.00  0.00    -0.460 OA
BRANCH  32  33
ATOM     33  C   UNL A   1      33.615  35.213  29.600  1.00  0.00     0.338 C 
ATOM     34  O   UNL A   1      32.719  35.657  28.917  1.00  0.00    -0.246 OA
BRANCH  33  35
ATOM     35  C   UNL A   1      34.289  33.931  29.383  1.00  0.00     0.060 A 
ATOM     36  C   UNL A   1      34.522  33.168  30.524  1.00  0.00     0.016 A 
ATOM     37  C   UNL A   1      34.973  33.736  28.172  1.00  0.00     0.016 A 
ATOM     38  C   UNL A   1      35.701  32.475  30.567  1.00  0.00     0.010 A 
ATOM     39  C   UNL A   1      36.145  33.043  28.216  1.00  0.00     0.010 A 
ATOM     40  C   UNL A   1      36.546  32.569  29.458  1.00  0.00    -0.014 A 
BRANCH  40  41
ATOM     41  C   UNL A   1      37.934  32.245  29.641  1.00  0.00     0.031 A 
ATOM     42  C   UNL A   1      38.221  30.839  29.337  1.00  0.00     0.074 A 
ATOM     43  C   UNL A   1      38.830  33.197  29.961  1.00  0.00     0.049 A 
ATOM     44  N   UNL A   1      38.453  29.892  30.181  1.00  0.00    -0.248 NA
ATOM     45  C   UNL A   1      37.986  30.389  27.956  1.00  0.00     0.031 C 
ATOM     46  C   UNL A   1      38.659  34.655  30.000  1.00  0.00     0.029 A 
ATOM     47  N   UNL A   1      40.151  33.048  30.205  1.00  0.00    -0.354 N 
ATOM     48  C   UNL A   1      38.630  28.761  29.401  1.00  0.00     0.074 A 
ATOM     49  C   UNL A   1      38.089  29.069  28.102  1.00  0.00     0.031 C 
ATOM     50  C   UNL A   1      39.880  35.243  29.983  1.00  0.00     0.029 A 
ATOM     51  C   UNL A   1      40.898  34.208  30.073  1.00  0.00     0.049 A 
ATOM     52  H   UNL A   1      40.550  32.184  30.457  1.00  0.00     0.167 HD
ATOM     53  C   UNL A   1      39.480  27.771  29.777  1.00  0.00     0.031 A 
ATOM     54  C   UNL A   1      42.250  34.268  29.939  1.00  0.00     0.031 A 
ATOM     55  C   UNL A   1      39.865  27.887  31.160  1.00  0.00     0.049 A 
ATOM     56  C   UNL A   1      42.787  32.968  30.430  1.00  0.00     0.074 A 
ATOM     57  C   UNL A   1      39.179  27.860  32.357  1.00  0.00     0.029 A 
ATOM     58  N   UNL A   1      41.074  28.494  31.424  1.00  0.00    -0.354 N 
ATOM     59  N   UNL A   1      42.683  32.582  31.674  1.00  0.00    -0.248 NA
ATOM     60  C   UNL A   1      42.960  31.890  29.465  1.00  0.00     0.031 C 
ATOM     61  C   UNL A   1      39.802  28.859  33.161  1.00  0.00     0.029 A 
ATOM     62  C   UNL A   1      40.875  29.393  32.444  1.00  0.00     0.049 A 
ATOM     63  H   UNL A   1      41.925  28.316  30.964  1.00  0.00     0.167 HD
ATOM     64  C   UNL A   1      42.349  31.233  31.611  1.00  0.00     0.074 A 
ATOM     65  C   UNL A   1      42.615  30.845  30.225  1.00  0.00     0.031 C 
ATOM     66  C   UNL A   1      41.610  30.634  32.595  1.00  0.00     0.031 A 
BRANCH  53  67
ATOM     67  C   UNL A   1      40.272  26.978  28.777  1.00  0.00    -0.014 A 
ATOM     68  C   UNL A   1      40.026  25.602  28.650  1.00  0.00     0.010 A 
ATOM     69  C   UNL A   1      41.426  27.493  28.144  1.00  0.00     0.010 A 
ATOM     70  C   UNL A   1      40.921  24.775  27.960  1.00  0.00     0.020 A 
ATOM     71  C   UNL A   1      42.295  26.688  27.415  1.00  0.00     0.020 A 
ATOM     72  C   UNL A   1      42.054  25.325  27.357  1.00  0.00     0.054 A 
BRANCH  72  73
ATOM     73  S   UNL A   1      43.258  24.236  26.564  1.00  0.00     0.124 S 
ATOM     74  O   UNL A   1      44.513  24.925  26.844  1.00  0.00    -0.237 OA
ATOM     75  O   UNL A   1      43.049  22.979  27.276  1.00  0.00    -0.237 OA
ATOM     76  O   UNL A   1      42.844  24.230  25.164  1.00  0.00    -0.744 OA
ENDBRANCH  72  73
ENDBRANCH  53  67
BRANCH  54  77
ATOM     77  C   UNL A   1      42.997  35.172  29.023  1.00  0.00    -0.014 A 
ATOM     78  C   UNL A   1      42.368  35.840  27.956  1.00  0.00     0.010 A 
ATOM     79  C   UNL A   1      44.304  35.582  29.364  1.00  0.00     0.010 A 
ATOM     80  C   UNL A   1      43.012  36.896  27.280  1.00  0.00     0.020 A 
ATOM     81  C   UNL A   1      44.952  36.627  28.697  1.00  0.00     0.020 A 
ATOM     82  C   UNL A   1      44.297  37.292  27.665  1.00  0.00     0.054 A 
BRANCH  82  83
ATOM     83  S   UNL A   1      45.072  38.744  26.889  1.00  0.00     0.124 S 
ATOM     84  O   UNL A   1      43.922  39.455  26.339  1.00  0.00    -0.237 OA
ATOM     85  O   UNL A   1      45.737  39.391  28.017  1.00  0.00    -0.237 OA
ATOM     86  O   UNL A   1      45.973  38.163  25.894  1.00  0.00    -0.744 OA
ENDBRANCH  82  83
ENDBRANCH  54  77
BRANCH  66  87
ATOM     87  C   UNL A   1      41.350  31.416  33.867  1.00  0.00    -0.014 A 
ATOM     88  C   UNL A   1      41.698  30.956  35.156  1.00  0.00     0.010 A 
ATOM     89  C   UNL A   1      40.879  32.733  33.737  1.00  0.00     0.010 A 
ATOM     90  C   UNL A   1      41.547  31.783  36.281  1.00  0.00     0.020 A 
ATOM     91  C   UNL A   1      40.742  33.566  34.851  1.00  0.00     0.020 A 
ATOM     92  C   UNL A   1      41.064  33.084  36.120  1.00  0.00     0.054 A 
BRANCH  92  93
ATOM     93  S   UNL A   1      40.892  34.164  37.571  1.00  0.00     0.124 S 
ATOM     94  O   UNL A   1      42.252  34.662  37.759  1.00  0.00    -0.237 OA
ATOM     95  O   UNL A   1      39.915  35.155  37.125  1.00  0.00    -0.237 OA
ATOM     96  O   UNL A   1      40.413  33.263  38.619  1.00  0.00    -0.744 OA
ENDBRANCH  92  93
ENDBRANCH  66  87
ENDBRANCH  40  41
ENDBRANCH  33  35
ENDBRANCH  32  33
ENDBRANCH  31  32
ENDBRANCH  30  31
ENDBRANCH  29  30
ENDBRANCH  28  29
ENDBRANCH  27  28
ENDBRANCH  26  27
ENDBRANCH   1  26
TORSDOF 28
ENDMDL
MODEL 3
REMARK VINA RESULT:      -8.3      1.789      2.736
REMARK SMILES CC[C@H]([NH3+])C(=O)N(C)c1snc(C)c1C(=O)OCCOCCOCCOCCOC(=O)c1ccc(-c2c3nc(c(-c4ccc(S(=O)(=O)[O-])cc4)c4ccc([nH]4)c(-c4ccc(S(=O)(=O)[O-])cc4)c4nc(c(-c5ccc(S(=O)(=O)[O-])cc5)c5ccc2[nH]5)C=C4)C=C3)cc1
REMARK SMILES IDX 22 1 21 2 20 3 19 4 18 5 17 6 15 7 16 8 14 9 9 10 10 11
REMARK SMILES IDX 11 12 12 13 13 14 7 15 8 16 5 17 6 18 3 19 2 20 1 21 4 22
REMARK SMILES IDX 23 26 24 27 25 28 26 29 27 30 28 31 29 32 30 33 31 34 32 35
REMARK SMILES IDX 33 36 91 37 34 38 90 39 35 40 36 41 37 42 84 43 38 44 89 45
REMARK SMILES IDX 83 46 85 47 39 48 88 49 82 50 81 51 40 53 70 54 51 55 69 56
REMARK SMILES IDX 52 57 55 58 68 59 86 60 53 61 54 62 67 64 87 65 56 66 41 67
REMARK SMILES IDX 42 68 50 69 43 70 49 71 44 72 45 73 46 74 47 75 48 76 71 77
REMARK SMILES IDX 72 78 80 79 73 80 79 81 74 82 75 83 76 84 77 85 78 86 57 87
REMARK SMILES IDX 58 88 66 89 59 90 65 91 60 92 61 93 62 94 63 95 64 96
REMARK H PARENT 4 23 4 24 4 25 85 52 55 63
REMARK Flexibility Score: inf
ROOT
ATOM      1  C   UNL A   1      35.529  24.416  24.994  1.00  0.00     0.188 C 
ENDROOT
BRANCH   1   2
ATOM      2  C   UNL A   1      34.328  25.121  24.323  1.00  0.00     0.188 C 
BRANCH   2   3
ATOM      3  O   UNL A   1      34.231  25.239  22.915  1.00  0.00    -0.376 OA
BRANCH   3   4
ATOM      4  C   UNL A   1      33.418  26.200  22.265  1.00  0.00     0.202 C 
BRANCH   4   5
ATOM      5  C   UNL A   1      33.747  27.696  22.144  1.00  0.00     0.261 C 
BRANCH   5   6
ATOM      6  O   UNL A   1      33.336  28.521  23.226  1.00  0.00    -0.460 OA
BRANCH   6   7
ATOM      7  C   UNL A   1      32.018  28.460  23.578  1.00  0.00     0.343 C 
ATOM      8  O   UNL A   1      31.086  28.451  22.783  1.00  0.00    -0.246 OA
BRANCH   7   9
ATOM      9  C   UNL A   1      31.870  28.152  24.995  1.00  0.00     0.117 A 
ATOM     10  C   UNL A   1      31.115  27.109  25.533  1.00  0.00     0.133 A 
ATOM     11  S   UNL A   1      31.103  27.296  27.238  1.00  0.00    -0.017 S 
ATOM     12  N   UNL A   1      31.989  28.677  27.299  1.00  0.00    -0.195 NA
ATOM     13  C   UNL A   1      32.297  29.051  26.057  1.00  0.00     0.068 A 
ATOM     14  C   UNL A   1      32.918  30.405  25.913  1.00  0.00     0.069 C 
BRANCH  10  15
ATOM     15  N   UNL A   1      30.373  26.038  24.969  1.00  0.00    -0.300 N 
ATOM     16  C   UNL A   1      29.291  26.309  24.015  1.00  0.00     0.154 C 
BRANCH  15  17
ATOM     17  C   UNL A   1      30.724  24.744  25.376  1.00  0.00     0.285 C 
ATOM     18  O   UNL A   1      30.766  24.425  26.574  1.00  0.00    -0.268 OA
BRANCH  17  19
ATOM     19  C   UNL A   1      31.007  23.631  24.324  1.00  0.00     0.271 C 
BRANCH  19  20
ATOM     20  C   UNL A   1      32.129  22.643  24.684  1.00  0.00     0.072 C 
ATOM     21  C   UNL A   1      31.950  21.282  24.016  1.00  0.00     0.011 C 
ENDBRANCH  19  20
BRANCH  19  22
ATOM     22  N   UNL A   1      31.099  24.200  22.965  1.00  0.00    -0.347 N 
ATOM     23  H   UNL A   1      30.214  24.061  22.477  1.00  0.00     0.345 HD
ATOM     24  H   UNL A   1      31.847  23.733  22.451  1.00  0.00     0.345 HD
ATOM     25  H   UNL A   1      31.300  25.197  23.026  1.00  0.00     0.345 HD
ENDBRANCH  19  22
ENDBRANCH  17  19
ENDBRANCH  15  17
ENDBRANCH  10  15
ENDBRANCH   7   9
ENDBRANCH   6   7
ENDBRANCH   5   6
ENDBRANCH   4   5
ENDBRANCH   3   4
ENDBRANCH   2   3
ENDBRANCH   1   2
BRANCH   1  26
ATOM     26  O   UNL A   1      35.339  23.039  25.243  1.00  0.00    -0.377 OA
BRANCH  26  27
ATOM     27  C   UNL A   1      36.463  22.306  25.728  1.00  0.00     0.188 C 
BRANCH  27  28
ATOM     28  C   UNL A   1      37.870  22.955  25.894  1.00  0.00     0.188 C 
BRANCH  28  29
ATOM     29  O   UNL A   1      38.961  22.193  25.408  1.00  0.00    -0.376 OA
BRANCH  29  30
ATOM     30  C   UNL A   1      39.453  20.996  25.977  1.00  0.00     0.202 C 
BRANCH  30  31
ATOM     31  C   UNL A   1      40.932  20.878  26.329  1.00  0.00     0.261 C 
BRANCH  31  32
ATOM     32  O   UNL A   1      41.626  22.095  26.191  1.00  0.00    -0.460 OA
BRANCH  32  33
ATOM     33  C   UNL A   1      41.729  22.785  27.344  1.00  0.00     0.338 C 
ATOM     34  O   UNL A   1      41.508  22.386  28.466  1.00  0.00    -0.246 OA
BRANCH  33  35
ATOM     35  C   UNL A   1      42.128  24.149  26.994  1.00  0.00     0.060 A 
ATOM     36  C   UNL A   1      43.325  24.592  27.550  1.00  0.00     0.016 A 
ATOM     37  C   UNL A   1      41.152  25.015  26.476  1.00  0.00     0.016 A 
ATOM     38  C   UNL A   1      43.373  25.904  27.937  1.00  0.00     0.010 A 
ATOM     39  C   UNL A   1      41.202  26.321  26.860  1.00  0.00     0.010 A 
ATOM     40  C   UNL A   1      42.235  26.684  27.714  1.00  0.00    -0.014 A 
BRANCH  40  41
ATOM     41  C   UNL A   1      42.083  27.886  28.485  1.00  0.00     0.031 A 
ATOM     42  C   UNL A   1      43.207  28.812  28.301  1.00  0.00     0.074 A 
ATOM     43  C   UNL A   1      40.963  28.114  29.197  1.00  0.00     0.049 A 
ATOM     44  N   UNL A   1      44.162  29.050  29.132  1.00  0.00    -0.248 NA
ATOM     45  C   UNL A   1      43.420  29.347  26.947  1.00  0.00     0.031 C 
ATOM     46  C   UNL A   1      39.698  27.369  29.198  1.00  0.00     0.029 A 
ATOM     47  N   UNL A   1      40.687  29.166  29.999  1.00  0.00    -0.354 N 
ATOM     48  C   UNL A   1      44.976  29.962  28.481  1.00  0.00     0.074 A 
ATOM     49  C   UNL A   1      44.620  29.907  27.086  1.00  0.00     0.031 C 
ATOM     50  C   UNL A   1      38.730  28.146  29.743  1.00  0.00     0.029 A 
ATOM     51  C   UNL A   1      39.338  29.367  30.246  1.00  0.00     0.049 A 
ATOM     52  H   UNL A   1      41.389  29.745  30.377  1.00  0.00     0.167 HD
ATOM     53  C   UNL A   1      45.661  30.913  29.167  1.00  0.00     0.031 A 
ATOM     54  C   UNL A   1      38.783  30.510  30.730  1.00  0.00     0.031 A 
ATOM     55  C   UNL A   1      45.701  30.636  30.579  1.00  0.00     0.049 A 
ATOM     56  C   UNL A   1      39.883  31.283  31.371  1.00  0.00     0.074 A 
ATOM     57  C   UNL A   1      46.209  29.606  31.345  1.00  0.00     0.029 A 
ATOM     58  N   UNL A   1      44.776  31.282  31.370  1.00  0.00    -0.354 N 
ATOM     59  N   UNL A   1      40.526  30.860  32.427  1.00  0.00    -0.248 NA
ATOM     60  C   UNL A   1      40.613  32.243  30.553  1.00  0.00     0.031 C 
ATOM     61  C   UNL A   1      45.240  29.397  32.371  1.00  0.00     0.029 A 
ATOM     62  C   UNL A   1      44.231  30.351  32.221  1.00  0.00     0.049 A 
ATOM     63  H   UNL A   1      44.548  32.238  31.332  1.00  0.00     0.167 HD
ATOM     64  C   UNL A   1      41.863  31.154  32.183  1.00  0.00     0.074 A 
ATOM     65  C   UNL A   1      41.844  32.080  31.050  1.00  0.00     0.031 C 
ATOM     66  C   UNL A   1      42.869  30.396  32.718  1.00  0.00     0.031 A 
BRANCH  53  67
ATOM     67  C   UNL A   1      45.906  32.283  28.601  1.00  0.00    -0.014 A 
ATOM     68  C   UNL A   1      47.227  32.737  28.461  1.00  0.00     0.010 A 
ATOM     69  C   UNL A   1      44.872  33.234  28.445  1.00  0.00     0.010 A 
ATOM     70  C   UNL A   1      47.498  34.089  28.222  1.00  0.00     0.020 A 
ATOM     71  C   UNL A   1      45.130  34.571  28.159  1.00  0.00     0.020 A 
ATOM     72  C   UNL A   1      46.446  34.997  28.083  1.00  0.00     0.054 A 
BRANCH  72  73
ATOM     73  S   UNL A   1      46.808  36.756  27.886  1.00  0.00     0.124 S 
ATOM     74  O   UNL A   1      47.924  36.936  28.808  1.00  0.00    -0.237 OA
ATOM     75  O   UNL A   1      47.135  36.844  26.466  1.00  0.00    -0.237 OA
ATOM     76  O   UNL A   1      45.561  37.408  28.275  1.00  0.00    -0.744 OA
ENDBRANCH  72  73
ENDBRANCH  53  67
BRANCH  54  77
ATOM     77  C   UNL A   1      37.508  31.124  30.268  1.00  0.00    -0.014 A 
ATOM     78  C   UNL A   1      36.471  31.451  31.161  1.00  0.00     0.010 A 
ATOM     79  C   UNL A   1      37.417  31.633  28.954  1.00  0.00     0.010 A 
ATOM     80  C   UNL A   1      35.402  32.278  30.760  1.00  0.00     0.020 A 
ATOM     81  C   UNL A   1      36.359  32.453  28.548  1.00  0.00     0.020 A 
ATOM     82  C   UNL A   1      35.361  32.786  29.458  1.00  0.00     0.054 A 
BRANCH  82  83
ATOM     83  S   UNL A   1      34.060  33.965  28.983  1.00  0.00     0.124 S 
ATOM     84  O   UNL A   1      34.830  35.062  28.403  1.00  0.00    -0.237 OA
ATOM     85  O   UNL A   1      33.256  33.190  28.042  1.00  0.00    -0.237 OA
ATOM     86  O   UNL A   1      33.397  34.276  30.248  1.00  0.00    -0.744 OA
ENDBRANCH  82  83
ENDBRANCH  54  77
BRANCH  66  87
ATOM     87  C   UNL A   1      42.504  29.362  33.765  1.00  0.00    -0.014 A 
ATOM     88  C   UNL A   1      41.933  28.107  33.462  1.00  0.00     0.010 A 
ATOM     89  C   UNL A   1      42.901  29.609  35.089  1.00  0.00     0.010 A 
ATOM     90  C   UNL A   1      41.739  27.143  34.465  1.00  0.00     0.020 A 
ATOM     91  C   UNL A   1      42.724  28.648  36.089  1.00  0.00     0.020 A 
ATOM     92  C   UNL A   1      42.133  27.424  35.776  1.00  0.00     0.054 A 
BRANCH  92  93
ATOM     93  S   UNL A   1      41.905  26.169  37.070  1.00  0.00     0.124 S 
ATOM     94  O   UNL A   1      42.872  26.579  38.084  1.00  0.00    -0.237 OA
ATOM     95  O   UNL A   1      40.499  26.333  37.437  1.00  0.00    -0.237 OA
ATOM     96  O   UNL A   1      42.216  24.911  36.393  1.00  0.00    -0.744 OA
ENDBRANCH  92  93
ENDBRANCH  66  87
ENDBRANCH  40  41
ENDBRANCH  33  35
ENDBRANCH  32  33
ENDBRANCH  31  32
ENDBRANCH  30  31
ENDBRANCH  29  30
ENDBRANCH  28  29
ENDBRANCH  27  28
ENDBRANCH  26  27
ENDBRANCH   1  26
TORSDOF 28
ENDMDL
