MODEL 1
REMARK VINA RESULT:      -9.0      0.000      0.000
REMARK SMILES CC(C)[NH2+][C@@]1(C(=O)OCCOCCOCCOCCOC(=O)c2ccc(-c3c4nc(c(-c5ccc(S(=O)(=O)[O-])cc5)c5ccc([nH]5)c(-c5ccc(S(=O)(=O)[O-])cc5)c5nc(c(-c6ccc(S(=O)(=O)[O-])cc6)c6ccc3[nH]6)C=C5)C=C4)cc2)CC[C@@H](Sc2ccncc2)C1
REMARK SMILES IDX 15 1 14 2 13 3 12 4 11 5 10 6 9 7 8 8 6 9 7 10 5 11 83 12
REMARK SMILES IDX 93 13 84 14 85 15 4 16 2 19 1 20 3 21 86 22 87 23 88 24
REMARK SMILES IDX 92 25 89 26 91 27 90 28 16 29 17 30 18 31 19 32 20 33 21 34
REMARK SMILES IDX 22 35 23 36 24 37 82 38 25 39 81 40 26 41 27 42 28 43 75 44
REMARK SMILES IDX 29 45 80 46 74 47 76 48 30 49 79 50 73 51 72 52 31 54 61 55
REMARK SMILES IDX 42 56 60 57 43 58 46 59 59 60 77 61 44 62 45 63 58 65 78 66
REMARK SMILES IDX 47 67 32 68 33 69 41 70 34 71 40 72 35 73 36 74 37 75 38 76
REMARK SMILES IDX 39 77 62 78 63 79 71 80 64 81 70 82 65 83 66 84 67 85 68 86
REMARK SMILES IDX 69 87 48 88 49 89 57 90 50 91 56 92 51 93 52 94 53 95 54 96
REMARK SMILES IDX 55 97
REMARK H PARENT 4 17 4 18 76 53 46 64
REMARK Flexibility Score: inf
ROOT
ATOM      1  C   UNL A   1      35.495  32.888  28.073  1.00  0.00     0.188 C 
ENDROOT
BRANCH   1   2
ATOM      2  O   UNL A   1      35.090  31.570  28.386  1.00  0.00    -0.377 OA
BRANCH   2   3
ATOM      3  C   UNL A   1      34.527  30.834  27.329  1.00  0.00     0.188 C 
BRANCH   3   4
ATOM      4  C   UNL A   1      32.989  30.785  27.325  1.00  0.00     0.188 C 
BRANCH   4   5
ATOM      5  O   UNL A   1      32.314  30.334  26.162  1.00  0.00    -0.376 OA
BRANCH   5   6
ATOM      6  C   UNL A   1      32.990  29.454  25.275  1.00  0.00     0.202 C 
BRANCH   6   7
ATOM      7  C   UNL A   1      33.596  28.134  25.802  1.00  0.00     0.261 C 
BRANCH   7   8
ATOM      8  O   UNL A   1      32.814  26.917  25.687  1.00  0.00    -0.459 OA
BRANCH   8   9
ATOM      9  C   UNL A   1      32.725  26.365  24.447  1.00  0.00     0.368 C 
ATOM     10  O   UNL A   1      33.687  26.251  23.685  1.00  0.00    -0.245 OA
BRANCH   9  11
ATOM     11  C   UNL A   1      31.278  25.925  23.990  1.00  0.00     0.195 C 
ATOM     12  C   UNL A   1      31.252  26.219  22.470  1.00  0.00     0.082 C 
ATOM     13  C   UNL A   1      29.996  26.657  24.423  1.00  0.00     0.096 C 
ATOM     14  C   UNL A   1      30.799  27.680  22.361  1.00  0.00     0.022 C 
ATOM     15  C   UNL A   1      29.857  27.901  23.545  1.00  0.00     0.059 C 
BRANCH  11  16
ATOM     16  N   UNL A   1      31.187  24.442  24.197  1.00  0.00    -0.330 N 
ATOM     17  H   UNL A   1      30.201  24.196  24.116  1.00  0.00     0.347 HD
ATOM     18  H   UNL A   1      31.830  24.074  23.496  1.00  0.00     0.347 HD
BRANCH  16  19
ATOM     19  C   UNL A   1      31.673  23.828  25.443  1.00  0.00     0.176 C 
ATOM     20  C   UNL A   1      30.650  22.767  25.863  1.00  0.00     0.075 C 
ATOM     21  C   UNL A   1      33.035  23.148  25.382  1.00  0.00     0.075 C 
ENDBRANCH  16  19
ENDBRANCH  11  16
BRANCH  15  22
ATOM     22  S   UNL A   1      28.100  28.286  23.107  1.00  0.00    -0.122 SA
BRANCH  22  23
ATOM     23  C   UNL A   1      28.143  30.013  22.649  1.00  0.00     0.011 A 
ATOM     24  C   UNL A   1      28.173  31.027  23.604  1.00  0.00     0.035 A 
ATOM     25  C   UNL A   1      28.232  30.364  21.303  1.00  0.00     0.035 A 
ATOM     26  C   UNL A   1      28.192  32.344  23.176  1.00  0.00     0.112 A 
ATOM     27  C   UNL A   1      28.278  31.709  20.974  1.00  0.00     0.112 A 
ATOM     28  N   UNL A   1      28.241  32.710  21.879  1.00  0.00    -0.265 NA
ENDBRANCH  22  23
ENDBRANCH  15  22
ENDBRANCH   9  11
ENDBRANCH   8   9
ENDBRANCH   7   8
ENDBRANCH   6   7
ENDBRANCH   5   6
ENDBRANCH   4   5
ENDBRANCH   3   4
ENDBRANCH   2   3
ENDBRANCH   1   2
BRANCH   1  29
ATOM     29  C   UNL A   1      35.636  33.896  29.231  1.00  0.00     0.188 C 
BRANCH  29  30
ATOM     30  O   UNL A   1      34.739  33.671  30.318  1.00  0.00    -0.376 OA
BRANCH  30  31
ATOM     31  C   UNL A   1      35.190  33.018  31.493  1.00  0.00     0.202 C 
BRANCH  31  32
ATOM     32  C   UNL A   1      36.302  33.690  32.314  1.00  0.00     0.261 C 
BRANCH  32  33
ATOM     33  O   UNL A   1      37.636  33.228  32.075  1.00  0.00    -0.460 OA
BRANCH  33  34
ATOM     34  C   UNL A   1      38.029  32.118  32.733  1.00  0.00     0.338 C 
ATOM     35  O   UNL A   1      37.580  31.694  33.784  1.00  0.00    -0.246 OA
BRANCH  34  36
ATOM     36  C   UNL A   1      38.929  31.366  31.835  1.00  0.00     0.060 A 
ATOM     37  C   UNL A   1      39.798  30.427  32.407  1.00  0.00     0.016 A 
ATOM     38  C   UNL A   1      38.885  31.544  30.449  1.00  0.00     0.016 A 
ATOM     39  C   UNL A   1      40.660  29.697  31.599  1.00  0.00     0.010 A 
ATOM     40  C   UNL A   1      39.780  30.840  29.641  1.00  0.00     0.010 A 
ATOM     41  C   UNL A   1      40.702  29.954  30.223  1.00  0.00    -0.014 A 
BRANCH  41  42
ATOM     42  C   UNL A   1      41.913  29.532  29.487  1.00  0.00     0.031 A 
ATOM     43  C   UNL A   1      43.022  30.542  29.352  1.00  0.00     0.074 A 
ATOM     44  C   UNL A   1      42.071  28.271  29.049  1.00  0.00     0.049 A 
ATOM     45  N   UNL A   1      44.212  30.404  28.830  1.00  0.00    -0.248 NA
ATOM     46  C   UNL A   1      42.754  31.888  29.891  1.00  0.00     0.031 C 
ATOM     47  C   UNL A   1      41.087  27.198  29.182  1.00  0.00     0.029 A 
ATOM     48  N   UNL A   1      43.135  27.682  28.418  1.00  0.00    -0.354 N 
ATOM     49  C   UNL A   1      44.829  31.641  28.978  1.00  0.00     0.074 A 
ATOM     50  C   UNL A   1      43.874  32.527  29.601  1.00  0.00     0.031 C 
ATOM     51  C   UNL A   1      41.599  26.074  28.647  1.00  0.00     0.029 A 
ATOM     52  C   UNL A   1      42.931  26.356  28.116  1.00  0.00     0.049 A 
ATOM     53  H   UNL A   1      43.967  28.162  28.201  1.00  0.00     0.167 HD
ATOM     54  C   UNL A   1      46.086  32.006  28.634  1.00  0.00     0.031 A 
ATOM     55  C   UNL A   1      43.730  25.481  27.474  1.00  0.00     0.031 A 
ATOM     56  C   UNL A   1      47.024  31.125  27.994  1.00  0.00     0.049 A 
ATOM     57  C   UNL A   1      45.097  25.934  27.026  1.00  0.00     0.074 A 
ATOM     58  C   UNL A   1      48.321  31.389  27.600  1.00  0.00     0.029 A 
ATOM     59  N   UNL A   1      46.757  29.809  27.646  1.00  0.00    -0.354 N 
ATOM     60  N   UNL A   1      45.677  27.101  27.191  1.00  0.00    -0.248 NA
ATOM     61  C   UNL A   1      45.923  24.946  26.320  1.00  0.00     0.031 C 
ATOM     62  C   UNL A   1      48.818  30.253  26.953  1.00  0.00     0.029 A 
ATOM     63  C   UNL A   1      47.856  29.256  27.013  1.00  0.00     0.049 A 
ATOM     64  H   UNL A   1      45.911  29.337  27.824  1.00  0.00     0.167 HD
ATOM     65  C   UNL A   1      46.946  26.976  26.633  1.00  0.00     0.074 A 
ATOM     66  C   UNL A   1      47.055  25.615  26.150  1.00  0.00     0.031 C 
ATOM     67  C   UNL A   1      47.935  27.901  26.528  1.00  0.00     0.031 A 
BRANCH  54  68
ATOM     68  C   UNL A   1      46.491  33.431  28.902  1.00  0.00    -0.014 A 
ATOM     69  C   UNL A   1      45.874  34.508  28.239  1.00  0.00     0.010 A 
ATOM     70  C   UNL A   1      47.497  33.699  29.848  1.00  0.00     0.010 A 
ATOM     71  C   UNL A   1      46.283  35.821  28.489  1.00  0.00     0.020 A 
ATOM     72  C   UNL A   1      47.887  35.012  30.125  1.00  0.00     0.020 A 
ATOM     73  C   UNL A   1      47.286  36.064  29.431  1.00  0.00     0.054 A 
BRANCH  73  74
ATOM     74  S   UNL A   1      47.776  37.779  29.757  1.00  0.00     0.124 S 
ATOM     75  O   UNL A   1      49.085  37.847  29.112  1.00  0.00    -0.237 OA
ATOM     76  O   UNL A   1      46.714  38.543  29.107  1.00  0.00    -0.237 OA
ATOM     77  O   UNL A   1      47.797  37.863  31.216  1.00  0.00    -0.744 OA
ENDBRANCH  73  74
ENDBRANCH  54  68
BRANCH  55  78
ATOM     78  C   UNL A   1      43.256  24.095  27.203  1.00  0.00    -0.014 A 
ATOM     79  C   UNL A   1      42.690  23.751  25.963  1.00  0.00     0.010 A 
ATOM     80  C   UNL A   1      43.361  23.108  28.200  1.00  0.00     0.010 A 
ATOM     81  C   UNL A   1      42.221  22.453  25.732  1.00  0.00     0.020 A 
ATOM     82  C   UNL A   1      42.922  21.802  27.964  1.00  0.00     0.020 A 
ATOM     83  C   UNL A   1      42.344  21.486  26.734  1.00  0.00     0.054 A 
BRANCH  83  84
ATOM     84  S   UNL A   1      41.775  19.797  26.397  1.00  0.00     0.124 S 
ATOM     85  O   UNL A   1      40.341  19.990  26.212  1.00  0.00    -0.237 OA
ATOM     86  O   UNL A   1      42.528  19.448  25.194  1.00  0.00    -0.237 OA
ATOM     87  O   UNL A   1      42.159  19.059  27.598  1.00  0.00    -0.744 OA
ENDBRANCH  83  84
ENDBRANCH  55  78
BRANCH  67  88
ATOM     88  C   UNL A   1      49.230  27.458  25.895  1.00  0.00    -0.014 A 
ATOM     89  C   UNL A   1      49.433  27.537  24.505  1.00  0.00     0.010 A 
ATOM     90  C   UNL A   1      50.271  26.978  26.712  1.00  0.00     0.010 A 
ATOM     91  C   UNL A   1      50.630  27.089  23.940  1.00  0.00     0.020 A 
ATOM     92  C   UNL A   1      51.483  26.565  26.154  1.00  0.00     0.020 A 
ATOM     93  C   UNL A   1      51.645  26.602  24.768  1.00  0.00     0.054 A 
BRANCH  93  94
ATOM     94  S   UNL A   1      53.190  26.030  24.010  1.00  0.00     0.124 S 
ATOM     95  O   UNL A   1      54.155  26.999  24.522  1.00  0.00    -0.237 OA
ATOM     96  O   UNL A   1      53.320  24.673  24.536  1.00  0.00    -0.237 OA
ATOM     97  O   UNL A   1      52.925  26.113  22.576  1.00  0.00    -0.744 OA
ENDBRANCH  93  94
ENDBRANCH  67  88
ENDBRANCH  41  42
ENDBRANCH  34  36
ENDBRANCH  33  34
ENDBRANCH  32  33
ENDBRANCH  31  32
ENDBRANCH  30  31
ENDBRANCH  29  30
ENDBRANCH   1  29
TORSDOF 27
ENDMDL
MODEL 2
REMARK VINA RESULT:      -8.8      5.247      7.886
REMARK SMILES CC(C)[NH2+][C@@]1(C(=O)OCCOCCOCCOCCOC(=O)c2ccc(-c3c4nc(c(-c5ccc(S(=O)(=O)[O-])cc5)c5ccc([nH]5)c(-c5ccc(S(=O)(=O)[O-])cc5)c5nc(c(-c6ccc(S(=O)(=O)[O-])cc6)c6ccc3[nH]6)C=C5)C=C4)cc2)CC[C@@H](Sc2ccncc2)C1
REMARK SMILES IDX 15 1 14 2 13 3 12 4 11 5 10 6 9 7 8 8 6 9 7 10 5 11 83 12
REMARK SMILES IDX 93 13 84 14 85 15 4 16 2 19 1 20 3 21 86 22 87 23 88 24
REMARK SMILES IDX 92 25 89 26 91 27 90 28 16 29 17 30 18 31 19 32 20 33 21 34
REMARK SMILES IDX 22 35 23 36 24 37 82 38 25 39 81 40 26 41 27 42 28 43 75 44
REMARK SMILES IDX 29 45 80 46 74 47 76 48 30 49 79 50 73 51 72 52 31 54 61 55
REMARK SMILES IDX 42 56 60 57 43 58 46 59 59 60 77 61 44 62 45 63 58 65 78 66
REMARK SMILES IDX 47 67 32 68 33 69 41 70 34 71 40 72 35 73 36 74 37 75 38 76
REMARK SMILES IDX 39 77 62 78 63 79 71 80 64 81 70 82 65 83 66 84 67 85 68 86
REMARK SMILES IDX 69 87 48 88 49 89 57 90 50 91 56 92 51 93 52 94 53 95 54 96
REMARK SMILES IDX 55 97
REMARK H PARENT 4 17 4 18 76 53 46 64
REMARK Flexibility Score: inf
ROOT
ATOM      1  C   UNL A   1      35.402  33.082  29.423  1.00  0.00     0.188 C 
ENDROOT
BRANCH   1   2
ATOM      2  O   UNL A   1      34.631  31.947  29.081  1.00  0.00    -0.377 OA
BRANCH   2   3
ATOM      3  C   UNL A   1      35.330  30.896  28.462  1.00  0.00     0.188 C 
BRANCH   3   4
ATOM      4  C   UNL A   1      36.186  30.040  29.413  1.00  0.00     0.188 C 
BRANCH   4   5
ATOM      5  O   UNL A   1      37.306  29.342  28.897  1.00  0.00    -0.376 OA
BRANCH   5   6
ATOM      6  C   UNL A   1      38.449  30.083  28.493  1.00  0.00     0.202 C 
BRANCH   6   7
ATOM      7  C   UNL A   1      39.636  30.271  29.465  1.00  0.00     0.261 C 
BRANCH   7   8
ATOM      8  O   UNL A   1      40.906  29.649  29.138  1.00  0.00    -0.459 OA
BRANCH   8   9
ATOM      9  C   UNL A   1      41.095  28.379  29.585  1.00  0.00     0.368 C 
ATOM     10  O   UNL A   1      40.678  27.973  30.672  1.00  0.00    -0.245 OA
BRANCH   9  11
ATOM     11  C   UNL A   1      41.956  27.440  28.651  1.00  0.00     0.195 C 
ATOM     12  C   UNL A   1      41.182  27.421  27.311  1.00  0.00     0.082 C 
ATOM     13  C   UNL A   1      42.114  25.927  28.887  1.00  0.00     0.096 C 
ATOM     14  C   UNL A   1      40.170  26.278  27.458  1.00  0.00     0.022 C 
ATOM     15  C   UNL A   1      40.855  25.245  28.353  1.00  0.00     0.059 C 
BRANCH  11  16
ATOM     16  N   UNL A   1      43.274  28.126  28.438  1.00  0.00    -0.330 N 
ATOM     17  H   UNL A   1      43.208  29.033  28.898  1.00  0.00     0.347 HD
ATOM     18  H   UNL A   1      43.944  27.451  28.807  1.00  0.00     0.347 HD
BRANCH  16  19
ATOM     19  C   UNL A   1      43.776  28.379  27.078  1.00  0.00     0.176 C 
ATOM     20  C   UNL A   1      43.814  29.898  26.877  1.00  0.00     0.075 C 
ATOM     21  C   UNL A   1      45.164  27.842  26.754  1.00  0.00     0.075 C 
ENDBRANCH  16  19
ENDBRANCH  11  16
BRANCH  15  22
ATOM     22  S   UNL A   1      41.199  23.607  27.561  1.00  0.00    -0.122 SA
BRANCH  22  23
ATOM     23  C   UNL A   1      42.778  23.844  26.758  1.00  0.00     0.011 A 
ATOM     24  C   UNL A   1      42.902  24.584  25.583  1.00  0.00     0.035 A 
ATOM     25  C   UNL A   1      43.934  23.349  27.358  1.00  0.00     0.035 A 
ATOM     26  C   UNL A   1      44.155  24.715  25.010  1.00  0.00     0.112 A 
ATOM     27  C   UNL A   1      45.147  23.558  26.723  1.00  0.00     0.112 A 
ATOM     28  N   UNL A   1      45.284  24.214  25.552  1.00  0.00    -0.265 NA
ENDBRANCH  22  23
ENDBRANCH  15  22
ENDBRANCH   9  11
ENDBRANCH   8   9
ENDBRANCH   7   8
ENDBRANCH   6   7
ENDBRANCH   5   6
ENDBRANCH   4   5
ENDBRANCH   3   4
ENDBRANCH   2   3
ENDBRANCH   1   2
BRANCH   1  29
ATOM     29  C   UNL A   1      35.466  33.492  30.907  1.00  0.00     0.188 C 
BRANCH  29  30
ATOM     30  O   UNL A   1      34.218  33.411  31.594  1.00  0.00    -0.376 OA
BRANCH  30  31
ATOM     31  C   UNL A   1      34.175  33.483  33.010  1.00  0.00     0.202 C 
BRANCH  31  32
ATOM     32  C   UNL A   1      34.733  34.744  33.688  1.00  0.00     0.261 C 
BRANCH  32  33
ATOM     33  O   UNL A   1      36.123  34.721  34.028  1.00  0.00    -0.460 OA
BRANCH  33  34
ATOM     34  C   UNL A   1      36.512  33.828  34.962  1.00  0.00     0.338 C 
ATOM     35  O   UNL A   1      35.913  33.527  35.981  1.00  0.00    -0.246 OA
BRANCH  34  36
ATOM     36  C   UNL A   1      37.671  33.092  34.417  1.00  0.00     0.060 A 
ATOM     37  C   UNL A   1      38.943  33.398  34.918  1.00  0.00     0.016 A 
ATOM     38  C   UNL A   1      37.504  32.082  33.463  1.00  0.00     0.016 A 
ATOM     39  C   UNL A   1      40.059  32.728  34.434  1.00  0.00     0.010 A 
ATOM     40  C   UNL A   1      38.631  31.438  32.947  1.00  0.00     0.010 A 
ATOM     41  C   UNL A   1      39.912  31.799  33.397  1.00  0.00    -0.014 A 
BRANCH  41  42
ATOM     42  C   UNL A   1      41.114  31.470  32.600  1.00  0.00     0.031 A 
ATOM     43  C   UNL A   1      41.594  32.509  31.621  1.00  0.00     0.074 A 
ATOM     44  C   UNL A   1      41.816  30.344  32.811  1.00  0.00     0.049 A 
ATOM     45  N   UNL A   1      42.659  32.508  30.864  1.00  0.00    -0.248 NA
ATOM     46  C   UNL A   1      40.762  33.720  31.488  1.00  0.00     0.031 C 
ATOM     47  C   UNL A   1      41.476  29.300  33.776  1.00  0.00     0.029 A 
ATOM     48  N   UNL A   1      42.977  29.905  32.229  1.00  0.00    -0.354 N 
ATOM     49  C   UNL A   1      42.622  33.711  30.169  1.00  0.00     0.074 A 
ATOM     50  C   UNL A   1      41.416  34.400  30.562  1.00  0.00     0.031 C 
ATOM     51  C   UNL A   1      42.415  28.337  33.721  1.00  0.00     0.029 A 
ATOM     52  C   UNL A   1      43.404  28.687  32.703  1.00  0.00     0.049 A 
ATOM     53  H   UNL A   1      43.459  30.413  31.538  1.00  0.00     0.167 HD
ATOM     54  C   UNL A   1      43.522  34.206  29.288  1.00  0.00     0.031 A 
ATOM     55  C   UNL A   1      44.468  27.942  32.343  1.00  0.00     0.031 A 
ATOM     56  C   UNL A   1      44.710  33.506  28.884  1.00  0.00     0.049 A 
ATOM     57  C   UNL A   1      45.413  28.478  31.298  1.00  0.00     0.074 A 
ATOM     58  C   UNL A   1      45.689  33.911  27.997  1.00  0.00     0.029 A 
ATOM     59  N   UNL A   1      45.074  32.246  29.338  1.00  0.00    -0.354 N 
ATOM     60  N   UNL A   1      45.379  29.627  30.663  1.00  0.00    -0.248 NA
ATOM     61  C   UNL A   1      46.549  27.621  30.932  1.00  0.00     0.031 C 
ATOM     62  C   UNL A   1      46.612  32.869  27.864  1.00  0.00     0.029 A 
ATOM     63  C   UNL A   1      46.248  31.845  28.726  1.00  0.00     0.049 A 
ATOM     64  H   UNL A   1      44.572  31.716  29.999  1.00  0.00     0.167 HD
ATOM     65  C   UNL A   1      46.505  29.641  29.843  1.00  0.00     0.074 A 
ATOM     66  C   UNL A   1      47.208  28.398  30.084  1.00  0.00     0.031 C 
ATOM     67  C   UNL A   1      46.923  30.595  28.971  1.00  0.00     0.031 A 
BRANCH  54  68
ATOM     68  C   UNL A   1      43.220  35.546  28.669  1.00  0.00    -0.014 A 
ATOM     69  C   UNL A   1      42.652  35.652  27.386  1.00  0.00     0.010 A 
ATOM     70  C   UNL A   1      43.498  36.720  29.392  1.00  0.00     0.010 A 
ATOM     71  C   UNL A   1      42.401  36.908  26.825  1.00  0.00     0.020 A 
ATOM     72  C   UNL A   1      43.220  37.976  28.848  1.00  0.00     0.020 A 
ATOM     73  C   UNL A   1      42.686  38.061  27.560  1.00  0.00     0.054 A 
BRANCH  73  74
ATOM     74  S   UNL A   1      42.324  39.676  26.819  1.00  0.00     0.124 S 
ATOM     75  O   UNL A   1      43.478  39.872  25.944  1.00  0.00    -0.237 OA
ATOM     76  O   UNL A   1      41.054  39.437  26.140  1.00  0.00    -0.237 OA
ATOM     77  O   UNL A   1      42.255  40.577  27.967  1.00  0.00    -0.744 OA
ENDBRANCH  73  74
ENDBRANCH  54  68
BRANCH  55  78
ATOM     78  C   UNL A   1      44.690  26.606  32.964  1.00  0.00    -0.014 A 
ATOM     79  C   UNL A   1      44.133  25.444  32.403  1.00  0.00     0.010 A 
ATOM     80  C   UNL A   1      45.459  26.494  34.137  1.00  0.00     0.010 A 
ATOM     81  C   UNL A   1      44.324  24.200  33.013  1.00  0.00     0.020 A 
ATOM     82  C   UNL A   1      45.678  25.249  34.733  1.00  0.00     0.020 A 
ATOM     83  C   UNL A   1      45.099  24.111  34.173  1.00  0.00     0.054 A 
BRANCH  83  84
ATOM     84  S   UNL A   1      45.376  22.480  34.919  1.00  0.00     0.124 S 
ATOM     85  O   UNL A   1      44.926  22.693  36.291  1.00  0.00    -0.237 OA
ATOM     86  O   UNL A   1      44.529  21.614  34.101  1.00  0.00    -0.237 OA
ATOM     87  O   UNL A   1      46.812  22.268  34.757  1.00  0.00    -0.744 OA
ENDBRANCH  83  84
ENDBRANCH  55  78
BRANCH  67  88
ATOM     88  C   UNL A   1      48.216  30.341  28.239  1.00  0.00    -0.014 A 
ATOM     89  C   UNL A   1      48.245  29.628  27.026  1.00  0.00     0.010 A 
ATOM     90  C   UNL A   1      49.419  30.848  28.763  1.00  0.00     0.010 A 
ATOM     91  C   UNL A   1      49.460  29.378  26.383  1.00  0.00     0.020 A 
ATOM     92  C   UNL A   1      50.632  30.632  28.104  1.00  0.00     0.020 A 
ATOM     93  C   UNL A   1      50.646  29.877  26.929  1.00  0.00     0.054 A 
BRANCH  93  94
ATOM     94  S   UNL A   1      52.210  29.542  26.075  1.00  0.00     0.124 S 
ATOM     95  O   UNL A   1      52.699  30.890  25.798  1.00  0.00    -0.237 OA
ATOM     96  O   UNL A   1      52.966  28.792  27.075  1.00  0.00    -0.237 OA
ATOM     97  O   UNL A   1      51.806  28.772  24.901  1.00  0.00    -0.744 OA
ENDBRANCH  93  94
ENDBRANCH  67  88
ENDBRANCH  41  42
ENDBRANCH  34  36
ENDBRANCH  33  34
ENDBRANCH  32  33
ENDBRANCH  31  32
ENDBRANCH  30  31
ENDBRANCH  29  30
ENDBRANCH   1  29
TORSDOF 27
ENDMDL
MODEL 3
REMARK VINA RESULT:      -8.3      3.669      5.809
REMARK SMILES CC(C)[NH2+][C@@]1(C(=O)OCCOCCOCCOCCOC(=O)c2ccc(-c3c4nc(c(-c5ccc(S(=O)(=O)[O-])cc5)c5ccc([nH]5)c(-c5ccc(S(=O)(=O)[O-])cc5)c5nc(c(-c6ccc(S(=O)(=O)[O-])cc6)c6ccc3[nH]6)C=C5)C=C4)cc2)CC[C@@H](Sc2ccncc2)C1
REMARK SMILES IDX 15 1 14 2 13 3 12 4 11 5 10 6 9 7 8 8 6 9 7 10 5 11 83 12
REMARK SMILES IDX 93 13 84 14 85 15 4 16 2 19 1 20 3 21 86 22 87 23 88 24
REMARK SMILES IDX 92 25 89 26 91 27 90 28 16 29 17 30 18 31 19 32 20 33 21 34
REMARK SMILES IDX 22 35 23 36 24 37 82 38 25 39 81 40 26 41 27 42 28 43 75 44
REMARK SMILES IDX 29 45 80 46 74 47 76 48 30 49 79 50 73 51 72 52 31 54 61 55
REMARK SMILES IDX 42 56 60 57 43 58 46 59 59 60 77 61 44 62 45 63 58 65 78 66
REMARK SMILES IDX 47 67 32 68 33 69 41 70 34 71 40 72 35 73 36 74 37 75 38 76
REMARK SMILES IDX 39 77 62 78 63 79 71 80 64 81 70 82 65 83 66 84 67 85 68 86
REMARK SMILES IDX 69 87 48 88 49 89 57 90 50 91 56 92 51 93 52 94 53 95 54 96
REMARK SMILES IDX 55 97
REMARK H PARENT 4 17 4 18 76 53 46 64
REMARK Flexibility Score: inf
ROOT
ATOM      1  C   UNL A   1      34.554  33.039  29.012  1.00  0.00     0.188 C 
ENDROOT
BRANCH   1   2
ATOM      2  O   UNL A   1      34.887  32.548  27.728  1.00  0.00    -0.377 OA
BRANCH   2   3
ATOM      3  C   UNL A   1      34.699  31.169  27.531  1.00  0.00     0.188 C 
BRANCH   3   4
ATOM      4  C   UNL A   1      33.239  30.743  27.295  1.00  0.00     0.188 C 
BRANCH   4   5
ATOM      5  O   UNL A   1      32.964  29.692  26.385  1.00  0.00    -0.376 OA
BRANCH   5   6
ATOM      6  C   UNL A   1      31.800  29.774  25.575  1.00  0.00     0.202 C 
BRANCH   6   7
ATOM      7  C   UNL A   1      31.237  28.508  24.893  1.00  0.00     0.261 C 
BRANCH   7   8
ATOM      8  O   UNL A   1      31.124  27.289  25.674  1.00  0.00    -0.459 OA
BRANCH   8   9
ATOM      9  C   UNL A   1      30.759  26.165  25.001  1.00  0.00     0.368 C 
ATOM     10  O   UNL A   1      29.628  25.986  24.546  1.00  0.00    -0.245 OA
BRANCH   9  11
ATOM     11  C   UNL A   1      31.863  25.041  24.885  1.00  0.00     0.195 C 
ATOM     12  C   UNL A   1      31.061  23.745  24.616  1.00  0.00     0.082 C 
ATOM     13  C   UNL A   1      32.726  24.578  26.072  1.00  0.00     0.096 C 
ATOM     14  C   UNL A   1      30.714  23.203  26.008  1.00  0.00     0.022 C 
ATOM     15  C   UNL A   1      31.881  23.613  26.905  1.00  0.00     0.059 C 
BRANCH  11  16
ATOM     16  N   UNL A   1      32.686  25.362  23.671  1.00  0.00    -0.330 N 
ATOM     17  H   UNL A   1      32.357  26.262  23.326  1.00  0.00     0.347 HD
ATOM     18  H   UNL A   1      33.642  25.304  24.022  1.00  0.00     0.347 HD
BRANCH  16  19
ATOM     19  C   UNL A   1      32.704  24.449  22.516  1.00  0.00     0.176 C 
ATOM     20  C   UNL A   1      32.781  25.310  21.251  1.00  0.00     0.075 C 
ATOM     21  C   UNL A   1      33.852  23.448  22.457  1.00  0.00     0.075 C 
ENDBRANCH  16  19
ENDBRANCH  11  16
BRANCH  15  22
ATOM     22  S   UNL A   1      32.868  22.219  27.619  1.00  0.00    -0.122 SA
BRANCH  22  23
ATOM     23  C   UNL A   1      34.218  22.017  26.466  1.00  0.00     0.011 A 
ATOM     24  C   UNL A   1      34.211  21.021  25.491  1.00  0.00     0.035 A 
ATOM     25  C   UNL A   1      35.275  22.925  26.481  1.00  0.00     0.035 A 
ATOM     26  C   UNL A   1      35.297  20.916  24.640  1.00  0.00     0.112 A 
ATOM     27  C   UNL A   1      36.304  22.756  25.568  1.00  0.00     0.112 A 
ATOM     28  N   UNL A   1      36.349  21.760  24.658  1.00  0.00    -0.265 NA
ENDBRANCH  22  23
ENDBRANCH  15  22
ENDBRANCH   9  11
ENDBRANCH   8   9
ENDBRANCH   7   8
ENDBRANCH   6   7
ENDBRANCH   5   6
ENDBRANCH   4   5
ENDBRANCH   3   4
ENDBRANCH   2   3
ENDBRANCH   1   2
BRANCH   1  29
ATOM     29  C   UNL A   1      35.096  32.281  30.239  1.00  0.00     0.188 C 
BRANCH  29  30
ATOM     30  O   UNL A   1      34.287  32.400  31.409  1.00  0.00    -0.376 OA
BRANCH  30  31
ATOM     31  C   UNL A   1      34.401  33.539  32.244  1.00  0.00     0.202 C 
BRANCH  31  32
ATOM     32  C   UNL A   1      35.145  33.386  33.581  1.00  0.00     0.261 C 
BRANCH  32  33
ATOM     33  O   UNL A   1      35.914  32.190  33.746  1.00  0.00    -0.460 OA
BRANCH  33  34
ATOM     34  C   UNL A   1      37.103  32.307  34.375  1.00  0.00     0.338 C 
ATOM     35  O   UNL A   1      37.297  32.304  35.579  1.00  0.00    -0.246 OA
BRANCH  34  36
ATOM     36  C   UNL A   1      38.160  32.189  33.350  1.00  0.00     0.060 A 
ATOM     37  C   UNL A   1      39.358  31.556  33.706  1.00  0.00     0.016 A 
ATOM     38  C   UNL A   1      37.958  32.650  32.045  1.00  0.00     0.016 A 
ATOM     39  C   UNL A   1      40.377  31.423  32.772  1.00  0.00     0.010 A 
ATOM     40  C   UNL A   1      38.998  32.552  31.118  1.00  0.00     0.010 A 
ATOM     41  C   UNL A   1      40.226  31.984  31.499  1.00  0.00    -0.014 A 
BRANCH  41  42
ATOM     42  C   UNL A   1      41.454  32.245  30.717  1.00  0.00     0.031 A 
ATOM     43  C   UNL A   1      42.085  33.604  30.863  1.00  0.00     0.074 A 
ATOM     44  C   UNL A   1      42.048  31.281  29.992  1.00  0.00     0.049 A 
ATOM     45  N   UNL A   1      43.201  34.060  30.358  1.00  0.00    -0.248 NA
ATOM     46  C   UNL A   1      41.364  34.577  31.704  1.00  0.00     0.031 C 
ATOM     47  C   UNL A   1      41.555  29.914  29.832  1.00  0.00     0.029 A 
ATOM     48  N   UNL A   1      43.211  31.311  29.267  1.00  0.00    -0.354 N 
ATOM     49  C   UNL A   1      43.311  35.367  30.818  1.00  0.00     0.074 A 
ATOM     50  C   UNL A   1      42.136  35.646  31.610  1.00  0.00     0.031 C 
ATOM     51  C   UNL A   1      42.417  29.232  29.056  1.00  0.00     0.029 A 
ATOM     52  C   UNL A   1      43.504  30.120  28.647  1.00  0.00     0.049 A 
ATOM     53  H   UNL A   1      43.782  32.110  29.198  1.00  0.00     0.167 HD
ATOM     54  C   UNL A   1      44.310  36.255  30.610  1.00  0.00     0.031 A 
ATOM     55  C   UNL A   1      44.530  29.796  27.836  1.00  0.00     0.031 A 
ATOM     56  C   UNL A   1      45.467  35.979  29.803  1.00  0.00     0.049 A 
ATOM     57  C   UNL A   1      45.590  30.830  27.551  1.00  0.00     0.074 A 
ATOM     58  C   UNL A   1      46.537  36.805  29.521  1.00  0.00     0.029 A 
ATOM     59  N   UNL A   1      45.696  34.783  29.139  1.00  0.00    -0.354 N 
ATOM     60  N   UNL A   1      45.695  32.056  28.010  1.00  0.00    -0.248 NA
ATOM     61  C   UNL A   1      46.679  30.429  26.651  1.00  0.00     0.031 C 
ATOM     62  C   UNL A   1      47.383  36.133  28.634  1.00  0.00     0.029 A 
ATOM     63  C   UNL A   1      46.877  34.859  28.422  1.00  0.00     0.049 A 
ATOM     64  H   UNL A   1      45.105  33.995  29.172  1.00  0.00     0.167 HD
ATOM     65  C   UNL A   1      46.876  32.563  27.475  1.00  0.00     0.074 A 
ATOM     66  C   UNL A   1      47.459  31.502  26.680  1.00  0.00     0.031 C 
ATOM     67  C   UNL A   1      47.431  33.793  27.626  1.00  0.00     0.031 A 
BRANCH  54  68
ATOM     68  C   UNL A   1      44.161  37.621  31.227  1.00  0.00    -0.014 A 
ATOM     69  C   UNL A   1      43.645  38.707  30.495  1.00  0.00     0.010 A 
ATOM     70  C   UNL A   1      44.531  37.818  32.569  1.00  0.00     0.010 A 
ATOM     71  C   UNL A   1      43.537  39.970  31.084  1.00  0.00     0.020 A 
ATOM     72  C   UNL A   1      44.396  39.071  33.171  1.00  0.00     0.020 A 
ATOM     73  C   UNL A   1      43.913  40.143  32.418  1.00  0.00     0.054 A 
BRANCH  73  74
ATOM     74  S   UNL A   1      43.735  41.786  33.165  1.00  0.00     0.124 S 
ATOM     75  O   UNL A   1      44.135  42.662  32.066  1.00  0.00    -0.237 OA
ATOM     76  O   UNL A   1      42.318  41.825  33.516  1.00  0.00    -0.237 OA
ATOM     77  O   UNL A   1      44.655  41.754  34.299  1.00  0.00    -0.744 OA
ENDBRANCH  73  74
ENDBRANCH  54  68
BRANCH  55  78
ATOM     78  C   UNL A   1      44.600  28.440  27.224  1.00  0.00    -0.014 A 
ATOM     79  C   UNL A   1      43.964  28.162  26.001  1.00  0.00     0.010 A 
ATOM     80  C   UNL A   1      45.301  27.408  27.876  1.00  0.00     0.010 A 
ATOM     81  C   UNL A   1      44.012  26.876  25.453  1.00  0.00     0.020 A 
ATOM     82  C   UNL A   1      45.378  26.130  27.317  1.00  0.00     0.020 A 
ATOM     83  C   UNL A   1      44.723  25.869  26.113  1.00  0.00     0.054 A 
BRANCH  83  84
ATOM     84  S   UNL A   1      44.813  24.221  25.359  1.00  0.00     0.124 S 
ATOM     85  O   UNL A   1      45.227  23.392  26.487  1.00  0.00    -0.237 OA
ATOM     86  O   UNL A   1      43.444  24.017  24.890  1.00  0.00    -0.237 OA
ATOM     87  O   UNL A   1      45.808  24.383  24.301  1.00  0.00    -0.744 OA
ENDBRANCH  83  84
ENDBRANCH  55  78
BRANCH  67  88
ATOM     88  C   UNL A   1      48.751  34.042  26.942  1.00  0.00    -0.014 A 
ATOM     89  C   UNL A   1      49.970  33.691  27.550  1.00  0.00     0.010 A 
ATOM     90  C   UNL A   1      48.768  34.616  25.658  1.00  0.00     0.010 A 
ATOM     91  C   UNL A   1      51.183  33.962  26.910  1.00  0.00     0.020 A 
ATOM     92  C   UNL A   1      49.976  34.855  24.999  1.00  0.00     0.020 A 
ATOM     93  C   UNL A   1      51.177  34.547  25.640  1.00  0.00     0.054 A 
BRANCH  93  94
ATOM     94  S   UNL A   1      52.763  34.886  24.829  1.00  0.00     0.124 S 
ATOM     95  O   UNL A   1      53.345  33.551  24.731  1.00  0.00    -0.237 OA
ATOM     96  O   UNL A   1      52.351  35.488  23.562  1.00  0.00    -0.237 OA
ATOM     97  O   UNL A   1      53.438  35.794  25.753  1.00  0.00    -0.744 OA
ENDBRANCH  93  94
ENDBRANCH  67  88
ENDBRANCH  41  42
ENDBRANCH  34  36
ENDBRANCH  33  34
ENDBRANCH  32  33
ENDBRANCH  31  32
ENDBRANCH  30  31
ENDBRANCH  29  30
ENDBRANCH   1  29
TORSDOF 27
ENDMDL
