MODEL 1
REMARK VINA RESULT:      -9.7      0.000      0.000
REMARK SMILES Cc1nn(C(C)C)c(C)c1S(=O)(=O)Nc1cccc(C(=O)OCCOCCOCCOCCOC(=O)c2ccc(-c3c4nc(c(-c5ccc(S(=O)(=O)[O-])cc5)c5ccc([nH]5)c(-c5ccc(S(=O)(=O)[O-])cc5)c5nc(c(-c6ccc(S(=O)(=O)[O-])cc6)c6ccc3[nH]6)C=C5)C=C4)cc2)c1C
REMARK SMILES IDX 27 1 26 2 25 3 24 4 23 5 22 6 20 7 21 8 19 9 15 10 16 11
REMARK SMILES IDX 97 12 17 13 98 14 18 15 14 16 11 18 12 19 13 20 10 21 1 22
REMARK SMILES IDX 2 23 3 24 4 25 8 26 9 27 5 28 6 29 7 30 28 31 29 32 30 33
REMARK SMILES IDX 31 34 32 35 33 36 34 37 35 38 36 39 37 40 38 41 96 42 39 43
REMARK SMILES IDX 95 44 40 45 41 46 42 47 89 48 43 49 94 50 88 51 90 52 44 53
REMARK SMILES IDX 93 54 87 55 86 56 45 58 75 59 56 60 74 61 57 62 60 63 73 64
REMARK SMILES IDX 91 65 58 66 59 67 72 69 92 70 61 71 46 72 47 73 55 74 48 75
REMARK SMILES IDX 54 76 49 77 50 78 51 79 52 80 53 81 76 82 77 83 85 84 78 85
REMARK SMILES IDX 84 86 79 87 80 88 81 89 82 90 83 91 62 92 63 93 71 94 64 95
REMARK SMILES IDX 70 96 65 97 66 98 67 99 68 100 69 101
REMARK H PARENT 14 17 90 57 60 68
REMARK Flexibility Score: inf
ROOT
ATOM      1  C   UNL A   1      41.445  21.001  26.546  1.00  0.00     0.188 C 
ENDROOT
BRANCH   1   2
ATOM      2  C   UNL A   1      40.572  19.743  26.384  1.00  0.00     0.188 C 
BRANCH   2   3
ATOM      3  O   UNL A   1      39.566  19.634  25.392  1.00  0.00    -0.376 OA
BRANCH   3   4
ATOM      4  C   UNL A   1      38.489  20.573  25.460  1.00  0.00     0.202 C 
BRANCH   4   5
ATOM      5  C   UNL A   1      37.173  20.223  24.784  1.00  0.00     0.261 C 
BRANCH   5   6
ATOM      6  O   UNL A   1      36.230  21.164  25.282  1.00  0.00    -0.460 OA
BRANCH   6   7
ATOM      7  C   UNL A   1      35.024  21.111  24.719  1.00  0.00     0.338 C 
ATOM      8  O   UNL A   1      34.219  20.203  24.684  1.00  0.00    -0.246 OA
BRANCH   7   9
ATOM      9  C   UNL A   1      34.674  22.525  24.581  1.00  0.00     0.065 A 
ATOM     10  C   UNL A   1      33.386  24.358  25.368  1.00  0.00     0.053 A 
ATOM     11  C   UNL A   1      33.794  25.111  24.259  1.00  0.00     0.027 A 
ATOM     12  C   UNL A   1      33.914  23.099  25.618  1.00  0.00    -0.012 A 
ATOM     13  C   UNL A   1      34.678  24.575  23.322  1.00  0.00     0.003 A 
ATOM     14  C   UNL A   1      33.684  22.356  26.913  1.00  0.00     0.047 C 
ATOM     15  C   UNL A   1      35.093  23.254  23.460  1.00  0.00     0.016 A 
BRANCH  10  16
ATOM     16  N   UNL A   1      32.378  24.927  26.187  1.00  0.00    -0.279 N 
ATOM     17  H   UNL A   1      32.487  24.977  27.164  1.00  0.00     0.180 HD
BRANCH  16  18
ATOM     18  S   UNL A   1      30.978  25.524  25.433  1.00  0.00     0.265 S 
ATOM     19  O   UNL A   1      29.978  25.428  26.481  1.00  0.00    -0.201 OA
ATOM     20  O   UNL A   1      30.758  24.826  24.188  1.00  0.00    -0.201 OA
BRANCH  18  21
ATOM     21  C   UNL A   1      30.970  27.194  24.989  1.00  0.00     0.131 A 
ATOM     22  C   UNL A   1      33.345  28.279  25.565  1.00  0.00     0.070 C 
ATOM     23  C   UNL A   1      31.930  28.226  25.165  1.00  0.00     0.080 A 
ATOM     24  N   UNL A   1      31.433  29.404  24.782  1.00  0.00    -0.176 NA
ATOM     25  N   UNL A   1      30.381  29.084  24.032  1.00  0.00    -0.266 N 
ATOM     26  C   UNL A   1      30.079  27.753  24.073  1.00  0.00     0.056 A 
ATOM     27  C   UNL A   1      29.066  27.115  23.197  1.00  0.00     0.068 C 
BRANCH  25  28
ATOM     28  C   UNL A   1      29.792  30.149  23.232  1.00  0.00     0.101 C 
ATOM     29  C   UNL A   1      30.030  29.876  21.749  1.00  0.00     0.033 C 
ATOM     30  C   UNL A   1      28.299  30.293  23.547  1.00  0.00     0.033 C 
ENDBRANCH  25  28
ENDBRANCH  18  21
ENDBRANCH  16  18
ENDBRANCH  10  16
ENDBRANCH   7   9
ENDBRANCH   6   7
ENDBRANCH   5   6
ENDBRANCH   4   5
ENDBRANCH   3   4
ENDBRANCH   2   3
ENDBRANCH   1   2
BRANCH   1  31
ATOM     31  O   UNL A   1      42.353  21.334  25.515  1.00  0.00    -0.377 OA
BRANCH  31  32
ATOM     32  C   UNL A   1      43.333  22.354  25.767  1.00  0.00     0.188 C 
BRANCH  32  33
ATOM     33  C   UNL A   1      42.904  23.620  26.504  1.00  0.00     0.188 C 
BRANCH  33  34
ATOM     34  O   UNL A   1      44.038  24.493  26.534  1.00  0.00    -0.376 OA
BRANCH  34  35
ATOM     35  C   UNL A   1      44.553  24.893  25.276  1.00  0.00     0.202 C 
BRANCH  35  36
ATOM     36  C   UNL A   1      44.828  26.392  25.197  1.00  0.00     0.261 C 
BRANCH  36  37
ATOM     37  O   UNL A   1      44.051  27.087  26.191  1.00  0.00    -0.460 OA
BRANCH  37  38
ATOM     38  C   UNL A   1      43.041  27.848  25.681  1.00  0.00     0.338 C 
ATOM     39  O   UNL A   1      42.628  27.743  24.540  1.00  0.00    -0.246 OA
BRANCH  38  40
ATOM     40  C   UNL A   1      42.524  28.789  26.713  1.00  0.00     0.060 A 
ATOM     41  C   UNL A   1      43.369  29.698  27.361  1.00  0.00     0.016 A 
ATOM     42  C   UNL A   1      41.213  28.664  27.145  1.00  0.00     0.016 A 
ATOM     43  C   UNL A   1      42.943  30.374  28.527  1.00  0.00     0.010 A 
ATOM     44  C   UNL A   1      40.819  29.305  28.308  1.00  0.00     0.010 A 
ATOM     45  C   UNL A   1      41.675  30.131  29.059  1.00  0.00    -0.014 A 
BRANCH  45  46
ATOM     46  C   UNL A   1      41.200  30.511  30.421  1.00  0.00     0.031 A 
ATOM     47  C   UNL A   1      40.382  31.775  30.618  1.00  0.00     0.074 A 
ATOM     48  C   UNL A   1      41.156  29.572  31.412  1.00  0.00     0.049 A 
ATOM     49  N   UNL A   1      39.831  32.129  31.733  1.00  0.00    -0.248 NA
ATOM     50  C   UNL A   1      40.084  32.752  29.566  1.00  0.00     0.031 C 
ATOM     51  C   UNL A   1      40.201  29.544  32.526  1.00  0.00     0.029 A 
ATOM     52  N   UNL A   1      41.893  28.414  31.661  1.00  0.00    -0.354 N 
ATOM     53  C   UNL A   1      38.847  33.062  31.476  1.00  0.00     0.074 A 
ATOM     54  C   UNL A   1      39.118  33.492  30.128  1.00  0.00     0.031 C 
ATOM     55  C   UNL A   1      40.473  28.547  33.375  1.00  0.00     0.029 A 
ATOM     56  C   UNL A   1      41.792  28.097  33.024  1.00  0.00     0.049 A 
ATOM     57  H   UNL A   1      42.401  27.904  30.990  1.00  0.00     0.167 HD
ATOM     58  C   UNL A   1      37.851  33.258  32.395  1.00  0.00     0.031 A 
ATOM     59  C   UNL A   1      42.834  28.134  33.909  1.00  0.00     0.031 A 
ATOM     60  C   UNL A   1      38.115  32.538  33.651  1.00  0.00     0.049 A 
ATOM     61  C   UNL A   1      42.614  29.185  34.990  1.00  0.00     0.074 A 
ATOM     62  C   UNL A   1      37.441  31.576  34.385  1.00  0.00     0.029 A 
ATOM     63  N   UNL A   1      39.358  32.682  34.265  1.00  0.00    -0.354 N 
ATOM     64  N   UNL A   1      41.772  30.176  34.837  1.00  0.00    -0.248 NA
ATOM     65  C   UNL A   1      43.221  29.208  36.321  1.00  0.00     0.031 C 
ATOM     66  C   UNL A   1      38.324  31.079  35.384  1.00  0.00     0.029 A 
ATOM     67  C   UNL A   1      39.515  31.781  35.293  1.00  0.00     0.049 A 
ATOM     68  H   UNL A   1      40.036  33.345  33.997  1.00  0.00     0.167 HD
ATOM     69  C   UNL A   1      41.627  30.868  36.002  1.00  0.00     0.074 A 
ATOM     70  C   UNL A   1      42.609  30.272  36.887  1.00  0.00     0.031 C 
ATOM     71  C   UNL A   1      40.688  31.848  36.154  1.00  0.00     0.031 A 
BRANCH  58  72
ATOM     72  C   UNL A   1      36.523  33.979  32.155  1.00  0.00    -0.014 A 
ATOM     73  C   UNL A   1      35.898  33.896  30.886  1.00  0.00     0.010 A 
ATOM     74  C   UNL A   1      35.853  34.783  33.097  1.00  0.00     0.010 A 
ATOM     75  C   UNL A   1      34.700  34.566  30.576  1.00  0.00     0.020 A 
ATOM     76  C   UNL A   1      34.639  35.442  32.811  1.00  0.00     0.020 A 
ATOM     77  C   UNL A   1      34.069  35.332  31.548  1.00  0.00     0.054 A 
BRANCH  77  78
ATOM     78  S   UNL A   1      32.495  36.147  31.157  1.00  0.00     0.124 S 
ATOM     79  O   UNL A   1      31.991  35.345  30.046  1.00  0.00    -0.237 OA
ATOM     80  O   UNL A   1      31.754  36.027  32.410  1.00  0.00    -0.237 OA
ATOM     81  O   UNL A   1      32.889  37.510  30.804  1.00  0.00    -0.744 OA
ENDBRANCH  77  78
ENDBRANCH  58  72
BRANCH  59  82
ATOM     82  C   UNL A   1      44.093  27.573  33.344  1.00  0.00    -0.014 A 
ATOM     83  C   UNL A   1      45.269  28.133  33.896  1.00  0.00     0.010 A 
ATOM     84  C   UNL A   1      44.118  26.229  32.922  1.00  0.00     0.010 A 
ATOM     85  C   UNL A   1      46.323  27.307  34.295  1.00  0.00     0.020 A 
ATOM     86  C   UNL A   1      45.184  25.400  33.314  1.00  0.00     0.020 A 
ATOM     87  C   UNL A   1      46.229  25.933  34.077  1.00  0.00     0.054 A 
BRANCH  87  88
ATOM     88  S   UNL A   1      47.313  24.846  35.062  1.00  0.00     0.124 S 
ATOM     89  O   UNL A   1      48.306  24.421  34.082  1.00  0.00    -0.237 OA
ATOM     90  O   UNL A   1      47.795  25.758  36.100  1.00  0.00    -0.237 OA
ATOM     91  O   UNL A   1      46.403  23.808  35.533  1.00  0.00    -0.744 OA
ENDBRANCH  87  88
ENDBRANCH  59  82
BRANCH  71  92
ATOM     92  C   UNL A   1      40.734  32.973  37.156  1.00  0.00    -0.014 A 
ATOM     93  C   UNL A   1      39.929  33.009  38.301  1.00  0.00     0.010 A 
ATOM     94  C   UNL A   1      41.792  33.917  37.080  1.00  0.00     0.010 A 
ATOM     95  C   UNL A   1      40.156  33.951  39.313  1.00  0.00     0.020 A 
ATOM     96  C   UNL A   1      42.055  34.830  38.101  1.00  0.00     0.020 A 
ATOM     97  C   UNL A   1      41.221  34.849  39.210  1.00  0.00     0.054 A 
BRANCH  97  98
ATOM     98  S   UNL A   1      41.554  35.983  40.579  1.00  0.00     0.124 S 
ATOM     99  O   UNL A   1      42.010  35.066  41.621  1.00  0.00    -0.237 OA
ATOM    100  O   UNL A   1      42.582  36.862  40.026  1.00  0.00    -0.237 OA
ATOM    101  O   UNL A   1      40.266  36.623  40.825  1.00  0.00    -0.744 OA
ENDBRANCH  97  98
ENDBRANCH  71  92
ENDBRANCH  45  46
ENDBRANCH  38  40
ENDBRANCH  37  38
ENDBRANCH  36  37
ENDBRANCH  35  36
ENDBRANCH  34  35
ENDBRANCH  33  34
ENDBRANCH  32  33
ENDBRANCH  31  32
ENDBRANCH   1  31
TORSDOF 27
ENDMDL
MODEL 2
REMARK VINA RESULT:      -9.6      4.437      8.365
REMARK SMILES Cc1nn(C(C)C)c(C)c1S(=O)(=O)Nc1cccc(C(=O)OCCOCCOCCOCCOC(=O)c2ccc(-c3c4nc(c(-c5ccc(S(=O)(=O)[O-])cc5)c5ccc([nH]5)c(-c5ccc(S(=O)(=O)[O-])cc5)c5nc(c(-c6ccc(S(=O)(=O)[O-])cc6)c6ccc3[nH]6)C=C5)C=C4)cc2)c1C
REMARK SMILES IDX 27 1 26 2 25 3 24 4 23 5 22 6 20 7 21 8 19 9 15 10 16 11
REMARK SMILES IDX 97 12 17 13 98 14 18 15 14 16 11 18 12 19 13 20 10 21 1 22
REMARK SMILES IDX 2 23 3 24 4 25 8 26 9 27 5 28 6 29 7 30 28 31 29 32 30 33
REMARK SMILES IDX 31 34 32 35 33 36 34 37 35 38 36 39 37 40 38 41 96 42 39 43
REMARK SMILES IDX 95 44 40 45 41 46 42 47 89 48 43 49 94 50 88 51 90 52 44 53
REMARK SMILES IDX 93 54 87 55 86 56 45 58 75 59 56 60 74 61 57 62 60 63 73 64
REMARK SMILES IDX 91 65 58 66 59 67 72 69 92 70 61 71 46 72 47 73 55 74 48 75
REMARK SMILES IDX 54 76 49 77 50 78 51 79 52 80 53 81 76 82 77 83 85 84 78 85
REMARK SMILES IDX 84 86 79 87 80 88 81 89 82 90 83 91 62 92 63 93 71 94 64 95
REMARK SMILES IDX 70 96 65 97 66 98 67 99 68 100 69 101
REMARK H PARENT 14 17 90 57 60 68
REMARK Flexibility Score: inf
ROOT
ATOM      1  C   UNL A   1      33.050  22.204  24.764  1.00  0.00     0.188 C 
ENDROOT
BRANCH   1   2
ATOM      2  C   UNL A   1      33.218  22.792  26.177  1.00  0.00     0.188 C 
BRANCH   2   3
ATOM      3  O   UNL A   1      32.199  22.720  27.160  1.00  0.00    -0.376 OA
BRANCH   3   4
ATOM      4  C   UNL A   1      31.161  23.701  27.086  1.00  0.00     0.202 C 
BRANCH   4   5
ATOM      5  C   UNL A   1      30.408  23.866  25.775  1.00  0.00     0.261 C 
BRANCH   5   6
ATOM      6  O   UNL A   1      30.741  25.169  25.310  1.00  0.00    -0.460 OA
BRANCH   6   7
ATOM      7  C   UNL A   1      30.770  25.308  23.985  1.00  0.00     0.338 C 
ATOM      8  O   UNL A   1      30.575  24.489  23.111  1.00  0.00    -0.246 OA
BRANCH   7   9
ATOM      9  C   UNL A   1      30.602  26.751  23.812  1.00  0.00     0.065 A 
ATOM     10  C   UNL A   1      31.503  28.926  24.127  1.00  0.00     0.053 A 
ATOM     11  C   UNL A   1      30.279  29.482  23.731  1.00  0.00     0.027 A 
ATOM     12  C   UNL A   1      31.730  27.558  24.056  1.00  0.00    -0.012 A 
ATOM     13  C   UNL A   1      29.220  28.662  23.339  1.00  0.00     0.003 A 
ATOM     14  C   UNL A   1      33.097  26.943  24.246  1.00  0.00     0.047 C 
ATOM     15  C   UNL A   1      29.366  27.281  23.418  1.00  0.00     0.016 A 
BRANCH  10  16
ATOM     16  N   UNL A   1      32.471  29.823  24.644  1.00  0.00    -0.279 N 
ATOM     17  H   UNL A   1      33.260  30.077  24.114  1.00  0.00     0.180 HD
BRANCH  16  18
ATOM     18  S   UNL A   1      32.227  30.449  26.205  1.00  0.00     0.265 S 
ATOM     19  O   UNL A   1      31.903  29.266  26.983  1.00  0.00    -0.201 OA
ATOM     20  O   UNL A   1      31.279  31.536  26.152  1.00  0.00    -0.201 OA
BRANCH  18  21
ATOM     21  C   UNL A   1      33.599  31.123  27.009  1.00  0.00     0.131 A 
ATOM     22  C   UNL A   1      32.920  33.460  28.119  1.00  0.00     0.070 C 
ATOM     23  C   UNL A   1      33.797  32.368  27.665  1.00  0.00     0.080 A 
ATOM     24  N   UNL A   1      35.073  32.515  28.025  1.00  0.00    -0.176 NA
ATOM     25  N   UNL A   1      35.570  31.282  27.972  1.00  0.00    -0.266 N 
ATOM     26  C   UNL A   1      34.709  30.380  27.415  1.00  0.00     0.056 A 
ATOM     27  C   UNL A   1      34.951  28.917  27.397  1.00  0.00     0.068 C 
BRANCH  25  28
ATOM     28  C   UNL A   1      36.874  31.068  28.585  1.00  0.00     0.101 C 
ATOM     29  C   UNL A   1      37.335  32.346  29.280  1.00  0.00     0.033 C 
ATOM     30  C   UNL A   1      36.823  29.884  29.556  1.00  0.00     0.033 C 
ENDBRANCH  25  28
ENDBRANCH  18  21
ENDBRANCH  16  18
ENDBRANCH  10  16
ENDBRANCH   7   9
ENDBRANCH   6   7
ENDBRANCH   5   6
ENDBRANCH   4   5
ENDBRANCH   3   4
ENDBRANCH   2   3
ENDBRANCH   1   2
BRANCH   1  31
ATOM     31  O   UNL A   1      34.110  21.445  24.216  1.00  0.00    -0.377 OA
BRANCH  31  32
ATOM     32  C   UNL A   1      35.439  21.990  24.262  1.00  0.00     0.188 C 
BRANCH  32  33
ATOM     33  C   UNL A   1      36.465  21.348  25.193  1.00  0.00     0.188 C 
BRANCH  33  34
ATOM     34  O   UNL A   1      37.745  21.882  24.841  1.00  0.00    -0.376 OA
BRANCH  34  35
ATOM     35  C   UNL A   1      38.607  22.201  25.919  1.00  0.00     0.202 C 
BRANCH  35  36
ATOM     36  C   UNL A   1      39.584  21.076  26.251  1.00  0.00     0.261 C 
BRANCH  36  37
ATOM     37  O   UNL A   1      40.536  21.527  27.233  1.00  0.00    -0.460 OA
BRANCH  37  38
ATOM     38  C   UNL A   1      41.839  21.356  26.870  1.00  0.00     0.338 C 
ATOM     39  O   UNL A   1      42.239  20.405  26.222  1.00  0.00    -0.246 OA
BRANCH  38  40
ATOM     40  C   UNL A   1      42.671  22.490  27.359  1.00  0.00     0.060 A 
ATOM     41  C   UNL A   1      42.836  22.737  28.728  1.00  0.00     0.016 A 
ATOM     42  C   UNL A   1      43.172  23.404  26.446  1.00  0.00     0.016 A 
ATOM     43  C   UNL A   1      43.375  23.963  29.180  1.00  0.00     0.010 A 
ATOM     44  C   UNL A   1      43.665  24.616  26.901  1.00  0.00     0.010 A 
ATOM     45  C   UNL A   1      43.734  24.955  28.265  1.00  0.00    -0.014 A 
BRANCH  45  46
ATOM     46  C   UNL A   1      44.014  26.386  28.577  1.00  0.00     0.031 A 
ATOM     47  C   UNL A   1      42.898  27.292  29.066  1.00  0.00     0.074 A 
ATOM     48  C   UNL A   1      45.299  26.795  28.799  1.00  0.00     0.049 A 
ATOM     49  N   UNL A   1      43.061  28.510  29.470  1.00  0.00    -0.248 NA
ATOM     50  C   UNL A   1      41.489  26.902  29.171  1.00  0.00     0.031 C 
ATOM     51  C   UNL A   1      45.710  27.891  29.683  1.00  0.00     0.029 A 
ATOM     52  N   UNL A   1      46.535  26.337  28.344  1.00  0.00    -0.354 N 
ATOM     53  C   UNL A   1      41.965  28.890  30.217  1.00  0.00     0.074 A 
ATOM     54  C   UNL A   1      40.972  27.893  29.911  1.00  0.00     0.031 C 
ATOM     55  C   UNL A   1      47.030  28.099  29.617  1.00  0.00     0.029 A 
ATOM     56  C   UNL A   1      47.472  27.375  28.458  1.00  0.00     0.049 A 
ATOM     57  H   UNL A   1      46.720  25.434  28.000  1.00  0.00     0.167 HD
ATOM     58  C   UNL A   1      42.082  29.932  31.098  1.00  0.00     0.031 A 
ATOM     59  C   UNL A   1      48.077  27.995  27.399  1.00  0.00     0.031 A 
ATOM     60  C   UNL A   1      43.372  30.627  30.956  1.00  0.00     0.049 A 
ATOM     61  C   UNL A   1      47.695  29.468  27.318  1.00  0.00     0.074 A 
ATOM     62  C   UNL A   1      44.431  30.901  31.806  1.00  0.00     0.029 A 
ATOM     63  N   UNL A   1      43.785  31.033  29.689  1.00  0.00    -0.354 N 
ATOM     64  N   UNL A   1      46.629  29.944  27.909  1.00  0.00    -0.248 NA
ATOM     65  C   UNL A   1      48.457  30.533  26.666  1.00  0.00     0.031 C 
ATOM     66  C   UNL A   1      45.515  31.386  31.021  1.00  0.00     0.029 A 
ATOM     67  C   UNL A   1      45.094  31.461  29.704  1.00  0.00     0.049 A 
ATOM     68  H   UNL A   1      43.215  31.016  28.887  1.00  0.00     0.167 HD
ATOM     69  C   UNL A   1      46.605  31.304  27.837  1.00  0.00     0.074 A 
ATOM     70  C   UNL A   1      47.734  31.629  26.985  1.00  0.00     0.031 C 
ATOM     71  C   UNL A   1      45.684  32.053  28.512  1.00  0.00     0.031 A 
BRANCH  58  72
ATOM     72  C   UNL A   1      41.111  30.279  32.229  1.00  0.00    -0.014 A 
ATOM     73  C   UNL A   1      41.500  31.200  33.232  1.00  0.00     0.010 A 
ATOM     74  C   UNL A   1      39.831  29.718  32.400  1.00  0.00     0.010 A 
ATOM     75  C   UNL A   1      40.681  31.536  34.325  1.00  0.00     0.020 A 
ATOM     76  C   UNL A   1      38.986  30.061  33.476  1.00  0.00     0.020 A 
ATOM     77  C   UNL A   1      39.418  30.968  34.437  1.00  0.00     0.054 A 
BRANCH  77  78
ATOM     78  S   UNL A   1      38.345  31.449  35.819  1.00  0.00     0.124 S 
ATOM     79  O   UNL A   1      37.159  31.958  35.136  1.00  0.00    -0.237 OA
ATOM     80  O   UNL A   1      38.168  30.192  36.540  1.00  0.00    -0.237 OA
ATOM     81  O   UNL A   1      39.127  32.460  36.529  1.00  0.00    -0.744 OA
ENDBRANCH  77  78
ENDBRANCH  58  72
BRANCH  59  82
ATOM     82  C   UNL A   1      48.495  27.042  26.333  1.00  0.00    -0.014 A 
ATOM     83  C   UNL A   1      47.465  26.713  25.421  1.00  0.00     0.010 A 
ATOM     84  C   UNL A   1      49.824  27.071  25.869  1.00  0.00     0.010 A 
ATOM     85  C   UNL A   1      47.712  26.716  24.046  1.00  0.00     0.020 A 
ATOM     86  C   UNL A   1      50.075  27.064  24.485  1.00  0.00     0.020 A 
ATOM     87  C   UNL A   1      49.003  26.980  23.589  1.00  0.00     0.054 A 
BRANCH  87  88
ATOM     88  S   UNL A   1      49.192  27.514  21.855  1.00  0.00     0.124 S 
ATOM     89  O   UNL A   1      49.952  26.416  21.270  1.00  0.00    -0.237 OA
ATOM     90  O   UNL A   1      47.800  27.628  21.419  1.00  0.00    -0.237 OA
ATOM     91  O   UNL A   1      49.902  28.783  21.975  1.00  0.00    -0.744 OA
ENDBRANCH  87  88
ENDBRANCH  59  82
BRANCH  71  92
ATOM     92  C   UNL A   1      45.249  33.453  28.159  1.00  0.00    -0.014 A 
ATOM     93  C   UNL A   1      44.432  33.744  27.059  1.00  0.00     0.010 A 
ATOM     94  C   UNL A   1      45.466  34.496  29.097  1.00  0.00     0.010 A 
ATOM     95  C   UNL A   1      43.873  35.017  26.893  1.00  0.00     0.020 A 
ATOM     96  C   UNL A   1      44.878  35.754  28.966  1.00  0.00     0.020 A 
ATOM     97  C   UNL A   1      44.093  36.011  27.851  1.00  0.00     0.054 A 
BRANCH  97  98
ATOM     98  S   UNL A   1      43.273  37.612  27.665  1.00  0.00     0.124 S 
ATOM     99  O   UNL A   1      42.781  37.853  29.020  1.00  0.00    -0.237 OA
ATOM    100  O   UNL A   1      44.362  38.483  27.231  1.00  0.00    -0.237 OA
ATOM    101  O   UNL A   1      42.245  37.365  26.659  1.00  0.00    -0.744 OA
ENDBRANCH  97  98
ENDBRANCH  71  92
ENDBRANCH  45  46
ENDBRANCH  38  40
ENDBRANCH  37  38
ENDBRANCH  36  37
ENDBRANCH  35  36
ENDBRANCH  34  35
ENDBRANCH  33  34
ENDBRANCH  32  33
ENDBRANCH  31  32
ENDBRANCH   1  31
TORSDOF 27
ENDMDL
MODEL 3
REMARK VINA RESULT:      -9.6      4.251      7.830
REMARK SMILES Cc1nn(C(C)C)c(C)c1S(=O)(=O)Nc1cccc(C(=O)OCCOCCOCCOCCOC(=O)c2ccc(-c3c4nc(c(-c5ccc(S(=O)(=O)[O-])cc5)c5ccc([nH]5)c(-c5ccc(S(=O)(=O)[O-])cc5)c5nc(c(-c6ccc(S(=O)(=O)[O-])cc6)c6ccc3[nH]6)C=C5)C=C4)cc2)c1C
REMARK SMILES IDX 27 1 26 2 25 3 24 4 23 5 22 6 20 7 21 8 19 9 15 10 16 11
REMARK SMILES IDX 97 12 17 13 98 14 18 15 14 16 11 18 12 19 13 20 10 21 1 22
REMARK SMILES IDX 2 23 3 24 4 25 8 26 9 27 5 28 6 29 7 30 28 31 29 32 30 33
REMARK SMILES IDX 31 34 32 35 33 36 34 37 35 38 36 39 37 40 38 41 96 42 39 43
REMARK SMILES IDX 95 44 40 45 41 46 42 47 89 48 43 49 94 50 88 51 90 52 44 53
REMARK SMILES IDX 93 54 87 55 86 56 45 58 75 59 56 60 74 61 57 62 60 63 73 64
REMARK SMILES IDX 91 65 58 66 59 67 72 69 92 70 61 71 46 72 47 73 55 74 48 75
REMARK SMILES IDX 54 76 49 77 50 78 51 79 52 80 53 81 76 82 77 83 85 84 78 85
REMARK SMILES IDX 84 86 79 87 80 88 81 89 82 90 83 91 62 92 63 93 71 94 64 95
REMARK SMILES IDX 70 96 65 97 66 98 67 99 68 100 69 101
REMARK H PARENT 14 17 90 57 60 68
REMARK Flexibility Score: inf
ROOT
ATOM      1  C   UNL A   1      34.439  23.144  23.008  1.00  0.00     0.188 C 
ENDROOT
BRANCH   1   2
ATOM      2  C   UNL A   1      33.313  23.662  23.921  1.00  0.00     0.188 C 
BRANCH   2   3
ATOM      3  O   UNL A   1      32.202  22.863  24.293  1.00  0.00    -0.376 OA
BRANCH   3   4
ATOM      4  C   UNL A   1      30.954  23.537  24.470  1.00  0.00     0.202 C 
BRANCH   4   5
ATOM      5  C   UNL A   1      30.501  24.524  23.405  1.00  0.00     0.261 C 
BRANCH   5   6
ATOM      6  O   UNL A   1      30.406  25.778  24.068  1.00  0.00    -0.460 OA
BRANCH   6   7
ATOM      7  C   UNL A   1      30.305  26.838  23.266  1.00  0.00     0.338 C 
ATOM      8  O   UNL A   1      29.321  27.440  22.891  1.00  0.00    -0.246 OA
BRANCH   7   9
ATOM      9  C   UNL A   1      31.648  27.415  23.331  1.00  0.00     0.065 A 
ATOM     10  C   UNL A   1      33.112  28.974  24.364  1.00  0.00     0.053 A 
ATOM     11  C   UNL A   1      34.074  28.710  23.379  1.00  0.00     0.027 A 
ATOM     12  C   UNL A   1      31.933  28.244  24.433  1.00  0.00    -0.012 A 
ATOM     13  C   UNL A   1      33.831  27.763  22.383  1.00  0.00     0.003 A 
ATOM     14  C   UNL A   1      30.983  28.331  25.605  1.00  0.00     0.047 C 
ATOM     15  C   UNL A   1      32.590  27.137  22.332  1.00  0.00     0.016 A 
BRANCH  10  16
ATOM     16  N   UNL A   1      33.384  30.049  25.247  1.00  0.00    -0.279 N 
ATOM     17  H   UNL A   1      33.355  30.982  24.934  1.00  0.00     0.180 HD
BRANCH  16  18
ATOM     18  S   UNL A   1      33.760  29.681  26.862  1.00  0.00     0.265 S 
ATOM     19  O   UNL A   1      34.386  28.374  26.761  1.00  0.00    -0.201 OA
ATOM     20  O   UNL A   1      32.583  29.833  27.684  1.00  0.00    -0.201 OA
BRANCH  18  21
ATOM     21  C   UNL A   1      34.950  30.662  27.640  1.00  0.00     0.131 A 
ATOM     22  C   UNL A   1      37.381  29.647  27.179  1.00  0.00     0.070 C 
ATOM     23  C   UNL A   1      36.356  30.514  27.782  1.00  0.00     0.080 A 
ATOM     24  N   UNL A   1      36.851  31.456  28.588  1.00  0.00    -0.176 NA
ATOM     25  N   UNL A   1      35.898  32.383  28.628  1.00  0.00    -0.266 N 
ATOM     26  C   UNL A   1      34.737  31.986  28.027  1.00  0.00     0.056 A 
ATOM     27  C   UNL A   1      33.587  32.891  27.786  1.00  0.00     0.068 C 
BRANCH  25  28
ATOM     28  C   UNL A   1      36.255  33.674  29.201  1.00  0.00     0.101 C 
ATOM     29  C   UNL A   1      35.876  33.707  30.679  1.00  0.00     0.033 C 
ATOM     30  C   UNL A   1      37.747  33.957  28.995  1.00  0.00     0.033 C 
ENDBRANCH  25  28
ENDBRANCH  18  21
ENDBRANCH  16  18
ENDBRANCH  10  16
ENDBRANCH   7   9
ENDBRANCH   6   7
ENDBRANCH   5   6
ENDBRANCH   4   5
ENDBRANCH   3   4
ENDBRANCH   2   3
ENDBRANCH   1   2
BRANCH   1  31
ATOM     31  O   UNL A   1      35.598  22.597  23.606  1.00  0.00    -0.377 OA
BRANCH  31  32
ATOM     32  C   UNL A   1      35.437  21.614  24.643  1.00  0.00     0.188 C 
BRANCH  32  33
ATOM     33  C   UNL A   1      36.509  21.505  25.724  1.00  0.00     0.188 C 
BRANCH  33  34
ATOM     34  O   UNL A   1      37.416  22.595  25.529  1.00  0.00    -0.376 OA
BRANCH  34  35
ATOM     35  C   UNL A   1      38.497  22.679  26.441  1.00  0.00     0.202 C 
BRANCH  35  36
ATOM     36  C   UNL A   1      39.759  21.989  25.931  1.00  0.00     0.261 C 
BRANCH  36  37
ATOM     37  O   UNL A   1      40.607  21.634  27.040  1.00  0.00    -0.460 OA
BRANCH  37  38
ATOM     38  C   UNL A   1      41.868  22.146  26.968  1.00  0.00     0.338 C 
ATOM     39  O   UNL A   1      42.858  21.472  26.746  1.00  0.00    -0.246 OA
BRANCH  38  40
ATOM     40  C   UNL A   1      41.846  23.620  27.177  1.00  0.00     0.060 A 
ATOM     41  C   UNL A   1      42.058  24.511  26.118  1.00  0.00     0.016 A 
ATOM     42  C   UNL A   1      41.759  24.119  28.467  1.00  0.00     0.016 A 
ATOM     43  C   UNL A   1      42.324  25.877  26.365  1.00  0.00     0.010 A 
ATOM     44  C   UNL A   1      42.056  25.452  28.700  1.00  0.00     0.010 A 
ATOM     45  C   UNL A   1      42.396  26.355  27.676  1.00  0.00    -0.014 A 
BRANCH  45  46
ATOM     46  C   UNL A   1      42.963  27.664  28.109  1.00  0.00     0.031 A 
ATOM     47  C   UNL A   1      42.040  28.790  28.542  1.00  0.00     0.074 A 
ATOM     48  C   UNL A   1      44.274  27.746  28.485  1.00  0.00     0.049 A 
ATOM     49  N   UNL A   1      42.434  29.916  29.040  1.00  0.00    -0.248 NA
ATOM     50  C   UNL A   1      40.576  28.742  28.478  1.00  0.00     0.031 C 
ATOM     51  C   UNL A   1      44.826  28.675  29.478  1.00  0.00     0.029 A 
ATOM     52  N   UNL A   1      45.413  27.026  28.128  1.00  0.00    -0.354 N 
ATOM     53  C   UNL A   1      41.379  30.515  29.697  1.00  0.00     0.074 A 
ATOM     54  C   UNL A   1      40.223  29.796  29.227  1.00  0.00     0.031 C 
ATOM     55  C   UNL A   1      46.156  28.566  29.559  1.00  0.00     0.029 A 
ATOM     56  C   UNL A   1      46.547  27.805  28.404  1.00  0.00     0.049 A 
ATOM     57  H   UNL A   1      45.421  26.119  27.745  1.00  0.00     0.167 HD
ATOM     58  C   UNL A   1      41.634  31.463  30.653  1.00  0.00     0.031 A 
ATOM     59  C   UNL A   1      47.395  28.305  27.455  1.00  0.00     0.031 A 
ATOM     60  C   UNL A   1      43.057  31.836  30.688  1.00  0.00     0.049 A 
ATOM     61  C   UNL A   1      47.378  29.829  27.435  1.00  0.00     0.074 A 
ATOM     62  C   UNL A   1      44.048  31.814  31.655  1.00  0.00     0.029 A 
ATOM     63  N   UNL A   1      43.695  32.183  29.498  1.00  0.00    -0.354 N 
ATOM     64  N   UNL A   1      46.391  30.522  27.945  1.00  0.00    -0.248 NA
ATOM     65  C   UNL A   1      48.435  30.707  26.935  1.00  0.00     0.031 C 
ATOM     66  C   UNL A   1      45.297  32.059  31.018  1.00  0.00     0.029 A 
ATOM     67  C   UNL A   1      45.057  32.286  29.673  1.00  0.00     0.049 A 
ATOM     68  H   UNL A   1      43.232  32.335  28.643  1.00  0.00     0.167 HD
ATOM     69  C   UNL A   1      46.693  31.850  27.962  1.00  0.00     0.074 A 
ATOM     70  C   UNL A   1      47.955  31.930  27.251  1.00  0.00     0.031 C 
ATOM     71  C   UNL A   1      45.901  32.768  28.589  1.00  0.00     0.031 A 
BRANCH  58  72
ATOM     72  C   UNL A   1      40.648  31.984  31.700  1.00  0.00    -0.014 A 
ATOM     73  C   UNL A   1      40.083  33.275  31.552  1.00  0.00     0.010 A 
ATOM     74  C   UNL A   1      40.262  31.295  32.866  1.00  0.00     0.010 A 
ATOM     75  C   UNL A   1      39.205  33.840  32.494  1.00  0.00     0.020 A 
ATOM     76  C   UNL A   1      39.363  31.837  33.808  1.00  0.00     0.020 A 
ATOM     77  C   UNL A   1      38.840  33.111  33.618  1.00  0.00     0.054 A 
BRANCH  77  78
ATOM     78  S   UNL A   1      37.662  33.825  34.800  1.00  0.00     0.124 S 
ATOM     79  O   UNL A   1      36.777  32.698  35.083  1.00  0.00    -0.237 OA
ATOM     80  O   UNL A   1      38.526  34.242  35.901  1.00  0.00    -0.237 OA
ATOM     81  O   UNL A   1      37.044  34.920  34.054  1.00  0.00    -0.744 OA
ENDBRANCH  77  78
ENDBRANCH  58  72
BRANCH  59  82
ATOM     82  C   UNL A   1      47.699  27.325  26.376  1.00  0.00    -0.014 A 
ATOM     83  C   UNL A   1      48.344  26.151  26.831  1.00  0.00     0.010 A 
ATOM     84  C   UNL A   1      46.835  27.235  25.267  1.00  0.00     0.010 A 
ATOM     85  C   UNL A   1      47.909  24.895  26.399  1.00  0.00     0.020 A 
ATOM     86  C   UNL A   1      46.406  25.970  24.824  1.00  0.00     0.020 A 
ATOM     87  C   UNL A   1      46.881  24.818  25.461  1.00  0.00     0.054 A 
BRANCH  87  88
ATOM     88  S   UNL A   1      45.977  23.239  25.327  1.00  0.00     0.124 S 
ATOM     89  O   UNL A   1      44.739  23.641  24.671  1.00  0.00    -0.237 OA
ATOM     90  O   UNL A   1      46.893  22.434  24.518  1.00  0.00    -0.237 OA
ATOM     91  O   UNL A   1      45.849  22.811  26.715  1.00  0.00    -0.744 OA
ENDBRANCH  87  88
ENDBRANCH  59  82
BRANCH  71  92
ATOM     92  C   UNL A   1      45.845  34.245  28.287  1.00  0.00    -0.014 A 
ATOM     93  C   UNL A   1      45.570  34.754  27.012  1.00  0.00     0.010 A 
ATOM     94  C   UNL A   1      45.833  35.165  29.368  1.00  0.00     0.010 A 
ATOM     95  C   UNL A   1      45.311  36.117  26.821  1.00  0.00     0.020 A 
ATOM     96  C   UNL A   1      45.532  36.516  29.196  1.00  0.00     0.020 A 
ATOM     97  C   UNL A   1      45.286  36.987  27.914  1.00  0.00     0.054 A 
BRANCH  97  98
ATOM     98  S   UNL A   1      44.845  38.721  27.651  1.00  0.00     0.124 S 
ATOM     99  O   UNL A   1      43.401  38.634  27.450  1.00  0.00    -0.237 OA
ATOM    100  O   UNL A   1      45.266  39.353  28.899  1.00  0.00    -0.237 OA
ATOM    101  O   UNL A   1      45.621  39.106  26.475  1.00  0.00    -0.744 OA
ENDBRANCH  97  98
ENDBRANCH  71  92
ENDBRANCH  45  46
ENDBRANCH  38  40
ENDBRANCH  37  38
ENDBRANCH  36  37
ENDBRANCH  35  36
ENDBRANCH  34  35
ENDBRANCH  33  34
ENDBRANCH  32  33
ENDBRANCH  31  32
ENDBRANCH   1  31
TORSDOF 27
ENDMDL
