MODEL 1
REMARK VINA RESULT:      -8.4      0.000      0.000
REMARK SMILES CC[C@H]1SC[C@H](C(=O)OCCOCCOCCOCCOC(=O)c2ccc(-c3c4nc(c(-c5ccc(S(=O)(=O)[O-])cc5)c5ccc([nH]5)c(-c5ccc(S(=O)(=O)[O-])cc5)c5nc(c(-c6ccc(S(=O)(=O)[O-])cc6)c6ccc3[nH]6)C=C5)C=C4)cc2)N1C(=O)Cc1ccc(F)c(F)c1
REMARK SMILES IDX 15 1 14 2 13 3 12 4 11 5 10 6 9 7 7 8 8 9 6 10 3 11 4 12
REMARK SMILES IDX 84 13 5 14 2 15 1 16 85 17 86 18 87 19 88 20 89 21 95 22
REMARK SMILES IDX 90 23 93 24 91 25 94 26 92 27 16 28 17 29 18 30 19 31 20 32
REMARK SMILES IDX 21 33 22 34 23 35 24 36 25 37 83 38 26 39 82 40 27 41 28 42
REMARK SMILES IDX 29 43 76 44 30 45 81 46 75 47 77 48 31 49 80 50 74 51 73 52
REMARK SMILES IDX 32 54 62 55 43 56 61 57 44 58 47 59 60 60 78 61 45 62 46 63
REMARK SMILES IDX 59 65 79 66 48 67 33 68 34 69 42 70 35 71 41 72 36 73 37 74
REMARK SMILES IDX 38 75 39 76 40 77 63 78 64 79 72 80 65 81 71 82 66 83 67 84
REMARK SMILES IDX 68 85 69 86 70 87 49 88 50 89 58 90 51 91 57 92 52 93 53 94
REMARK SMILES IDX 54 95 55 96 56 97
REMARK H PARENT 77 53 47 64
REMARK Flexibility Score: inf
ROOT
ATOM      1  O   UNL A   1      36.411  21.710  24.174  1.00  0.00    -0.377 OA
ENDROOT
BRANCH   1   2
ATOM      2  C   UNL A   1      35.140  22.079  24.674  1.00  0.00     0.188 C 
BRANCH   2   3
ATOM      3  C   UNL A   1      35.052  22.204  26.214  1.00  0.00     0.188 C 
BRANCH   3   4
ATOM      4  O   UNL A   1      33.847  21.914  26.913  1.00  0.00    -0.376 OA
BRANCH   4   5
ATOM      5  C   UNL A   1      32.779  22.849  26.906  1.00  0.00     0.202 C 
BRANCH   5   6
ATOM      6  C   UNL A   1      33.014  24.298  26.457  1.00  0.00     0.261 C 
BRANCH   6   7
ATOM      7  O   UNL A   1      32.301  24.738  25.295  1.00  0.00    -0.462 OA
BRANCH   7   8
ATOM      8  C   UNL A   1      32.936  25.613  24.476  1.00  0.00     0.329 C 
ATOM      9  O   UNL A   1      34.150  25.635  24.288  1.00  0.00    -0.250 OA
BRANCH   8  10
ATOM     10  C   UNL A   1      31.975  26.529  23.683  1.00  0.00     0.206 C 
ATOM     11  C   UNL A   1      30.093  28.119  23.925  1.00  0.00     0.144 C 
ATOM     12  S   UNL A   1      29.289  26.482  23.933  1.00  0.00    -0.134 SA
ATOM     13  N   UNL A   1      31.480  27.794  24.276  1.00  0.00    -0.316 N 
ATOM     14  C   UNL A   1      30.767  25.683  23.238  1.00  0.00     0.109 C 
BRANCH  11  15
ATOM     15  C   UNL A   1      29.856  28.604  22.471  1.00  0.00     0.033 C 
ATOM     16  C   UNL A   1      29.154  29.932  22.287  1.00  0.00     0.007 C 
ENDBRANCH  11  15
BRANCH  13  17
ATOM     17  C   UNL A   1      32.412  28.590  24.918  1.00  0.00     0.228 C 
ATOM     18  O   UNL A   1      33.118  29.378  24.277  1.00  0.00    -0.274 OA
BRANCH  17  19
ATOM     19  C   UNL A   1      32.501  28.622  26.432  1.00  0.00     0.135 C 
BRANCH  19  20
ATOM     20  C   UNL A   1      33.593  29.562  26.907  1.00  0.00    -0.036 A 
ATOM     21  C   UNL A   1      33.325  30.906  27.237  1.00  0.00     0.007 A 
ATOM     22  C   UNL A   1      34.898  29.081  27.066  1.00  0.00     0.046 A 
ATOM     23  C   UNL A   1      34.292  31.710  27.832  1.00  0.00     0.043 A 
ATOM     24  C   UNL A   1      35.868  29.898  27.645  1.00  0.00     0.159 A 
ATOM     25  C   UNL A   1      35.557  31.191  28.054  1.00  0.00     0.158 A 
ATOM     26  F   UNL A   1      37.100  29.411  27.846  1.00  0.00    -0.204 F 
ATOM     27  F   UNL A   1      36.467  31.942  28.687  1.00  0.00    -0.204 F 
ENDBRANCH  19  20
ENDBRANCH  17  19
ENDBRANCH  13  17
ENDBRANCH   8  10
ENDBRANCH   7   8
ENDBRANCH   6   7
ENDBRANCH   5   6
ENDBRANCH   4   5
ENDBRANCH   3   4
ENDBRANCH   2   3
ENDBRANCH   1   2
BRANCH   1  28
ATOM     28  C   UNL A   1      37.317  21.175  25.127  1.00  0.00     0.188 C 
BRANCH  28  29
ATOM     29  C   UNL A   1      38.045  19.876  24.735  1.00  0.00     0.188 C 
BRANCH  29  30
ATOM     30  O   UNL A   1      38.945  19.412  25.735  1.00  0.00    -0.376 OA
BRANCH  30  31
ATOM     31  C   UNL A   1      40.278  19.886  25.754  1.00  0.00     0.202 C 
BRANCH  31  32
ATOM     32  C   UNL A   1      40.605  21.058  26.694  1.00  0.00     0.261 C 
BRANCH  32  33
ATOM     33  O   UNL A   1      40.983  22.289  26.069  1.00  0.00    -0.460 OA
BRANCH  33  34
ATOM     34  C   UNL A   1      42.308  22.519  25.920  1.00  0.00     0.338 C 
ATOM     35  O   UNL A   1      42.951  22.436  24.898  1.00  0.00    -0.246 OA
BRANCH  34  36
ATOM     36  C   UNL A   1      42.805  23.092  27.190  1.00  0.00     0.060 A 
ATOM     37  C   UNL A   1      41.911  23.803  28.002  1.00  0.00     0.016 A 
ATOM     38  C   UNL A   1      44.137  22.930  27.575  1.00  0.00     0.016 A 
ATOM     39  C   UNL A   1      42.362  24.406  29.173  1.00  0.00     0.010 A 
ATOM     40  C   UNL A   1      44.596  23.557  28.735  1.00  0.00     0.010 A 
ATOM     41  C   UNL A   1      43.720  24.340  29.508  1.00  0.00    -0.014 A 
BRANCH  41  42
ATOM     42  C   UNL A   1      44.264  25.310  30.487  1.00  0.00     0.031 A 
ATOM     43  C   UNL A   1      44.449  26.733  30.029  1.00  0.00     0.074 A 
ATOM     44  C   UNL A   1      44.540  24.959  31.755  1.00  0.00     0.049 A 
ATOM     45  N   UNL A   1      44.920  27.762  30.682  1.00  0.00    -0.248 NA
ATOM     46  C   UNL A   1      44.049  27.033  28.642  1.00  0.00     0.031 C 
ATOM     47  C   UNL A   1      44.347  23.628  32.329  1.00  0.00     0.029 A 
ATOM     48  N   UNL A   1      45.045  25.705  32.790  1.00  0.00    -0.354 N 
ATOM     49  C   UNL A   1      44.884  28.823  29.784  1.00  0.00     0.074 A 
ATOM     50  C   UNL A   1      44.379  28.309  28.533  1.00  0.00     0.031 C 
ATOM     51  C   UNL A   1      44.736  23.651  33.617  1.00  0.00     0.029 A 
ATOM     52  C   UNL A   1      45.236  24.986  33.945  1.00  0.00     0.049 A 
ATOM     53  H   UNL A   1      45.251  26.664  32.711  1.00  0.00     0.167 HD
ATOM     54  C   UNL A   1      45.234  30.115  29.986  1.00  0.00     0.031 A 
ATOM     55  C   UNL A   1      45.770  25.363  35.125  1.00  0.00     0.031 A 
ATOM     56  C   UNL A   1      45.750  30.619  31.230  1.00  0.00     0.049 A 
ATOM     57  C   UNL A   1      46.222  26.790  35.304  1.00  0.00     0.074 A 
ATOM     58  C   UNL A   1      46.132  31.911  31.544  1.00  0.00     0.029 A 
ATOM     59  N   UNL A   1      45.963  29.851  32.366  1.00  0.00    -0.354 N 
ATOM     60  N   UNL A   1      46.173  27.788  34.451  1.00  0.00    -0.248 NA
ATOM     61  C   UNL A   1      46.783  27.148  36.614  1.00  0.00     0.031 C 
ATOM     62  C   UNL A   1      46.636  31.911  32.847  1.00  0.00     0.029 A 
ATOM     63  C   UNL A   1      46.491  30.637  33.374  1.00  0.00     0.049 A 
ATOM     64  H   UNL A   1      45.766  28.889  32.443  1.00  0.00     0.167 HD
ATOM     65  C   UNL A   1      46.657  28.899  35.137  1.00  0.00     0.074 A 
ATOM     66  C   UNL A   1      46.984  28.451  36.476  1.00  0.00     0.031 C 
ATOM     67  C   UNL A   1      46.806  30.176  34.704  1.00  0.00     0.031 A 
BRANCH  54  68
ATOM     68  C   UNL A   1      45.111  31.059  28.819  1.00  0.00    -0.014 A 
ATOM     69  C   UNL A   1      44.023  31.942  28.698  1.00  0.00     0.010 A 
ATOM     70  C   UNL A   1      46.119  31.079  27.837  1.00  0.00     0.010 A 
ATOM     71  C   UNL A   1      43.925  32.798  27.597  1.00  0.00     0.020 A 
ATOM     72  C   UNL A   1      46.042  31.956  26.753  1.00  0.00     0.020 A 
ATOM     73  C   UNL A   1      44.936  32.800  26.632  1.00  0.00     0.054 A 
BRANCH  73  74
ATOM     74  S   UNL A   1      44.796  33.941  25.229  1.00  0.00     0.124 S 
ATOM     75  O   UNL A   1      44.289  33.064  24.177  1.00  0.00    -0.237 OA
ATOM     76  O   UNL A   1      43.854  34.940  25.724  1.00  0.00    -0.237 OA
ATOM     77  O   UNL A   1      46.163  34.420  25.034  1.00  0.00    -0.744 OA
ENDBRANCH  73  74
ENDBRANCH  54  68
BRANCH  55  78
ATOM     78  C   UNL A   1      45.918  24.371  36.227  1.00  0.00    -0.014 A 
ATOM     79  C   UNL A   1      46.791  23.276  36.101  1.00  0.00     0.010 A 
ATOM     80  C   UNL A   1      45.174  24.516  37.412  1.00  0.00     0.010 A 
ATOM     81  C   UNL A   1      46.900  22.333  37.128  1.00  0.00     0.020 A 
ATOM     82  C   UNL A   1      45.304  23.594  38.455  1.00  0.00     0.020 A 
ATOM     83  C   UNL A   1      46.158  22.501  38.300  1.00  0.00     0.054 A 
BRANCH  83  84
ATOM     84  S   UNL A   1      46.352  21.291  39.639  1.00  0.00     0.124 S 
ATOM     85  O   UNL A   1      45.315  21.708  40.578  1.00  0.00    -0.237 OA
ATOM     86  O   UNL A   1      46.115  20.024  38.952  1.00  0.00    -0.237 OA
ATOM     87  O   UNL A   1      47.725  21.499  40.091  1.00  0.00    -0.744 OA
ENDBRANCH  83  84
ENDBRANCH  55  78
BRANCH  67  88
ATOM     88  C   UNL A   1      47.281  31.202  35.703  1.00  0.00    -0.014 A 
ATOM     89  C   UNL A   1      48.645  31.483  35.891  1.00  0.00     0.010 A 
ATOM     90  C   UNL A   1      46.326  31.929  36.439  1.00  0.00     0.010 A 
ATOM     91  C   UNL A   1      49.046  32.435  36.834  1.00  0.00     0.020 A 
ATOM     92  C   UNL A   1      46.721  32.907  37.355  1.00  0.00     0.020 A 
ATOM     93  C   UNL A   1      48.081  33.138  37.562  1.00  0.00     0.054 A 
BRANCH  93  94
ATOM     94  S   UNL A   1      48.628  34.380  38.765  1.00  0.00     0.124 S 
ATOM     95  O   UNL A   1      48.925  35.523  37.908  1.00  0.00    -0.237 OA
ATOM     96  O   UNL A   1      47.458  34.527  39.627  1.00  0.00    -0.237 OA
ATOM     97  O   UNL A   1      49.788  33.759  39.401  1.00  0.00    -0.744 OA
ENDBRANCH  93  94
ENDBRANCH  67  88
ENDBRANCH  41  42
ENDBRANCH  34  36
ENDBRANCH  33  34
ENDBRANCH  32  33
ENDBRANCH  31  32
ENDBRANCH  30  31
ENDBRANCH  29  30
ENDBRANCH  28  29
ENDBRANCH   1  28
TORSDOF 27
ENDMDL
MODEL 2
REMARK VINA RESULT:      -7.8      5.179      6.678
REMARK SMILES CC[C@H]1SC[C@H](C(=O)OCCOCCOCCOCCOC(=O)c2ccc(-c3c4nc(c(-c5ccc(S(=O)(=O)[O-])cc5)c5ccc([nH]5)c(-c5ccc(S(=O)(=O)[O-])cc5)c5nc(c(-c6ccc(S(=O)(=O)[O-])cc6)c6ccc3[nH]6)C=C5)C=C4)cc2)N1C(=O)Cc1ccc(F)c(F)c1
REMARK SMILES IDX 15 1 14 2 13 3 12 4 11 5 10 6 9 7 7 8 8 9 6 10 3 11 4 12
REMARK SMILES IDX 84 13 5 14 2 15 1 16 85 17 86 18 87 19 88 20 89 21 95 22
REMARK SMILES IDX 90 23 93 24 91 25 94 26 92 27 16 28 17 29 18 30 19 31 20 32
REMARK SMILES IDX 21 33 22 34 23 35 24 36 25 37 83 38 26 39 82 40 27 41 28 42
REMARK SMILES IDX 29 43 76 44 30 45 81 46 75 47 77 48 31 49 80 50 74 51 73 52
REMARK SMILES IDX 32 54 62 55 43 56 61 57 44 58 47 59 60 60 78 61 45 62 46 63
REMARK SMILES IDX 59 65 79 66 48 67 33 68 34 69 42 70 35 71 41 72 36 73 37 74
REMARK SMILES IDX 38 75 39 76 40 77 63 78 64 79 72 80 65 81 71 82 66 83 67 84
REMARK SMILES IDX 68 85 69 86 70 87 49 88 50 89 58 90 51 91 57 92 52 93 53 94
REMARK SMILES IDX 54 95 55 96 56 97
REMARK H PARENT 77 53 47 64
REMARK Flexibility Score: inf
ROOT
ATOM      1  O   UNL A   1      36.933  22.607  24.760  1.00  0.00    -0.377 OA
ENDROOT
BRANCH   1   2
ATOM      2  C   UNL A   1      35.586  22.898  25.079  1.00  0.00     0.188 C 
BRANCH   2   3
ATOM      3  C   UNL A   1      35.308  23.155  26.580  1.00  0.00     0.188 C 
BRANCH   3   4
ATOM      4  O   UNL A   1      34.231  22.516  27.254  1.00  0.00    -0.376 OA
BRANCH   4   5
ATOM      5  C   UNL A   1      32.904  22.656  26.767  1.00  0.00     0.202 C 
BRANCH   5   6
ATOM      6  C   UNL A   1      32.317  24.049  26.497  1.00  0.00     0.261 C 
BRANCH   6   7
ATOM      7  O   UNL A   1      32.504  24.584  25.181  1.00  0.00    -0.462 OA
BRANCH   7   8
ATOM      8  C   UNL A   1      32.956  25.860  25.093  1.00  0.00     0.329 C 
ATOM      9  O   UNL A   1      34.005  26.263  25.590  1.00  0.00    -0.250 OA
BRANCH   8  10
ATOM     10  C   UNL A   1      32.084  26.766  24.194  1.00  0.00     0.206 C 
ATOM     11  C   UNL A   1      29.928  27.978  24.088  1.00  0.00     0.144 C 
ATOM     12  S   UNL A   1      29.497  26.273  23.605  1.00  0.00    -0.134 SA
ATOM     13  N   UNL A   1      31.203  27.797  24.791  1.00  0.00    -0.316 N 
ATOM     14  C   UNL A   1      31.237  25.859  23.280  1.00  0.00     0.109 C 
BRANCH  11  15
ATOM     15  C   UNL A   1      30.003  28.708  22.722  1.00  0.00     0.033 C 
ATOM     16  C   UNL A   1      29.110  29.913  22.528  1.00  0.00     0.007 C 
ENDBRANCH  11  15
BRANCH  13  17
ATOM     17  C   UNL A   1      31.746  28.575  25.799  1.00  0.00     0.228 C 
ATOM     18  O   UNL A   1      31.585  28.271  26.987  1.00  0.00    -0.274 OA
BRANCH  17  19
ATOM     19  C   UNL A   1      32.664  29.739  25.478  1.00  0.00     0.135 C 
BRANCH  19  20
ATOM     20  C   UNL A   1      33.568  30.076  26.649  1.00  0.00    -0.036 A 
ATOM     21  C   UNL A   1      34.644  29.243  27.020  1.00  0.00     0.007 A 
ATOM     22  C   UNL A   1      33.365  31.264  27.360  1.00  0.00     0.046 A 
ATOM     23  C   UNL A   1      35.568  29.643  27.981  1.00  0.00     0.043 A 
ATOM     24  C   UNL A   1      34.284  31.649  28.336  1.00  0.00     0.159 A 
ATOM     25  C   UNL A   1      35.393  30.860  28.619  1.00  0.00     0.158 A 
ATOM     26  F   UNL A   1      34.113  32.816  28.972  1.00  0.00    -0.204 F 
ATOM     27  F   UNL A   1      36.318  31.274  29.494  1.00  0.00    -0.204 F 
ENDBRANCH  19  20
ENDBRANCH  17  19
ENDBRANCH  13  17
ENDBRANCH   8  10
ENDBRANCH   7   8
ENDBRANCH   6   7
ENDBRANCH   5   6
ENDBRANCH   4   5
ENDBRANCH   3   4
ENDBRANCH   2   3
ENDBRANCH   1   2
BRANCH   1  28
ATOM     28  C   UNL A   1      37.878  22.858  25.789  1.00  0.00     0.188 C 
BRANCH  28  29
ATOM     29  C   UNL A   1      38.855  21.716  26.123  1.00  0.00     0.188 C 
BRANCH  29  30
ATOM     30  O   UNL A   1      39.895  22.106  27.013  1.00  0.00    -0.376 OA
BRANCH  30  31
ATOM     31  C   UNL A   1      40.641  23.279  26.747  1.00  0.00     0.202 C 
BRANCH  31  32
ATOM     32  C   UNL A   1      40.464  24.469  27.704  1.00  0.00     0.261 C 
BRANCH  32  33
ATOM     33  O   UNL A   1      41.081  25.700  27.311  1.00  0.00    -0.460 OA
BRANCH  33  34
ATOM     34  C   UNL A   1      42.307  25.960  27.820  1.00  0.00     0.338 C 
ATOM     35  O   UNL A   1      43.358  25.461  27.482  1.00  0.00    -0.246 OA
BRANCH  34  36
ATOM     36  C   UNL A   1      42.173  27.119  28.730  1.00  0.00     0.060 A 
ATOM     37  C   UNL A   1      41.511  28.264  28.267  1.00  0.00     0.016 A 
ATOM     38  C   UNL A   1      42.696  27.076  30.024  1.00  0.00     0.016 A 
ATOM     39  C   UNL A   1      41.421  29.392  29.078  1.00  0.00     0.010 A 
ATOM     40  C   UNL A   1      42.630  28.216  30.827  1.00  0.00     0.010 A 
ATOM     41  C   UNL A   1      42.039  29.393  30.335  1.00  0.00    -0.014 A 
BRANCH  41  42
ATOM     42  C   UNL A   1      42.310  30.690  30.998  1.00  0.00     0.031 A 
ATOM     43  C   UNL A   1      43.392  31.559  30.414  1.00  0.00     0.074 A 
ATOM     44  C   UNL A   1      41.591  31.111  32.053  1.00  0.00     0.049 A 
ATOM     45  N   UNL A   1      43.832  32.722  30.814  1.00  0.00    -0.248 NA
ATOM     46  C   UNL A   1      44.073  31.040  29.213  1.00  0.00     0.031 C 
ATOM     47  C   UNL A   1      40.481  30.385  32.669  1.00  0.00     0.029 A 
ATOM     48  N   UNL A   1      41.694  32.263  32.792  1.00  0.00    -0.354 N 
ATOM     49  C   UNL A   1      44.844  33.066  29.925  1.00  0.00     0.074 A 
ATOM     50  C   UNL A   1      44.979  31.977  28.987  1.00  0.00     0.031 C 
ATOM     51  C   UNL A   1      40.009  31.110  33.700  1.00  0.00     0.029 A 
ATOM     52  C   UNL A   1      40.804  32.330  33.836  1.00  0.00     0.049 A 
ATOM     53  H   UNL A   1      42.345  32.973  32.591  1.00  0.00     0.167 HD
ATOM     54  C   UNL A   1      45.592  34.193  29.889  1.00  0.00     0.031 A 
ATOM     55  C   UNL A   1      40.662  33.263  34.798  1.00  0.00     0.031 A 
ATOM     56  C   UNL A   1      45.464  35.269  30.835  1.00  0.00     0.049 A 
ATOM     57  C   UNL A   1      41.556  34.477  34.782  1.00  0.00     0.074 A 
ATOM     58  C   UNL A   1      46.169  36.458  30.887  1.00  0.00     0.029 A 
ATOM     59  N   UNL A   1      44.575  35.283  31.900  1.00  0.00    -0.354 N 
ATOM     60  N   UNL A   1      42.504  34.797  33.930  1.00  0.00    -0.248 NA
ATOM     61  C   UNL A   1      41.348  35.468  35.847  1.00  0.00     0.031 C 
ATOM     62  C   UNL A   1      45.752  37.161  32.021  1.00  0.00     0.029 A 
ATOM     63  C   UNL A   1      44.729  36.449  32.627  1.00  0.00     0.049 A 
ATOM     64  H   UNL A   1      43.930  34.568  32.106  1.00  0.00     0.167 HD
ATOM     65  C   UNL A   1      42.973  36.044  34.333  1.00  0.00     0.074 A 
ATOM     66  C   UNL A   1      42.199  36.423  35.498  1.00  0.00     0.031 C 
ATOM     67  C   UNL A   1      43.946  36.813  33.783  1.00  0.00     0.031 A 
BRANCH  54  68
ATOM     68  C   UNL A   1      46.645  34.295  28.817  1.00  0.00    -0.014 A 
ATOM     69  C   UNL A   1      46.380  34.914  27.581  1.00  0.00     0.010 A 
ATOM     70  C   UNL A   1      47.932  33.782  29.061  1.00  0.00     0.010 A 
ATOM     71  C   UNL A   1      47.370  34.983  26.597  1.00  0.00     0.020 A 
ATOM     72  C   UNL A   1      48.934  33.878  28.093  1.00  0.00     0.020 A 
ATOM     73  C   UNL A   1      48.641  34.464  26.860  1.00  0.00     0.054 A 
BRANCH  73  74
ATOM     74  S   UNL A   1      49.915  34.592  25.575  1.00  0.00     0.124 S 
ATOM     75  O   UNL A   1      49.197  35.283  24.506  1.00  0.00    -0.237 OA
ATOM     76  O   UNL A   1      50.959  35.370  26.237  1.00  0.00    -0.237 OA
ATOM     77  O   UNL A   1      50.263  33.202  25.291  1.00  0.00    -0.744 OA
ENDBRANCH  73  74
ENDBRANCH  54  68
BRANCH  55  78
ATOM     78  C   UNL A   1      39.640  33.083  35.868  1.00  0.00    -0.014 A 
ATOM     79  C   UNL A   1      40.022  32.811  37.193  1.00  0.00     0.010 A 
ATOM     80  C   UNL A   1      38.271  33.174  35.558  1.00  0.00     0.010 A 
ATOM     81  C   UNL A   1      39.055  32.612  38.184  1.00  0.00     0.020 A 
ATOM     82  C   UNL A   1      37.301  33.008  36.552  1.00  0.00     0.020 A 
ATOM     83  C   UNL A   1      37.700  32.716  37.857  1.00  0.00     0.054 A 
BRANCH  83  84
ATOM     84  S   UNL A   1      36.465  32.501  39.168  1.00  0.00     0.124 S 
ATOM     85  O   UNL A   1      36.395  31.048  39.285  1.00  0.00    -0.237 OA
ATOM     86  O   UNL A   1      37.079  33.200  40.295  1.00  0.00    -0.237 OA
ATOM     87  O   UNL A   1      35.271  33.143  38.621  1.00  0.00    -0.744 OA
ENDBRANCH  83  84
ENDBRANCH  55  78
BRANCH  67  88
ATOM     88  C   UNL A   1      44.188  38.173  34.388  1.00  0.00    -0.014 A 
ATOM     89  C   UNL A   1      43.573  39.332  33.885  1.00  0.00     0.010 A 
ATOM     90  C   UNL A   1      45.023  38.279  35.517  1.00  0.00     0.010 A 
ATOM     91  C   UNL A   1      43.829  40.578  34.467  1.00  0.00     0.020 A 
ATOM     92  C   UNL A   1      45.252  39.515  36.125  1.00  0.00     0.020 A 
ATOM     93  C   UNL A   1      44.670  40.661  35.582  1.00  0.00     0.054 A 
BRANCH  93  94
ATOM     94  S   UNL A   1      44.972  42.286  36.329  1.00  0.00     0.124 S 
ATOM     95  O   UNL A   1      46.275  42.637  35.774  1.00  0.00    -0.237 OA
ATOM     96  O   UNL A   1      43.846  43.077  35.840  1.00  0.00    -0.237 OA
ATOM     97  O   UNL A   1      44.957  42.014  37.765  1.00  0.00    -0.744 OA
ENDBRANCH  93  94
ENDBRANCH  67  88
ENDBRANCH  41  42
ENDBRANCH  34  36
ENDBRANCH  33  34
ENDBRANCH  32  33
ENDBRANCH  31  32
ENDBRANCH  30  31
ENDBRANCH  29  30
ENDBRANCH  28  29
ENDBRANCH   1  28
TORSDOF 27
ENDMDL
MODEL 3
REMARK VINA RESULT:      -7.7      9.911     16.043
REMARK SMILES CC[C@H]1SC[C@H](C(=O)OCCOCCOCCOCCOC(=O)c2ccc(-c3c4nc(c(-c5ccc(S(=O)(=O)[O-])cc5)c5ccc([nH]5)c(-c5ccc(S(=O)(=O)[O-])cc5)c5nc(c(-c6ccc(S(=O)(=O)[O-])cc6)c6ccc3[nH]6)C=C5)C=C4)cc2)N1C(=O)Cc1ccc(F)c(F)c1
REMARK SMILES IDX 15 1 14 2 13 3 12 4 11 5 10 6 9 7 7 8 8 9 6 10 3 11 4 12
REMARK SMILES IDX 84 13 5 14 2 15 1 16 85 17 86 18 87 19 88 20 89 21 95 22
REMARK SMILES IDX 90 23 93 24 91 25 94 26 92 27 16 28 17 29 18 30 19 31 20 32
REMARK SMILES IDX 21 33 22 34 23 35 24 36 25 37 83 38 26 39 82 40 27 41 28 42
REMARK SMILES IDX 29 43 76 44 30 45 81 46 75 47 77 48 31 49 80 50 74 51 73 52
REMARK SMILES IDX 32 54 62 55 43 56 61 57 44 58 47 59 60 60 78 61 45 62 46 63
REMARK SMILES IDX 59 65 79 66 48 67 33 68 34 69 42 70 35 71 41 72 36 73 37 74
REMARK SMILES IDX 38 75 39 76 40 77 63 78 64 79 72 80 65 81 71 82 66 83 67 84
REMARK SMILES IDX 68 85 69 86 70 87 49 88 50 89 58 90 51 91 57 92 52 93 53 94
REMARK SMILES IDX 54 95 55 96 56 97
REMARK H PARENT 77 53 47 64
REMARK Flexibility Score: inf
ROOT
ATOM      1  O   UNL A   1      39.577  31.917  30.449  1.00  0.00    -0.377 OA
ENDROOT
BRANCH   1   2
ATOM      2  C   UNL A   1      40.259  33.152  30.330  1.00  0.00     0.188 C 
BRANCH   2   3
ATOM      3  C   UNL A   1      41.726  33.048  29.849  1.00  0.00     0.188 C 
BRANCH   3   4
ATOM      4  O   UNL A   1      42.763  33.798  30.470  1.00  0.00    -0.376 OA
BRANCH   4   5
ATOM      5  C   UNL A   1      43.416  34.836  29.754  1.00  0.00     0.202 C 
BRANCH   5   6
ATOM      6  C   UNL A   1      42.651  36.105  29.350  1.00  0.00     0.261 C 
BRANCH   6   7
ATOM      7  O   UNL A   1      43.321  37.355  29.553  1.00  0.00    -0.462 OA
BRANCH   7   8
ATOM      8  C   UNL A   1      43.267  38.255  28.540  1.00  0.00     0.329 C 
ATOM      9  O   UNL A   1      42.443  38.229  27.629  1.00  0.00    -0.250 OA
BRANCH   8  10
ATOM     10  C   UNL A   1      44.275  39.418  28.689  1.00  0.00     0.206 C 
ATOM     11  C   UNL A   1      44.549  41.860  28.396  1.00  0.00     0.144 C 
ATOM     12  S   UNL A   1      44.849  41.182  26.730  1.00  0.00    -0.134 SA
ATOM     13  N   UNL A   1      43.809  40.776  29.052  1.00  0.00    -0.316 N 
ATOM     14  C   UNL A   1      45.098  39.506  27.389  1.00  0.00     0.109 C 
BRANCH  11  15
ATOM     15  C   UNL A   1      45.986  42.117  28.921  1.00  0.00     0.033 C 
ATOM     16  C   UNL A   1      46.405  43.557  29.122  1.00  0.00     0.007 C 
ENDBRANCH  11  15
BRANCH  13  17
ATOM     17  C   UNL A   1      42.883  40.866  30.078  1.00  0.00     0.228 C 
ATOM     18  O   UNL A   1      41.678  40.995  29.830  1.00  0.00    -0.274 OA
BRANCH  17  19
ATOM     19  C   UNL A   1      43.299  40.675  31.523  1.00  0.00     0.135 C 
BRANCH  19  20
ATOM     20  C   UNL A   1      43.339  41.994  32.271  1.00  0.00    -0.036 A 
ATOM     21  C   UNL A   1      44.212  43.036  31.895  1.00  0.00     0.007 A 
ATOM     22  C   UNL A   1      42.460  42.211  33.339  1.00  0.00     0.046 A 
ATOM     23  C   UNL A   1      44.123  44.298  32.474  1.00  0.00     0.043 A 
ATOM     24  C   UNL A   1      42.389  43.472  33.929  1.00  0.00     0.159 A 
ATOM     25  C   UNL A   1      43.192  44.514  33.476  1.00  0.00     0.158 A 
ATOM     26  F   UNL A   1      41.505  43.687  34.912  1.00  0.00    -0.204 F 
ATOM     27  F   UNL A   1      43.060  45.746  33.987  1.00  0.00    -0.204 F 
ENDBRANCH  19  20
ENDBRANCH  17  19
ENDBRANCH  13  17
ENDBRANCH   8  10
ENDBRANCH   7   8
ENDBRANCH   6   7
ENDBRANCH   5   6
ENDBRANCH   4   5
ENDBRANCH   3   4
ENDBRANCH   2   3
ENDBRANCH   1   2
BRANCH   1  28
ATOM     28  C   UNL A   1      39.042  31.631  31.731  1.00  0.00     0.188 C 
BRANCH  28  29
ATOM     29  C   UNL A   1      39.926  31.982  32.943  1.00  0.00     0.188 C 
BRANCH  29  30
ATOM     30  O   UNL A   1      39.232  32.701  33.956  1.00  0.00    -0.376 OA
BRANCH  30  31
ATOM     31  C   UNL A   1      39.786  33.897  34.471  1.00  0.00     0.202 C 
BRANCH  31  32
ATOM     32  C   UNL A   1      39.355  34.333  35.881  1.00  0.00     0.261 C 
BRANCH  32  33
ATOM     33  O   UNL A   1      40.175  35.315  36.523  1.00  0.00    -0.460 OA
BRANCH  33  34
ATOM     34  C   UNL A   1      41.463  34.977  36.761  1.00  0.00     0.338 C 
ATOM     35  O   UNL A   1      41.877  33.905  37.143  1.00  0.00    -0.246 OA
BRANCH  34  36
ATOM     36  C   UNL A   1      42.310  36.089  36.275  1.00  0.00     0.060 A 
ATOM     37  C   UNL A   1      41.853  36.862  35.200  1.00  0.00     0.016 A 
ATOM     38  C   UNL A   1      43.542  36.363  36.874  1.00  0.00     0.016 A 
ATOM     39  C   UNL A   1      42.655  37.876  34.682  1.00  0.00     0.010 A 
ATOM     40  C   UNL A   1      44.357  37.362  36.338  1.00  0.00     0.010 A 
ATOM     41  C   UNL A   1      43.936  38.084  35.207  1.00  0.00    -0.014 A 
BRANCH  41  42
ATOM     42  C   UNL A   1      44.924  38.843  34.405  1.00  0.00     0.031 A 
ATOM     43  C   UNL A   1      45.481  38.178  33.174  1.00  0.00     0.074 A 
ATOM     44  C   UNL A   1      45.282  40.099  34.724  1.00  0.00     0.049 A 
ATOM     45  N   UNL A   1      46.364  38.617  32.318  1.00  0.00    -0.248 NA
ATOM     46  C   UNL A   1      44.970  36.828  32.870  1.00  0.00     0.031 C 
ATOM     47  C   UNL A   1      44.768  40.867  35.856  1.00  0.00     0.029 A 
ATOM     48  N   UNL A   1      46.170  40.948  34.114  1.00  0.00    -0.354 N 
ATOM     49  C   UNL A   1      46.524  37.598  31.386  1.00  0.00     0.074 A 
ATOM     50  C   UNL A   1      45.674  36.506  31.797  1.00  0.00     0.031 C 
ATOM     51  C   UNL A   1      45.356  42.077  35.862  1.00  0.00     0.029 A 
ATOM     52  C   UNL A   1      46.311  42.154  34.756  1.00  0.00     0.049 A 
ATOM     53  H   UNL A   1      46.660  40.714  33.292  1.00  0.00     0.167 HD
ATOM     54  C   UNL A   1      47.303  37.576  30.280  1.00  0.00     0.031 A 
ATOM     55  C   UNL A   1      47.130  43.191  34.490  1.00  0.00     0.031 A 
ATOM     56  C   UNL A   1      48.159  38.662  29.883  1.00  0.00     0.049 A 
ATOM     57  C   UNL A   1      48.045  43.115  33.293  1.00  0.00     0.074 A 
ATOM     58  C   UNL A   1      48.987  38.745  28.778  1.00  0.00     0.029 A 
ATOM     59  N   UNL A   1      48.300  39.852  30.581  1.00  0.00    -0.354 N 
ATOM     60  N   UNL A   1      48.180  42.150  32.413  1.00  0.00    -0.248 NA
ATOM     61  C   UNL A   1      48.907  44.279  33.043  1.00  0.00     0.031 C 
ATOM     62  C   UNL A   1      49.678  39.959  28.844  1.00  0.00     0.029 A 
ATOM     63  C   UNL A   1      49.219  40.667  29.943  1.00  0.00     0.049 A 
ATOM     64  H   UNL A   1      47.817  40.083  31.408  1.00  0.00     0.167 HD
ATOM     65  C   UNL A   1      49.107  42.610  31.482  1.00  0.00     0.074 A 
ATOM     66  C   UNL A   1      49.494  43.941  31.904  1.00  0.00     0.031 C 
ATOM     67  C   UNL A   1      49.588  41.993  30.373  1.00  0.00     0.031 A 
BRANCH  54  68
ATOM     68  C   UNL A   1      47.298  36.319  29.450  1.00  0.00    -0.014 A 
ATOM     69  C   UNL A   1      46.591  36.242  28.236  1.00  0.00     0.010 A 
ATOM     70  C   UNL A   1      48.034  35.202  29.883  1.00  0.00     0.010 A 
ATOM     71  C   UNL A   1      46.590  35.059  27.492  1.00  0.00     0.020 A 
ATOM     72  C   UNL A   1      48.063  34.029  29.126  1.00  0.00     0.020 A 
ATOM     73  C   UNL A   1      47.327  33.960  27.942  1.00  0.00     0.054 A 
BRANCH  73  74
ATOM     74  S   UNL A   1      47.330  32.447  26.941  1.00  0.00     0.124 S 
ATOM     75  O   UNL A   1      46.113  32.607  26.149  1.00  0.00    -0.237 OA
ATOM     76  O   UNL A   1      48.583  32.558  26.200  1.00  0.00    -0.237 OA
ATOM     77  O   UNL A   1      47.289  31.375  27.933  1.00  0.00    -0.744 OA
ENDBRANCH  73  74
ENDBRANCH  54  68
BRANCH  55  78
ATOM     78  C   UNL A   1      47.133  44.387  35.378  1.00  0.00    -0.014 A 
ATOM     79  C   UNL A   1      47.858  44.389  36.584  1.00  0.00     0.010 A 
ATOM     80  C   UNL A   1      46.399  45.533  35.022  1.00  0.00     0.010 A 
ATOM     81  C   UNL A   1      47.828  45.506  37.427  1.00  0.00     0.020 A 
ATOM     82  C   UNL A   1      46.394  46.662  35.846  1.00  0.00     0.020 A 
ATOM     83  C   UNL A   1      47.100  46.636  37.049  1.00  0.00     0.054 A 
BRANCH  83  84
ATOM     84  S   UNL A   1      47.116  48.090  38.136  1.00  0.00     0.124 S 
ATOM     85  O   UNL A   1      46.344  47.621  39.282  1.00  0.00    -0.237 OA
ATOM     86  O   UNL A   1      48.544  48.289  38.371  1.00  0.00    -0.237 OA
ATOM     87  O   UNL A   1      46.473  49.126  37.330  1.00  0.00    -0.744 OA
ENDBRANCH  83  84
ENDBRANCH  55  78
BRANCH  67  88
ATOM     88  C   UNL A   1      50.533  42.773  29.494  1.00  0.00    -0.014 A 
ATOM     89  C   UNL A   1      50.071  43.632  28.482  1.00  0.00     0.010 A 
ATOM     90  C   UNL A   1      51.919  42.669  29.721  1.00  0.00     0.010 A 
ATOM     91  C   UNL A   1      50.978  44.332  27.680  1.00  0.00     0.020 A 
ATOM     92  C   UNL A   1      52.827  43.395  28.948  1.00  0.00     0.020 A 
ATOM     93  C   UNL A   1      52.351  44.206  27.917  1.00  0.00     0.054 A 
BRANCH  93  94
ATOM     94  S   UNL A   1      53.507  45.138  26.875  1.00  0.00     0.124 S 
ATOM     95  O   UNL A   1      54.556  44.153  26.631  1.00  0.00    -0.237 OA
ATOM     96  O   UNL A   1      52.686  45.483  25.717  1.00  0.00    -0.237 OA
ATOM     97  O   UNL A   1      53.895  46.269  27.715  1.00  0.00    -0.744 OA
ENDBRANCH  93  94
ENDBRANCH  67  88
ENDBRANCH  41  42
ENDBRANCH  34  36
ENDBRANCH  33  34
ENDBRANCH  32  33
ENDBRANCH  31  32
ENDBRANCH  30  31
ENDBRANCH  29  30
ENDBRANCH  28  29
ENDBRANCH   1  28
TORSDOF 27
ENDMDL
