MODEL 1
REMARK VINA RESULT:      -7.5      0.000      0.000
REMARK SMILES O=C(OCCOCCOCCOCCOC(=O)[C@H]1CCCN(C(=O)c2cc(Br)ccc2Cl)C1)c1ccc(-c2c3nc(c(-c4ccc(S(=O)(=O)[O-])cc4)c4ccc([nH]4)c(-c4ccc(S(=O)(=O)[O-])cc4)c4nc(c(-c5ccc(S(=O)(=O)[O-])cc5)c5ccc2[nH]5)C=C4)C=C3)cc1
REMARK SMILES IDX 8 1 7 2 6 3 5 4 4 5 3 6 2 7 1 8 34 9 35 10 93 11 36 12 92 13
REMARK SMILES IDX 37 14 38 15 39 16 86 17 40 18 91 19 85 20 87 21 41 22 90 23
REMARK SMILES IDX 84 24 83 25 42 27 72 28 53 29 71 30 54 31 57 32 70 33 88 34
REMARK SMILES IDX 55 35 56 36 69 38 89 39 58 40 43 41 44 42 52 43 45 44 51 45
REMARK SMILES IDX 46 46 47 47 48 48 49 49 50 50 73 51 74 52 82 53 75 54 81 55
REMARK SMILES IDX 76 56 77 57 78 58 79 59 80 60 59 61 60 62 68 63 61 64 67 65
REMARK SMILES IDX 62 66 63 67 64 68 65 69 66 70 9 71 10 72 11 73 12 74 13 75
REMARK SMILES IDX 14 76 15 77 16 78 17 79 18 80 19 81 33 82 20 83 22 84 21 85
REMARK SMILES IDX 23 86 24 87 25 88 26 89 31 90 27 91 30 92 32 93 28 94 29 95
REMARK H PARENT 87 26 57 37
REMARK Flexibility Score: inf
ROOT
ATOM      1  C   UNL A   1      42.803  23.018  25.753  1.00  0.00     0.188 C 
ENDROOT
BRANCH   1   2
ATOM      2  C   UNL A   1      43.414  24.184  24.996  1.00  0.00     0.188 C 
BRANCH   2   3
ATOM      3  O   UNL A   1      44.804  23.920  24.948  1.00  0.00    -0.376 OA
BRANCH   3   4
ATOM      4  C   UNL A   1      45.672  24.867  25.527  1.00  0.00     0.202 C 
BRANCH   4   5
ATOM      5  C   UNL A   1      44.935  25.826  26.455  1.00  0.00     0.261 C 
BRANCH   5   6
ATOM      6  O   UNL A   1      45.022  25.417  27.830  1.00  0.00    -0.460 OA
BRANCH   6   7
ATOM      7  C   UNL A   1      44.355  25.948  28.885  1.00  0.00     0.338 C 
ATOM      8  O   UNL A   1      43.591  25.221  29.520  1.00  0.00    -0.246 OA
BRANCH   7   9
ATOM      9  C   UNL A   1      44.496  27.368  29.342  1.00  0.00     0.060 A 
ATOM     10  C   UNL A   1      45.460  27.828  30.239  1.00  0.00     0.016 A 
ATOM     11  C   UNL A   1      43.673  28.324  28.726  1.00  0.00     0.016 A 
ATOM     12  C   UNL A   1      45.608  29.174  30.538  1.00  0.00     0.010 A 
ATOM     13  C   UNL A   1      43.815  29.688  29.015  1.00  0.00     0.010 A 
ATOM     14  C   UNL A   1      44.785  30.112  29.930  1.00  0.00    -0.014 A 
BRANCH  14  15
ATOM     15  C   UNL A   1      44.876  31.505  30.400  1.00  0.00     0.031 A 
ATOM     16  C   UNL A   1      44.008  31.905  31.554  1.00  0.00     0.074 A 
ATOM     17  C   UNL A   1      45.814  32.329  29.897  1.00  0.00     0.049 A 
ATOM     18  N   UNL A   1      43.839  33.081  32.089  1.00  0.00    -0.248 NA
ATOM     19  C   UNL A   1      43.236  30.828  32.202  1.00  0.00     0.031 C 
ATOM     20  C   UNL A   1      46.808  31.964  28.882  1.00  0.00     0.029 A 
ATOM     21  N   UNL A   1      46.105  33.636  30.188  1.00  0.00    -0.354 N 
ATOM     22  C   UNL A   1      42.903  32.896  33.099  1.00  0.00     0.074 A 
ATOM     23  C   UNL A   1      42.555  31.495  33.121  1.00  0.00     0.031 C 
ATOM     24  C   UNL A   1      47.601  33.022  28.642  1.00  0.00     0.029 A 
ATOM     25  C   UNL A   1      47.126  34.155  29.425  1.00  0.00     0.049 A 
ATOM     26  H   UNL A   1      45.628  34.153  30.877  1.00  0.00     0.167 HD
ATOM     27  C   UNL A   1      42.372  33.830  33.917  1.00  0.00     0.031 A 
ATOM     28  C   UNL A   1      47.577  35.421  29.340  1.00  0.00     0.031 A 
ATOM     29  C   UNL A   1      42.750  35.214  33.867  1.00  0.00     0.049 A 
ATOM     30  C   UNL A   1      46.897  36.462  30.192  1.00  0.00     0.074 A 
ATOM     31  C   UNL A   1      42.250  36.275  34.598  1.00  0.00     0.029 A 
ATOM     32  N   UNL A   1      43.734  35.724  33.031  1.00  0.00    -0.354 N 
ATOM     33  N   UNL A   1      45.957  36.298  31.095  1.00  0.00    -0.248 NA
ATOM     34  C   UNL A   1      47.313  37.857  29.999  1.00  0.00     0.031 C 
ATOM     35  C   UNL A   1      42.896  37.436  34.163  1.00  0.00     0.029 A 
ATOM     36  C   UNL A   1      43.839  37.091  33.205  1.00  0.00     0.049 A 
ATOM     37  H   UNL A   1      44.277  35.192  32.406  1.00  0.00     0.167 HD
ATOM     38  C   UNL A   1      45.673  37.567  31.583  1.00  0.00     0.074 A 
ATOM     39  C   UNL A   1      46.565  38.483  30.896  1.00  0.00     0.031 C 
ATOM     40  C   UNL A   1      44.753  37.953  32.500  1.00  0.00     0.031 A 
BRANCH  27  41
ATOM     41  C   UNL A   1      41.275  33.398  34.847  1.00  0.00    -0.014 A 
ATOM     42  C   UNL A   1      41.534  33.019  36.175  1.00  0.00     0.010 A 
ATOM     43  C   UNL A   1      39.949  33.383  34.375  1.00  0.00     0.010 A 
ATOM     44  C   UNL A   1      40.487  32.613  37.009  1.00  0.00     0.020 A 
ATOM     45  C   UNL A   1      38.897  32.998  35.211  1.00  0.00     0.020 A 
ATOM     46  C   UNL A   1      39.176  32.606  36.522  1.00  0.00     0.054 A 
BRANCH  46  47
ATOM     47  S   UNL A   1      37.831  32.115  37.636  1.00  0.00     0.124 S 
ATOM     48  O   UNL A   1      37.609  30.724  37.245  1.00  0.00    -0.237 OA
ATOM     49  O   UNL A   1      38.423  32.308  38.957  1.00  0.00    -0.237 OA
ATOM     50  O   UNL A   1      36.747  33.035  37.302  1.00  0.00    -0.744 OA
ENDBRANCH  46  47
ENDBRANCH  27  41
BRANCH  28  51
ATOM     51  C   UNL A   1      48.631  35.797  28.351  1.00  0.00    -0.014 A 
ATOM     52  C   UNL A   1      48.304  36.156  27.031  1.00  0.00     0.010 A 
ATOM     53  C   UNL A   1      49.991  35.751  28.721  1.00  0.00     0.010 A 
ATOM     54  C   UNL A   1      49.313  36.424  26.096  1.00  0.00     0.020 A 
ATOM     55  C   UNL A   1      50.998  36.050  27.801  1.00  0.00     0.020 A 
ATOM     56  C   UNL A   1      50.653  36.364  26.486  1.00  0.00     0.054 A 
BRANCH  56  57
ATOM     57  S   UNL A   1      51.948  36.711  25.262  1.00  0.00     0.124 S 
ATOM     58  O   UNL A   1      52.903  35.639  25.519  1.00  0.00    -0.237 OA
ATOM     59  O   UNL A   1      51.222  36.624  23.999  1.00  0.00    -0.237 OA
ATOM     60  O   UNL A   1      52.403  38.053  25.618  1.00  0.00    -0.744 OA
ENDBRANCH  56  57
ENDBRANCH  28  51
BRANCH  40  61
ATOM     61  C   UNL A   1      44.690  39.417  32.825  1.00  0.00    -0.014 A 
ATOM     62  C   UNL A   1      43.721  40.245  32.232  1.00  0.00     0.010 A 
ATOM     63  C   UNL A   1      45.562  39.947  33.792  1.00  0.00     0.010 A 
ATOM     64  C   UNL A   1      43.642  41.592  32.587  1.00  0.00     0.020 A 
ATOM     65  C   UNL A   1      45.466  41.287  34.169  1.00  0.00     0.020 A 
ATOM     66  C   UNL A   1      44.513  42.104  33.554  1.00  0.00     0.054 A 
BRANCH  66  67
ATOM     67  S   UNL A   1      44.349  43.840  34.042  1.00  0.00     0.124 S 
ATOM     68  O   UNL A   1      42.916  43.947  34.300  1.00  0.00    -0.237 OA
ATOM     69  O   UNL A   1      45.209  43.926  35.219  1.00  0.00    -0.237 OA
ATOM     70  O   UNL A   1      44.829  44.575  32.873  1.00  0.00    -0.744 OA
ENDBRANCH  66  67
ENDBRANCH  40  61
ENDBRANCH  14  15
ENDBRANCH   7   9
ENDBRANCH   6   7
ENDBRANCH   5   6
ENDBRANCH   4   5
ENDBRANCH   3   4
ENDBRANCH   2   3
ENDBRANCH   1   2
BRANCH   1  71
ATOM     71  O   UNL A   1      41.979  23.490  26.821  1.00  0.00    -0.377 OA
BRANCH  71  72
ATOM     72  C   UNL A   1      41.433  24.802  26.775  1.00  0.00     0.188 C 
BRANCH  72  73
ATOM     73  C   UNL A   1      39.949  24.892  26.414  1.00  0.00     0.188 C 
BRANCH  73  74
ATOM     74  O   UNL A   1      39.332  23.627  26.534  1.00  0.00    -0.376 OA
BRANCH  74  75
ATOM     75  C   UNL A   1      37.936  23.575  26.289  1.00  0.00     0.202 C 
BRANCH  75  76
ATOM     76  C   UNL A   1      37.319  22.555  25.298  1.00  0.00     0.261 C 
BRANCH  76  77
ATOM     77  O   UNL A   1      36.025  22.856  24.733  1.00  0.00    -0.463 OA
BRANCH  77  78
ATOM     78  C   UNL A   1      35.061  21.907  24.877  1.00  0.00     0.310 C 
ATOM     79  O   UNL A   1      35.275  20.703  24.775  1.00  0.00    -0.252 OA
BRANCH  78  80
ATOM     80  C   UNL A   1      33.688  22.439  25.290  1.00  0.00     0.119 C 
ATOM     81  C   UNL A   1      33.238  22.249  26.746  1.00  0.00     0.019 C 
ATOM     82  C   UNL A   1      33.624  23.946  24.978  1.00  0.00     0.135 C 
ATOM     83  C   UNL A   1      31.808  22.760  26.913  1.00  0.00     0.022 C 
ATOM     84  N   UNL A   1      32.292  24.503  25.267  1.00  0.00    -0.338 N 
ATOM     85  C   UNL A   1      31.771  24.244  26.611  1.00  0.00     0.120 C 
BRANCH  84  86
ATOM     86  C   UNL A   1      31.623  25.216  24.276  1.00  0.00     0.255 C 
ATOM     87  O   UNL A   1      30.615  24.821  23.693  1.00  0.00    -0.269 OA
BRANCH  86  88
ATOM     88  C   UNL A   1      32.095  26.573  23.948  1.00  0.00     0.059 A 
ATOM     89  C   UNL A   1      31.873  27.571  24.907  1.00  0.00     0.031 A 
ATOM     90  C   UNL A   1      32.771  26.867  22.758  1.00  0.00     0.053 A 
ATOM     91  C   UNL A   1      32.387  28.846  24.695  1.00  0.00     0.018 A 
ATOM     92  C   UNL A   1      33.305  28.144  22.572  1.00  0.00     0.022 A 
ATOM     93  Cl  UNL A   1      32.996  25.707  21.499  1.00  0.00    -0.083 Cl
ATOM     94  Br  UNL A   1      32.107  30.199  25.984  1.00  0.00    -0.051 Br
ATOM     95  C   UNL A   1      33.121  29.132  23.544  1.00  0.00     0.017 A 
ENDBRANCH  86  88
ENDBRANCH  84  86
ENDBRANCH  78  80
ENDBRANCH  77  78
ENDBRANCH  76  77
ENDBRANCH  75  76
ENDBRANCH  74  75
ENDBRANCH  73  74
ENDBRANCH  72  73
ENDBRANCH  71  72
ENDBRANCH   1  71
TORSDOF 25
ENDMDL
MODEL 2
REMARK VINA RESULT:      -7.4      7.445     12.735
REMARK SMILES O=C(OCCOCCOCCOCCOC(=O)[C@H]1CCCN(C(=O)c2cc(Br)ccc2Cl)C1)c1ccc(-c2c3nc(c(-c4ccc(S(=O)(=O)[O-])cc4)c4ccc([nH]4)c(-c4ccc(S(=O)(=O)[O-])cc4)c4nc(c(-c5ccc(S(=O)(=O)[O-])cc5)c5ccc2[nH]5)C=C4)C=C3)cc1
REMARK SMILES IDX 8 1 7 2 6 3 5 4 4 5 3 6 2 7 1 8 34 9 35 10 93 11 36 12 92 13
REMARK SMILES IDX 37 14 38 15 39 16 86 17 40 18 91 19 85 20 87 21 41 22 90 23
REMARK SMILES IDX 84 24 83 25 42 27 72 28 53 29 71 30 54 31 57 32 70 33 88 34
REMARK SMILES IDX 55 35 56 36 69 38 89 39 58 40 43 41 44 42 52 43 45 44 51 45
REMARK SMILES IDX 46 46 47 47 48 48 49 49 50 50 73 51 74 52 82 53 75 54 81 55
REMARK SMILES IDX 76 56 77 57 78 58 79 59 80 60 59 61 60 62 68 63 61 64 67 65
REMARK SMILES IDX 62 66 63 67 64 68 65 69 66 70 9 71 10 72 11 73 12 74 13 75
REMARK SMILES IDX 14 76 15 77 16 78 17 79 18 80 19 81 33 82 20 83 22 84 21 85
REMARK SMILES IDX 23 86 24 87 25 88 26 89 31 90 27 91 30 92 32 93 28 94 29 95
REMARK H PARENT 87 26 57 37
REMARK Flexibility Score: inf
ROOT
ATOM      1  C   UNL A   1      48.519  27.260  24.089  1.00  0.00     0.188 C 
ENDROOT
BRANCH   1   2
ATOM      2  C   UNL A   1      47.661  26.624  25.169  1.00  0.00     0.188 C 
BRANCH   2   3
ATOM      3  O   UNL A   1      46.628  25.942  24.482  1.00  0.00    -0.376 OA
BRANCH   3   4
ATOM      4  C   UNL A   1      46.069  24.806  25.100  1.00  0.00     0.202 C 
BRANCH   4   5
ATOM      5  C   UNL A   1      44.547  24.793  25.005  1.00  0.00     0.261 C 
BRANCH   5   6
ATOM      6  O   UNL A   1      43.979  26.081  25.296  1.00  0.00    -0.460 OA
BRANCH   6   7
ATOM      7  C   UNL A   1      42.717  26.342  25.721  1.00  0.00     0.338 C 
ATOM      8  O   UNL A   1      41.776  25.992  25.008  1.00  0.00    -0.246 OA
BRANCH   7   9
ATOM      9  C   UNL A   1      42.388  27.021  27.014  1.00  0.00     0.060 A 
ATOM     10  C   UNL A   1      41.609  26.469  28.032  1.00  0.00     0.016 A 
ATOM     11  C   UNL A   1      43.010  28.253  27.268  1.00  0.00     0.016 A 
ATOM     12  C   UNL A   1      41.430  27.104  29.252  1.00  0.00     0.010 A 
ATOM     13  C   UNL A   1      42.843  28.903  28.499  1.00  0.00     0.010 A 
ATOM     14  C   UNL A   1      42.044  28.326  29.492  1.00  0.00    -0.014 A 
BRANCH  14  15
ATOM     15  C   UNL A   1      41.694  29.030  30.737  1.00  0.00     0.031 A 
ATOM     16  C   UNL A   1      40.458  29.876  30.732  1.00  0.00     0.074 A 
ATOM     17  C   UNL A   1      42.389  28.794  31.866  1.00  0.00     0.049 A 
ATOM     18  N   UNL A   1      39.991  30.659  31.662  1.00  0.00    -0.248 NA
ATOM     19  C   UNL A   1      39.627  29.819  29.514  1.00  0.00     0.031 C 
ATOM     20  C   UNL A   1      43.510  27.856  31.992  1.00  0.00     0.029 A 
ATOM     21  N   UNL A   1      42.240  29.301  33.130  1.00  0.00    -0.354 N 
ATOM     22  C   UNL A   1      38.843  31.229  31.125  1.00  0.00     0.074 A 
ATOM     23  C   UNL A   1      38.669  30.689  29.797  1.00  0.00     0.031 C 
ATOM     24  C   UNL A   1      43.940  27.853  33.265  1.00  0.00     0.029 A 
ATOM     25  C   UNL A   1      43.180  28.840  34.022  1.00  0.00     0.049 A 
ATOM     26  H   UNL A   1      41.528  29.936  33.376  1.00  0.00     0.167 HD
ATOM     27  C   UNL A   1      38.026  32.140  31.694  1.00  0.00     0.031 A 
ATOM     28  C   UNL A   1      43.423  29.222  35.291  1.00  0.00     0.031 A 
ATOM     29  C   UNL A   1      38.232  32.648  33.021  1.00  0.00     0.049 A 
ATOM     30  C   UNL A   1      42.558  30.315  35.866  1.00  0.00     0.074 A 
ATOM     31  C   UNL A   1      37.514  33.616  33.697  1.00  0.00     0.029 A 
ATOM     32  N   UNL A   1      39.238  32.217  33.874  1.00  0.00    -0.354 N 
ATOM     33  N   UNL A   1      41.516  30.908  35.328  1.00  0.00    -0.248 NA
ATOM     34  C   UNL A   1      42.911  30.809  37.203  1.00  0.00     0.031 C 
ATOM     35  C   UNL A   1      38.122  33.807  34.943  1.00  0.00     0.029 A 
ATOM     36  C   UNL A   1      39.181  32.918  35.063  1.00  0.00     0.049 A 
ATOM     37  H   UNL A   1      39.896  31.516  33.664  1.00  0.00     0.167 HD
ATOM     38  C   UNL A   1      41.086  31.841  36.261  1.00  0.00     0.074 A 
ATOM     39  C   UNL A   1      41.961  31.710  37.412  1.00  0.00     0.031 C 
ATOM     40  C   UNL A   1      40.073  32.739  36.180  1.00  0.00     0.031 A 
BRANCH  27  41
ATOM     41  C   UNL A   1      36.916  32.702  30.853  1.00  0.00    -0.014 A 
ATOM     42  C   UNL A   1      37.143  33.707  29.898  1.00  0.00     0.010 A 
ATOM     43  C   UNL A   1      35.613  32.198  31.021  1.00  0.00     0.010 A 
ATOM     44  C   UNL A   1      36.082  34.213  29.140  1.00  0.00     0.020 A 
ATOM     45  C   UNL A   1      34.553  32.685  30.251  1.00  0.00     0.020 A 
ATOM     46  C   UNL A   1      34.794  33.697  29.321  1.00  0.00     0.054 A 
BRANCH  46  47
ATOM     47  S   UNL A   1      33.443  34.341  28.296  1.00  0.00     0.124 S 
ATOM     48  O   UNL A   1      32.970  33.131  27.625  1.00  0.00    -0.237 OA
ATOM     49  O   UNL A   1      32.531  34.905  29.287  1.00  0.00    -0.237 OA
ATOM     50  O   UNL A   1      34.097  35.317  27.428  1.00  0.00    -0.744 OA
ENDBRANCH  46  47
ENDBRANCH  27  41
BRANCH  28  51
ATOM     51  C   UNL A   1      44.581  28.667  36.053  1.00  0.00    -0.014 A 
ATOM     52  C   UNL A   1      44.435  27.556  36.902  1.00  0.00     0.010 A 
ATOM     53  C   UNL A   1      45.843  29.288  35.965  1.00  0.00     0.010 A 
ATOM     54  C   UNL A   1      45.515  27.102  37.672  1.00  0.00     0.020 A 
ATOM     55  C   UNL A   1      46.930  28.818  36.705  1.00  0.00     0.020 A 
ATOM     56  C   UNL A   1      46.753  27.740  37.572  1.00  0.00     0.054 A 
BRANCH  56  57
ATOM     57  S   UNL A   1      48.141  27.142  38.578  1.00  0.00     0.124 S 
ATOM     58  O   UNL A   1      48.108  28.057  39.714  1.00  0.00    -0.237 OA
ATOM     59  O   UNL A   1      47.755  25.763  38.863  1.00  0.00    -0.237 OA
ATOM     60  O   UNL A   1      49.293  27.286  37.691  1.00  0.00    -0.744 OA
ENDBRANCH  56  57
ENDBRANCH  28  51
BRANCH  40  61
ATOM     61  C   UNL A   1      39.850  33.621  37.374  1.00  0.00    -0.014 A 
ATOM     62  C   UNL A   1      40.376  34.924  37.415  1.00  0.00     0.010 A 
ATOM     63  C   UNL A   1      39.040  33.163  38.428  1.00  0.00     0.010 A 
ATOM     64  C   UNL A   1      40.112  35.749  38.508  1.00  0.00     0.020 A 
ATOM     65  C   UNL A   1      38.752  33.997  39.509  1.00  0.00     0.020 A 
ATOM     66  C   UNL A   1      39.301  35.281  39.547  1.00  0.00     0.054 A 
BRANCH  66  67
ATOM     67  S   UNL A   1      38.923  36.394  40.925  1.00  0.00     0.124 S 
ATOM     68  O   UNL A   1      37.827  35.693  41.588  1.00  0.00    -0.237 OA
ATOM     69  O   UNL A   1      40.183  36.432  41.663  1.00  0.00    -0.237 OA
ATOM     70  O   UNL A   1      38.556  37.646  40.268  1.00  0.00    -0.744 OA
ENDBRANCH  66  67
ENDBRANCH  40  61
ENDBRANCH  14  15
ENDBRANCH   7   9
ENDBRANCH   6   7
ENDBRANCH   5   6
ENDBRANCH   4   5
ENDBRANCH   3   4
ENDBRANCH   2   3
ENDBRANCH   1   2
BRANCH   1  71
ATOM     71  O   UNL A   1      48.460  26.492  22.885  1.00  0.00    -0.377 OA
BRANCH  71  72
ATOM     72  C   UNL A   1      49.204  26.897  21.743  1.00  0.00     0.188 C 
BRANCH  72  73
ATOM     73  C   UNL A   1      49.108  25.975  20.525  1.00  0.00     0.188 C 
BRANCH  73  74
ATOM     74  O   UNL A   1      50.012  26.384  19.521  1.00  0.00    -0.376 OA
BRANCH  74  75
ATOM     75  C   UNL A   1      51.099  25.514  19.252  1.00  0.00     0.202 C 
BRANCH  75  76
ATOM     76  C   UNL A   1      51.823  25.512  17.881  1.00  0.00     0.261 C 
BRANCH  76  77
ATOM     77  O   UNL A   1      52.656  26.643  17.553  1.00  0.00    -0.463 OA
BRANCH  77  78
ATOM     78  C   UNL A   1      52.018  27.819  17.305  1.00  0.00     0.310 C 
ATOM     79  O   UNL A   1      50.914  27.891  16.773  1.00  0.00    -0.252 OA
BRANCH  78  80
ATOM     80  C   UNL A   1      52.727  29.064  17.839  1.00  0.00     0.119 C 
ATOM     81  C   UNL A   1      52.459  30.411  17.150  1.00  0.00     0.019 C 
ATOM     82  C   UNL A   1      52.382  29.231  19.331  1.00  0.00     0.135 C 
ATOM     83  C   UNL A   1      53.338  31.492  17.775  1.00  0.00     0.022 C 
ATOM     84  N   UNL A   1      53.108  30.362  19.932  1.00  0.00    -0.338 N 
ATOM     85  C   UNL A   1      52.976  31.646  19.237  1.00  0.00     0.120 C 
BRANCH  84  86
ATOM     86  C   UNL A   1      53.860  30.154  21.085  1.00  0.00     0.255 C 
ATOM     87  O   UNL A   1      55.087  30.214  21.138  1.00  0.00    -0.269 OA
BRANCH  86  88
ATOM     88  C   UNL A   1      53.148  29.923  22.354  1.00  0.00     0.059 A 
ATOM     89  C   UNL A   1      53.037  28.594  22.786  1.00  0.00     0.031 A 
ATOM     90  C   UNL A   1      52.634  30.969  23.129  1.00  0.00     0.053 A 
ATOM     91  C   UNL A   1      52.465  28.326  24.026  1.00  0.00     0.018 A 
ATOM     92  C   UNL A   1      52.088  30.687  24.384  1.00  0.00     0.022 A 
ATOM     93  Cl  UNL A   1      52.658  32.616  22.612  1.00  0.00    -0.083 Cl
ATOM     94  Br  UNL A   1      52.319  26.541  24.627  1.00  0.00    -0.051 Br
ATOM     95  C   UNL A   1      52.011  29.367  24.837  1.00  0.00     0.017 A 
ENDBRANCH  86  88
ENDBRANCH  84  86
ENDBRANCH  78  80
ENDBRANCH  77  78
ENDBRANCH  76  77
ENDBRANCH  75  76
ENDBRANCH  74  75
ENDBRANCH  73  74
ENDBRANCH  72  73
ENDBRANCH  71  72
ENDBRANCH   1  71
TORSDOF 25
ENDMDL
MODEL 3
REMARK VINA RESULT:      -7.2      2.449      8.626
REMARK SMILES O=C(OCCOCCOCCOCCOC(=O)[C@H]1CCCN(C(=O)c2cc(Br)ccc2Cl)C1)c1ccc(-c2c3nc(c(-c4ccc(S(=O)(=O)[O-])cc4)c4ccc([nH]4)c(-c4ccc(S(=O)(=O)[O-])cc4)c4nc(c(-c5ccc(S(=O)(=O)[O-])cc5)c5ccc2[nH]5)C=C4)C=C3)cc1
REMARK SMILES IDX 8 1 7 2 6 3 5 4 4 5 3 6 2 7 1 8 34 9 35 10 93 11 36 12 92 13
REMARK SMILES IDX 37 14 38 15 39 16 86 17 40 18 91 19 85 20 87 21 41 22 90 23
REMARK SMILES IDX 84 24 83 25 42 27 72 28 53 29 71 30 54 31 57 32 70 33 88 34
REMARK SMILES IDX 55 35 56 36 69 38 89 39 58 40 43 41 44 42 52 43 45 44 51 45
REMARK SMILES IDX 46 46 47 47 48 48 49 49 50 50 73 51 74 52 82 53 75 54 81 55
REMARK SMILES IDX 76 56 77 57 78 58 79 59 80 60 59 61 60 62 68 63 61 64 67 65
REMARK SMILES IDX 62 66 63 67 64 68 65 69 66 70 9 71 10 72 11 73 12 74 13 75
REMARK SMILES IDX 14 76 15 77 16 78 17 79 18 80 19 81 33 82 20 83 22 84 21 85
REMARK SMILES IDX 23 86 24 87 25 88 26 89 31 90 27 91 30 92 32 93 28 94 29 95
REMARK H PARENT 87 26 57 37
REMARK Flexibility Score: inf
ROOT
ATOM      1  C   UNL A   1      39.444  28.730  29.259  1.00  0.00     0.188 C 
ENDROOT
BRANCH   1   2
ATOM      2  C   UNL A   1      39.314  27.542  28.321  1.00  0.00     0.188 C 
BRANCH   2   3
ATOM      3  O   UNL A   1      40.085  27.873  27.180  1.00  0.00    -0.376 OA
BRANCH   3   4
ATOM      4  C   UNL A   1      40.947  26.886  26.663  1.00  0.00     0.202 C 
BRANCH   4   5
ATOM      5  C   UNL A   1      41.465  25.951  27.750  1.00  0.00     0.261 C 
BRANCH   5   6
ATOM      6  O   UNL A   1      42.899  25.967  27.834  1.00  0.00    -0.460 OA
BRANCH   6   7
ATOM      7  C   UNL A   1      43.729  26.975  27.463  1.00  0.00     0.338 C 
ATOM      8  O   UNL A   1      44.477  26.793  26.502  1.00  0.00    -0.246 OA
BRANCH   7   9
ATOM      9  C   UNL A   1      43.789  28.309  28.142  1.00  0.00     0.060 A 
ATOM     10  C   UNL A   1      43.064  29.436  27.754  1.00  0.00     0.016 A 
ATOM     11  C   UNL A   1      44.536  28.392  29.327  1.00  0.00     0.016 A 
ATOM     12  C   UNL A   1      43.080  30.613  28.489  1.00  0.00     0.010 A 
ATOM     13  C   UNL A   1      44.555  29.572  30.083  1.00  0.00     0.010 A 
ATOM     14  C   UNL A   1      43.827  30.688  29.657  1.00  0.00    -0.014 A 
BRANCH  14  15
ATOM     15  C   UNL A   1      43.936  32.003  30.311  1.00  0.00     0.031 A 
ATOM     16  C   UNL A   1      44.905  32.988  29.731  1.00  0.00     0.074 A 
ATOM     17  C   UNL A   1      43.085  32.341  31.299  1.00  0.00     0.049 A 
ATOM     18  N   UNL A   1      45.248  34.165  30.173  1.00  0.00    -0.248 NA
ATOM     19  C   UNL A   1      45.567  32.598  28.472  1.00  0.00     0.031 C 
ATOM     20  C   UNL A   1      42.003  31.493  31.812  1.00  0.00     0.029 A 
ATOM     21  N   UNL A   1      42.977  33.493  32.030  1.00  0.00    -0.354 N 
ATOM     22  C   UNL A   1      46.203  34.632  29.279  1.00  0.00     0.074 A 
ATOM     23  C   UNL A   1      46.372  33.626  28.256  1.00  0.00     0.031 C 
ATOM     24  C   UNL A   1      41.339  32.162  32.770  1.00  0.00     0.029 A 
ATOM     25  C   UNL A   1      41.993  33.445  32.991  1.00  0.00     0.049 A 
ATOM     26  H   UNL A   1      43.549  34.281  31.883  1.00  0.00     0.167 HD
ATOM     27  C   UNL A   1      46.888  35.794  29.330  1.00  0.00     0.031 A 
ATOM     28  C   UNL A   1      41.700  34.325  33.968  1.00  0.00     0.031 A 
ATOM     29  C   UNL A   1      46.685  36.772  30.362  1.00  0.00     0.049 A 
ATOM     30  C   UNL A   1      42.549  35.567  34.063  1.00  0.00     0.074 A 
ATOM     31  C   UNL A   1      47.352  37.965  30.566  1.00  0.00     0.029 A 
ATOM     32  N   UNL A   1      45.733  36.661  31.366  1.00  0.00    -0.354 N 
ATOM     33  N   UNL A   1      43.505  35.973  33.258  1.00  0.00    -0.248 NA
ATOM     34  C   UNL A   1      42.303  36.456  35.205  1.00  0.00     0.031 C 
ATOM     35  C   UNL A   1      46.836  38.550  31.727  1.00  0.00     0.029 A 
ATOM     36  C   UNL A   1      45.810  37.750  32.212  1.00  0.00     0.049 A 
ATOM     37  H   UNL A   1      45.096  35.916  31.461  1.00  0.00     0.167 HD
ATOM     38  C   UNL A   1      43.971  37.167  33.793  1.00  0.00     0.074 A 
ATOM     39  C   UNL A   1      43.168  37.433  34.973  1.00  0.00     0.031 C 
ATOM     40  C   UNL A   1      44.978  37.968  33.367  1.00  0.00     0.031 A 
BRANCH  27  41
ATOM     41  C   UNL A   1      47.968  36.012  28.309  1.00  0.00    -0.014 A 
ATOM     42  C   UNL A   1      47.750  36.777  27.150  1.00  0.00     0.010 A 
ATOM     43  C   UNL A   1      49.235  35.441  28.526  1.00  0.00     0.010 A 
ATOM     44  C   UNL A   1      48.777  36.950  26.216  1.00  0.00     0.020 A 
ATOM     45  C   UNL A   1      50.270  35.628  27.606  1.00  0.00     0.020 A 
ATOM     46  C   UNL A   1      50.030  36.375  26.451  1.00  0.00     0.054 A 
BRANCH  46  47
ATOM     47  S   UNL A   1      51.357  36.648  25.245  1.00  0.00     0.124 S 
ATOM     48  O   UNL A   1      50.633  36.575  23.977  1.00  0.00    -0.237 OA
ATOM     49  O   UNL A   1      51.852  37.973  25.608  1.00  0.00    -0.237 OA
ATOM     50  O   UNL A   1      52.287  35.549  25.494  1.00  0.00    -0.744 OA
ENDBRANCH  46  47
ENDBRANCH  27  41
BRANCH  28  51
ATOM     51  C   UNL A   1      40.654  34.020  34.989  1.00  0.00    -0.014 A 
ATOM     52  C   UNL A   1      40.961  33.318  36.167  1.00  0.00     0.010 A 
ATOM     53  C   UNL A   1      39.316  34.400  34.758  1.00  0.00     0.010 A 
ATOM     54  C   UNL A   1      39.949  32.970  37.072  1.00  0.00     0.020 A 
ATOM     55  C   UNL A   1      38.310  34.085  35.674  1.00  0.00     0.020 A 
ATOM     56  C   UNL A   1      38.630  33.351  36.817  1.00  0.00     0.054 A 
BRANCH  56  57
ATOM     57  S   UNL A   1      37.330  32.890  37.997  1.00  0.00     0.124 S 
ATOM     58  O   UNL A   1      37.759  33.585  39.206  1.00  0.00    -0.237 OA
ATOM     59  O   UNL A   1      36.124  33.412  37.361  1.00  0.00    -0.237 OA
ATOM     60  O   UNL A   1      37.416  31.433  38.049  1.00  0.00    -0.744 OA
ENDBRANCH  56  57
ENDBRANCH  28  51
BRANCH  40  61
ATOM     61  C   UNL A   1      45.241  39.211  34.167  1.00  0.00    -0.014 A 
ATOM     62  C   UNL A   1      44.597  40.420  33.852  1.00  0.00     0.010 A 
ATOM     63  C   UNL A   1      46.084  39.143  35.290  1.00  0.00     0.010 A 
ATOM     64  C   UNL A   1      44.812  41.551  34.638  1.00  0.00     0.020 A 
ATOM     65  C   UNL A   1      46.278  40.266  36.095  1.00  0.00     0.020 A 
ATOM     66  C   UNL A   1      45.649  41.467  35.756  1.00  0.00     0.054 A 
BRANCH  66  67
ATOM     67  S   UNL A   1      45.862  42.933  36.797  1.00  0.00     0.124 S 
ATOM     68  O   UNL A   1      47.208  42.734  37.328  1.00  0.00    -0.237 OA
ATOM     69  O   UNL A   1      45.717  44.029  35.843  1.00  0.00    -0.237 OA
ATOM     70  O   UNL A   1      44.783  42.822  37.776  1.00  0.00    -0.744 OA
ENDBRANCH  66  67
ENDBRANCH  40  61
ENDBRANCH  14  15
ENDBRANCH   7   9
ENDBRANCH   6   7
ENDBRANCH   5   6
ENDBRANCH   4   5
ENDBRANCH   3   4
ENDBRANCH   2   3
ENDBRANCH   1   2
BRANCH   1  71
ATOM     71  O   UNL A   1      38.524  29.761  28.894  1.00  0.00    -0.377 OA
BRANCH  71  72
ATOM     72  C   UNL A   1      37.270  29.425  28.314  1.00  0.00     0.188 C 
BRANCH  72  73
ATOM     73  C   UNL A   1      36.078  30.269  28.772  1.00  0.00     0.188 C 
BRANCH  73  74
ATOM     74  O   UNL A   1      35.377  30.782  27.659  1.00  0.00    -0.376 OA
BRANCH  74  75
ATOM     75  C   UNL A   1      34.002  31.071  27.853  1.00  0.00     0.202 C 
BRANCH  75  76
ATOM     76  C   UNL A   1      32.893  30.329  27.063  1.00  0.00     0.261 C 
BRANCH  76  77
ATOM     77  O   UNL A   1      32.880  28.886  27.106  1.00  0.00    -0.463 OA
BRANCH  77  78
ATOM     78  C   UNL A   1      33.443  28.240  26.049  1.00  0.00     0.310 C 
ATOM     79  O   UNL A   1      34.555  28.509  25.604  1.00  0.00    -0.252 OA
BRANCH  78  80
ATOM     80  C   UNL A   1      32.633  27.061  25.507  1.00  0.00     0.119 C 
ATOM     81  C   UNL A   1      32.874  25.669  26.111  1.00  0.00     0.019 C 
ATOM     82  C   UNL A   1      31.133  27.378  25.659  1.00  0.00     0.135 C 
ATOM     83  C   UNL A   1      32.041  24.632  25.361  1.00  0.00     0.022 C 
ATOM     84  N   UNL A   1      30.294  26.320  25.070  1.00  0.00    -0.338 N 
ATOM     85  C   UNL A   1      30.571  24.957  25.531  1.00  0.00     0.120 C 
BRANCH  84  86
ATOM     86  C   UNL A   1      29.321  26.663  24.135  1.00  0.00     0.255 C 
ATOM     87  O   UNL A   1      28.270  26.048  23.966  1.00  0.00    -0.269 OA
BRANCH  86  88
ATOM     88  C   UNL A   1      29.513  27.889  23.341  1.00  0.00     0.059 A 
ATOM     89  C   UNL A   1      28.630  28.949  23.588  1.00  0.00     0.031 A 
ATOM     90  C   UNL A   1      30.546  28.025  22.406  1.00  0.00     0.053 A 
ATOM     91  C   UNL A   1      28.827  30.165  22.941  1.00  0.00     0.018 A 
ATOM     92  C   UNL A   1      30.748  29.260  21.785  1.00  0.00     0.022 A 
ATOM     93  Cl  UNL A   1      31.609  26.730  21.990  1.00  0.00    -0.083 Cl
ATOM     94  Br  UNL A   1      27.653  31.607  23.272  1.00  0.00    -0.051 Br
ATOM     95  C   UNL A   1      29.895  30.333  22.058  1.00  0.00     0.017 A 
ENDBRANCH  86  88
ENDBRANCH  84  86
ENDBRANCH  78  80
ENDBRANCH  77  78
ENDBRANCH  76  77
ENDBRANCH  75  76
ENDBRANCH  74  75
ENDBRANCH  73  74
ENDBRANCH  72  73
ENDBRANCH  71  72
ENDBRANCH   1  71
TORSDOF 25
ENDMDL
