MODEL 1
REMARK VINA RESULT:      -8.2      0.000      0.000
REMARK SMILES CC[C@H](C)[C@@H](NC(=O)c1csc(NC(C)=O)n1)C(=O)OCCOCCOCCOCCOC(=O)c1ccc(-c2c3nc(c(-c4ccc(S(=O)(=O)[O-])cc4)c4ccc([nH]4)c(-c4ccc(S(=O)(=O)[O-])cc4)c4nc(c(-c5ccc(S(=O)(=O)[O-])cc5)c5ccc2[nH]5)C=C4)C=C3)cc1
REMARK SMILES IDX 26 1 25 2 24 3 23 4 22 5 21 6 20 7 18 8 19 9 5 10 3 11 4 12
REMARK SMILES IDX 2 13 1 14 6 15 7 16 8 18 9 19 10 20 17 21 11 22 12 23 13 24
REMARK SMILES IDX 14 25 15 27 16 28 27 29 28 30 29 31 30 32 31 33 32 34 33 35
REMARK SMILES IDX 34 36 35 37 36 38 94 39 37 40 93 41 38 42 39 43 40 44 87 45
REMARK SMILES IDX 41 46 92 47 86 48 88 49 42 50 91 51 85 52 84 53 43 55 73 56
REMARK SMILES IDX 54 57 72 58 55 59 58 60 71 61 89 62 56 63 57 64 70 66 90 67
REMARK SMILES IDX 59 68 44 69 45 70 53 71 46 72 52 73 47 74 48 75 49 76 50 77
REMARK SMILES IDX 51 78 74 79 75 80 83 81 76 82 82 83 77 84 78 85 79 86 80 87
REMARK SMILES IDX 81 88 60 89 61 90 69 91 62 92 68 93 63 94 64 95 65 96 66 97
REMARK SMILES IDX 67 98
REMARK H PARENT 6 17 13 26 88 54 58 65
REMARK Flexibility Score: inf
ROOT
ATOM      1  O   UNL A   1      32.051  27.960  25.902  1.00  0.00    -0.377 OA
ENDROOT
BRANCH   1   2
ATOM      2  C   UNL A   1      31.061  27.105  26.446  1.00  0.00     0.188 C 
BRANCH   2   3
ATOM      3  C   UNL A   1      31.265  25.630  26.060  1.00  0.00     0.188 C 
BRANCH   3   4
ATOM      4  O   UNL A   1      30.447  25.074  25.025  1.00  0.00    -0.376 OA
BRANCH   4   5
ATOM      5  C   UNL A   1      30.157  25.891  23.911  1.00  0.00     0.202 C 
BRANCH   5   6
ATOM      6  C   UNL A   1      31.172  25.907  22.753  1.00  0.00     0.261 C 
BRANCH   6   7
ATOM      7  O   UNL A   1      32.536  25.445  22.882  1.00  0.00    -0.462 OA
BRANCH   7   8
ATOM      8  C   UNL A   1      33.122  24.428  22.199  1.00  0.00     0.329 C 
ATOM      9  O   UNL A   1      33.312  24.330  20.994  1.00  0.00    -0.250 OA
BRANCH   8  10
ATOM     10  C   UNL A   1      33.601  23.339  23.169  1.00  0.00     0.195 C 
BRANCH  10  11
ATOM     11  C   UNL A   1      34.996  23.782  23.777  1.00  0.00     0.019 C 
ATOM     12  C   UNL A   1      34.890  24.519  25.119  1.00  0.00     0.010 C 
BRANCH  11  13
ATOM     13  C   UNL A   1      36.057  22.640  23.840  1.00  0.00     0.002 C 
ATOM     14  C   UNL A   1      37.149  22.727  24.898  1.00  0.00     0.004 C 
ENDBRANCH  11  13
ENDBRANCH  10  11
BRANCH  10  15
ATOM     15  N   UNL A   1      32.612  23.078  24.242  1.00  0.00    -0.337 N 
ATOM     16  C   UNL A   1      32.153  21.932  24.857  1.00  0.00     0.271 C 
ATOM     17  H   UNL A   1      32.192  23.898  24.589  1.00  0.00     0.164 HD
ATOM     18  O   UNL A   1      31.570  22.091  25.931  1.00  0.00    -0.267 OA
BRANCH  16  19
ATOM     19  C   UNL A   1      32.218  20.606  24.227  1.00  0.00     0.141 A 
ATOM     20  C   UNL A   1      32.079  20.433  22.858  1.00  0.00     0.102 A 
ATOM     21  N   UNL A   1      32.435  19.414  24.910  1.00  0.00    -0.215 NA
ATOM     22  S   UNL A   1      32.323  18.789  22.433  1.00  0.00    -0.104 S 
ATOM     23  C   UNL A   1      32.666  18.435  24.061  1.00  0.00     0.190 A 
BRANCH  23  24
ATOM     24  N   UNL A   1      33.266  17.267  24.474  1.00  0.00    -0.302 N 
ATOM     25  C   UNL A   1      34.613  17.048  24.667  1.00  0.00     0.223 C 
ATOM     26  H   UNL A   1      32.668  16.506  24.650  1.00  0.00     0.172 HD
ATOM     27  C   UNL A   1      34.912  15.738  25.366  1.00  0.00     0.114 C 
ATOM     28  O   UNL A   1      35.538  17.803  24.383  1.00  0.00    -0.275 OA
ENDBRANCH  23  24
ENDBRANCH  16  19
ENDBRANCH  10  15
ENDBRANCH   8  10
ENDBRANCH   7   8
ENDBRANCH   6   7
ENDBRANCH   5   6
ENDBRANCH   4   5
ENDBRANCH   3   4
ENDBRANCH   2   3
ENDBRANCH   1   2
BRANCH   1  29
ATOM     29  C   UNL A   1      31.629  28.954  24.988  1.00  0.00     0.188 C 
BRANCH  29  30
ATOM     30  C   UNL A   1      31.510  30.391  25.508  1.00  0.00     0.188 C 
BRANCH  30  31
ATOM     31  O   UNL A   1      32.061  30.551  26.818  1.00  0.00    -0.376 OA
BRANCH  31  32
ATOM     32  C   UNL A   1      33.446  30.861  26.906  1.00  0.00     0.202 C 
BRANCH  32  33
ATOM     33  C   UNL A   1      33.855  31.626  28.175  1.00  0.00     0.261 C 
BRANCH  33  34
ATOM     34  O   UNL A   1      34.253  32.995  27.996  1.00  0.00    -0.460 OA
BRANCH  34  35
ATOM     35  C   UNL A   1      34.509  33.743  29.093  1.00  0.00     0.338 C 
ATOM     36  O   UNL A   1      33.704  34.381  29.748  1.00  0.00    -0.246 OA
BRANCH  35  37
ATOM     37  C   UNL A   1      35.898  33.458  29.519  1.00  0.00     0.060 A 
ATOM     38  C   UNL A   1      36.312  33.900  30.783  1.00  0.00     0.016 A 
ATOM     39  C   UNL A   1      36.765  32.714  28.712  1.00  0.00     0.016 A 
ATOM     40  C   UNL A   1      37.609  33.638  31.224  1.00  0.00     0.010 A 
ATOM     41  C   UNL A   1      38.073  32.482  29.139  1.00  0.00     0.010 A 
ATOM     42  C   UNL A   1      38.511  32.980  30.377  1.00  0.00    -0.014 A 
BRANCH  42  43
ATOM     43  C   UNL A   1      39.964  33.090  30.644  1.00  0.00     0.031 A 
ATOM     44  C   UNL A   1      40.571  32.057  31.556  1.00  0.00     0.074 A 
ATOM     45  C   UNL A   1      40.726  34.059  30.106  1.00  0.00     0.049 A 
ATOM     46  N   UNL A   1      41.807  31.924  31.956  1.00  0.00    -0.248 NA
ATOM     47  C   UNL A   1      39.654  31.030  32.083  1.00  0.00     0.031 C 
ATOM     48  C   UNL A   1      40.265  35.093  29.181  1.00  0.00     0.029 A 
ATOM     49  N   UNL A   1      42.062  34.326  30.272  1.00  0.00    -0.354 N 
ATOM     50  C   UNL A   1      41.816  30.800  32.775  1.00  0.00     0.074 A 
ATOM     51  C   UNL A   1      40.461  30.302  32.837  1.00  0.00     0.031 C 
ATOM     52  C   UNL A   1      41.304  35.890  28.869  1.00  0.00     0.029 A 
ATOM     53  C   UNL A   1      42.494  35.437  29.589  1.00  0.00     0.049 A 
ATOM     54  H   UNL A   1      42.656  33.772  30.829  1.00  0.00     0.167 HD
ATOM     55  C   UNL A   1      42.858  30.231  33.422  1.00  0.00     0.031 A 
ATOM     56  C   UNL A   1      43.708  36.026  29.565  1.00  0.00     0.031 A 
ATOM     57  C   UNL A   1      44.194  30.750  33.399  1.00  0.00     0.049 A 
ATOM     58  C   UNL A   1      44.836  35.424  30.366  1.00  0.00     0.074 A 
ATOM     59  C   UNL A   1      45.322  30.251  34.026  1.00  0.00     0.029 A 
ATOM     60  N   UNL A   1      44.579  31.901  32.729  1.00  0.00    -0.354 N 
ATOM     61  N   UNL A   1      44.837  34.339  31.106  1.00  0.00    -0.248 NA
ATOM     62  C   UNL A   1      46.128  36.125  30.326  1.00  0.00     0.031 C 
ATOM     63  C   UNL A   1      46.380  31.131  33.775  1.00  0.00     0.029 A 
ATOM     64  C   UNL A   1      45.923  32.145  32.948  1.00  0.00     0.049 A 
ATOM     65  H   UNL A   1      43.985  32.460  32.179  1.00  0.00     0.167 HD
ATOM     66  C   UNL A   1      46.136  34.212  31.592  1.00  0.00     0.074 A 
ATOM     67  C   UNL A   1      46.893  35.325  31.057  1.00  0.00     0.031 C 
ATOM     68  C   UNL A   1      46.658  33.258  32.403  1.00  0.00     0.031 A 
BRANCH  55  69
ATOM     69  C   UNL A   1      42.566  29.007  34.242  1.00  0.00    -0.014 A 
ATOM     70  C   UNL A   1      42.183  29.112  35.592  1.00  0.00     0.010 A 
ATOM     71  C   UNL A   1      42.678  27.734  33.656  1.00  0.00     0.010 A 
ATOM     72  C   UNL A   1      41.954  27.962  36.352  1.00  0.00     0.020 A 
ATOM     73  C   UNL A   1      42.426  26.582  34.406  1.00  0.00     0.020 A 
ATOM     74  C   UNL A   1      42.082  26.704  35.755  1.00  0.00     0.054 A 
BRANCH  74  75
ATOM     75  S   UNL A   1      41.767  25.227  36.759  1.00  0.00     0.124 S 
ATOM     76  O   UNL A   1      41.589  24.201  35.734  1.00  0.00    -0.237 OA
ATOM     77  O   UNL A   1      42.986  25.114  37.555  1.00  0.00    -0.237 OA
ATOM     78  O   UNL A   1      40.564  25.571  37.512  1.00  0.00    -0.744 OA
ENDBRANCH  74  75
ENDBRANCH  55  69
BRANCH  56  79
ATOM     79  C   UNL A   1      43.926  37.266  28.769  1.00  0.00    -0.014 A 
ATOM     80  C   UNL A   1      43.749  38.534  29.353  1.00  0.00     0.010 A 
ATOM     81  C   UNL A   1      44.288  37.185  27.412  1.00  0.00     0.010 A 
ATOM     82  C   UNL A   1      43.912  39.695  28.591  1.00  0.00     0.020 A 
ATOM     83  C   UNL A   1      44.476  38.345  26.653  1.00  0.00     0.020 A 
ATOM     84  C   UNL A   1      44.274  39.592  27.244  1.00  0.00     0.054 A 
BRANCH  84  85
ATOM     85  S   UNL A   1      44.519  41.112  26.283  1.00  0.00     0.124 S 
ATOM     86  O   UNL A   1      44.291  42.146  27.286  1.00  0.00    -0.237 OA
ATOM     87  O   UNL A   1      45.897  40.973  25.818  1.00  0.00    -0.237 OA
ATOM     88  O   UNL A   1      43.504  41.020  25.236  1.00  0.00    -0.744 OA
ENDBRANCH  84  85
ENDBRANCH  56  79
BRANCH  68  89
ATOM     89  C   UNL A   1      48.122  33.348  32.736  1.00  0.00    -0.014 A 
ATOM     90  C   UNL A   1      49.101  32.835  31.867  1.00  0.00     0.010 A 
ATOM     91  C   UNL A   1      48.524  34.027  33.902  1.00  0.00     0.010 A 
ATOM     92  C   UNL A   1      50.458  32.979  32.172  1.00  0.00     0.020 A 
ATOM     93  C   UNL A   1      49.880  34.193  34.197  1.00  0.00     0.020 A 
ATOM     94  C   UNL A   1      50.838  33.656  33.336  1.00  0.00     0.054 A 
BRANCH  94  95
ATOM     95  S   UNL A   1      52.605  33.876  33.684  1.00  0.00     0.124 S 
ATOM     96  O   UNL A   1      52.695  33.448  35.078  1.00  0.00    -0.237 OA
ATOM     97  O   UNL A   1      53.237  32.987  32.712  1.00  0.00    -0.237 OA
ATOM     98  O   UNL A   1      52.829  35.301  33.453  1.00  0.00    -0.744 OA
ENDBRANCH  94  95
ENDBRANCH  68  89
ENDBRANCH  42  43
ENDBRANCH  35  37
ENDBRANCH  34  35
ENDBRANCH  33  34
ENDBRANCH  32  33
ENDBRANCH  31  32
ENDBRANCH  30  31
ENDBRANCH  29  30
ENDBRANCH   1  29
TORSDOF 28
ENDMDL
MODEL 2
REMARK VINA RESULT:      -7.8      4.539      8.637
REMARK SMILES CC[C@H](C)[C@@H](NC(=O)c1csc(NC(C)=O)n1)C(=O)OCCOCCOCCOCCOC(=O)c1ccc(-c2c3nc(c(-c4ccc(S(=O)(=O)[O-])cc4)c4ccc([nH]4)c(-c4ccc(S(=O)(=O)[O-])cc4)c4nc(c(-c5ccc(S(=O)(=O)[O-])cc5)c5ccc2[nH]5)C=C4)C=C3)cc1
REMARK SMILES IDX 26 1 25 2 24 3 23 4 22 5 21 6 20 7 18 8 19 9 5 10 3 11 4 12
REMARK SMILES IDX 2 13 1 14 6 15 7 16 8 18 9 19 10 20 17 21 11 22 12 23 13 24
REMARK SMILES IDX 14 25 15 27 16 28 27 29 28 30 29 31 30 32 31 33 32 34 33 35
REMARK SMILES IDX 34 36 35 37 36 38 94 39 37 40 93 41 38 42 39 43 40 44 87 45
REMARK SMILES IDX 41 46 92 47 86 48 88 49 42 50 91 51 85 52 84 53 43 55 73 56
REMARK SMILES IDX 54 57 72 58 55 59 58 60 71 61 89 62 56 63 57 64 70 66 90 67
REMARK SMILES IDX 59 68 44 69 45 70 53 71 46 72 52 73 47 74 48 75 49 76 50 77
REMARK SMILES IDX 51 78 74 79 75 80 83 81 76 82 82 83 77 84 78 85 79 86 80 87
REMARK SMILES IDX 81 88 60 89 61 90 69 91 62 92 68 93 63 94 64 95 65 96 66 97
REMARK SMILES IDX 67 98
REMARK H PARENT 6 17 13 26 88 54 58 65
REMARK Flexibility Score: inf
ROOT
ATOM      1  O   UNL A   1      32.720  28.614  26.844  1.00  0.00    -0.377 OA
ENDROOT
BRANCH   1   2
ATOM      2  C   UNL A   1      31.478  27.974  27.079  1.00  0.00     0.188 C 
BRANCH   2   3
ATOM      3  C   UNL A   1      31.457  26.512  26.602  1.00  0.00     0.188 C 
BRANCH   3   4
ATOM      4  O   UNL A   1      30.532  26.140  25.575  1.00  0.00    -0.376 OA
BRANCH   4   5
ATOM      5  C   UNL A   1      30.461  26.963  24.430  1.00  0.00     0.202 C 
BRANCH   5   6
ATOM      6  C   UNL A   1      31.444  26.675  23.281  1.00  0.00     0.261 C 
BRANCH   6   7
ATOM      7  O   UNL A   1      32.786  26.177  23.485  1.00  0.00    -0.462 OA
BRANCH   7   8
ATOM      8  C   UNL A   1      33.404  25.185  22.794  1.00  0.00     0.329 C 
ATOM      9  O   UNL A   1      33.749  25.176  21.619  1.00  0.00    -0.250 OA
BRANCH   8  10
ATOM     10  C   UNL A   1      33.689  23.989  23.713  1.00  0.00     0.195 C 
BRANCH  10  11
ATOM     11  C   UNL A   1      35.011  24.287  24.534  1.00  0.00     0.019 C 
ATOM     12  C   UNL A   1      34.775  24.556  26.026  1.00  0.00     0.010 C 
BRANCH  11  13
ATOM     13  C   UNL A   1      36.145  23.238  24.320  1.00  0.00     0.002 C 
ATOM     14  C   UNL A   1      36.446  22.778  22.899  1.00  0.00     0.004 C 
ENDBRANCH  11  13
ENDBRANCH  10  11
BRANCH  10  15
ATOM     15  N   UNL A   1      32.552  23.704  24.620  1.00  0.00    -0.337 N 
ATOM     16  C   UNL A   1      32.065  22.555  25.207  1.00  0.00     0.271 C 
ATOM     17  H   UNL A   1      32.032  24.507  24.852  1.00  0.00     0.164 HD
ATOM     18  O   UNL A   1      31.302  22.717  26.162  1.00  0.00    -0.267 OA
BRANCH  16  19
ATOM     19  C   UNL A   1      32.313  21.212  24.663  1.00  0.00     0.141 A 
ATOM     20  C   UNL A   1      31.970  20.869  23.364  1.00  0.00     0.102 A 
ATOM     21  N   UNL A   1      32.916  20.173  25.362  1.00  0.00    -0.215 NA
ATOM     22  S   UNL A   1      32.498  19.278  23.004  1.00  0.00    -0.104 S 
ATOM     23  C   UNL A   1      33.203  19.179  24.549  1.00  0.00     0.190 A 
BRANCH  23  24
ATOM     24  N   UNL A   1      34.118  18.214  24.906  1.00  0.00    -0.302 N 
ATOM     25  C   UNL A   1      33.882  16.867  25.073  1.00  0.00     0.223 C 
ATOM     26  H   UNL A   1      35.042  18.520  25.055  1.00  0.00     0.172 HD
ATOM     27  C   UNL A   1      35.150  16.050  25.214  1.00  0.00     0.114 C 
ATOM     28  O   UNL A   1      32.796  16.296  25.069  1.00  0.00    -0.275 OA
ENDBRANCH  23  24
ENDBRANCH  16  19
ENDBRANCH  10  15
ENDBRANCH   8  10
ENDBRANCH   7   8
ENDBRANCH   6   7
ENDBRANCH   5   6
ENDBRANCH   4   5
ENDBRANCH   3   4
ENDBRANCH   2   3
ENDBRANCH   1   2
BRANCH   1  29
ATOM     29  C   UNL A   1      32.709  29.811  26.091  1.00  0.00     0.188 C 
BRANCH  29  30
ATOM     30  C   UNL A   1      32.802  31.134  26.860  1.00  0.00     0.188 C 
BRANCH  30  31
ATOM     31  O   UNL A   1      33.582  31.024  28.053  1.00  0.00    -0.376 OA
BRANCH  31  32
ATOM     32  C   UNL A   1      34.717  31.874  28.168  1.00  0.00     0.202 C 
BRANCH  32  33
ATOM     33  C   UNL A   1      35.455  31.784  29.513  1.00  0.00     0.261 C 
BRANCH  33  34
ATOM     34  O   UNL A   1      35.491  32.983  30.304  1.00  0.00    -0.460 OA
BRANCH  34  35
ATOM     35  C   UNL A   1      36.527  33.168  31.153  1.00  0.00     0.338 C 
ATOM     36  O   UNL A   1      36.509  33.773  32.210  1.00  0.00    -0.246 OA
BRANCH  35  37
ATOM     37  C   UNL A   1      37.637  32.294  30.706  1.00  0.00     0.060 A 
ATOM     38  C   UNL A   1      38.254  31.463  31.652  1.00  0.00     0.016 A 
ATOM     39  C   UNL A   1      38.027  32.248  29.364  1.00  0.00     0.016 A 
ATOM     40  C   UNL A   1      39.293  30.617  31.266  1.00  0.00     0.010 A 
ATOM     41  C   UNL A   1      39.090  31.427  28.984  1.00  0.00     0.010 A 
ATOM     42  C   UNL A   1      39.753  30.642  29.942  1.00  0.00    -0.014 A 
BRANCH  42  43
ATOM     43  C   UNL A   1      41.098  30.100  29.635  1.00  0.00     0.031 A 
ATOM     44  C   UNL A   1      42.257  31.056  29.730  1.00  0.00     0.074 A 
ATOM     45  C   UNL A   1      41.296  28.816  29.289  1.00  0.00     0.049 A 
ATOM     46  N   UNL A   1      43.528  30.846  29.512  1.00  0.00    -0.248 NA
ATOM     47  C   UNL A   1      41.935  32.438  30.130  1.00  0.00     0.031 C 
ATOM     48  C   UNL A   1      40.263  27.786  29.199  1.00  0.00     0.029 A 
ATOM     49  N   UNL A   1      42.453  28.164  28.943  1.00  0.00    -0.354 N 
ATOM     50  C   UNL A   1      44.154  32.063  29.752  1.00  0.00     0.074 A 
ATOM     51  C   UNL A   1      43.125  33.014  30.108  1.00  0.00     0.031 C 
ATOM     52  C   UNL A   1      40.835  26.630  28.812  1.00  0.00     0.029 A 
ATOM     53  C   UNL A   1      42.266  26.845  28.604  1.00  0.00     0.049 A 
ATOM     54  H   UNL A   1      43.336  28.600  28.939  1.00  0.00     0.167 HD
ATOM     55  C   UNL A   1      45.469  32.369  29.683  1.00  0.00     0.031 A 
ATOM     56  C   UNL A   1      43.151  25.928  28.162  1.00  0.00     0.031 A 
ATOM     57  C   UNL A   1      46.487  31.439  29.287  1.00  0.00     0.049 A 
ATOM     58  C   UNL A   1      44.601  26.315  28.007  1.00  0.00     0.074 A 
ATOM     59  C   UNL A   1      47.849  31.649  29.179  1.00  0.00     0.029 A 
ATOM     60  N   UNL A   1      46.249  30.126  28.912  1.00  0.00    -0.354 N 
ATOM     61  N   UNL A   1      45.184  27.460  28.275  1.00  0.00    -0.248 NA
ATOM     62  C   UNL A   1      45.514  25.282  27.493  1.00  0.00     0.031 C 
ATOM     63  C   UNL A   1      48.430  30.475  28.688  1.00  0.00     0.029 A 
ATOM     64  C   UNL A   1      47.436  29.519  28.545  1.00  0.00     0.049 A 
ATOM     65  H   UNL A   1      45.366  29.691  28.908  1.00  0.00     0.167 HD
ATOM     66  C   UNL A   1      46.535  27.275  27.992  1.00  0.00     0.074 A 
ATOM     67  C   UNL A   1      46.683  25.907  27.539  1.00  0.00     0.031 C 
ATOM     68  C   UNL A   1      47.562  28.154  28.101  1.00  0.00     0.031 A 
BRANCH  55  69
ATOM     69  C   UNL A   1      45.861  33.783  30.004  1.00  0.00    -0.014 A 
ATOM     70  C   UNL A   1      45.884  34.774  29.005  1.00  0.00     0.010 A 
ATOM     71  C   UNL A   1      46.211  34.126  31.322  1.00  0.00     0.010 A 
ATOM     72  C   UNL A   1      46.288  36.076  29.313  1.00  0.00     0.020 A 
ATOM     73  C   UNL A   1      46.593  35.432  31.638  1.00  0.00     0.020 A 
ATOM     74  C   UNL A   1      46.645  36.395  30.626  1.00  0.00     0.054 A 
BRANCH  74  75
ATOM     75  S   UNL A   1      47.154  38.094  31.002  1.00  0.00     0.124 S 
ATOM     76  O   UNL A   1      46.300  38.417  32.143  1.00  0.00    -0.237 OA
ATOM     77  O   UNL A   1      48.575  37.945  31.305  1.00  0.00    -0.237 OA
ATOM     78  O   UNL A   1      46.856  38.825  29.774  1.00  0.00    -0.744 OA
ENDBRANCH  74  75
ENDBRANCH  55  69
BRANCH  56  79
ATOM     79  C   UNL A   1      42.696  24.552  27.815  1.00  0.00    -0.014 A 
ATOM     80  C   UNL A   1      42.531  23.576  28.814  1.00  0.00     0.010 A 
ATOM     81  C   UNL A   1      42.448  24.204  26.474  1.00  0.00     0.010 A 
ATOM     82  C   UNL A   1      42.146  22.274  28.479  1.00  0.00     0.020 A 
ATOM     83  C   UNL A   1      42.039  22.909  26.138  1.00  0.00     0.020 A 
ATOM     84  C   UNL A   1      41.903  21.950  27.141  1.00  0.00     0.054 A 
BRANCH  84  85
ATOM     85  S   UNL A   1      41.366  20.265  26.731  1.00  0.00     0.124 S 
ATOM     86  O   UNL A   1      41.857  19.503  27.874  1.00  0.00    -0.237 OA
ATOM     87  O   UNL A   1      39.915  20.409  26.641  1.00  0.00    -0.237 OA
ATOM     88  O   UNL A   1      42.037  19.994  25.462  1.00  0.00    -0.744 OA
ENDBRANCH  84  85
ENDBRANCH  56  79
BRANCH  68  89
ATOM     89  C   UNL A   1      48.942  27.663  27.762  1.00  0.00    -0.014 A 
ATOM     90  C   UNL A   1      49.591  26.703  28.560  1.00  0.00     0.010 A 
ATOM     91  C   UNL A   1      49.566  28.113  26.583  1.00  0.00     0.010 A 
ATOM     92  C   UNL A   1      50.852  26.222  28.195  1.00  0.00     0.020 A 
ATOM     93  C   UNL A   1      50.815  27.615  26.204  1.00  0.00     0.020 A 
ATOM     94  C   UNL A   1      51.456  26.681  27.020  1.00  0.00     0.054 A 
BRANCH  94  95
ATOM     95  S   UNL A   1      53.068  26.002  26.540  1.00  0.00     0.124 S 
ATOM     96  O   UNL A   1      52.724  24.630  26.179  1.00  0.00    -0.237 OA
ATOM     97  O   UNL A   1      53.462  26.865  25.429  1.00  0.00    -0.237 OA
ATOM     98  O   UNL A   1      53.878  26.145  27.748  1.00  0.00    -0.744 OA
ENDBRANCH  94  95
ENDBRANCH  68  89
ENDBRANCH  42  43
ENDBRANCH  35  37
ENDBRANCH  34  35
ENDBRANCH  33  34
ENDBRANCH  32  33
ENDBRANCH  31  32
ENDBRANCH  30  31
ENDBRANCH  29  30
ENDBRANCH   1  29
TORSDOF 28
ENDMDL
MODEL 3
REMARK VINA RESULT:      -7.7      4.626      7.706
REMARK SMILES CC[C@H](C)[C@@H](NC(=O)c1csc(NC(C)=O)n1)C(=O)OCCOCCOCCOCCOC(=O)c1ccc(-c2c3nc(c(-c4ccc(S(=O)(=O)[O-])cc4)c4ccc([nH]4)c(-c4ccc(S(=O)(=O)[O-])cc4)c4nc(c(-c5ccc(S(=O)(=O)[O-])cc5)c5ccc2[nH]5)C=C4)C=C3)cc1
REMARK SMILES IDX 26 1 25 2 24 3 23 4 22 5 21 6 20 7 18 8 19 9 5 10 3 11 4 12
REMARK SMILES IDX 2 13 1 14 6 15 7 16 8 18 9 19 10 20 17 21 11 22 12 23 13 24
REMARK SMILES IDX 14 25 15 27 16 28 27 29 28 30 29 31 30 32 31 33 32 34 33 35
REMARK SMILES IDX 34 36 35 37 36 38 94 39 37 40 93 41 38 42 39 43 40 44 87 45
REMARK SMILES IDX 41 46 92 47 86 48 88 49 42 50 91 51 85 52 84 53 43 55 73 56
REMARK SMILES IDX 54 57 72 58 55 59 58 60 71 61 89 62 56 63 57 64 70 66 90 67
REMARK SMILES IDX 59 68 44 69 45 70 53 71 46 72 52 73 47 74 48 75 49 76 50 77
REMARK SMILES IDX 51 78 74 79 75 80 83 81 76 82 82 83 77 84 78 85 79 86 80 87
REMARK SMILES IDX 81 88 60 89 61 90 69 91 62 92 68 93 63 94 64 95 65 96 66 97
REMARK SMILES IDX 67 98
REMARK H PARENT 6 17 13 26 88 54 58 65
REMARK Flexibility Score: inf
ROOT
ATOM      1  O   UNL A   1      32.701  27.813  26.351  1.00  0.00    -0.377 OA
ENDROOT
BRANCH   1   2
ATOM      2  C   UNL A   1      31.532  27.176  26.834  1.00  0.00     0.188 C 
BRANCH   2   3
ATOM      3  C   UNL A   1      31.473  25.680  26.479  1.00  0.00     0.188 C 
BRANCH   3   4
ATOM      4  O   UNL A   1      30.486  25.239  25.540  1.00  0.00    -0.376 OA
BRANCH   4   5
ATOM      5  C   UNL A   1      30.269  26.036  24.395  1.00  0.00     0.202 C 
BRANCH   5   6
ATOM      6  C   UNL A   1      31.364  26.046  23.314  1.00  0.00     0.261 C 
BRANCH   6   7
ATOM      7  O   UNL A   1      32.667  25.444  23.492  1.00  0.00    -0.462 OA
BRANCH   7   8
ATOM      8  C   UNL A   1      33.204  24.430  22.767  1.00  0.00     0.329 C 
ATOM      9  O   UNL A   1      33.487  24.411  21.575  1.00  0.00    -0.250 OA
BRANCH   8  10
ATOM     10  C   UNL A   1      33.488  23.219  23.668  1.00  0.00     0.195 C 
BRANCH  10  11
ATOM     11  C   UNL A   1      34.721  23.562  24.601  1.00  0.00     0.019 C 
ATOM     12  C   UNL A   1      34.368  23.681  26.089  1.00  0.00     0.010 C 
BRANCH  11  13
ATOM     13  C   UNL A   1      35.961  22.639  24.386  1.00  0.00     0.002 C 
ATOM     14  C   UNL A   1      36.738  22.767  23.082  1.00  0.00     0.004 C 
ENDBRANCH  11  13
ENDBRANCH  10  11
BRANCH  10  15
ATOM     15  N   UNL A   1      32.302  22.837  24.471  1.00  0.00    -0.337 N 
ATOM     16  C   UNL A   1      31.881  21.657  25.048  1.00  0.00     0.271 C 
ATOM     17  H   UNL A   1      31.682  23.586  24.625  1.00  0.00     0.164 HD
ATOM     18  O   UNL A   1      31.015  21.760  25.919  1.00  0.00    -0.267 OA
BRANCH  16  19
ATOM     19  C   UNL A   1      32.317  20.336  24.575  1.00  0.00     0.141 A 
ATOM     20  C   UNL A   1      32.131  19.924  23.264  1.00  0.00     0.102 A 
ATOM     21  N   UNL A   1      32.961  19.387  25.361  1.00  0.00    -0.215 NA
ATOM     22  S   UNL A   1      32.855  18.391  23.008  1.00  0.00    -0.104 S 
ATOM     23  C   UNL A   1      33.425  18.410  24.612  1.00  0.00     0.190 A 
BRANCH  23  24
ATOM     24  N   UNL A   1      34.400  17.559  25.080  1.00  0.00    -0.302 N 
ATOM     25  C   UNL A   1      34.394  16.181  25.035  1.00  0.00     0.223 C 
ATOM     26  H   UNL A   1      35.189  17.981  25.492  1.00  0.00     0.172 HD
ATOM     27  C   UNL A   1      35.728  15.565  25.402  1.00  0.00     0.114 C 
ATOM     28  O   UNL A   1      33.468  15.452  24.693  1.00  0.00    -0.275 OA
ENDBRANCH  23  24
ENDBRANCH  16  19
ENDBRANCH  10  15
ENDBRANCH   8  10
ENDBRANCH   7   8
ENDBRANCH   6   7
ENDBRANCH   5   6
ENDBRANCH   4   5
ENDBRANCH   3   4
ENDBRANCH   2   3
ENDBRANCH   1   2
BRANCH   1  29
ATOM     29  C   UNL A   1      32.536  28.928  25.497  1.00  0.00     0.188 C 
BRANCH  29  30
ATOM     30  C   UNL A   1      33.194  30.247  25.917  1.00  0.00     0.188 C 
BRANCH  30  31
ATOM     31  O   UNL A   1      34.134  30.080  26.981  1.00  0.00    -0.376 OA
BRANCH  31  32
ATOM     32  C   UNL A   1      34.406  31.217  27.792  1.00  0.00     0.202 C 
BRANCH  32  33
ATOM     33  C   UNL A   1      35.536  31.021  28.816  1.00  0.00     0.261 C 
BRANCH  33  34
ATOM     34  O   UNL A   1      35.216  31.318  30.185  1.00  0.00    -0.460 OA
BRANCH  34  35
ATOM     35  C   UNL A   1      35.044  32.609  30.545  1.00  0.00     0.338 C 
ATOM     36  O   UNL A   1      34.081  33.315  30.301  1.00  0.00    -0.246 OA
BRANCH  35  37
ATOM     37  C   UNL A   1      36.115  32.956  31.507  1.00  0.00     0.060 A 
ATOM     38  C   UNL A   1      36.250  34.295  31.901  1.00  0.00     0.016 A 
ATOM     39  C   UNL A   1      36.938  31.970  32.060  1.00  0.00     0.016 A 
ATOM     40  C   UNL A   1      37.238  34.657  32.816  1.00  0.00     0.010 A 
ATOM     41  C   UNL A   1      37.949  32.338  32.950  1.00  0.00     0.010 A 
ATOM     42  C   UNL A   1      38.129  33.687  33.296  1.00  0.00    -0.014 A 
BRANCH  42  43
ATOM     43  C   UNL A   1      39.413  34.120  33.895  1.00  0.00     0.031 A 
ATOM     44  C   UNL A   1      40.583  34.280  32.961  1.00  0.00     0.074 A 
ATOM     45  C   UNL A   1      39.549  34.367  35.210  1.00  0.00     0.049 A 
ATOM     46  N   UNL A   1      41.811  34.641  33.220  1.00  0.00    -0.248 NA
ATOM     47  C   UNL A   1      40.327  33.997  31.537  1.00  0.00     0.031 C 
ATOM     48  C   UNL A   1      38.485  34.285  36.209  1.00  0.00     0.029 A 
ATOM     49  N   UNL A   1      40.658  34.738  35.929  1.00  0.00    -0.354 N 
ATOM     50  C   UNL A   1      42.470  34.633  31.996  1.00  0.00     0.074 A 
ATOM     51  C   UNL A   1      41.516  34.208  30.997  1.00  0.00     0.031 C 
ATOM     52  C   UNL A   1      38.998  34.588  37.416  1.00  0.00     0.029 A 
ATOM     53  C   UNL A   1      40.429  34.861  37.278  1.00  0.00     0.049 A 
ATOM     54  H   UNL A   1      41.537  34.901  35.515  1.00  0.00     0.167 HD
ATOM     55  C   UNL A   1      43.756  34.948  31.723  1.00  0.00     0.031 A 
ATOM     56  C   UNL A   1      41.282  35.146  38.282  1.00  0.00     0.031 A 
ATOM     57  C   UNL A   1      44.716  35.326  32.719  1.00  0.00     0.049 A 
ATOM     58  C   UNL A   1      42.734  35.408  37.965  1.00  0.00     0.074 A 
ATOM     59  C   UNL A   1      46.047  35.661  32.548  1.00  0.00     0.029 A 
ATOM     60  N   UNL A   1      44.452  35.398  34.078  1.00  0.00    -0.354 N 
ATOM     61  N   UNL A   1      43.334  35.434  36.797  1.00  0.00    -0.248 NA
ATOM     62  C   UNL A   1      43.625  35.684  39.103  1.00  0.00     0.031 C 
ATOM     63  C   UNL A   1      46.602  35.886  33.812  1.00  0.00     0.029 A 
ATOM     64  C   UNL A   1      45.603  35.745  34.762  1.00  0.00     0.049 A 
ATOM     65  H   UNL A   1      43.577  35.227  34.494  1.00  0.00     0.167 HD
ATOM     66  C   UNL A   1      44.662  35.759  37.058  1.00  0.00     0.074 A 
ATOM     67  C   UNL A   1      44.777  35.927  38.492  1.00  0.00     0.031 C 
ATOM     68  C   UNL A   1      45.694  35.911  36.191  1.00  0.00     0.031 A 
BRANCH  55  69
ATOM     69  C   UNL A   1      44.194  34.850  30.290  1.00  0.00    -0.014 A 
ATOM     70  C   UNL A   1      44.854  33.704  29.809  1.00  0.00     0.010 A 
ATOM     71  C   UNL A   1      43.943  35.919  29.411  1.00  0.00     0.010 A 
ATOM     72  C   UNL A   1      45.290  33.645  28.483  1.00  0.00     0.020 A 
ATOM     73  C   UNL A   1      44.357  35.854  28.078  1.00  0.00     0.020 A 
ATOM     74  C   UNL A   1      45.043  34.723  27.628  1.00  0.00     0.054 A 
BRANCH  74  75
ATOM     75  S   UNL A   1      45.608  34.617  25.908  1.00  0.00     0.124 S 
ATOM     76  O   UNL A   1      46.380  33.376  25.922  1.00  0.00    -0.237 OA
ATOM     77  O   UNL A   1      44.354  34.567  25.160  1.00  0.00    -0.237 OA
ATOM     78  O   UNL A   1      46.391  35.835  25.724  1.00  0.00    -0.744 OA
ENDBRANCH  74  75
ENDBRANCH  55  69
BRANCH  56  79
ATOM     79  C   UNL A   1      40.800  35.184  39.691  1.00  0.00    -0.014 A 
ATOM     80  C   UNL A   1      40.777  34.015  40.474  1.00  0.00     0.010 A 
ATOM     81  C   UNL A   1      40.335  36.388  40.251  1.00  0.00     0.010 A 
ATOM     82  C   UNL A   1      40.282  34.046  41.781  1.00  0.00     0.020 A 
ATOM     83  C   UNL A   1      39.862  36.427  41.566  1.00  0.00     0.020 A 
ATOM     84  C   UNL A   1      39.827  35.253  42.319  1.00  0.00     0.054 A 
BRANCH  84  85
ATOM     85  S   UNL A   1      39.225  35.280  44.031  1.00  0.00     0.124 S 
ATOM     86  O   UNL A   1      39.315  33.873  44.406  1.00  0.00    -0.237 OA
ATOM     87  O   UNL A   1      40.178  36.173  44.687  1.00  0.00    -0.237 OA
ATOM     88  O   UNL A   1      37.870  35.811  43.907  1.00  0.00    -0.744 OA
ENDBRANCH  84  85
ENDBRANCH  56  79
BRANCH  68  89
ATOM     89  C   UNL A   1      47.029  36.312  36.755  1.00  0.00    -0.014 A 
ATOM     90  C   UNL A   1      48.015  35.354  37.049  1.00  0.00     0.010 A 
ATOM     91  C   UNL A   1      47.327  37.678  36.921  1.00  0.00     0.010 A 
ATOM     92  C   UNL A   1      49.268  35.755  37.522  1.00  0.00     0.020 A 
ATOM     93  C   UNL A   1      48.586  38.082  37.371  1.00  0.00     0.020 A 
ATOM     94  C   UNL A   1      49.545  37.117  37.680  1.00  0.00     0.054 A 
BRANCH  94  95
ATOM     95  S   UNL A   1      51.195  37.616  38.246  1.00  0.00     0.124 S 
ATOM     96  O   UNL A   1      51.008  37.697  39.692  1.00  0.00    -0.237 OA
ATOM     97  O   UNL A   1      52.039  36.517  37.783  1.00  0.00    -0.237 OA
ATOM     98  O   UNL A   1      51.420  38.893  37.573  1.00  0.00    -0.744 OA
ENDBRANCH  94  95
ENDBRANCH  68  89
ENDBRANCH  42  43
ENDBRANCH  35  37
ENDBRANCH  34  35
ENDBRANCH  33  34
ENDBRANCH  32  33
ENDBRANCH  31  32
ENDBRANCH  30  31
ENDBRANCH  29  30
ENDBRANCH   1  29
TORSDOF 28
ENDMDL
