MODEL 1
REMARK VINA RESULT:     -10.6      0.000      0.000
REMARK SMILES O=C(OCCOCCOCCOCCOC(=O)[C@@H]1CC2(CC[NH2+]CC2)C[N@H+]1Cc1cccc2nonc12)c1ccc(-c2c3nc(c(-c4ccc(S(=O)(=O)[O-])cc4)c4ccc([nH]4)c(-c4ccc(S(=O)(=O)[O-])cc4)c4nc(c(-c5ccc(S(=O)(=O)[O-])cc5)c5ccc2[nH]5)C=C4)C=C3)cc1
REMARK SMILES IDX 8 1 7 2 6 3 5 4 4 5 3 6 2 7 1 8 38 9 39 10 97 11 40 12 96 13
REMARK SMILES IDX 41 14 42 15 43 16 90 17 44 18 95 19 89 20 91 21 45 22 94 23
REMARK SMILES IDX 88 24 87 25 46 27 76 28 57 29 75 30 58 31 61 32 74 33 92 34
REMARK SMILES IDX 59 35 60 36 73 38 93 39 62 40 47 41 48 42 56 43 49 44 55 45
REMARK SMILES IDX 50 46 51 47 52 48 53 49 54 50 77 51 78 52 86 53 79 54 85 55
REMARK SMILES IDX 80 56 81 57 82 58 83 59 84 60 63 61 64 62 72 63 65 64 71 65
REMARK SMILES IDX 66 66 67 67 68 68 69 69 70 70 9 71 10 72 11 73 12 74 13 75
REMARK SMILES IDX 14 76 15 77 16 78 17 79 18 80 19 81 27 82 20 83 26 84 21 86
REMARK SMILES IDX 25 87 22 88 24 89 23 90 28 93 29 94 30 95 37 96 31 97 33 98
REMARK SMILES IDX 36 99 32 100 34 101 35 102
REMARK H PARENT 91 26 61 37 27 85 23 91 23 92
REMARK Flexibility Score: inf
ROOT
ATOM      1  C   UNL A   1      35.404  31.570  27.985  1.00  0.00     0.188 C 
ENDROOT
BRANCH   1   2
ATOM      2  C   UNL A   1      35.784  33.042  27.774  1.00  0.00     0.188 C 
BRANCH   2   3
ATOM      3  O   UNL A   1      35.729  33.755  29.003  1.00  0.00    -0.376 OA
BRANCH   3   4
ATOM      4  C   UNL A   1      34.632  34.650  29.157  1.00  0.00     0.202 C 
BRANCH   4   5
ATOM      5  C   UNL A   1      34.005  34.575  30.548  1.00  0.00     0.261 C 
BRANCH   5   6
ATOM      6  O   UNL A   1      34.059  33.209  30.980  1.00  0.00    -0.460 OA
BRANCH   6   7
ATOM      7  C   UNL A   1      34.291  33.067  32.307  1.00  0.00     0.338 C 
ATOM      8  O   UNL A   1      33.576  33.501  33.206  1.00  0.00    -0.246 OA
BRANCH   7   9
ATOM      9  C   UNL A   1      35.608  32.432  32.535  1.00  0.00     0.060 A 
ATOM     10  C   UNL A   1      36.128  31.585  31.553  1.00  0.00     0.016 A 
ATOM     11  C   UNL A   1      36.280  32.575  33.755  1.00  0.00     0.016 A 
ATOM     12  C   UNL A   1      37.344  30.934  31.771  1.00  0.00     0.010 A 
ATOM     13  C   UNL A   1      37.472  31.899  33.983  1.00  0.00     0.010 A 
ATOM     14  C   UNL A   1      38.036  31.105  32.980  1.00  0.00    -0.014 A 
BRANCH  14  15
ATOM     15  C   UNL A   1      39.411  30.581  33.101  1.00  0.00     0.031 A 
ATOM     16  C   UNL A   1      39.749  29.403  32.235  1.00  0.00     0.074 A 
ATOM     17  C   UNL A   1      40.443  31.405  33.364  1.00  0.00     0.049 A 
ATOM     18  N   UNL A   1      40.311  29.467  31.061  1.00  0.00    -0.248 NA
ATOM     19  C   UNL A   1      39.208  28.084  32.570  1.00  0.00     0.031 C 
ATOM     20  C   UNL A   1      40.784  32.556  32.522  1.00  0.00     0.029 A 
ATOM     21  N   UNL A   1      41.594  31.126  34.061  1.00  0.00    -0.354 N 
ATOM     22  C   UNL A   1      40.171  28.212  30.484  1.00  0.00     0.074 A 
ATOM     23  C   UNL A   1      39.474  27.395  31.454  1.00  0.00     0.031 C 
ATOM     24  C   UNL A   1      42.110  32.782  32.631  1.00  0.00     0.029 A 
ATOM     25  C   UNL A   1      42.674  31.873  33.624  1.00  0.00     0.049 A 
ATOM     26  H   UNL A   1      41.644  30.468  34.791  1.00  0.00     0.167 HD
ATOM     27  C   UNL A   1      40.615  27.872  29.244  1.00  0.00     0.031 A 
ATOM     28  C   UNL A   1      43.977  31.540  33.822  1.00  0.00     0.031 A 
ATOM     29  C   UNL A   1      41.420  28.794  28.474  1.00  0.00     0.049 A 
ATOM     30  C   UNL A   1      44.368  30.983  32.483  1.00  0.00     0.074 A 
ATOM     31  C   UNL A   1      41.957  28.787  27.195  1.00  0.00     0.029 A 
ATOM     32  N   UNL A   1      41.907  29.938  29.055  1.00  0.00    -0.354 N 
ATOM     33  N   UNL A   1      44.687  31.661  31.408  1.00  0.00    -0.248 NA
ATOM     34  C   UNL A   1      44.089  29.554  32.247  1.00  0.00     0.031 C 
ATOM     35  C   UNL A   1      42.985  29.775  27.148  1.00  0.00     0.029 A 
ATOM     36  C   UNL A   1      43.062  30.324  28.410  1.00  0.00     0.049 A 
ATOM     37  H   UNL A   1      41.495  30.411  29.815  1.00  0.00     0.167 HD
ATOM     38  C   UNL A   1      44.347  30.816  30.361  1.00  0.00     0.074 A 
ATOM     39  C   UNL A   1      44.133  29.498  30.923  1.00  0.00     0.031 C 
ATOM     40  C   UNL A   1      43.945  31.206  29.120  1.00  0.00     0.031 A 
BRANCH  27  41
ATOM     41  C   UNL A   1      40.452  26.481  28.728  1.00  0.00    -0.014 A 
ATOM     42  C   UNL A   1      39.319  26.072  28.007  1.00  0.00     0.010 A 
ATOM     43  C   UNL A   1      41.541  25.598  28.851  1.00  0.00     0.010 A 
ATOM     44  C   UNL A   1      39.289  24.808  27.406  1.00  0.00     0.020 A 
ATOM     45  C   UNL A   1      41.518  24.340  28.249  1.00  0.00     0.020 A 
ATOM     46  C   UNL A   1      40.391  23.953  27.526  1.00  0.00     0.054 A 
BRANCH  46  47
ATOM     47  S   UNL A   1      40.355  22.351  26.674  1.00  0.00     0.124 S 
ATOM     48  O   UNL A   1      41.530  22.441  25.809  1.00  0.00    -0.237 OA
ATOM     49  O   UNL A   1      40.462  21.403  27.779  1.00  0.00    -0.237 OA
ATOM     50  O   UNL A   1      39.070  22.352  25.980  1.00  0.00    -0.744 OA
ENDBRANCH  46  47
ENDBRANCH  27  41
BRANCH  28  51
ATOM     51  C   UNL A   1      44.269  30.921  35.154  1.00  0.00    -0.014 A 
ATOM     52  C   UNL A   1      43.455  30.990  36.292  1.00  0.00     0.010 A 
ATOM     53  C   UNL A   1      45.538  30.306  35.295  1.00  0.00     0.010 A 
ATOM     54  C   UNL A   1      43.960  30.647  37.554  1.00  0.00     0.020 A 
ATOM     55  C   UNL A   1      46.042  29.940  36.546  1.00  0.00     0.020 A 
ATOM     56  C   UNL A   1      45.268  30.172  37.677  1.00  0.00     0.054 A 
BRANCH  56  57
ATOM     57  S   UNL A   1      45.965  29.929  39.332  1.00  0.00     0.124 S 
ATOM     58  O   UNL A   1      46.319  31.295  39.706  1.00  0.00    -0.237 OA
ATOM     59  O   UNL A   1      44.847  29.341  40.064  1.00  0.00    -0.237 OA
ATOM     60  O   UNL A   1      47.098  29.034  39.102  1.00  0.00    -0.744 OA
ENDBRANCH  56  57
ENDBRANCH  28  51
BRANCH  40  61
ATOM     61  C   UNL A   1      44.297  32.537  28.569  1.00  0.00    -0.014 A 
ATOM     62  C   UNL A   1      45.599  32.797  28.108  1.00  0.00     0.010 A 
ATOM     63  C   UNL A   1      43.384  33.598  28.677  1.00  0.00     0.010 A 
ATOM     64  C   UNL A   1      45.993  34.101  27.795  1.00  0.00     0.020 A 
ATOM     65  C   UNL A   1      43.772  34.904  28.369  1.00  0.00     0.020 A 
ATOM     66  C   UNL A   1      45.080  35.150  27.946  1.00  0.00     0.054 A 
BRANCH  66  67
ATOM     67  S   UNL A   1      45.647  36.844  27.646  1.00  0.00     0.124 S 
ATOM     68  O   UNL A   1      45.543  37.455  28.969  1.00  0.00    -0.237 OA
ATOM     69  O   UNL A   1      47.008  36.640  27.155  1.00  0.00    -0.237 OA
ATOM     70  O   UNL A   1      44.703  37.361  26.655  1.00  0.00    -0.744 OA
ENDBRANCH  66  67
ENDBRANCH  40  61
ENDBRANCH  14  15
ENDBRANCH   7   9
ENDBRANCH   6   7
ENDBRANCH   5   6
ENDBRANCH   4   5
ENDBRANCH   3   4
ENDBRANCH   2   3
ENDBRANCH   1   2
BRANCH   1  71
ATOM     71  O   UNL A   1      33.995  31.363  28.130  1.00  0.00    -0.377 OA
BRANCH  71  72
ATOM     72  C   UNL A   1      33.464  30.500  27.115  1.00  0.00     0.188 C 
BRANCH  72  73
ATOM     73  C   UNL A   1      34.119  29.121  27.076  1.00  0.00     0.188 C 
BRANCH  73  74
ATOM     74  O   UNL A   1      33.243  28.048  27.400  1.00  0.00    -0.376 OA
BRANCH  74  75
ATOM     75  C   UNL A   1      32.787  27.256  26.298  1.00  0.00     0.202 C 
BRANCH  75  76
ATOM     76  C   UNL A   1      31.554  26.383  26.578  1.00  0.00     0.261 C 
BRANCH  76  77
ATOM     77  O   UNL A   1      31.867  24.972  26.461  1.00  0.00    -0.459 OA
BRANCH  77  78
ATOM     78  C   UNL A   1      30.805  24.131  26.330  1.00  0.00     0.365 C 
ATOM     79  O   UNL A   1      29.775  24.198  26.994  1.00  0.00    -0.245 OA
BRANCH  78  80
ATOM     80  C   UNL A   1      30.993  23.046  25.262  1.00  0.00     0.296 C 
ATOM     81  C   UNL A   1      31.940  21.901  25.641  1.00  0.00     0.091 C 
ATOM     82  N   UNL A   1      31.524  23.550  23.965  1.00  0.00    -0.319 N 
ATOM     83  C   UNL A   1      32.686  21.526  24.336  1.00  0.00     0.036 C 
ATOM     84  C   UNL A   1      31.937  22.331  23.263  1.00  0.00     0.270 C 
ATOM     85  H   UNL A   1      32.286  24.215  24.098  1.00  0.00     0.349 HD
ATOM     86  C   UNL A   1      32.643  20.019  24.027  1.00  0.00     0.074 C 
ATOM     87  C   UNL A   1      34.165  21.951  24.409  1.00  0.00     0.074 C 
ATOM     88  C   UNL A   1      33.512  19.204  24.987  1.00  0.00     0.261 C 
ATOM     89  C   UNL A   1      34.978  21.073  25.365  1.00  0.00     0.261 C 
ATOM     90  N   UNL A   1      34.901  19.661  24.987  1.00  0.00    -0.346 N 
ATOM     91  H   UNL A   1      35.293  19.542  24.053  1.00  0.00     0.346 HD
ATOM     92  H   UNL A   1      35.430  19.109  25.662  1.00  0.00     0.346 HD
BRANCH  82  93
ATOM     93  C   UNL A   1      30.523  24.309  23.195  1.00  0.00     0.302 C 
BRANCH  93  94
ATOM     94  C   UNL A   1      30.876  25.765  23.103  1.00  0.00     0.038 A 
ATOM     95  C   UNL A   1      30.015  26.796  23.565  1.00  0.00     0.012 A 
ATOM     96  C   UNL A   1      32.089  26.253  22.567  1.00  0.00     0.144 A 
ATOM     97  C   UNL A   1      30.312  28.184  23.465  1.00  0.00     0.003 A 
ATOM     98  C   UNL A   1      32.393  27.673  22.470  1.00  0.00     0.135 A 
ATOM     99  N   UNL A   1      33.131  25.571  22.074  1.00  0.00    -0.049 NA
ATOM    100  C   UNL A   1      31.505  28.671  22.905  1.00  0.00     0.034 A 
ATOM    101  N   UNL A   1      33.602  27.801  21.919  1.00  0.00    -0.050 NA
ATOM    102  O   UNL A   1      34.036  26.521  21.639  1.00  0.00    -0.243 OA
ENDBRANCH  93  94
ENDBRANCH  82  93
ENDBRANCH  78  80
ENDBRANCH  77  78
ENDBRANCH  76  77
ENDBRANCH  75  76
ENDBRANCH  74  75
ENDBRANCH  73  74
ENDBRANCH  72  73
ENDBRANCH  71  72
ENDBRANCH   1  71
TORSDOF 25
ENDMDL
MODEL 2
REMARK VINA RESULT:     -10.5      3.932      9.732
REMARK SMILES O=C(OCCOCCOCCOCCOC(=O)[C@@H]1CC2(CC[NH2+]CC2)C[N@H+]1Cc1cccc2nonc12)c1ccc(-c2c3nc(c(-c4ccc(S(=O)(=O)[O-])cc4)c4ccc([nH]4)c(-c4ccc(S(=O)(=O)[O-])cc4)c4nc(c(-c5ccc(S(=O)(=O)[O-])cc5)c5ccc2[nH]5)C=C4)C=C3)cc1
REMARK SMILES IDX 8 1 7 2 6 3 5 4 4 5 3 6 2 7 1 8 38 9 39 10 97 11 40 12 96 13
REMARK SMILES IDX 41 14 42 15 43 16 90 17 44 18 95 19 89 20 91 21 45 22 94 23
REMARK SMILES IDX 88 24 87 25 46 27 76 28 57 29 75 30 58 31 61 32 74 33 92 34
REMARK SMILES IDX 59 35 60 36 73 38 93 39 62 40 47 41 48 42 56 43 49 44 55 45
REMARK SMILES IDX 50 46 51 47 52 48 53 49 54 50 77 51 78 52 86 53 79 54 85 55
REMARK SMILES IDX 80 56 81 57 82 58 83 59 84 60 63 61 64 62 72 63 65 64 71 65
REMARK SMILES IDX 66 66 67 67 68 68 69 69 70 70 9 71 10 72 11 73 12 74 13 75
REMARK SMILES IDX 14 76 15 77 16 78 17 79 18 80 19 81 27 82 20 83 26 84 21 86
REMARK SMILES IDX 25 87 22 88 24 89 23 90 28 93 29 94 30 95 37 96 31 97 33 98
REMARK SMILES IDX 36 99 32 100 34 101 35 102
REMARK H PARENT 91 26 61 37 27 85 23 91 23 92
REMARK Flexibility Score: inf
ROOT
ATOM      1  C   UNL A   1      33.103  20.425  25.793  1.00  0.00     0.188 C 
ENDROOT
BRANCH   1   2
ATOM      2  C   UNL A   1      33.758  19.811  24.548  1.00  0.00     0.188 C 
BRANCH   2   3
ATOM      3  O   UNL A   1      35.169  19.735  24.710  1.00  0.00    -0.376 OA
BRANCH   3   4
ATOM      4  C   UNL A   1      35.777  20.818  25.407  1.00  0.00     0.202 C 
BRANCH   4   5
ATOM      5  C   UNL A   1      37.185  21.124  24.899  1.00  0.00     0.261 C 
BRANCH   5   6
ATOM      6  O   UNL A   1      37.951  21.623  26.003  1.00  0.00    -0.460 OA
BRANCH   6   7
ATOM      7  C   UNL A   1      39.229  21.174  26.025  1.00  0.00     0.338 C 
ATOM      8  O   UNL A   1      39.574  19.999  25.937  1.00  0.00    -0.246 OA
BRANCH   7   9
ATOM      9  C   UNL A   1      40.161  22.287  26.312  1.00  0.00     0.060 A 
ATOM     10  C   UNL A   1      39.654  23.470  26.857  1.00  0.00     0.016 A 
ATOM     11  C   UNL A   1      41.510  22.215  25.944  1.00  0.00     0.016 A 
ATOM     12  C   UNL A   1      40.507  24.550  27.086  1.00  0.00     0.010 A 
ATOM     13  C   UNL A   1      42.350  23.305  26.142  1.00  0.00     0.010 A 
ATOM     14  C   UNL A   1      41.868  24.467  26.751  1.00  0.00    -0.014 A 
BRANCH  14  15
ATOM     15  C   UNL A   1      42.784  25.535  27.196  1.00  0.00     0.031 A 
ATOM     16  C   UNL A   1      42.139  26.802  27.678  1.00  0.00     0.074 A 
ATOM     17  C   UNL A   1      43.958  25.237  27.785  1.00  0.00     0.049 A 
ATOM     18  N   UNL A   1      41.863  27.080  28.921  1.00  0.00    -0.248 NA
ATOM     19  C   UNL A   1      41.532  27.716  26.709  1.00  0.00     0.031 C 
ATOM     20  C   UNL A   1      44.060  24.422  29.000  1.00  0.00     0.029 A 
ATOM     21  N   UNL A   1      45.134  25.944  27.736  1.00  0.00    -0.354 N 
ATOM     22  C   UNL A   1      41.019  28.182  28.904  1.00  0.00     0.074 A 
ATOM     23  C   UNL A   1      40.838  28.531  27.511  1.00  0.00     0.031 C 
ATOM     24  C   UNL A   1      45.168  24.799  29.670  1.00  0.00     0.029 A 
ATOM     25  C   UNL A   1      45.896  25.787  28.881  1.00  0.00     0.049 A 
ATOM     26  H   UNL A   1      45.406  26.500  26.971  1.00  0.00     0.167 HD
ATOM     27  C   UNL A   1      40.489  28.775  30.008  1.00  0.00     0.031 A 
ATOM     28  C   UNL A   1      46.866  26.647  29.290  1.00  0.00     0.031 A 
ATOM     29  C   UNL A   1      40.903  28.364  31.330  1.00  0.00     0.049 A 
ATOM     30  C   UNL A   1      46.170  27.417  30.375  1.00  0.00     0.074 A 
ATOM     31  C   UNL A   1      40.522  28.703  32.621  1.00  0.00     0.029 A 
ATOM     32  N   UNL A   1      41.969  27.515  31.489  1.00  0.00    -0.354 N 
ATOM     33  N   UNL A   1      45.967  27.033  31.610  1.00  0.00    -0.248 NA
ATOM     34  C   UNL A   1      45.375  28.588  29.959  1.00  0.00     0.031 C 
ATOM     35  C   UNL A   1      41.557  28.279  33.506  1.00  0.00     0.029 A 
ATOM     36  C   UNL A   1      42.547  27.729  32.722  1.00  0.00     0.049 A 
ATOM     37  H   UNL A   1      42.274  26.853  30.826  1.00  0.00     0.167 HD
ATOM     38  C   UNL A   1      44.821  27.715  31.995  1.00  0.00     0.074 A 
ATOM     39  C   UNL A   1      44.591  28.756  31.014  1.00  0.00     0.031 C 
ATOM     40  C   UNL A   1      43.899  27.280  32.897  1.00  0.00     0.031 A 
BRANCH  27  41
ATOM     41  C   UNL A   1      39.621  29.984  29.885  1.00  0.00    -0.014 A 
ATOM     42  C   UNL A   1      38.259  29.903  29.560  1.00  0.00     0.010 A 
ATOM     43  C   UNL A   1      40.168  31.228  30.251  1.00  0.00     0.010 A 
ATOM     44  C   UNL A   1      37.455  31.049  29.620  1.00  0.00     0.020 A 
ATOM     45  C   UNL A   1      39.370  32.371  30.317  1.00  0.00     0.020 A 
ATOM     46  C   UNL A   1      38.015  32.273  30.004  1.00  0.00     0.054 A 
BRANCH  46  47
ATOM     47  S   UNL A   1      36.936  33.725  30.145  1.00  0.00     0.124 S 
ATOM     48  O   UNL A   1      37.109  34.097  31.548  1.00  0.00    -0.237 OA
ATOM     49  O   UNL A   1      37.520  34.649  29.176  1.00  0.00    -0.237 OA
ATOM     50  O   UNL A   1      35.614  33.215  29.795  1.00  0.00    -0.744 OA
ENDBRANCH  46  47
ENDBRANCH  27  41
BRANCH  28  51
ATOM     51  C   UNL A   1      47.690  27.232  28.184  1.00  0.00    -0.014 A 
ATOM     52  C   UNL A   1      47.199  27.847  27.025  1.00  0.00     0.010 A 
ATOM     53  C   UNL A   1      49.092  27.040  28.277  1.00  0.00     0.010 A 
ATOM     54  C   UNL A   1      48.039  28.075  25.925  1.00  0.00     0.020 A 
ATOM     55  C   UNL A   1      49.940  27.285  27.194  1.00  0.00     0.020 A 
ATOM     56  C   UNL A   1      49.394  27.746  26.002  1.00  0.00     0.054 A 
BRANCH  56  57
ATOM     57  S   UNL A   1      50.413  27.860  24.509  1.00  0.00     0.124 S 
ATOM     58  O   UNL A   1      49.407  27.760  23.456  1.00  0.00    -0.237 OA
ATOM     59  O   UNL A   1      51.048  29.166  24.656  1.00  0.00    -0.237 OA
ATOM     60  O   UNL A   1      51.315  26.715  24.617  1.00  0.00    -0.744 OA
ENDBRANCH  56  57
ENDBRANCH  28  51
BRANCH  40  61
ATOM     61  C   UNL A   1      44.242  26.288  33.944  1.00  0.00    -0.014 A 
ATOM     62  C   UNL A   1      45.072  26.644  35.021  1.00  0.00     0.010 A 
ATOM     63  C   UNL A   1      43.891  24.940  33.767  1.00  0.00     0.010 A 
ATOM     64  C   UNL A   1      45.573  25.665  35.884  1.00  0.00     0.020 A 
ATOM     65  C   UNL A   1      44.391  23.957  34.624  1.00  0.00     0.020 A 
ATOM     66  C   UNL A   1      45.243  24.324  35.668  1.00  0.00     0.054 A 
BRANCH  66  67
ATOM     67  S   UNL A   1      45.996  23.062  36.728  1.00  0.00     0.124 S 
ATOM     68  O   UNL A   1      45.593  21.817  36.079  1.00  0.00    -0.237 OA
ATOM     69  O   UNL A   1      47.418  23.383  36.640  1.00  0.00    -0.237 OA
ATOM     70  O   UNL A   1      45.389  23.295  38.038  1.00  0.00    -0.744 OA
ENDBRANCH  66  67
ENDBRANCH  40  61
ENDBRANCH  14  15
ENDBRANCH   7   9
ENDBRANCH   6   7
ENDBRANCH   5   6
ENDBRANCH   4   5
ENDBRANCH   3   4
ENDBRANCH   2   3
ENDBRANCH   1   2
BRANCH   1  71
ATOM     71  O   UNL A   1      31.790  20.938  25.550  1.00  0.00    -0.377 OA
BRANCH  71  72
ATOM     72  C   UNL A   1      31.752  22.372  25.575  1.00  0.00     0.188 C 
BRANCH  72  73
ATOM     73  C   UNL A   1      30.632  22.941  26.443  1.00  0.00     0.188 C 
BRANCH  73  74
ATOM     74  O   UNL A   1      30.959  24.165  27.091  1.00  0.00    -0.376 OA
BRANCH  74  75
ATOM     75  C   UNL A   1      30.991  25.328  26.256  1.00  0.00     0.202 C 
BRANCH  75  76
ATOM     76  C   UNL A   1      31.807  26.510  26.803  1.00  0.00     0.261 C 
BRANCH  76  77
ATOM     77  O   UNL A   1      31.157  27.776  26.521  1.00  0.00    -0.459 OA
BRANCH  77  78
ATOM     78  C   UNL A   1      31.973  28.796  26.139  1.00  0.00     0.365 C 
ATOM     79  O   UNL A   1      32.790  29.348  26.869  1.00  0.00    -0.245 OA
BRANCH  78  80
ATOM     80  C   UNL A   1      31.786  29.233  24.680  1.00  0.00     0.296 C 
ATOM     81  C   UNL A   1      30.379  29.717  24.308  1.00  0.00     0.091 C 
ATOM     82  N   UNL A   1      32.087  28.171  23.680  1.00  0.00    -0.319 N 
ATOM     83  C   UNL A   1      30.136  29.223  22.860  1.00  0.00     0.036 C 
ATOM     84  C   UNL A   1      31.515  28.695  22.436  1.00  0.00     0.270 C 
ATOM     85  H   UNL A   1      31.697  27.269  23.953  1.00  0.00     0.349 HD
ATOM     86  C   UNL A   1      29.656  30.337  21.913  1.00  0.00     0.074 C 
ATOM     87  C   UNL A   1      29.086  28.096  22.835  1.00  0.00     0.074 C 
ATOM     88  C   UNL A   1      28.220  30.774  22.212  1.00  0.00     0.261 C 
ATOM     89  C   UNL A   1      27.671  28.612  23.112  1.00  0.00     0.261 C 
ATOM     90  N   UNL A   1      27.286  29.651  22.155  1.00  0.00    -0.346 N 
ATOM     91  H   UNL A   1      27.290  29.258  21.214  1.00  0.00     0.346 HD
ATOM     92  H   UNL A   1      26.351  29.987  22.391  1.00  0.00     0.346 HD
BRANCH  82  93
ATOM     93  C   UNL A   1      33.530  27.906  23.546  1.00  0.00     0.302 C 
BRANCH  93  94
ATOM     94  C   UNL A   1      33.833  26.436  23.582  1.00  0.00     0.038 A 
ATOM     95  C   UNL A   1      34.370  25.788  24.727  1.00  0.00     0.012 A 
ATOM     96  C   UNL A   1      33.607  25.555  22.501  1.00  0.00     0.144 A 
ATOM     97  C   UNL A   1      34.693  24.403  24.779  1.00  0.00     0.003 A 
ATOM     98  C   UNL A   1      33.933  24.137  22.558  1.00  0.00     0.135 A 
ATOM     99  N   UNL A   1      33.088  25.813  21.294  1.00  0.00    -0.049 NA
ATOM    100  C   UNL A   1      34.495  23.532  23.694  1.00  0.00     0.034 A 
ATOM    101  N   UNL A   1      33.606  23.589  21.386  1.00  0.00    -0.050 NA
ATOM    102  O   UNL A   1      33.129  24.618  20.599  1.00  0.00    -0.243 OA
ENDBRANCH  93  94
ENDBRANCH  82  93
ENDBRANCH  78  80
ENDBRANCH  77  78
ENDBRANCH  76  77
ENDBRANCH  75  76
ENDBRANCH  74  75
ENDBRANCH  73  74
ENDBRANCH  72  73
ENDBRANCH  71  72
ENDBRANCH   1  71
TORSDOF 25
ENDMDL
MODEL 3
REMARK VINA RESULT:      -9.5      1.434      3.476
REMARK SMILES O=C(OCCOCCOCCOCCOC(=O)[C@@H]1CC2(CC[NH2+]CC2)C[N@H+]1Cc1cccc2nonc12)c1ccc(-c2c3nc(c(-c4ccc(S(=O)(=O)[O-])cc4)c4ccc([nH]4)c(-c4ccc(S(=O)(=O)[O-])cc4)c4nc(c(-c5ccc(S(=O)(=O)[O-])cc5)c5ccc2[nH]5)C=C4)C=C3)cc1
REMARK SMILES IDX 8 1 7 2 6 3 5 4 4 5 3 6 2 7 1 8 38 9 39 10 97 11 40 12 96 13
REMARK SMILES IDX 41 14 42 15 43 16 90 17 44 18 95 19 89 20 91 21 45 22 94 23
REMARK SMILES IDX 88 24 87 25 46 27 76 28 57 29 75 30 58 31 61 32 74 33 92 34
REMARK SMILES IDX 59 35 60 36 73 38 93 39 62 40 47 41 48 42 56 43 49 44 55 45
REMARK SMILES IDX 50 46 51 47 52 48 53 49 54 50 77 51 78 52 86 53 79 54 85 55
REMARK SMILES IDX 80 56 81 57 82 58 83 59 84 60 63 61 64 62 72 63 65 64 71 65
REMARK SMILES IDX 66 66 67 67 68 68 69 69 70 70 9 71 10 72 11 73 12 74 13 75
REMARK SMILES IDX 14 76 15 77 16 78 17 79 18 80 19 81 27 82 20 83 26 84 21 86
REMARK SMILES IDX 25 87 22 88 24 89 23 90 28 93 29 94 30 95 37 96 31 97 33 98
REMARK SMILES IDX 36 99 32 100 34 101 35 102
REMARK H PARENT 91 26 61 37 27 85 23 91 23 92
REMARK Flexibility Score: inf
ROOT
ATOM      1  C   UNL A   1      34.733  34.817  28.318  1.00  0.00     0.188 C 
ENDROOT
BRANCH   1   2
ATOM      2  C   UNL A   1      33.236  35.133  28.438  1.00  0.00     0.188 C 
BRANCH   2   3
ATOM      3  O   UNL A   1      32.769  34.851  29.751  1.00  0.00    -0.376 OA
BRANCH   3   4
ATOM      4  C   UNL A   1      33.064  35.830  30.742  1.00  0.00     0.202 C 
BRANCH   4   5
ATOM      5  C   UNL A   1      33.811  35.243  31.940  1.00  0.00     0.261 C 
BRANCH   5   6
ATOM      6  O   UNL A   1      34.683  34.215  31.452  1.00  0.00    -0.460 OA
BRANCH   6   7
ATOM      7  C   UNL A   1      34.644  33.077  32.185  1.00  0.00     0.338 C 
ATOM      8  O   UNL A   1      33.646  32.615  32.733  1.00  0.00    -0.246 OA
BRANCH   7   9
ATOM      9  C   UNL A   1      36.008  32.528  32.358  1.00  0.00     0.060 A 
ATOM     10  C   UNL A   1      36.490  32.315  33.652  1.00  0.00     0.016 A 
ATOM     11  C   UNL A   1      36.852  32.327  31.260  1.00  0.00     0.016 A 
ATOM     12  C   UNL A   1      37.792  31.848  33.838  1.00  0.00     0.010 A 
ATOM     13  C   UNL A   1      38.159  31.894  31.450  1.00  0.00     0.010 A 
ATOM     14  C   UNL A   1      38.629  31.612  32.736  1.00  0.00    -0.014 A 
BRANCH  14  15
ATOM     15  C   UNL A   1      39.917  30.920  32.946  1.00  0.00     0.031 A 
ATOM     16  C   UNL A   1      40.146  29.684  32.127  1.00  0.00     0.074 A 
ATOM     17  C   UNL A   1      41.030  31.614  33.249  1.00  0.00     0.049 A 
ATOM     18  N   UNL A   1      40.773  29.642  30.986  1.00  0.00    -0.248 NA
ATOM     19  C   UNL A   1      39.422  28.455  32.460  1.00  0.00     0.031 C 
ATOM     20  C   UNL A   1      41.562  32.687  32.402  1.00  0.00     0.029 A 
ATOM     21  N   UNL A   1      42.097  31.212  34.016  1.00  0.00    -0.354 N 
ATOM     22  C   UNL A   1      40.504  28.399  30.430  1.00  0.00     0.074 A 
ATOM     23  C   UNL A   1      39.657  27.706  31.377  1.00  0.00     0.031 C 
ATOM     24  C   UNL A   1      42.897  32.746  32.581  1.00  0.00     0.029 A 
ATOM     25  C   UNL A   1      43.286  31.802  33.624  1.00  0.00     0.049 A 
ATOM     26  H   UNL A   1      42.023  30.574  34.762  1.00  0.00     0.167 HD
ATOM     27  C   UNL A   1      40.967  27.968  29.224  1.00  0.00     0.031 A 
ATOM     28  C   UNL A   1      44.523  31.312  33.903  1.00  0.00     0.031 A 
ATOM     29  C   UNL A   1      41.923  28.757  28.481  1.00  0.00     0.049 A 
ATOM     30  C   UNL A   1      44.910  30.671  32.601  1.00  0.00     0.074 A 
ATOM     31  C   UNL A   1      42.522  28.645  27.235  1.00  0.00     0.029 A 
ATOM     32  N   UNL A   1      42.522  29.847  29.063  1.00  0.00    -0.354 N 
ATOM     33  N   UNL A   1      45.370  31.270  31.532  1.00  0.00    -0.248 NA
ATOM     34  C   UNL A   1      44.462  29.282  32.381  1.00  0.00     0.031 C 
ATOM     35  C   UNL A   1      43.669  29.492  27.225  1.00  0.00     0.029 A 
ATOM     36  C   UNL A   1      43.749  30.064  28.476  1.00  0.00     0.049 A 
ATOM     37  H   UNL A   1      42.134  30.391  29.788  1.00  0.00     0.167 HD
ATOM     38  C   UNL A   1      44.981  30.445  30.486  1.00  0.00     0.074 A 
ATOM     39  C   UNL A   1      44.569  29.182  31.064  1.00  0.00     0.031 C 
ATOM     40  C   UNL A   1      44.699  30.846  29.216  1.00  0.00     0.031 A 
BRANCH  27  41
ATOM     41  C   UNL A   1      40.653  26.595  28.731  1.00  0.00    -0.014 A 
ATOM     42  C   UNL A   1      39.489  26.302  28.004  1.00  0.00     0.010 A 
ATOM     43  C   UNL A   1      41.636  25.598  28.883  1.00  0.00     0.010 A 
ATOM     44  C   UNL A   1      39.323  25.038  27.425  1.00  0.00     0.020 A 
ATOM     45  C   UNL A   1      41.477  24.339  28.303  1.00  0.00     0.020 A 
ATOM     46  C   UNL A   1      40.321  24.068  27.573  1.00  0.00     0.054 A 
BRANCH  46  47
ATOM     47  S   UNL A   1      40.114  22.464  26.749  1.00  0.00     0.124 S 
ATOM     48  O   UNL A   1      41.196  22.486  25.767  1.00  0.00    -0.237 OA
ATOM     49  O   UNL A   1      40.285  21.519  27.849  1.00  0.00    -0.237 OA
ATOM     50  O   UNL A   1      38.766  22.528  26.191  1.00  0.00    -0.744 OA
ENDBRANCH  46  47
ENDBRANCH  27  41
BRANCH  28  51
ATOM     51  C   UNL A   1      44.661  30.699  35.263  1.00  0.00    -0.014 A 
ATOM     52  C   UNL A   1      44.605  31.383  36.484  1.00  0.00     0.010 A 
ATOM     53  C   UNL A   1      44.989  29.321  35.300  1.00  0.00     0.010 A 
ATOM     54  C   UNL A   1      45.052  30.773  37.666  1.00  0.00     0.020 A 
ATOM     55  C   UNL A   1      45.414  28.698  36.476  1.00  0.00     0.020 A 
ATOM     56  C   UNL A   1      45.500  29.450  37.642  1.00  0.00     0.054 A 
BRANCH  56  57
ATOM     57  S   UNL A   1      46.259  28.751  39.132  1.00  0.00     0.124 S 
ATOM     58  O   UNL A   1      45.172  28.865  40.099  1.00  0.00    -0.237 OA
ATOM     59  O   UNL A   1      46.593  27.394  38.711  1.00  0.00    -0.237 OA
ATOM     60  O   UNL A   1      47.404  29.626  39.379  1.00  0.00    -0.744 OA
ENDBRANCH  56  57
ENDBRANCH  28  51
BRANCH  40  61
ATOM     61  C   UNL A   1      45.248  32.105  28.656  1.00  0.00    -0.014 A 
ATOM     62  C   UNL A   1      44.518  32.845  27.711  1.00  0.00     0.010 A 
ATOM     63  C   UNL A   1      46.577  32.465  28.929  1.00  0.00     0.010 A 
ATOM     64  C   UNL A   1      45.117  33.904  27.022  1.00  0.00     0.020 A 
ATOM     65  C   UNL A   1      47.183  33.520  28.242  1.00  0.00     0.020 A 
ATOM     66  C   UNL A   1      46.454  34.222  27.280  1.00  0.00     0.054 A 
BRANCH  66  67
ATOM     67  S   UNL A   1      47.243  35.521  26.294  1.00  0.00     0.124 S 
ATOM     68  O   UNL A   1      48.523  35.705  26.972  1.00  0.00    -0.237 OA
ATOM     69  O   UNL A   1      47.317  34.911  24.969  1.00  0.00    -0.237 OA
ATOM     70  O   UNL A   1      46.323  36.653  26.402  1.00  0.00    -0.744 OA
ENDBRANCH  66  67
ENDBRANCH  40  61
ENDBRANCH  14  15
ENDBRANCH   7   9
ENDBRANCH   6   7
ENDBRANCH   5   6
ENDBRANCH   4   5
ENDBRANCH   3   4
ENDBRANCH   2   3
ENDBRANCH   1   2
BRANCH   1  71
ATOM     71  O   UNL A   1      35.008  33.663  27.517  1.00  0.00    -0.377 OA
BRANCH  71  72
ATOM     72  C   UNL A   1      35.125  32.469  28.304  1.00  0.00     0.188 C 
BRANCH  72  73
ATOM     73  C   UNL A   1      34.588  31.220  27.608  1.00  0.00     0.188 C 
BRANCH  73  74
ATOM     74  O   UNL A   1      33.199  31.272  27.303  1.00  0.00    -0.376 OA
BRANCH  74  75
ATOM     75  C   UNL A   1      32.546  30.009  27.140  1.00  0.00     0.202 C 
BRANCH  75  76
ATOM     76  C   UNL A   1      33.371  28.780  27.554  1.00  0.00     0.261 C 
BRANCH  76  77
ATOM     77  O   UNL A   1      33.761  27.991  26.400  1.00  0.00    -0.459 OA
BRANCH  77  78
ATOM     78  C   UNL A   1      32.828  27.122  25.925  1.00  0.00     0.365 C 
ATOM     79  O   UNL A   1      32.410  26.144  26.536  1.00  0.00    -0.245 OA
BRANCH  78  80
ATOM     80  C   UNL A   1      32.324  27.455  24.515  1.00  0.00     0.296 C 
ATOM     81  C   UNL A   1      30.913  28.051  24.440  1.00  0.00     0.091 C 
ATOM     82  N   UNL A   1      32.281  26.288  23.590  1.00  0.00    -0.319 N 
ATOM     83  C   UNL A   1      30.280  27.467  23.152  1.00  0.00     0.036 C 
ATOM     84  C   UNL A   1      31.463  26.765  22.470  1.00  0.00     0.270 C 
ATOM     85  H   UNL A   1      31.897  25.458  24.041  1.00  0.00     0.349 HD
ATOM     86  C   UNL A   1      29.673  28.544  22.235  1.00  0.00     0.074 C 
ATOM     87  C   UNL A   1      29.168  26.459  23.497  1.00  0.00     0.074 C 
ATOM     88  C   UNL A   1      28.396  29.152  22.819  1.00  0.00     0.261 C 
ATOM     89  C   UNL A   1      27.912  27.141  24.047  1.00  0.00     0.261 C 
ATOM     90  N   UNL A   1      27.388  28.132  23.105  1.00  0.00    -0.346 N 
ATOM     91  H   UNL A   1      27.128  27.664  22.236  1.00  0.00     0.346 HD
ATOM     92  H   UNL A   1      26.572  28.582  23.519  1.00  0.00     0.346 HD
BRANCH  82  93
ATOM     93  C   UNL A   1      33.620  25.863  23.145  1.00  0.00     0.302 C 
BRANCH  93  94
ATOM     94  C   UNL A   1      34.035  24.569  23.782  1.00  0.00     0.038 A 
ATOM     95  C   UNL A   1      35.103  24.477  24.714  1.00  0.00     0.012 A 
ATOM     96  C   UNL A   1      33.406  23.328  23.533  1.00  0.00     0.144 A 
ATOM     97  C   UNL A   1      35.535  23.259  25.310  1.00  0.00     0.003 A 
ATOM     98  C   UNL A   1      33.846  22.084  24.148  1.00  0.00     0.135 A 
ATOM     99  N   UNL A   1      32.359  23.053  22.745  1.00  0.00    -0.049 NA
ATOM    100  C   UNL A   1      34.929  22.020  25.042  1.00  0.00     0.034 A 
ATOM    101  N   UNL A   1      33.057  21.102  23.709  1.00  0.00    -0.050 NA
ATOM    102  O   UNL A   1      32.175  21.684  22.821  1.00  0.00    -0.243 OA
ENDBRANCH  93  94
ENDBRANCH  82  93
ENDBRANCH  78  80
ENDBRANCH  77  78
ENDBRANCH  76  77
ENDBRANCH  75  76
ENDBRANCH  74  75
ENDBRANCH  73  74
ENDBRANCH  72  73
ENDBRANCH  71  72
ENDBRANCH   1  71
TORSDOF 25
ENDMDL
