MODEL 1
REMARK VINA RESULT:      -7.0      0.000      0.000
REMARK SMILES C[C@H](C(=O)OCCOCCOCCOCCOC(=O)c1ccc(-c2c3nc(c(-c4ccc(S(=O)(=O)[O-])cc4)c4ccc([nH]4)c(-c4ccc(S(=O)(=O)[O-])cc4)c4nc(c(-c5ccc(S(=O)(=O)[O-])cc5)c5ccc2[nH]5)C=C4)C=C3)cc1)c1ccc2c3cc(Cl)ccc3n(C(=O)c3ccc(Cl)cc3)c2c1
REMARK SMILES IDX 11 1 10 2 9 3 8 4 7 5 6 6 5 7 3 8 4 9 2 10 1 11 80 12 81 13
REMARK SMILES IDX 102 14 82 15 101 16 83 17 91 18 84 19 90 20 85 21 89 22
REMARK SMILES IDX 86 23 88 24 87 25 92 26 93 27 94 28 95 29 100 30 96 31 99 32
REMARK SMILES IDX 97 33 98 34 12 35 13 36 14 37 15 38 16 39 17 40 18 41 19 42
REMARK SMILES IDX 20 43 21 44 79 45 22 46 78 47 23 48 24 49 25 50 72 51 26 52
REMARK SMILES IDX 77 53 71 54 73 55 27 56 76 57 70 58 69 59 28 61 58 62 39 63
REMARK SMILES IDX 57 64 40 65 43 66 56 67 74 68 41 69 42 70 55 72 75 73 44 74
REMARK SMILES IDX 29 75 30 76 38 77 31 78 37 79 32 80 33 81 34 82 35 83 36 84
REMARK SMILES IDX 59 85 60 86 68 87 61 88 67 89 62 90 63 91 64 92 65 93 66 94
REMARK SMILES IDX 45 95 46 96 54 97 47 98 53 99 48 100 49 101 50 102 51 103
REMARK SMILES IDX 52 104
REMARK H PARENT 73 60 43 71
REMARK Flexibility Score: inf
ROOT
ATOM      1  O   UNL A   1      39.896  32.762  34.664  1.00  0.00    -0.377 OA
ENDROOT
BRANCH   1   2
ATOM      2  C   UNL A   1      40.614  31.868  35.491  1.00  0.00     0.188 C 
BRANCH   2   3
ATOM      3  C   UNL A   1      40.763  30.476  34.877  1.00  0.00     0.188 C 
BRANCH   3   4
ATOM      4  O   UNL A   1      39.591  29.672  34.818  1.00  0.00    -0.376 OA
BRANCH   4   5
ATOM      5  C   UNL A   1      39.146  29.235  33.529  1.00  0.00     0.202 C 
BRANCH   5   6
ATOM      6  C   UNL A   1      40.082  29.421  32.320  1.00  0.00     0.261 C 
BRANCH   6   7
ATOM      7  O   UNL A   1      39.473  30.084  31.190  1.00  0.00    -0.463 OA
BRANCH   7   8
ATOM      8  C   UNL A   1      39.503  29.436  29.996  1.00  0.00     0.313 C 
ATOM      9  O   UNL A   1      39.179  29.948  28.926  1.00  0.00    -0.252 OA
BRANCH   8  10
ATOM     10  C   UNL A   1      40.067  28.022  30.055  1.00  0.00     0.126 C 
ATOM     11  C   UNL A   1      38.973  26.954  30.042  1.00  0.00     0.025 C 
BRANCH  10  12
ATOM     12  C   UNL A   1      41.235  27.719  29.133  1.00  0.00    -0.032 A 
ATOM     13  C   UNL A   1      41.921  28.661  28.364  1.00  0.00     0.005 A 
ATOM     14  C   UNL A   1      41.589  26.374  29.010  1.00  0.00     0.032 A 
ATOM     15  C   UNL A   1      43.023  28.296  27.568  1.00  0.00     0.011 A 
ATOM     16  C   UNL A   1      42.561  26.002  28.074  1.00  0.00     0.057 A 
ATOM     17  C   UNL A   1      43.354  26.933  27.431  1.00  0.00     0.008 A 
ATOM     18  N   UNL A   1      42.862  24.735  27.581  1.00  0.00    -0.276 N 
ATOM     19  C   UNL A   1      44.358  26.197  26.740  1.00  0.00     0.009 A 
ATOM     20  C   UNL A   1      43.980  24.841  26.752  1.00  0.00     0.057 A 
ATOM     21  C   UNL A   1      45.516  26.593  26.037  1.00  0.00     0.031 A 
ATOM     22  C   UNL A   1      44.637  23.911  25.926  1.00  0.00     0.029 A 
ATOM     23  C   UNL A   1      46.214  25.648  25.289  1.00  0.00     0.041 A 
ATOM     24  C   UNL A   1      45.760  24.338  25.202  1.00  0.00     0.023 A 
ATOM     25  Cl  UNL A   1      47.623  26.128  24.425  1.00  0.00    -0.084 Cl
BRANCH  18  26
ATOM     26  C   UNL A   1      41.978  23.651  27.789  1.00  0.00     0.262 C 
ATOM     27  O   UNL A   1      42.373  22.810  28.603  1.00  0.00    -0.268 OA
BRANCH  26  28
ATOM     28  C   UNL A   1      40.692  23.337  27.115  1.00  0.00     0.040 A 
ATOM     29  C   UNL A   1      39.741  24.381  27.076  1.00  0.00     0.015 A 
ATOM     30  C   UNL A   1      40.328  22.080  26.633  1.00  0.00     0.015 A 
ATOM     31  C   UNL A   1      38.470  24.189  26.540  1.00  0.00     0.021 A 
ATOM     32  C   UNL A   1      39.054  21.894  26.067  1.00  0.00     0.021 A 
ATOM     33  C   UNL A   1      38.135  22.946  26.024  1.00  0.00     0.041 A 
ATOM     34  Cl  UNL A   1      36.575  22.709  25.341  1.00  0.00    -0.084 Cl
ENDBRANCH  26  28
ENDBRANCH  18  26
ENDBRANCH  10  12
ENDBRANCH   8  10
ENDBRANCH   7   8
ENDBRANCH   6   7
ENDBRANCH   5   6
ENDBRANCH   4   5
ENDBRANCH   3   4
ENDBRANCH   2   3
ENDBRANCH   1   2
BRANCH   1  35
ATOM     35  C   UNL A   1      38.620  33.232  35.088  1.00  0.00     0.188 C 
BRANCH  35  36
ATOM     36  C   UNL A   1      37.405  32.379  34.705  1.00  0.00     0.188 C 
BRANCH  36  37
ATOM     37  O   UNL A   1      36.108  32.993  34.690  1.00  0.00    -0.376 OA
BRANCH  37  38
ATOM     38  C   UNL A   1      35.927  34.252  34.050  1.00  0.00     0.202 C 
BRANCH  38  39
ATOM     39  C   UNL A   1      35.059  34.258  32.792  1.00  0.00     0.261 C 
BRANCH  39  40
ATOM     40  O   UNL A   1      35.771  34.677  31.624  1.00  0.00    -0.460 OA
BRANCH  40  41
ATOM     41  C   UNL A   1      36.382  33.677  30.949  1.00  0.00     0.338 C 
ATOM     42  O   UNL A   1      35.887  32.623  30.574  1.00  0.00    -0.246 OA
BRANCH  41  43
ATOM     43  C   UNL A   1      37.742  34.103  30.592  1.00  0.00     0.060 A 
ATOM     44  C   UNL A   1      38.128  34.063  29.246  1.00  0.00     0.016 A 
ATOM     45  C   UNL A   1      38.651  34.465  31.588  1.00  0.00     0.016 A 
ATOM     46  C   UNL A   1      39.443  34.340  28.894  1.00  0.00     0.010 A 
ATOM     47  C   UNL A   1      39.974  34.722  31.237  1.00  0.00     0.010 A 
ATOM     48  C   UNL A   1      40.379  34.616  29.896  1.00  0.00    -0.014 A 
BRANCH  48  49
ATOM     49  C   UNL A   1      41.819  34.588  29.570  1.00  0.00     0.031 A 
ATOM     50  C   UNL A   1      42.579  33.316  29.817  1.00  0.00     0.074 A 
ATOM     51  C   UNL A   1      42.426  35.670  29.055  1.00  0.00     0.049 A 
ATOM     52  N   UNL A   1      43.854  33.073  29.673  1.00  0.00    -0.248 NA
ATOM     53  C   UNL A   1      41.795  32.163  30.296  1.00  0.00     0.031 C 
ATOM     54  C   UNL A   1      41.767  36.934  28.726  1.00  0.00     0.029 A 
ATOM     55  N   UNL A   1      43.739  35.878  28.728  1.00  0.00    -0.354 N 
ATOM     56  C   UNL A   1      44.030  31.749  30.060  1.00  0.00     0.074 A 
ATOM     57  C   UNL A   1      42.737  31.247  30.469  1.00  0.00     0.031 C 
ATOM     58  C   UNL A   1      42.686  37.792  28.251  1.00  0.00     0.029 A 
ATOM     59  C   UNL A   1      43.999  37.150  28.283  1.00  0.00     0.049 A 
ATOM     60  H   UNL A   1      44.431  35.180  28.805  1.00  0.00     0.167 HD
ATOM     61  C   UNL A   1      45.170  31.020  30.073  1.00  0.00     0.031 A 
ATOM     62  C   UNL A   1      45.170  37.734  27.967  1.00  0.00     0.031 A 
ATOM     63  C   UNL A   1      46.450  31.539  29.677  1.00  0.00     0.049 A 
ATOM     64  C   UNL A   1      46.438  36.925  28.066  1.00  0.00     0.074 A 
ATOM     65  C   UNL A   1      47.668  30.884  29.632  1.00  0.00     0.029 A 
ATOM     66  N   UNL A   1      46.682  32.844  29.265  1.00  0.00    -0.354 N 
ATOM     67  N   UNL A   1      46.590  35.668  28.411  1.00  0.00    -0.248 NA
ATOM     68  C   UNL A   1      47.690  37.613  27.726  1.00  0.00     0.031 C 
ATOM     69  C   UNL A   1      48.647  31.811  29.261  1.00  0.00     0.029 A 
ATOM     70  C   UNL A   1      48.027  33.023  28.998  1.00  0.00     0.049 A 
ATOM     71  H   UNL A   1      45.990  33.539  29.176  1.00  0.00     0.167 HD
ATOM     72  C   UNL A   1      47.952  35.404  28.295  1.00  0.00     0.074 A 
ATOM     73  C   UNL A   1      48.574  36.630  27.837  1.00  0.00     0.031 C 
ATOM     74  C   UNL A   1      48.626  34.254  28.540  1.00  0.00     0.031 A 
BRANCH  61  75
ATOM     75  C   UNL A   1      45.089  29.603  30.575  1.00  0.00    -0.014 A 
ATOM     76  C   UNL A   1      44.383  29.275  31.746  1.00  0.00     0.010 A 
ATOM     77  C   UNL A   1      45.702  28.573  29.837  1.00  0.00     0.010 A 
ATOM     78  C   UNL A   1      44.320  27.951  32.189  1.00  0.00     0.020 A 
ATOM     79  C   UNL A   1      45.615  27.244  30.258  1.00  0.00     0.020 A 
ATOM     80  C   UNL A   1      44.937  26.942  31.440  1.00  0.00     0.054 A 
BRANCH  80  81
ATOM     81  S   UNL A   1      44.811  25.229  32.020  1.00  0.00     0.124 S 
ATOM     82  O   UNL A   1      43.795  25.339  33.065  1.00  0.00    -0.237 OA
ATOM     83  O   UNL A   1      44.399  24.513  30.815  1.00  0.00    -0.237 OA
ATOM     84  O   UNL A   1      46.159  24.922  32.494  1.00  0.00    -0.744 OA
ENDBRANCH  80  81
ENDBRANCH  61  75
BRANCH  62  85
ATOM     85  C   UNL A   1      45.202  39.161  27.547  1.00  0.00    -0.014 A 
ATOM     86  C   UNL A   1      45.009  39.517  26.201  1.00  0.00     0.010 A 
ATOM     87  C   UNL A   1      45.425  40.176  28.496  1.00  0.00     0.010 A 
ATOM     88  C   UNL A   1      45.059  40.858  25.808  1.00  0.00     0.020 A 
ATOM     89  C   UNL A   1      45.443  41.520  28.114  1.00  0.00     0.020 A 
ATOM     90  C   UNL A   1      45.272  41.851  26.768  1.00  0.00     0.054 A 
BRANCH  90  91
ATOM     91  S   UNL A   1      45.288  43.587  26.242  1.00  0.00     0.124 S 
ATOM     92  O   UNL A   1      44.170  43.631  25.305  1.00  0.00    -0.237 OA
ATOM     93  O   UNL A   1      45.089  44.298  27.503  1.00  0.00    -0.237 OA
ATOM     94  O   UNL A   1      46.612  43.751  25.645  1.00  0.00    -0.744 OA
ENDBRANCH  90  91
ENDBRANCH  62  85
BRANCH  74  95
ATOM     95  C   UNL A   1      50.110  34.247  28.275  1.00  0.00    -0.014 A 
ATOM     96  C   UNL A   1      51.038  34.551  29.287  1.00  0.00     0.010 A 
ATOM     97  C   UNL A   1      50.580  33.870  27.003  1.00  0.00     0.010 A 
ATOM     98  C   UNL A   1      52.409  34.512  29.019  1.00  0.00     0.020 A 
ATOM     99  C   UNL A   1      51.950  33.796  26.743  1.00  0.00     0.020 A 
ATOM    100  C   UNL A   1      52.856  34.132  27.750  1.00  0.00     0.054 A 
BRANCH 100 101
ATOM    101  S   UNL A   1      54.642  34.046  27.444  1.00  0.00     0.124 S 
ATOM    102  O   UNL A   1      54.707  34.163  25.989  1.00  0.00    -0.237 OA
ATOM    103  O   UNL A   1      55.149  35.194  28.191  1.00  0.00    -0.237 OA
ATOM    104  O   UNL A   1      55.024  32.742  27.981  1.00  0.00    -0.744 OA
ENDBRANCH 100 101
ENDBRANCH  74  95
ENDBRANCH  48  49
ENDBRANCH  41  43
ENDBRANCH  40  41
ENDBRANCH  39  40
ENDBRANCH  38  39
ENDBRANCH  37  38
ENDBRANCH  36  37
ENDBRANCH  35  36
ENDBRANCH   1  35
TORSDOF 26
ENDMDL
MODEL 2
REMARK VINA RESULT:      -6.9      6.596     11.237
REMARK SMILES C[C@H](C(=O)OCCOCCOCCOCCOC(=O)c1ccc(-c2c3nc(c(-c4ccc(S(=O)(=O)[O-])cc4)c4ccc([nH]4)c(-c4ccc(S(=O)(=O)[O-])cc4)c4nc(c(-c5ccc(S(=O)(=O)[O-])cc5)c5ccc2[nH]5)C=C4)C=C3)cc1)c1ccc2c3cc(Cl)ccc3n(C(=O)c3ccc(Cl)cc3)c2c1
REMARK SMILES IDX 11 1 10 2 9 3 8 4 7 5 6 6 5 7 3 8 4 9 2 10 1 11 80 12 81 13
REMARK SMILES IDX 102 14 82 15 101 16 83 17 91 18 84 19 90 20 85 21 89 22
REMARK SMILES IDX 86 23 88 24 87 25 92 26 93 27 94 28 95 29 100 30 96 31 99 32
REMARK SMILES IDX 97 33 98 34 12 35 13 36 14 37 15 38 16 39 17 40 18 41 19 42
REMARK SMILES IDX 20 43 21 44 79 45 22 46 78 47 23 48 24 49 25 50 72 51 26 52
REMARK SMILES IDX 77 53 71 54 73 55 27 56 76 57 70 58 69 59 28 61 58 62 39 63
REMARK SMILES IDX 57 64 40 65 43 66 56 67 74 68 41 69 42 70 55 72 75 73 44 74
REMARK SMILES IDX 29 75 30 76 38 77 31 78 37 79 32 80 33 81 34 82 35 83 36 84
REMARK SMILES IDX 59 85 60 86 68 87 61 88 67 89 62 90 63 91 64 92 65 93 66 94
REMARK SMILES IDX 45 95 46 96 54 97 47 98 53 99 48 100 49 101 50 102 51 103
REMARK SMILES IDX 52 104
REMARK H PARENT 73 60 43 71
REMARK Flexibility Score: inf
ROOT
ATOM      1  O   UNL A   1      44.425  27.937  30.695  1.00  0.00    -0.377 OA
ENDROOT
BRANCH   1   2
ATOM      2  C   UNL A   1      43.938  29.084  30.027  1.00  0.00     0.188 C 
BRANCH   2   3
ATOM      3  C   UNL A   1      42.869  29.830  30.825  1.00  0.00     0.188 C 
BRANCH   3   4
ATOM      4  O   UNL A   1      42.011  30.697  30.094  1.00  0.00    -0.376 OA
BRANCH   4   5
ATOM      5  C   UNL A   1      40.623  30.355  30.019  1.00  0.00     0.202 C 
BRANCH   5   6
ATOM      6  C   UNL A   1      40.176  28.962  30.500  1.00  0.00     0.261 C 
BRANCH   6   7
ATOM      7  O   UNL A   1      40.439  27.894  29.562  1.00  0.00    -0.463 OA
BRANCH   7   8
ATOM      8  C   UNL A   1      39.705  27.873  28.419  1.00  0.00     0.313 C 
ATOM      9  O   UNL A   1      38.525  28.213  28.352  1.00  0.00    -0.252 OA
BRANCH   8  10
ATOM     10  C   UNL A   1      40.484  27.477  27.172  1.00  0.00     0.126 C 
ATOM     11  C   UNL A   1      41.671  28.402  26.904  1.00  0.00     0.025 C 
BRANCH  10  12
ATOM     12  C   UNL A   1      40.805  26.001  27.014  1.00  0.00    -0.032 A 
ATOM     13  C   UNL A   1      40.116  24.954  27.629  1.00  0.00     0.005 A 
ATOM     14  C   UNL A   1      41.926  25.696  26.238  1.00  0.00     0.032 A 
ATOM     15  C   UNL A   1      40.458  23.610  27.391  1.00  0.00     0.011 A 
ATOM     16  C   UNL A   1      42.368  24.369  26.161  1.00  0.00     0.057 A 
ATOM     17  C   UNL A   1      41.607  23.315  26.628  1.00  0.00     0.008 A 
ATOM     18  N   UNL A   1      43.588  23.878  25.705  1.00  0.00    -0.276 N 
ATOM     19  C   UNL A   1      42.254  22.126  26.188  1.00  0.00     0.009 A 
ATOM     20  C   UNL A   1      43.530  22.483  25.713  1.00  0.00     0.057 A 
ATOM     21  C   UNL A   1      41.881  20.765  26.232  1.00  0.00     0.031 A 
ATOM     22  C   UNL A   1      44.497  21.495  25.456  1.00  0.00     0.029 A 
ATOM     23  C   UNL A   1      42.818  19.792  25.893  1.00  0.00     0.041 A 
ATOM     24  C   UNL A   1      44.117  20.148  25.549  1.00  0.00     0.023 A 
ATOM     25  Cl  UNL A   1      42.370  18.132  25.952  1.00  0.00    -0.084 Cl
BRANCH  18  26
ATOM     26  C   UNL A   1      44.686  24.746  25.506  1.00  0.00     0.262 C 
ATOM     27  O   UNL A   1      44.981  24.946  24.323  1.00  0.00    -0.268 OA
BRANCH  26  28
ATOM     28  C   UNL A   1      45.582  25.381  26.506  1.00  0.00     0.040 A 
ATOM     29  C   UNL A   1      46.503  24.522  27.148  1.00  0.00     0.015 A 
ATOM     30  C   UNL A   1      45.502  26.709  26.924  1.00  0.00     0.015 A 
ATOM     31  C   UNL A   1      47.345  24.980  28.158  1.00  0.00     0.021 A 
ATOM     32  C   UNL A   1      46.371  27.178  27.925  1.00  0.00     0.021 A 
ATOM     33  C   UNL A   1      47.285  26.315  28.534  1.00  0.00     0.041 A 
ATOM     34  Cl  UNL A   1      48.337  26.892  29.766  1.00  0.00    -0.084 Cl
ENDBRANCH  26  28
ENDBRANCH  18  26
ENDBRANCH  10  12
ENDBRANCH   8  10
ENDBRANCH   7   8
ENDBRANCH   6   7
ENDBRANCH   5   6
ENDBRANCH   4   5
ENDBRANCH   3   4
ENDBRANCH   2   3
ENDBRANCH   1   2
BRANCH   1  35
ATOM     35  C   UNL A   1      43.555  26.827  30.899  1.00  0.00     0.188 C 
BRANCH  35  36
ATOM     36  C   UNL A   1      43.274  25.933  29.685  1.00  0.00     0.188 C 
BRANCH  36  37
ATOM     37  O   UNL A   1      44.086  24.769  29.484  1.00  0.00    -0.376 OA
BRANCH  37  38
ATOM     38  C   UNL A   1      43.703  23.527  30.065  1.00  0.00     0.202 C 
BRANCH  38  39
ATOM     39  C   UNL A   1      44.363  23.166  31.397  1.00  0.00     0.261 C 
BRANCH  39  40
ATOM     40  O   UNL A   1      43.488  23.334  32.516  1.00  0.00    -0.460 OA
BRANCH  40  41
ATOM     41  C   UNL A   1      44.052  23.066  33.715  1.00  0.00     0.338 C 
ATOM     42  O   UNL A   1      44.551  22.010  34.083  1.00  0.00    -0.246 OA
BRANCH  41  43
ATOM     43  C   UNL A   1      44.114  24.305  34.502  1.00  0.00     0.060 A 
ATOM     44  C   UNL A   1      43.261  24.446  35.604  1.00  0.00     0.016 A 
ATOM     45  C   UNL A   1      44.952  25.350  34.105  1.00  0.00     0.016 A 
ATOM     46  C   UNL A   1      43.208  25.654  36.289  1.00  0.00     0.010 A 
ATOM     47  C   UNL A   1      44.883  26.566  34.779  1.00  0.00     0.010 A 
ATOM     48  C   UNL A   1      43.979  26.732  35.842  1.00  0.00    -0.014 A 
BRANCH  48  49
ATOM     49  C   UNL A   1      43.691  28.088  36.350  1.00  0.00     0.031 A 
ATOM     50  C   UNL A   1      44.458  28.576  37.547  1.00  0.00     0.074 A 
ATOM     51  C   UNL A   1      42.778  28.866  35.747  1.00  0.00     0.049 A 
ATOM     52  N   UNL A   1      44.334  29.695  38.208  1.00  0.00    -0.248 NA
ATOM     53  C   UNL A   1      45.502  27.676  38.072  1.00  0.00     0.031 C 
ATOM     54  C   UNL A   1      42.021  28.508  34.547  1.00  0.00     0.029 A 
ATOM     55  N   UNL A   1      42.327  30.117  36.072  1.00  0.00    -0.354 N 
ATOM     56  C   UNL A   1      45.267  29.628  39.237  1.00  0.00     0.074 A 
ATOM     57  C   UNL A   1      45.933  28.349  39.128  1.00  0.00     0.031 C 
ATOM     58  C   UNL A   1      41.189  29.519  34.242  1.00  0.00     0.029 A 
ATOM     59  C   UNL A   1      41.327  30.571  35.248  1.00  0.00     0.049 A 
ATOM     60  H   UNL A   1      42.686  30.641  36.825  1.00  0.00     0.167 HD
ATOM     61  C   UNL A   1      45.542  30.552  40.186  1.00  0.00     0.031 A 
ATOM     62  C   UNL A   1      40.591  31.696  35.318  1.00  0.00     0.031 A 
ATOM     63  C   UNL A   1      44.860  31.814  40.288  1.00  0.00     0.049 A 
ATOM     64  C   UNL A   1      40.861  32.674  36.432  1.00  0.00     0.074 A 
ATOM     65  C   UNL A   1      45.070  32.834  41.199  1.00  0.00     0.029 A 
ATOM     66  N   UNL A   1      43.828  32.224  39.456  1.00  0.00    -0.354 N 
ATOM     67  N   UNL A   1      41.760  32.612  37.386  1.00  0.00    -0.248 NA
ATOM     68  C   UNL A   1      40.019  33.877  36.475  1.00  0.00     0.031 C 
ATOM     69  C   UNL A   1      44.118  33.830  40.961  1.00  0.00     0.029 A 
ATOM     70  C   UNL A   1      43.367  33.467  39.854  1.00  0.00     0.049 A 
ATOM     71  H   UNL A   1      43.475  31.708  38.696  1.00  0.00     0.167 HD
ATOM     72  C   UNL A   1      41.617  33.785  38.121  1.00  0.00     0.074 A 
ATOM     73  C   UNL A   1      40.552  34.541  37.492  1.00  0.00     0.031 C 
ATOM     74  C   UNL A   1      42.305  34.203  39.212  1.00  0.00     0.031 A 
BRANCH  61  75
ATOM     75  C   UNL A   1      46.589  30.212  41.213  1.00  0.00    -0.014 A 
ATOM     76  C   UNL A   1      47.923  30.635  41.072  1.00  0.00     0.010 A 
ATOM     77  C   UNL A   1      46.221  29.485  42.360  1.00  0.00     0.010 A 
ATOM     78  C   UNL A   1      48.876  30.309  42.041  1.00  0.00     0.020 A 
ATOM     79  C   UNL A   1      47.164  29.184  43.347  1.00  0.00     0.020 A 
ATOM     80  C   UNL A   1      48.489  29.585  43.174  1.00  0.00     0.054 A 
BRANCH  80  81
ATOM     81  S   UNL A   1      49.739  29.205  44.431  1.00  0.00     0.124 S 
ATOM     82  O   UNL A   1      50.334  27.979  43.904  1.00  0.00    -0.237 OA
ATOM     83  O   UNL A   1      50.598  30.386  44.395  1.00  0.00    -0.237 OA
ATOM     84  O   UNL A   1      48.961  29.041  45.658  1.00  0.00    -0.744 OA
ENDBRANCH  80  81
ENDBRANCH  61  75
BRANCH  62  85
ATOM     85  C   UNL A   1      39.518  31.948  34.319  1.00  0.00    -0.014 A 
ATOM     86  C   UNL A   1      39.798  32.628  33.121  1.00  0.00     0.010 A 
ATOM     87  C   UNL A   1      38.203  31.506  34.561  1.00  0.00     0.010 A 
ATOM     88  C   UNL A   1      38.782  32.879  32.194  1.00  0.00     0.020 A 
ATOM     89  C   UNL A   1      37.192  31.727  33.623  1.00  0.00     0.020 A 
ATOM     90  C   UNL A   1      37.486  32.424  32.450  1.00  0.00     0.054 A 
BRANCH  90  91
ATOM     91  S   UNL A   1      36.194  32.722  31.212  1.00  0.00     0.124 S 
ATOM     92  O   UNL A   1      36.937  32.599  29.961  1.00  0.00    -0.237 OA
ATOM     93  O   UNL A   1      35.240  31.653  31.492  1.00  0.00    -0.237 OA
ATOM     94  O   UNL A   1      35.721  34.068  31.529  1.00  0.00    -0.744 OA
ENDBRANCH  90  91
ENDBRANCH  62  85
BRANCH  74  95
ATOM     95  C   UNL A   1      41.962  35.559  39.774  1.00  0.00    -0.014 A 
ATOM     96  C   UNL A   1      42.536  36.735  39.259  1.00  0.00     0.010 A 
ATOM     97  C   UNL A   1      41.000  35.656  40.797  1.00  0.00     0.010 A 
ATOM     98  C   UNL A   1      42.179  37.980  39.783  1.00  0.00     0.020 A 
ATOM     99  C   UNL A   1      40.615  36.901  41.298  1.00  0.00     0.020 A 
ATOM    100  C   UNL A   1      41.219  38.055  40.797  1.00  0.00     0.054 A 
BRANCH 100 101
ATOM    101  S   UNL A   1      40.742  39.688  41.426  1.00  0.00     0.124 S 
ATOM    102  O   UNL A   1      41.820  39.978  42.367  1.00  0.00    -0.237 OA
ATOM    103  O   UNL A   1      40.727  40.504  40.215  1.00  0.00    -0.237 OA
ATOM    104  O   UNL A   1      39.432  39.457  42.032  1.00  0.00    -0.744 OA
ENDBRANCH 100 101
ENDBRANCH  74  95
ENDBRANCH  48  49
ENDBRANCH  41  43
ENDBRANCH  40  41
ENDBRANCH  39  40
ENDBRANCH  38  39
ENDBRANCH  37  38
ENDBRANCH  36  37
ENDBRANCH  35  36
ENDBRANCH   1  35
TORSDOF 26
ENDMDL
MODEL 3
REMARK VINA RESULT:      -6.6      2.899      8.018
REMARK SMILES C[C@H](C(=O)OCCOCCOCCOCCOC(=O)c1ccc(-c2c3nc(c(-c4ccc(S(=O)(=O)[O-])cc4)c4ccc([nH]4)c(-c4ccc(S(=O)(=O)[O-])cc4)c4nc(c(-c5ccc(S(=O)(=O)[O-])cc5)c5ccc2[nH]5)C=C4)C=C3)cc1)c1ccc2c3cc(Cl)ccc3n(C(=O)c3ccc(Cl)cc3)c2c1
REMARK SMILES IDX 11 1 10 2 9 3 8 4 7 5 6 6 5 7 3 8 4 9 2 10 1 11 80 12 81 13
REMARK SMILES IDX 102 14 82 15 101 16 83 17 91 18 84 19 90 20 85 21 89 22
REMARK SMILES IDX 86 23 88 24 87 25 92 26 93 27 94 28 95 29 100 30 96 31 99 32
REMARK SMILES IDX 97 33 98 34 12 35 13 36 14 37 15 38 16 39 17 40 18 41 19 42
REMARK SMILES IDX 20 43 21 44 79 45 22 46 78 47 23 48 24 49 25 50 72 51 26 52
REMARK SMILES IDX 77 53 71 54 73 55 27 56 76 57 70 58 69 59 28 61 58 62 39 63
REMARK SMILES IDX 57 64 40 65 43 66 56 67 74 68 41 69 42 70 55 72 75 73 44 74
REMARK SMILES IDX 29 75 30 76 38 77 31 78 37 79 32 80 33 81 34 82 35 83 36 84
REMARK SMILES IDX 59 85 60 86 68 87 61 88 67 89 62 90 63 91 64 92 65 93 66 94
REMARK SMILES IDX 45 95 46 96 54 97 47 98 53 99 48 100 49 101 50 102 51 103
REMARK SMILES IDX 52 104
REMARK H PARENT 73 60 43 71
REMARK Flexibility Score: inf
ROOT
ATOM      1  O   UNL A   1      45.467  27.274  29.737  1.00  0.00    -0.377 OA
ENDROOT
BRANCH   1   2
ATOM      2  C   UNL A   1      44.203  27.686  29.256  1.00  0.00     0.188 C 
BRANCH   2   3
ATOM      3  C   UNL A   1      43.305  28.259  30.352  1.00  0.00     0.188 C 
BRANCH   3   4
ATOM      4  O   UNL A   1      42.307  29.186  29.944  1.00  0.00    -0.376 OA
BRANCH   4   5
ATOM      5  C   UNL A   1      40.949  28.734  29.912  1.00  0.00     0.202 C 
BRANCH   5   6
ATOM      6  C   UNL A   1      40.669  27.222  30.010  1.00  0.00     0.261 C 
BRANCH   6   7
ATOM      7  O   UNL A   1      40.510  26.560  28.736  1.00  0.00    -0.463 OA
BRANCH   7   8
ATOM      8  C   UNL A   1      39.932  27.270  27.732  1.00  0.00     0.313 C 
ATOM      9  O   UNL A   1      38.835  27.820  27.821  1.00  0.00    -0.252 OA
BRANCH   8  10
ATOM     10  C   UNL A   1      40.793  27.424  26.486  1.00  0.00     0.126 C 
ATOM     11  C   UNL A   1      41.514  28.772  26.435  1.00  0.00     0.025 C 
BRANCH  10  12
ATOM     12  C   UNL A   1      41.672  26.241  26.119  1.00  0.00    -0.032 A 
ATOM     13  C   UNL A   1      42.769  26.287  25.256  1.00  0.00     0.005 A 
ATOM     14  C   UNL A   1      41.292  25.005  26.648  1.00  0.00     0.032 A 
ATOM     15  C   UNL A   1      43.555  25.147  25.006  1.00  0.00     0.011 A 
ATOM     16  C   UNL A   1      41.969  23.848  26.244  1.00  0.00     0.057 A 
ATOM     17  C   UNL A   1      43.147  23.900  25.525  1.00  0.00     0.008 A 
ATOM     18  N   UNL A   1      41.596  22.516  26.403  1.00  0.00    -0.276 N 
ATOM     19  C   UNL A   1      43.656  22.572  25.489  1.00  0.00     0.009 A 
ATOM     20  C   UNL A   1      42.638  21.711  25.941  1.00  0.00     0.057 A 
ATOM     21  C   UNL A   1      44.876  22.030  25.032  1.00  0.00     0.031 A 
ATOM     22  C   UNL A   1      42.754  20.319  25.771  1.00  0.00     0.029 A 
ATOM     23  C   UNL A   1      45.017  20.647  24.947  1.00  0.00     0.041 A 
ATOM     24  C   UNL A   1      43.960  19.806  25.272  1.00  0.00     0.023 A 
ATOM     25  Cl  UNL A   1      46.502  19.983  24.383  1.00  0.00    -0.084 Cl
BRANCH  18  26
ATOM     26  C   UNL A   1      40.276  22.176  26.779  1.00  0.00     0.262 C 
ATOM     27  O   UNL A   1      40.160  21.745  27.931  1.00  0.00    -0.268 OA
BRANCH  26  28
ATOM     28  C   UNL A   1      39.030  22.184  25.970  1.00  0.00     0.040 A 
ATOM     29  C   UNL A   1      38.331  23.412  25.919  1.00  0.00     0.015 A 
ATOM     30  C   UNL A   1      38.459  21.063  25.368  1.00  0.00     0.015 A 
ATOM     31  C   UNL A   1      37.112  23.529  25.257  1.00  0.00     0.021 A 
ATOM     32  C   UNL A   1      37.242  21.188  24.677  1.00  0.00     0.021 A 
ATOM     33  C   UNL A   1      36.577  22.416  24.624  1.00  0.00     0.041 A 
ATOM     34  Cl  UNL A   1      35.082  22.560  23.787  1.00  0.00    -0.084 Cl
ENDBRANCH  26  28
ENDBRANCH  18  26
ENDBRANCH  10  12
ENDBRANCH   8  10
ENDBRANCH   7   8
ENDBRANCH   6   7
ENDBRANCH   5   6
ENDBRANCH   4   5
ENDBRANCH   3   4
ENDBRANCH   2   3
ENDBRANCH   1   2
BRANCH   1  35
ATOM     35  C   UNL A   1      45.598  25.991  30.341  1.00  0.00     0.188 C 
BRANCH  35  36
ATOM     36  C   UNL A   1      44.729  24.864  29.771  1.00  0.00     0.188 C 
BRANCH  36  37
ATOM     37  O   UNL A   1      44.852  24.534  28.380  1.00  0.00    -0.376 OA
BRANCH  37  38
ATOM     38  C   UNL A   1      46.111  24.121  27.857  1.00  0.00     0.202 C 
BRANCH  38  39
ATOM     39  C   UNL A   1      46.915  25.180  27.102  1.00  0.00     0.261 C 
BRANCH  39  40
ATOM     40  O   UNL A   1      47.823  25.897  27.945  1.00  0.00    -0.460 OA
BRANCH  40  41
ATOM     41  C   UNL A   1      48.887  26.426  27.301  1.00  0.00     0.338 C 
ATOM     42  O   UNL A   1      49.709  25.836  26.613  1.00  0.00    -0.246 OA
BRANCH  41  43
ATOM     43  C   UNL A   1      48.844  27.889  27.430  1.00  0.00     0.060 A 
ATOM     44  C   UNL A   1      49.493  28.488  28.517  1.00  0.00     0.016 A 
ATOM     45  C   UNL A   1      48.102  28.654  26.527  1.00  0.00     0.016 A 
ATOM     46  C   UNL A   1      49.363  29.855  28.733  1.00  0.00     0.010 A 
ATOM     47  C   UNL A   1      47.955  30.019  26.756  1.00  0.00     0.010 A 
ATOM     48  C   UNL A   1      48.549  30.611  27.884  1.00  0.00    -0.014 A 
BRANCH  48  49
ATOM     49  C   UNL A   1      48.148  31.973  28.288  1.00  0.00     0.031 A 
ATOM     50  C   UNL A   1      46.842  32.145  29.012  1.00  0.00     0.074 A 
ATOM     51  C   UNL A   1      48.939  33.027  28.024  1.00  0.00     0.049 A 
ATOM     52  N   UNL A   1      46.252  33.241  29.405  1.00  0.00    -0.248 NA
ATOM     53  C   UNL A   1      46.101  30.911  29.332  1.00  0.00     0.031 C 
ATOM     54  C   UNL A   1      50.249  32.961  27.377  1.00  0.00     0.029 A 
ATOM     55  N   UNL A   1      48.745  34.361  28.262  1.00  0.00    -0.354 N 
ATOM     56  C   UNL A   1      45.063  32.835  29.999  1.00  0.00     0.074 A 
ATOM     57  C   UNL A   1      45.003  31.394  29.895  1.00  0.00     0.031 C 
ATOM     58  C   UNL A   1      50.738  34.208  27.261  1.00  0.00     0.029 A 
ATOM     59  C   UNL A   1      49.758  35.156  27.787  1.00  0.00     0.049 A 
ATOM     60  H   UNL A   1      47.954  34.716  28.730  1.00  0.00     0.167 HD
ATOM     61  C   UNL A   1      44.109  33.598  30.580  1.00  0.00     0.031 A 
ATOM     62  C   UNL A   1      49.865  36.498  27.757  1.00  0.00     0.031 A 
ATOM     63  C   UNL A   1      44.178  35.031  30.663  1.00  0.00     0.049 A 
ATOM     64  C   UNL A   1      48.751  37.330  28.338  1.00  0.00     0.074 A 
ATOM     65  C   UNL A   1      43.276  35.904  31.246  1.00  0.00     0.029 A 
ATOM     66  N   UNL A   1      45.204  35.805  30.139  1.00  0.00    -0.354 N 
ATOM     67  N   UNL A   1      47.641  36.935  28.918  1.00  0.00    -0.248 NA
ATOM     68  C   UNL A   1      48.907  38.788  28.265  1.00  0.00     0.031 C 
ATOM     69  C   UNL A   1      43.722  37.209  31.013  1.00  0.00     0.029 A 
ATOM     70  C   UNL A   1      44.940  37.146  30.354  1.00  0.00     0.049 A 
ATOM     71  H   UNL A   1      46.000  35.452  29.681  1.00  0.00     0.167 HD
ATOM     72  C   UNL A   1      46.984  38.097  29.312  1.00  0.00     0.074 A 
ATOM     73  C   UNL A   1      47.828  39.206  28.913  1.00  0.00     0.031 C 
ATOM     74  C   UNL A   1      45.796  38.236  29.949  1.00  0.00     0.031 A 
BRANCH  61  75
ATOM     75  C   UNL A   1      42.891  32.901  31.126  1.00  0.00    -0.014 A 
ATOM     76  C   UNL A   1      42.903  32.276  32.386  1.00  0.00     0.010 A 
ATOM     77  C   UNL A   1      41.699  32.904  30.377  1.00  0.00     0.010 A 
ATOM     78  C   UNL A   1      41.757  31.638  32.871  1.00  0.00     0.020 A 
ATOM     79  C   UNL A   1      40.543  32.295  30.872  1.00  0.00     0.020 A 
ATOM     80  C   UNL A   1      40.584  31.652  32.110  1.00  0.00     0.054 A 
BRANCH  80  81
ATOM     81  S   UNL A   1      39.104  30.846  32.780  1.00  0.00     0.124 S 
ATOM     82  O   UNL A   1      39.682  29.892  33.724  1.00  0.00    -0.237 OA
ATOM     83  O   UNL A   1      38.376  31.962  33.380  1.00  0.00    -0.237 OA
ATOM     84  O   UNL A   1      38.469  30.252  31.605  1.00  0.00    -0.744 OA
ENDBRANCH  80  81
ENDBRANCH  61  75
BRANCH  62  85
ATOM     85  C   UNL A   1      51.058  37.137  27.139  1.00  0.00    -0.014 A 
ATOM     86  C   UNL A   1      51.155  37.279  25.745  1.00  0.00     0.010 A 
ATOM     87  C   UNL A   1      52.109  37.611  27.948  1.00  0.00     0.010 A 
ATOM     88  C   UNL A   1      52.287  37.862  25.168  1.00  0.00     0.020 A 
ATOM     89  C   UNL A   1      53.227  38.224  27.378  1.00  0.00     0.020 A 
ATOM     90  C   UNL A   1      53.314  38.334  25.990  1.00  0.00     0.054 A 
BRANCH  90  91
ATOM     91  S   UNL A   1      54.753  39.128  25.221  1.00  0.00     0.124 S 
ATOM     92  O   UNL A   1      54.655  40.493  25.730  1.00  0.00    -0.237 OA
ATOM     93  O   UNL A   1      55.863  38.335  25.742  1.00  0.00    -0.237 OA
ATOM     94  O   UNL A   1      54.504  38.975  23.790  1.00  0.00    -0.744 OA
ENDBRANCH  90  91
ENDBRANCH  62  85
BRANCH  74  95
ATOM     95  C   UNL A   1      45.352  39.633  30.298  1.00  0.00    -0.014 A 
ATOM     96  C   UNL A   1      44.531  40.380  29.435  1.00  0.00     0.010 A 
ATOM     97  C   UNL A   1      45.719  40.181  31.542  1.00  0.00     0.010 A 
ATOM     98  C   UNL A   1      44.114  41.664  29.796  1.00  0.00     0.020 A 
ATOM     99  C   UNL A   1      45.274  41.449  31.921  1.00  0.00     0.020 A 
ATOM    100  C   UNL A   1      44.486  42.189  31.038  1.00  0.00     0.054 A 
BRANCH 100 101
ATOM    101  S   UNL A   1      43.893  43.840  31.500  1.00  0.00     0.124 S 
ATOM    102  O   UNL A   1      44.983  44.331  32.339  1.00  0.00    -0.237 OA
ATOM    103  O   UNL A   1      43.748  44.500  30.205  1.00  0.00    -0.237 OA
ATOM    104  O   UNL A   1      42.639  43.574  32.201  1.00  0.00    -0.744 OA
ENDBRANCH 100 101
ENDBRANCH  74  95
ENDBRANCH  48  49
ENDBRANCH  41  43
ENDBRANCH  40  41
ENDBRANCH  39  40
ENDBRANCH  38  39
ENDBRANCH  37  38
ENDBRANCH  36  37
ENDBRANCH  35  36
ENDBRANCH   1  35
TORSDOF 26
ENDMDL
