MODEL 1
REMARK VINA RESULT:      -7.6      0.000      0.000
REMARK SMILES COc1cccc(/C=C2/C(=O)N(c3cccc(C(=O)OCCOCCOCCOCCOC(=O)c4ccc(-c5c6nc(c(-c7ccc(S(=O)(=O)[O-])cc7)c7ccc([nH]7)c(-c7ccc(S(=O)(=O)[O-])cc7)c7nc(c(-c8ccc(S(=O)(=O)[O-])cc8)c8ccc5[nH]8)C=C7)C=C6)cc4)c3)N=C2C)c1
REMARK SMILES IDX 26 1 25 2 24 3 23 4 22 5 21 6 20 7 18 8 19 9 17 10 13 11
REMARK SMILES IDX 14 12 95 13 15 14 16 15 12 16 8 17 9 18 10 19 97 20 11 21
REMARK SMILES IDX 96 22 98 23 7 24 3 25 4 26 99 27 5 28 6 29 2 30 1 31 27 32
REMARK SMILES IDX 28 33 29 34 30 35 31 36 32 37 33 38 34 39 35 40 36 41 94 42
REMARK SMILES IDX 37 43 93 44 38 45 39 46 40 47 87 48 41 49 92 50 86 51 88 52
REMARK SMILES IDX 42 53 91 54 85 55 84 56 43 58 73 59 54 60 72 61 55 62 58 63
REMARK SMILES IDX 71 64 89 65 56 66 57 67 70 69 90 70 59 71 44 72 45 73 53 74
REMARK SMILES IDX 46 75 52 76 47 77 48 78 49 79 50 80 51 81 74 82 75 83 83 84
REMARK SMILES IDX 76 85 82 86 77 87 78 88 79 89 80 90 81 91 60 92 61 93 69 94
REMARK SMILES IDX 62 95 68 96 63 97 64 98 65 99 66 100 67 101
REMARK H PARENT 88 57 58 68
REMARK Flexibility Score: inf
ROOT
ATOM      1  O   UNL A   1      44.488  21.106  23.789  1.00  0.00    -0.377 OA
ENDROOT
BRANCH   1   2
ATOM      2  C   UNL A   1      44.645  20.543  25.082  1.00  0.00     0.188 C 
BRANCH   2   3
ATOM      3  C   UNL A   1      43.428  20.415  26.025  1.00  0.00     0.188 C 
BRANCH   3   4
ATOM      4  O   UNL A   1      42.303  21.176  25.631  1.00  0.00    -0.376 OA
BRANCH   4   5
ATOM      5  C   UNL A   1      41.108  21.099  26.384  1.00  0.00     0.202 C 
BRANCH   5   6
ATOM      6  C   UNL A   1      40.568  22.352  27.088  1.00  0.00     0.261 C 
BRANCH   6   7
ATOM      7  O   UNL A   1      39.957  23.339  26.249  1.00  0.00    -0.460 OA
BRANCH   7   8
ATOM      8  C   UNL A   1      39.164  24.267  26.831  1.00  0.00     0.338 C 
ATOM      9  O   UNL A   1      38.126  24.073  27.436  1.00  0.00    -0.246 OA
BRANCH   8  10
ATOM     10  C   UNL A   1      39.931  25.537  26.836  1.00  0.00     0.062 A 
ATOM     11  C   UNL A   1      40.148  27.854  27.525  1.00  0.00     0.070 A 
ATOM     12  C   UNL A   1      41.107  28.044  26.520  1.00  0.00     0.028 A 
ATOM     13  C   UNL A   1      39.548  26.597  27.664  1.00  0.00     0.044 A 
ATOM     14  C   UNL A   1      41.525  26.974  25.724  1.00  0.00     0.003 A 
ATOM     15  C   UNL A   1      40.949  25.714  25.893  1.00  0.00     0.016 A 
BRANCH  11  16
ATOM     16  N   UNL A   1      39.803  28.910  28.392  1.00  0.00    -0.196 N 
ATOM     17  C   UNL A   1      40.203  31.224  31.019  1.00  0.00     0.024 C 
ATOM     18  C   UNL A   1      39.755  30.479  30.000  1.00  0.00     0.065 C 
ATOM     19  C   UNL A   1      40.566  29.366  29.470  1.00  0.00     0.280 C 
ATOM     20  C   UNL A   1      38.552  30.495  29.145  1.00  0.00     0.071 C 
ATOM     21  O   UNL A   1      41.666  29.020  29.881  1.00  0.00    -0.267 OA
ATOM     22  N   UNL A   1      38.614  29.603  28.190  1.00  0.00    -0.169 NA
ATOM     23  C   UNL A   1      37.377  31.398  29.326  1.00  0.00     0.069 C 
BRANCH  17  24
ATOM     24  C   UNL A   1      39.483  32.335  31.629  1.00  0.00    -0.021 A 
ATOM     25  C   UNL A   1      37.960  33.140  33.331  1.00  0.00     0.119 A 
ATOM     26  C   UNL A   1      37.991  34.405  32.739  1.00  0.00     0.046 A 
ATOM     27  C   UNL A   1      38.723  32.112  32.783  1.00  0.00     0.054 A 
ATOM     28  C   UNL A   1      38.793  34.647  31.621  1.00  0.00     0.004 A 
ATOM     29  C   UNL A   1      39.538  33.611  31.062  1.00  0.00     0.008 A 
BRANCH  25  30
ATOM     30  O   UNL A   1      37.116  33.015  34.400  1.00  0.00    -0.497 OA
ATOM     31  C   UNL A   1      37.612  33.476  35.653  1.00  0.00     0.278 C 
ENDBRANCH  25  30
ENDBRANCH  17  24
ENDBRANCH  11  16
ENDBRANCH   8  10
ENDBRANCH   7   8
ENDBRANCH   6   7
ENDBRANCH   5   6
ENDBRANCH   4   5
ENDBRANCH   3   4
ENDBRANCH   2   3
ENDBRANCH   1   2
BRANCH   1  32
ATOM     32  C   UNL A   1      44.716  22.495  23.574  1.00  0.00     0.188 C 
BRANCH  32  33
ATOM     33  C   UNL A   1      45.686  23.298  24.472  1.00  0.00     0.188 C 
BRANCH  33  34
ATOM     34  O   UNL A   1      46.846  23.774  23.809  1.00  0.00    -0.376 OA
BRANCH  34  35
ATOM     35  C   UNL A   1      47.703  24.646  24.522  1.00  0.00     0.202 C 
BRANCH  35  36
ATOM     36  C   UNL A   1      47.061  25.833  25.254  1.00  0.00     0.261 C 
BRANCH  36  37
ATOM     37  O   UNL A   1      46.295  26.743  24.451  1.00  0.00    -0.460 OA
BRANCH  37  38
ATOM     38  C   UNL A   1      46.530  28.064  24.616  1.00  0.00     0.338 C 
ATOM     39  O   UNL A   1      46.857  28.864  23.759  1.00  0.00    -0.246 OA
BRANCH  38  40
ATOM     40  C   UNL A   1      46.137  28.412  25.998  1.00  0.00     0.060 A 
ATOM     41  C   UNL A   1      44.843  28.107  26.442  1.00  0.00     0.016 A 
ATOM     42  C   UNL A   1      47.055  29.019  26.856  1.00  0.00     0.016 A 
ATOM     43  C   UNL A   1      44.456  28.437  27.742  1.00  0.00     0.010 A 
ATOM     44  C   UNL A   1      46.659  29.368  28.149  1.00  0.00     0.010 A 
ATOM     45  C   UNL A   1      45.349  29.107  28.588  1.00  0.00    -0.014 A 
BRANCH  45  46
ATOM     46  C   UNL A   1      44.863  29.702  29.857  1.00  0.00     0.031 A 
ATOM     47  C   UNL A   1      44.376  31.126  29.836  1.00  0.00     0.074 A 
ATOM     48  C   UNL A   1      44.848  28.996  31.003  1.00  0.00     0.049 A 
ATOM     49  N   UNL A   1      43.965  31.876  30.824  1.00  0.00    -0.248 NA
ATOM     50  C   UNL A   1      44.356  31.794  28.523  1.00  0.00     0.031 C 
ATOM     51  C   UNL A   1      45.251  27.598  31.143  1.00  0.00     0.029 A 
ATOM     52  N   UNL A   1      44.483  29.371  32.273  1.00  0.00    -0.354 N 
ATOM     53  C   UNL A   1      43.652  33.107  30.257  1.00  0.00     0.074 A 
ATOM     54  C   UNL A   1      43.944  33.011  28.843  1.00  0.00     0.031 C 
ATOM     55  C   UNL A   1      45.124  27.236  32.433  1.00  0.00     0.029 A 
ATOM     56  C   UNL A   1      44.669  28.385  33.214  1.00  0.00     0.049 A 
ATOM     57  H   UNL A   1      44.123  30.261  32.490  1.00  0.00     0.167 HD
ATOM     58  C   UNL A   1      43.163  34.216  30.859  1.00  0.00     0.031 A 
ATOM     59  C   UNL A   1      44.516  28.417  34.554  1.00  0.00     0.031 A 
ATOM     60  C   UNL A   1      42.885  34.309  32.267  1.00  0.00     0.049 A 
ATOM     61  C   UNL A   1      44.040  29.688  35.212  1.00  0.00     0.074 A 
ATOM     62  C   UNL A   1      42.365  35.382  32.969  1.00  0.00     0.029 A 
ATOM     63  N   UNL A   1      43.112  33.299  33.189  1.00  0.00    -0.354 N 
ATOM     64  N   UNL A   1      43.717  30.834  34.659  1.00  0.00    -0.248 NA
ATOM     65  C   UNL A   1      43.901  29.669  36.675  1.00  0.00     0.031 C 
ATOM     66  C   UNL A   1      42.346  35.046  34.326  1.00  0.00     0.029 A 
ATOM     67  C   UNL A   1      42.776  33.736  34.459  1.00  0.00     0.049 A 
ATOM     68  H   UNL A   1      43.460  32.404  32.973  1.00  0.00     0.167 HD
ATOM     69  C   UNL A   1      43.304  31.657  35.703  1.00  0.00     0.074 A 
ATOM     70  C   UNL A   1      43.404  30.874  36.917  1.00  0.00     0.031 C 
ATOM     71  C   UNL A   1      42.878  32.945  35.660  1.00  0.00     0.031 A 
BRANCH  58  72
ATOM     72  C   UNL A   1      42.937  35.436  30.005  1.00  0.00    -0.014 A 
ATOM     73  C   UNL A   1      43.758  36.573  30.116  1.00  0.00     0.010 A 
ATOM     74  C   UNL A   1      41.919  35.420  29.034  1.00  0.00     0.010 A 
ATOM     75  C   UNL A   1      43.548  37.680  29.289  1.00  0.00     0.020 A 
ATOM     76  C   UNL A   1      41.724  36.513  28.185  1.00  0.00     0.020 A 
ATOM     77  C   UNL A   1      42.534  37.641  28.327  1.00  0.00     0.054 A 
BRANCH  77  78
ATOM     78  S   UNL A   1      42.314  39.075  27.237  1.00  0.00     0.124 S 
ATOM     79  O   UNL A   1      42.010  40.137  28.194  1.00  0.00    -0.237 OA
ATOM     80  O   UNL A   1      43.614  39.176  26.578  1.00  0.00    -0.237 OA
ATOM     81  O   UNL A   1      41.205  38.686  26.370  1.00  0.00    -0.744 OA
ENDBRANCH  77  78
ENDBRANCH  58  72
BRANCH  59  82
ATOM     82  C   UNL A   1      44.849  27.217  35.374  1.00  0.00    -0.014 A 
ATOM     83  C   UNL A   1      46.168  26.973  35.796  1.00  0.00     0.010 A 
ATOM     84  C   UNL A   1      43.842  26.298  35.722  1.00  0.00     0.010 A 
ATOM     85  C   UNL A   1      46.477  25.819  36.526  1.00  0.00     0.020 A 
ATOM     86  C   UNL A   1      44.141  25.163  36.481  1.00  0.00     0.020 A 
ATOM     87  C   UNL A   1      45.460  24.924  36.866  1.00  0.00     0.054 A 
BRANCH  87  88
ATOM     88  S   UNL A   1      45.879  23.455  37.846  1.00  0.00     0.124 S 
ATOM     89  O   UNL A   1      47.311  23.631  38.060  1.00  0.00    -0.237 OA
ATOM     90  O   UNL A   1      45.037  23.617  39.028  1.00  0.00    -0.237 OA
ATOM     91  O   UNL A   1      45.507  22.343  36.973  1.00  0.00    -0.744 OA
ENDBRANCH  87  88
ENDBRANCH  59  82
BRANCH  71  92
ATOM     92  C   UNL A   1      42.441  33.582  36.955  1.00  0.00    -0.014 A 
ATOM     93  C   UNL A   1      43.333  34.325  37.749  1.00  0.00     0.010 A 
ATOM     94  C   UNL A   1      41.093  33.486  37.351  1.00  0.00     0.010 A 
ATOM     95  C   UNL A   1      42.893  34.930  38.930  1.00  0.00     0.020 A 
ATOM     96  C   UNL A   1      40.642  34.116  38.513  1.00  0.00     0.020 A 
ATOM     97  C   UNL A   1      41.549  34.822  39.304  1.00  0.00     0.054 A 
BRANCH  97  98
ATOM     98  S   UNL A   1      40.997  35.652  40.819  1.00  0.00     0.124 S 
ATOM     99  O   UNL A   1      42.215  36.325  41.259  1.00  0.00    -0.237 OA
ATOM    100  O   UNL A   1      39.934  36.530  40.334  1.00  0.00    -0.237 OA
ATOM    101  O   UNL A   1      40.548  34.554  41.673  1.00  0.00    -0.744 OA
ENDBRANCH  97  98
ENDBRANCH  71  92
ENDBRANCH  45  46
ENDBRANCH  38  40
ENDBRANCH  37  38
ENDBRANCH  36  37
ENDBRANCH  35  36
ENDBRANCH  34  35
ENDBRANCH  33  34
ENDBRANCH  32  33
ENDBRANCH   1  32
TORSDOF 26
ENDMDL
MODEL 2
REMARK VINA RESULT:      -7.5      4.657      7.480
REMARK SMILES COc1cccc(/C=C2/C(=O)N(c3cccc(C(=O)OCCOCCOCCOCCOC(=O)c4ccc(-c5c6nc(c(-c7ccc(S(=O)(=O)[O-])cc7)c7ccc([nH]7)c(-c7ccc(S(=O)(=O)[O-])cc7)c7nc(c(-c8ccc(S(=O)(=O)[O-])cc8)c8ccc5[nH]8)C=C7)C=C6)cc4)c3)N=C2C)c1
REMARK SMILES IDX 26 1 25 2 24 3 23 4 22 5 21 6 20 7 18 8 19 9 17 10 13 11
REMARK SMILES IDX 14 12 95 13 15 14 16 15 12 16 8 17 9 18 10 19 97 20 11 21
REMARK SMILES IDX 96 22 98 23 7 24 3 25 4 26 99 27 5 28 6 29 2 30 1 31 27 32
REMARK SMILES IDX 28 33 29 34 30 35 31 36 32 37 33 38 34 39 35 40 36 41 94 42
REMARK SMILES IDX 37 43 93 44 38 45 39 46 40 47 87 48 41 49 92 50 86 51 88 52
REMARK SMILES IDX 42 53 91 54 85 55 84 56 43 58 73 59 54 60 72 61 55 62 58 63
REMARK SMILES IDX 71 64 89 65 56 66 57 67 70 69 90 70 59 71 44 72 45 73 53 74
REMARK SMILES IDX 46 75 52 76 47 77 48 78 49 79 50 80 51 81 74 82 75 83 83 84
REMARK SMILES IDX 76 85 82 86 77 87 78 88 79 89 80 90 81 91 60 92 61 93 69 94
REMARK SMILES IDX 62 95 68 96 63 97 64 98 65 99 66 100 67 101
REMARK H PARENT 88 57 58 68
REMARK Flexibility Score: inf
ROOT
ATOM      1  O   UNL A   1      45.322  23.638  23.891  1.00  0.00    -0.377 OA
ENDROOT
BRANCH   1   2
ATOM      2  C   UNL A   1      44.986  22.276  24.103  1.00  0.00     0.188 C 
BRANCH   2   3
ATOM      3  C   UNL A   1      43.937  21.894  25.171  1.00  0.00     0.188 C 
BRANCH   3   4
ATOM      4  O   UNL A   1      42.686  22.536  25.017  1.00  0.00    -0.376 OA
BRANCH   4   5
ATOM      5  C   UNL A   1      42.300  23.543  25.931  1.00  0.00     0.202 C 
BRANCH   5   6
ATOM      6  C   UNL A   1      41.187  23.262  26.951  1.00  0.00     0.261 C 
BRANCH   6   7
ATOM      7  O   UNL A   1      39.977  22.699  26.432  1.00  0.00    -0.460 OA
BRANCH   7   8
ATOM      8  C   UNL A   1      39.911  21.355  26.286  1.00  0.00     0.338 C 
ATOM      9  O   UNL A   1      40.653  20.525  26.776  1.00  0.00    -0.246 OA
BRANCH   8  10
ATOM     10  C   UNL A   1      38.605  21.063  25.645  1.00  0.00     0.062 A 
ATOM     11  C   UNL A   1      36.325  21.720  25.135  1.00  0.00     0.070 A 
ATOM     12  C   UNL A   1      36.026  20.383  24.836  1.00  0.00     0.028 A 
ATOM     13  C   UNL A   1      37.618  22.049  25.560  1.00  0.00     0.044 A 
ATOM     14  C   UNL A   1      37.024  19.405  24.875  1.00  0.00     0.003 A 
ATOM     15  C   UNL A   1      38.320  19.748  25.264  1.00  0.00     0.016 A 
BRANCH  11  16
ATOM     16  N   UNL A   1      35.342  22.720  24.997  1.00  0.00    -0.196 N 
ATOM     17  C   UNL A   1      32.640  24.778  25.938  1.00  0.00     0.024 C 
ATOM     18  C   UNL A   1      33.634  24.150  25.295  1.00  0.00     0.065 C 
ATOM     19  C   UNL A   1      34.357  23.034  25.936  1.00  0.00     0.280 C 
ATOM     20  C   UNL A   1      34.302  24.316  23.990  1.00  0.00     0.071 C 
ATOM     21  O   UNL A   1      34.137  22.584  27.053  1.00  0.00    -0.267 OA
ATOM     22  N   UNL A   1      35.318  23.504  23.849  1.00  0.00    -0.169 NA
ATOM     23  C   UNL A   1      33.886  25.276  22.925  1.00  0.00     0.069 C 
BRANCH  17  24
ATOM     24  C   UNL A   1      31.853  25.878  25.398  1.00  0.00    -0.021 A 
ATOM     25  C   UNL A   1      31.469  28.262  25.204  1.00  0.00     0.119 A 
ATOM     26  C   UNL A   1      30.297  27.999  24.490  1.00  0.00     0.046 A 
ATOM     27  C   UNL A   1      32.254  27.197  25.640  1.00  0.00     0.054 A 
ATOM     28  C   UNL A   1      29.923  26.686  24.195  1.00  0.00     0.004 A 
ATOM     29  C   UNL A   1      30.699  25.623  24.652  1.00  0.00     0.008 A 
BRANCH  25  30
ATOM     30  O   UNL A   1      31.715  29.582  25.460  1.00  0.00    -0.497 OA
ATOM     31  C   UNL A   1      33.048  29.912  25.843  1.00  0.00     0.278 C 
ENDBRANCH  25  30
ENDBRANCH  17  24
ENDBRANCH  11  16
ENDBRANCH   8  10
ENDBRANCH   7   8
ENDBRANCH   6   7
ENDBRANCH   5   6
ENDBRANCH   4   5
ENDBRANCH   3   4
ENDBRANCH   2   3
ENDBRANCH   1   2
BRANCH   1  32
ATOM     32  C   UNL A   1      45.683  24.472  24.987  1.00  0.00     0.188 C 
BRANCH  32  33
ATOM     33  C   UNL A   1      47.165  24.712  25.358  1.00  0.00     0.188 C 
BRANCH  33  34
ATOM     34  O   UNL A   1      47.569  24.126  26.585  1.00  0.00    -0.376 OA
BRANCH  34  35
ATOM     35  C   UNL A   1      48.413  24.882  27.432  1.00  0.00     0.202 C 
BRANCH  35  36
ATOM     36  C   UNL A   1      47.745  25.828  28.441  1.00  0.00     0.261 C 
BRANCH  36  37
ATOM     37  O   UNL A   1      46.709  25.266  29.259  1.00  0.00    -0.460 OA
BRANCH  37  38
ATOM     38  C   UNL A   1      45.431  25.490  28.882  1.00  0.00     0.338 C 
ATOM     39  O   UNL A   1      44.675  24.703  28.344  1.00  0.00    -0.246 OA
BRANCH  38  40
ATOM     40  C   UNL A   1      45.043  26.815  29.412  1.00  0.00     0.060 A 
ATOM     41  C   UNL A   1      44.207  27.642  28.651  1.00  0.00     0.016 A 
ATOM     42  C   UNL A   1      45.491  27.225  30.669  1.00  0.00     0.016 A 
ATOM     43  C   UNL A   1      43.839  28.898  29.136  1.00  0.00     0.010 A 
ATOM     44  C   UNL A   1      45.139  28.491  31.143  1.00  0.00     0.010 A 
ATOM     45  C   UNL A   1      44.338  29.346  30.366  1.00  0.00    -0.014 A 
BRANCH  45  46
ATOM     46  C   UNL A   1      44.181  30.768  30.756  1.00  0.00     0.031 A 
ATOM     47  C   UNL A   1      45.045  31.794  30.073  1.00  0.00     0.074 A 
ATOM     48  C   UNL A   1      43.289  31.145  31.691  1.00  0.00     0.049 A 
ATOM     49  N   UNL A   1      45.131  33.080  30.288  1.00  0.00    -0.248 NA
ATOM     50  C   UNL A   1      45.934  31.300  29.009  1.00  0.00     0.031 C 
ATOM     51  C   UNL A   1      42.366  30.254  32.391  1.00  0.00     0.029 A 
ATOM     52  N   UNL A   1      43.023  32.386  32.218  1.00  0.00    -0.354 N 
ATOM     53  C   UNL A   1      46.093  33.547  29.398  1.00  0.00     0.074 A 
ATOM     54  C   UNL A   1      46.579  32.403  28.659  1.00  0.00     0.031 C 
ATOM     55  C   UNL A   1      41.644  30.976  33.267  1.00  0.00     0.029 A 
ATOM     56  C   UNL A   1      42.079  32.371  33.217  1.00  0.00     0.049 A 
ATOM     57  H   UNL A   1      43.468  33.209  31.909  1.00  0.00     0.167 HD
ATOM     58  C   UNL A   1      46.530  34.814  29.212  1.00  0.00     0.031 A 
ATOM     59  C   UNL A   1      41.639  33.363  34.018  1.00  0.00     0.031 A 
ATOM     60  C   UNL A   1      46.050  35.947  29.959  1.00  0.00     0.049 A 
ATOM     61  C   UNL A   1      42.196  34.755  33.842  1.00  0.00     0.074 A 
ATOM     62  C   UNL A   1      46.413  37.275  29.828  1.00  0.00     0.029 A 
ATOM     63  N   UNL A   1      45.114  35.886  30.979  1.00  0.00    -0.354 N 
ATOM     64  N   UNL A   1      43.081  35.187  32.974  1.00  0.00    -0.248 NA
ATOM     65  C   UNL A   1      41.687  35.795  34.748  1.00  0.00     0.031 C 
ATOM     66  C   UNL A   1      45.751  38.007  30.818  1.00  0.00     0.029 A 
ATOM     67  C   UNL A   1      44.914  37.148  31.511  1.00  0.00     0.049 A 
ATOM     68  H   UNL A   1      44.659  35.066  31.281  1.00  0.00     0.167 HD
ATOM     69  C   UNL A   1      43.207  36.553  33.208  1.00  0.00     0.074 A 
ATOM     70  C   UNL A   1      42.298  36.878  34.288  1.00  0.00     0.031 C 
ATOM     71  C   UNL A   1      44.003  37.459  32.585  1.00  0.00     0.031 A 
BRANCH  58  72
ATOM     72  C   UNL A   1      47.612  35.040  28.190  1.00  0.00    -0.014 A 
ATOM     73  C   UNL A   1      48.966  35.124  28.560  1.00  0.00     0.010 A 
ATOM     74  C   UNL A   1      47.270  35.112  26.826  1.00  0.00     0.010 A 
ATOM     75  C   UNL A   1      49.955  35.303  27.588  1.00  0.00     0.020 A 
ATOM     76  C   UNL A   1      48.257  35.260  25.849  1.00  0.00     0.020 A 
ATOM     77  C   UNL A   1      49.593  35.366  26.238  1.00  0.00     0.054 A 
BRANCH  77  78
ATOM     78  S   UNL A   1      50.902  35.551  24.996  1.00  0.00     0.124 S 
ATOM     79  O   UNL A   1      50.956  34.212  24.413  1.00  0.00    -0.237 OA
ATOM     80  O   UNL A   1      50.368  36.595  24.124  1.00  0.00    -0.237 OA
ATOM     81  O   UNL A   1      52.074  35.934  25.779  1.00  0.00    -0.744 OA
ENDBRANCH  77  78
ENDBRANCH  58  72
BRANCH  59  82
ATOM     82  C   UNL A   1      40.641  33.076  35.087  1.00  0.00    -0.014 A 
ATOM     83  C   UNL A   1      41.050  32.803  36.404  1.00  0.00     0.010 A 
ATOM     84  C   UNL A   1      39.267  33.054  34.783  1.00  0.00     0.010 A 
ATOM     85  C   UNL A   1      40.107  32.489  37.390  1.00  0.00     0.020 A 
ATOM     86  C   UNL A   1      38.319  32.775  35.772  1.00  0.00     0.020 A 
ATOM     87  C   UNL A   1      38.748  32.480  37.067  1.00  0.00     0.054 A 
BRANCH  87  88
ATOM     88  S   UNL A   1      37.541  32.107  38.370  1.00  0.00     0.124 S 
ATOM     89  O   UNL A   1      37.237  30.705  38.111  1.00  0.00    -0.237 OA
ATOM     90  O   UNL A   1      38.301  32.378  39.587  1.00  0.00    -0.237 OA
ATOM     91  O   UNL A   1      36.450  33.044  38.105  1.00  0.00    -0.744 OA
ENDBRANCH  87  88
ENDBRANCH  59  82
BRANCH  71  92
ATOM     92  C   UNL A   1      43.899  38.899  33.017  1.00  0.00    -0.014 A 
ATOM     93  C   UNL A   1      43.119  39.828  32.306  1.00  0.00     0.010 A 
ATOM     94  C   UNL A   1      44.546  39.313  34.197  1.00  0.00     0.010 A 
ATOM     95  C   UNL A   1      43.016  41.151  32.748  1.00  0.00     0.020 A 
ATOM     96  C   UNL A   1      44.420  40.625  34.659  1.00  0.00     0.020 A 
ATOM     97  C   UNL A   1      43.667  41.541  33.923  1.00  0.00     0.054 A 
BRANCH  97  98
ATOM     98  S   UNL A   1      43.484  43.252  34.495  1.00  0.00     0.124 S 
ATOM     99  O   UNL A   1      42.396  43.134  35.462  1.00  0.00    -0.237 OA
ATOM    100  O   UNL A   1      44.798  43.543  35.061  1.00  0.00    -0.237 OA
ATOM    101  O   UNL A   1      43.157  43.992  33.278  1.00  0.00    -0.744 OA
ENDBRANCH  97  98
ENDBRANCH  71  92
ENDBRANCH  45  46
ENDBRANCH  38  40
ENDBRANCH  37  38
ENDBRANCH  36  37
ENDBRANCH  35  36
ENDBRANCH  34  35
ENDBRANCH  33  34
ENDBRANCH  32  33
ENDBRANCH   1  32
TORSDOF 26
ENDMDL
MODEL 3
REMARK VINA RESULT:      -6.3      4.834     11.501
REMARK SMILES COc1cccc(/C=C2/C(=O)N(c3cccc(C(=O)OCCOCCOCCOCCOC(=O)c4ccc(-c5c6nc(c(-c7ccc(S(=O)(=O)[O-])cc7)c7ccc([nH]7)c(-c7ccc(S(=O)(=O)[O-])cc7)c7nc(c(-c8ccc(S(=O)(=O)[O-])cc8)c8ccc5[nH]8)C=C7)C=C6)cc4)c3)N=C2C)c1
REMARK SMILES IDX 26 1 25 2 24 3 23 4 22 5 21 6 20 7 18 8 19 9 17 10 13 11
REMARK SMILES IDX 14 12 95 13 15 14 16 15 12 16 8 17 9 18 10 19 97 20 11 21
REMARK SMILES IDX 96 22 98 23 7 24 3 25 4 26 99 27 5 28 6 29 2 30 1 31 27 32
REMARK SMILES IDX 28 33 29 34 30 35 31 36 32 37 33 38 34 39 35 40 36 41 94 42
REMARK SMILES IDX 37 43 93 44 38 45 39 46 40 47 87 48 41 49 92 50 86 51 88 52
REMARK SMILES IDX 42 53 91 54 85 55 84 56 43 58 73 59 54 60 72 61 55 62 58 63
REMARK SMILES IDX 71 64 89 65 56 66 57 67 70 69 90 70 59 71 44 72 45 73 53 74
REMARK SMILES IDX 46 75 52 76 47 77 48 78 49 79 50 80 51 81 74 82 75 83 83 84
REMARK SMILES IDX 76 85 82 86 77 87 78 88 79 89 80 90 81 91 60 92 61 93 69 94
REMARK SMILES IDX 62 95 68 96 63 97 64 98 65 99 66 100 67 101
REMARK H PARENT 88 57 58 68
REMARK Flexibility Score: inf
ROOT
ATOM      1  O   UNL A   1      34.820  32.598  29.297  1.00  0.00    -0.377 OA
ENDROOT
BRANCH   1   2
ATOM      2  C   UNL A   1      35.790  31.670  28.837  1.00  0.00     0.188 C 
BRANCH   2   3
ATOM      3  C   UNL A   1      37.219  31.689  29.423  1.00  0.00     0.188 C 
BRANCH   3   4
ATOM      4  O   UNL A   1      37.412  32.631  30.460  1.00  0.00    -0.376 OA
BRANCH   4   5
ATOM      5  C   UNL A   1      38.682  32.747  31.072  1.00  0.00     0.202 C 
BRANCH   5   6
ATOM      6  C   UNL A   1      39.079  34.059  31.763  1.00  0.00     0.261 C 
BRANCH   6   7
ATOM      7  O   UNL A   1      40.356  34.602  31.411  1.00  0.00    -0.460 OA
BRANCH   7   8
ATOM      8  C   UNL A   1      41.293  34.710  32.381  1.00  0.00     0.338 C 
ATOM      9  O   UNL A   1      41.161  35.226  33.476  1.00  0.00    -0.246 OA
BRANCH   8  10
ATOM     10  C   UNL A   1      42.425  33.843  31.975  1.00  0.00     0.062 A 
ATOM     11  C   UNL A   1      43.239  31.794  30.959  1.00  0.00     0.070 A 
ATOM     12  C   UNL A   1      44.478  31.999  31.583  1.00  0.00     0.028 A 
ATOM     13  C   UNL A   1      42.207  32.715  31.178  1.00  0.00     0.044 A 
ATOM     14  C   UNL A   1      44.712  33.150  32.340  1.00  0.00     0.003 A 
ATOM     15  C   UNL A   1      43.690  34.082  32.524  1.00  0.00     0.016 A 
BRANCH  11  16
ATOM     16  N   UNL A   1      43.039  30.685  30.114  1.00  0.00    -0.196 N 
ATOM     17  C   UNL A   1      43.325  28.721  27.202  1.00  0.00     0.024 C 
ATOM     18  C   UNL A   1      43.022  29.224  28.406  1.00  0.00     0.065 C 
ATOM     19  C   UNL A   1      43.476  30.574  28.792  1.00  0.00     0.280 C 
ATOM     20  C   UNL A   1      42.312  28.722  29.599  1.00  0.00     0.071 C 
ATOM     21  O   UNL A   1      44.132  31.337  28.094  1.00  0.00    -0.267 OA
ATOM     22  N   UNL A   1      42.366  29.567  30.597  1.00  0.00    -0.169 NA
ATOM     23  C   UNL A   1      41.594  27.417  29.689  1.00  0.00     0.069 C 
BRANCH  17  24
ATOM     24  C   UNL A   1      42.918  27.410  26.713  1.00  0.00    -0.021 A 
ATOM     25  C   UNL A   1      43.465  25.090  26.282  1.00  0.00     0.119 A 
ATOM     26  C   UNL A   1      42.221  24.926  25.669  1.00  0.00     0.046 A 
ATOM     27  C   UNL A   1      43.802  26.329  26.820  1.00  0.00     0.054 A 
ATOM     28  C   UNL A   1      41.312  25.985  25.611  1.00  0.00     0.004 A 
ATOM     29  C   UNL A   1      41.661  27.230  26.130  1.00  0.00     0.008 A 
BRANCH  25  30
ATOM     30  O   UNL A   1      44.282  23.993  26.251  1.00  0.00    -0.497 OA
ATOM     31  C   UNL A   1      43.920  22.913  27.106  1.00  0.00     0.278 C 
ENDBRANCH  25  30
ENDBRANCH  17  24
ENDBRANCH  11  16
ENDBRANCH   8  10
ENDBRANCH   7   8
ENDBRANCH   6   7
ENDBRANCH   5   6
ENDBRANCH   4   5
ENDBRANCH   3   4
ENDBRANCH   2   3
ENDBRANCH   1   2
BRANCH   1  32
ATOM     32  C   UNL A   1      34.577  33.803  28.579  1.00  0.00     0.188 C 
BRANCH  32  33
ATOM     33  C   UNL A   1      33.156  34.408  28.482  1.00  0.00     0.188 C 
BRANCH  33  34
ATOM     34  O   UNL A   1      32.624  34.863  29.715  1.00  0.00    -0.376 OA
BRANCH  34  35
ATOM     35  C   UNL A   1      33.505  35.499  30.621  1.00  0.00     0.202 C 
BRANCH  35  36
ATOM     36  C   UNL A   1      33.233  35.320  32.121  1.00  0.00     0.261 C 
BRANCH  36  37
ATOM     37  O   UNL A   1      34.332  34.862  32.922  1.00  0.00    -0.460 OA
BRANCH  37  38
ATOM     38  C   UNL A   1      34.588  33.535  32.922  1.00  0.00     0.338 C 
ATOM     39  O   UNL A   1      34.074  32.688  32.216  1.00  0.00    -0.246 OA
BRANCH  38  40
ATOM     40  C   UNL A   1      35.752  33.312  33.807  1.00  0.00     0.060 A 
ATOM     41  C   UNL A   1      36.409  32.076  33.779  1.00  0.00     0.016 A 
ATOM     42  C   UNL A   1      36.199  34.335  34.646  1.00  0.00     0.016 A 
ATOM     43  C   UNL A   1      37.505  31.850  34.616  1.00  0.00     0.010 A 
ATOM     44  C   UNL A   1      37.281  34.099  35.498  1.00  0.00     0.010 A 
ATOM     45  C   UNL A   1      37.919  32.845  35.509  1.00  0.00    -0.014 A 
BRANCH  45  46
ATOM     46  C   UNL A   1      38.890  32.521  36.583  1.00  0.00     0.031 A 
ATOM     47  C   UNL A   1      38.401  32.511  38.006  1.00  0.00     0.074 A 
ATOM     48  C   UNL A   1      40.175  32.238  36.304  1.00  0.00     0.049 A 
ATOM     49  N   UNL A   1      39.071  32.318  39.111  1.00  0.00    -0.248 NA
ATOM     50  C   UNL A   1      36.963  32.755  38.209  1.00  0.00     0.031 C 
ATOM     51  C   UNL A   1      40.759  32.172  34.966  1.00  0.00     0.029 A 
ATOM     52  N   UNL A   1      41.226  31.958  37.144  1.00  0.00    -0.354 N 
ATOM     53  C   UNL A   1      38.142  32.433  40.140  1.00  0.00     0.074 A 
ATOM     54  C   UNL A   1      36.867  32.737  39.529  1.00  0.00     0.031 C 
ATOM     55  C   UNL A   1      42.069  31.885  35.075  1.00  0.00     0.029 A 
ATOM     56  C   UNL A   1      42.424  31.784  36.489  1.00  0.00     0.049 A 
ATOM     57  H   UNL A   1      41.132  31.889  38.121  1.00  0.00     0.167 HD
ATOM     58  C   UNL A   1      38.334  32.295  41.472  1.00  0.00     0.031 A 
ATOM     59  C   UNL A   1      43.666  31.595  36.979  1.00  0.00     0.031 A 
ATOM     60  C   UNL A   1      39.608  32.004  42.075  1.00  0.00     0.049 A 
ATOM     61  C   UNL A   1      43.867  31.519  38.473  1.00  0.00     0.074 A 
ATOM     62  C   UNL A   1      39.900  31.821  43.415  1.00  0.00     0.029 A 
ATOM     63  N   UNL A   1      40.799  31.862  41.381  1.00  0.00    -0.354 N 
ATOM     64  N   UNL A   1      42.974  31.597  39.431  1.00  0.00    -0.248 NA
ATOM     65  C   UNL A   1      45.244  31.321  38.950  1.00  0.00     0.031 C 
ATOM     66  C   UNL A   1      41.281  31.641  43.538  1.00  0.00     0.029 A 
ATOM     67  C   UNL A   1      41.836  31.630  42.269  1.00  0.00     0.049 A 
ATOM     68  H   UNL A   1      40.894  31.917  40.403  1.00  0.00     0.167 HD
ATOM     69  C   UNL A   1      43.677  31.423  40.621  1.00  0.00     0.074 A 
ATOM     70  C   UNL A   1      45.065  31.221  40.260  1.00  0.00     0.031 C 
ATOM     71  C   UNL A   1      43.214  31.427  41.896  1.00  0.00     0.031 A 
BRANCH  58  72
ATOM     72  C   UNL A   1      37.148  32.501  42.377  1.00  0.00    -0.014 A 
ATOM     73  C   UNL A   1      36.299  31.436  42.730  1.00  0.00     0.010 A 
ATOM     74  C   UNL A   1      36.914  33.774  42.930  1.00  0.00     0.010 A 
ATOM     75  C   UNL A   1      35.224  31.647  43.598  1.00  0.00     0.020 A 
ATOM     76  C   UNL A   1      35.859  33.983  43.822  1.00  0.00     0.020 A 
ATOM     77  C   UNL A   1      35.013  32.919  44.140  1.00  0.00     0.054 A 
BRANCH  77  78
ATOM     78  S   UNL A   1      33.637  33.152  45.300  1.00  0.00     0.124 S 
ATOM     79  O   UNL A   1      33.774  34.565  45.650  1.00  0.00    -0.237 OA
ATOM     80  O   UNL A   1      32.473  32.818  44.483  1.00  0.00    -0.237 OA
ATOM     81  O   UNL A   1      33.930  32.214  46.380  1.00  0.00    -0.744 OA
ENDBRANCH  77  78
ENDBRANCH  58  72
BRANCH  59  82
ATOM     82  C   UNL A   1      44.830  31.499  36.052  1.00  0.00    -0.014 A 
ATOM     83  C   UNL A   1      45.065  30.332  35.305  1.00  0.00     0.010 A 
ATOM     84  C   UNL A   1      45.725  32.578  35.928  1.00  0.00     0.010 A 
ATOM     85  C   UNL A   1      46.186  30.235  34.472  1.00  0.00     0.020 A 
ATOM     86  C   UNL A   1      46.827  32.499  35.072  1.00  0.00     0.020 A 
ATOM     87  C   UNL A   1      47.058  31.321  34.360  1.00  0.00     0.054 A 
BRANCH  87  88
ATOM     88  S   UNL A   1      48.484  31.187  33.245  1.00  0.00     0.124 S 
ATOM     89  O   UNL A   1      49.585  31.595  34.111  1.00  0.00    -0.237 OA
ATOM     90  O   UNL A   1      48.458  29.775  32.874  1.00  0.00    -0.237 OA
ATOM     91  O   UNL A   1      48.161  32.114  32.163  1.00  0.00    -0.744 OA
ENDBRANCH  87  88
ENDBRANCH  59  82
BRANCH  71  92
ATOM     92  C   UNL A   1      44.205  31.162  43.002  1.00  0.00    -0.014 A 
ATOM     93  C   UNL A   1      44.903  32.207  43.633  1.00  0.00     0.010 A 
ATOM     94  C   UNL A   1      44.391  29.843  43.459  1.00  0.00     0.010 A 
ATOM     95  C   UNL A   1      45.793  31.934  44.676  1.00  0.00     0.020 A 
ATOM     96  C   UNL A   1      45.255  29.570  44.522  1.00  0.00     0.020 A 
ATOM     97  C   UNL A   1      45.962  30.616  45.115  1.00  0.00     0.054 A 
BRANCH  97  98
ATOM     98  S   UNL A   1      47.092  30.296  46.497  1.00  0.00     0.124 S 
ATOM     99  O   UNL A   1      46.574  29.039  47.029  1.00  0.00    -0.237 OA
ATOM    100  O   UNL A   1      48.391  30.211  45.835  1.00  0.00    -0.237 OA
ATOM    101  O   UNL A   1      46.916  31.459  47.366  1.00  0.00    -0.744 OA
ENDBRANCH  97  98
ENDBRANCH  71  92
ENDBRANCH  45  46
ENDBRANCH  38  40
ENDBRANCH  37  38
ENDBRANCH  36  37
ENDBRANCH  35  36
ENDBRANCH  34  35
ENDBRANCH  33  34
ENDBRANCH  32  33
ENDBRANCH   1  32
TORSDOF 26
ENDMDL
