MODEL 1
REMARK VINA RESULT:      -6.4      0.000      0.000
REMARK SMILES C=CCN(CC(=O)OCCOCCOCCOCCOC(=O)c1ccc(-c2c3nc(c(-c4ccc(S(=O)(=O)[O-])cc4)c4ccc([nH]4)c(-c4ccc(S(=O)(=O)[O-])cc4)c4nc(c(-c5ccc(S(=O)(=O)[O-])cc5)c5ccc2[nH]5)C=C4)C=C3)cc1)C(=O)N1CCC[C@@H]1C(=O)OCC
REMARK SMILES IDX 12 1 11 2 10 3 9 4 8 5 6 6 7 7 5 8 4 9 3 10 2 11 1 12 83 13
REMARK SMILES IDX 84 14 85 15 86 16 89 17 87 18 88 19 90 20 91 21 92 22 93 23
REMARK SMILES IDX 94 24 13 25 14 26 15 27 16 28 17 29 18 30 19 31 20 32 21 33
REMARK SMILES IDX 22 34 23 35 24 36 82 37 25 38 81 39 26 40 27 41 28 42 75 43
REMARK SMILES IDX 29 44 80 45 74 46 76 47 30 48 79 49 73 50 72 51 31 53 61 54
REMARK SMILES IDX 42 55 60 56 43 57 46 58 59 59 77 60 44 61 45 62 58 64 78 65
REMARK SMILES IDX 47 66 32 67 33 68 41 69 34 70 40 71 35 72 36 73 37 74 38 75
REMARK SMILES IDX 39 76 62 77 63 78 71 79 64 80 70 81 65 82 66 83 67 84 68 85
REMARK SMILES IDX 69 86 48 87 49 88 57 89 50 90 56 91 51 92 52 93 53 94 54 95
REMARK SMILES IDX 55 96
REMARK H PARENT 76 52 46 63
REMARK Flexibility Score: inf
ROOT
ATOM      1  C   UNL A   1      40.235  25.936  27.288  1.00  0.00     0.188 C 
ENDROOT
BRANCH   1   2
ATOM      2  O   UNL A   1      39.763  27.054  27.997  1.00  0.00    -0.376 OA
BRANCH   2   3
ATOM      3  C   UNL A   1      40.480  28.270  27.940  1.00  0.00     0.202 C 
BRANCH   3   4
ATOM      4  C   UNL A   1      40.545  29.285  29.105  1.00  0.00     0.261 C 
BRANCH   4   5
ATOM      5  O   UNL A   1      39.343  30.017  29.445  1.00  0.00    -0.462 OA
BRANCH   5   6
ATOM      6  C   UNL A   1      38.523  29.473  30.386  1.00  0.00     0.325 C 
ATOM      7  O   UNL A   1      37.711  28.582  30.142  1.00  0.00    -0.250 OA
BRANCH   6   8
ATOM      8  C   UNL A   1      38.590  30.116  31.796  1.00  0.00     0.244 C 
BRANCH   8   9
ATOM      9  N   UNL A   1      37.638  31.111  32.321  1.00  0.00    -0.310 N 
BRANCH   9  10
ATOM     10  C   UNL A   1      37.429  31.068  33.779  1.00  0.00     0.149 C 
BRANCH  10  11
ATOM     11  C   UNL A   1      38.084  32.260  34.439  1.00  0.00    -0.013 C 
ATOM     12  C   UNL A   1      37.412  33.178  35.152  1.00  0.00     0.006 C 
ENDBRANCH  10  11
ENDBRANCH   9  10
BRANCH   9  13
ATOM     13  C   UNL A   1      36.973  32.131  31.665  1.00  0.00     0.321 C 
ATOM     14  O   UNL A   1      35.736  32.165  31.682  1.00  0.00    -0.248 OA
BRANCH  13  15
ATOM     15  N   UNL A   1      37.602  33.136  30.974  1.00  0.00    -0.311 N 
ATOM     16  C   UNL A   1      38.535  34.183  31.344  1.00  0.00     0.122 C 
ATOM     17  C   UNL A   1      37.549  33.020  29.500  1.00  0.00     0.197 C 
ATOM     18  C   UNL A   1      38.777  34.999  30.085  1.00  0.00     0.024 C 
ATOM     19  C   UNL A   1      38.599  33.991  28.961  1.00  0.00     0.039 C 
BRANCH  17  20
ATOM     20  C   UNL A   1      36.181  33.372  28.911  1.00  0.00     0.328 C 
ATOM     21  O   UNL A   1      35.503  34.320  29.291  1.00  0.00    -0.250 OA
BRANCH  20  22
ATOM     22  O   UNL A   1      35.744  32.389  28.070  1.00  0.00    -0.464 OA
BRANCH  22  23
ATOM     23  C   UNL A   1      34.526  31.727  28.427  1.00  0.00     0.229 C 
ATOM     24  C   UNL A   1      34.032  30.774  27.352  1.00  0.00     0.049 C 
ENDBRANCH  22  23
ENDBRANCH  20  22
ENDBRANCH  17  20
ENDBRANCH  13  15
ENDBRANCH   9  13
ENDBRANCH   8   9
ENDBRANCH   6   8
ENDBRANCH   5   6
ENDBRANCH   4   5
ENDBRANCH   3   4
ENDBRANCH   2   3
ENDBRANCH   1   2
BRANCH   1  25
ATOM     25  C   UNL A   1      39.831  24.509  27.728  1.00  0.00     0.188 C 
BRANCH  25  26
ATOM     26  O   UNL A   1      39.790  23.413  26.838  1.00  0.00    -0.377 OA
BRANCH  26  27
ATOM     27  C   UNL A   1      41.015  22.883  26.393  1.00  0.00     0.188 C 
BRANCH  27  28
ATOM     28  C   UNL A   1      41.203  21.363  26.511  1.00  0.00     0.188 C 
BRANCH  28  29
ATOM     29  O   UNL A   1      42.489  20.904  26.121  1.00  0.00    -0.376 OA
BRANCH  29  30
ATOM     30  C   UNL A   1      43.616  21.742  26.326  1.00  0.00     0.202 C 
BRANCH  30  31
ATOM     31  C   UNL A   1      44.811  21.711  25.361  1.00  0.00     0.261 C 
BRANCH  31  32
ATOM     32  O   UNL A   1      45.919  22.541  25.690  1.00  0.00    -0.460 OA
BRANCH  32  33
ATOM     33  C   UNL A   1      46.032  23.707  25.018  1.00  0.00     0.338 C 
ATOM     34  O   UNL A   1      46.167  23.864  23.828  1.00  0.00    -0.246 OA
BRANCH  33  35
ATOM     35  C   UNL A   1      45.708  24.756  26.001  1.00  0.00     0.060 A 
ATOM     36  C   UNL A   1      46.762  25.335  26.717  1.00  0.00     0.016 A 
ATOM     37  C   UNL A   1      44.396  25.220  26.142  1.00  0.00     0.016 A 
ATOM     38  C   UNL A   1      46.504  26.380  27.591  1.00  0.00     0.010 A 
ATOM     39  C   UNL A   1      44.127  26.232  27.060  1.00  0.00     0.010 A 
ATOM     40  C   UNL A   1      45.179  26.774  27.814  1.00  0.00    -0.014 A 
BRANCH  40  41
ATOM     41  C   UNL A   1      44.902  27.479  29.078  1.00  0.00     0.031 A 
ATOM     42  C   UNL A   1      44.984  26.658  30.334  1.00  0.00     0.074 A 
ATOM     43  C   UNL A   1      44.692  28.803  29.111  1.00  0.00     0.049 A 
ATOM     44  N   UNL A   1      44.884  27.034  31.580  1.00  0.00    -0.248 NA
ATOM     45  C   UNL A   1      45.223  25.214  30.157  1.00  0.00     0.031 C 
ATOM     46  C   UNL A   1      44.650  29.684  27.945  1.00  0.00     0.029 A 
ATOM     47  N   UNL A   1      44.490  29.636  30.178  1.00  0.00    -0.354 N 
ATOM     48  C   UNL A   1      45.041  25.874  32.329  1.00  0.00     0.074 A 
ATOM     49  C   UNL A   1      45.208  24.779  31.404  1.00  0.00     0.031 C 
ATOM     50  C   UNL A   1      44.429  30.943  28.364  1.00  0.00     0.029 A 
ATOM     51  C   UNL A   1      44.292  30.946  29.819  1.00  0.00     0.049 A 
ATOM     52  H   UNL A   1      44.486  29.325  31.112  1.00  0.00     0.167 HD
ATOM     53  C   UNL A   1      45.050  25.737  33.674  1.00  0.00     0.031 A 
ATOM     54  C   UNL A   1      44.020  32.016  30.589  1.00  0.00     0.031 A 
ATOM     55  C   UNL A   1      44.844  26.836  34.574  1.00  0.00     0.049 A 
ATOM     56  C   UNL A   1      43.971  31.835  32.083  1.00  0.00     0.074 A 
ATOM     57  C   UNL A   1      44.826  26.827  35.956  1.00  0.00     0.029 A 
ATOM     58  N   UNL A   1      44.600  28.143  34.173  1.00  0.00    -0.354 N 
ATOM     59  N   UNL A   1      44.142  30.739  32.788  1.00  0.00    -0.248 NA
ATOM     60  C   UNL A   1      43.718  33.036  32.886  1.00  0.00     0.031 C 
ATOM     61  C   UNL A   1      44.499  28.117  36.389  1.00  0.00     0.029 A 
ATOM     62  C   UNL A   1      44.401  28.947  35.281  1.00  0.00     0.049 A 
ATOM     63  H   UNL A   1      44.573  28.452  33.240  1.00  0.00     0.167 HD
ATOM     64  C   UNL A   1      44.049  31.124  34.121  1.00  0.00     0.074 A 
ATOM     65  C   UNL A   1      43.818  32.557  34.119  1.00  0.00     0.031 C 
ATOM     66  C   UNL A   1      44.156  30.370  35.245  1.00  0.00     0.031 A 
BRANCH  53  67
ATOM     67  C   UNL A   1      45.208  24.341  34.219  1.00  0.00    -0.014 A 
ATOM     68  C   UNL A   1      46.461  23.836  34.617  1.00  0.00     0.010 A 
ATOM     69  C   UNL A   1      44.081  23.503  34.293  1.00  0.00     0.010 A 
ATOM     70  C   UNL A   1      46.592  22.504  35.020  1.00  0.00     0.020 A 
ATOM     71  C   UNL A   1      44.202  22.182  34.730  1.00  0.00     0.020 A 
ATOM     72  C   UNL A   1      45.461  21.684  35.068  1.00  0.00     0.054 A 
BRANCH  72  73
ATOM     73  S   UNL A   1      45.658  19.956  35.585  1.00  0.00     0.124 S 
ATOM     74  O   UNL A   1      46.949  19.610  34.997  1.00  0.00    -0.237 OA
ATOM     75  O   UNL A   1      45.636  20.054  37.042  1.00  0.00    -0.237 OA
ATOM     76  O   UNL A   1      44.504  19.283  34.991  1.00  0.00    -0.744 OA
ENDBRANCH  72  73
ENDBRANCH  53  67
BRANCH  54  77
ATOM     77  C   UNL A   1      43.773  33.335  29.945  1.00  0.00    -0.014 A 
ATOM     78  C   UNL A   1      44.836  34.179  29.581  1.00  0.00     0.010 A 
ATOM     79  C   UNL A   1      42.456  33.725  29.640  1.00  0.00     0.010 A 
ATOM     80  C   UNL A   1      44.586  35.385  28.917  1.00  0.00     0.020 A 
ATOM     81  C   UNL A   1      42.203  34.915  28.952  1.00  0.00     0.020 A 
ATOM     82  C   UNL A   1      43.271  35.738  28.596  1.00  0.00     0.054 A 
BRANCH  82  83
ATOM     83  S   UNL A   1      42.980  37.257  27.647  1.00  0.00     0.124 S 
ATOM     84  O   UNL A   1      41.886  37.876  28.387  1.00  0.00    -0.237 OA
ATOM     85  O   UNL A   1      44.271  37.936  27.738  1.00  0.00    -0.237 OA
ATOM     86  O   UNL A   1      42.637  36.768  26.313  1.00  0.00    -0.744 OA
ENDBRANCH  82  83
ENDBRANCH  54  77
BRANCH  66  87
ATOM     87  C   UNL A   1      44.072  31.088  36.567  1.00  0.00    -0.014 A 
ATOM     88  C   UNL A   1      42.855  31.232  37.256  1.00  0.00     0.010 A 
ATOM     89  C   UNL A   1      45.252  31.594  37.145  1.00  0.00     0.010 A 
ATOM     90  C   UNL A   1      42.812  31.920  38.471  1.00  0.00     0.020 A 
ATOM     91  C   UNL A   1      45.219  32.248  38.378  1.00  0.00     0.020 A 
ATOM     92  C   UNL A   1      43.994  32.426  39.022  1.00  0.00     0.054 A 
BRANCH  92  93
ATOM     93  S   UNL A   1      43.913  33.309  40.603  1.00  0.00     0.124 S 
ATOM     94  O   UNL A   1      45.093  34.167  40.532  1.00  0.00    -0.237 OA
ATOM     95  O   UNL A   1      42.628  33.999  40.519  1.00  0.00    -0.237 OA
ATOM     96  O   UNL A   1      43.979  32.243  41.599  1.00  0.00    -0.744 OA
ENDBRANCH  92  93
ENDBRANCH  66  87
ENDBRANCH  40  41
ENDBRANCH  33  35
ENDBRANCH  32  33
ENDBRANCH  31  32
ENDBRANCH  30  31
ENDBRANCH  29  30
ENDBRANCH  28  29
ENDBRANCH  27  28
ENDBRANCH  26  27
ENDBRANCH  25  26
ENDBRANCH   1  25
TORSDOF 31
ENDMDL
MODEL 2
REMARK VINA RESULT:      -5.7      7.020     12.279
REMARK SMILES C=CCN(CC(=O)OCCOCCOCCOCCOC(=O)c1ccc(-c2c3nc(c(-c4ccc(S(=O)(=O)[O-])cc4)c4ccc([nH]4)c(-c4ccc(S(=O)(=O)[O-])cc4)c4nc(c(-c5ccc(S(=O)(=O)[O-])cc5)c5ccc2[nH]5)C=C4)C=C3)cc1)C(=O)N1CCC[C@@H]1C(=O)OCC
REMARK SMILES IDX 12 1 11 2 10 3 9 4 8 5 6 6 7 7 5 8 4 9 3 10 2 11 1 12 83 13
REMARK SMILES IDX 84 14 85 15 86 16 89 17 87 18 88 19 90 20 91 21 92 22 93 23
REMARK SMILES IDX 94 24 13 25 14 26 15 27 16 28 17 29 18 30 19 31 20 32 21 33
REMARK SMILES IDX 22 34 23 35 24 36 82 37 25 38 81 39 26 40 27 41 28 42 75 43
REMARK SMILES IDX 29 44 80 45 74 46 76 47 30 48 79 49 73 50 72 51 31 53 61 54
REMARK SMILES IDX 42 55 60 56 43 57 46 58 59 59 77 60 44 61 45 62 58 64 78 65
REMARK SMILES IDX 47 66 32 67 33 68 41 69 34 70 40 71 35 72 36 73 37 74 38 75
REMARK SMILES IDX 39 76 62 77 63 78 71 79 64 80 70 81 65 82 66 83 67 84 68 85
REMARK SMILES IDX 69 86 48 87 49 88 57 89 50 90 56 91 51 92 52 93 53 94 54 95
REMARK SMILES IDX 55 96
REMARK H PARENT 76 52 46 63
REMARK Flexibility Score: inf
ROOT
ATOM      1  C   UNL A   1      33.908  31.849  27.528  1.00  0.00     0.188 C 
ENDROOT
BRANCH   1   2
ATOM      2  O   UNL A   1      32.670  31.227  27.289  1.00  0.00    -0.376 OA
BRANCH   2   3
ATOM      3  C   UNL A   1      32.421  30.624  26.036  1.00  0.00     0.202 C 
BRANCH   3   4
ATOM      4  C   UNL A   1      31.371  29.511  25.811  1.00  0.00     0.261 C 
BRANCH   4   5
ATOM      5  O   UNL A   1      30.879  29.295  24.466  1.00  0.00    -0.462 OA
BRANCH   5   6
ATOM      6  C   UNL A   1      31.469  28.310  23.734  1.00  0.00     0.325 C 
ATOM      7  O   UNL A   1      32.425  28.505  22.986  1.00  0.00    -0.250 OA
BRANCH   6   8
ATOM      8  C   UNL A   1      30.798  26.914  23.810  1.00  0.00     0.244 C 
BRANCH   8   9
ATOM      9  N   UNL A   1      31.241  25.804  24.672  1.00  0.00    -0.310 N 
BRANCH   9  10
ATOM     10  C   UNL A   1      31.537  26.177  26.067  1.00  0.00     0.149 C 
BRANCH  10  11
ATOM     11  C   UNL A   1      33.019  26.060  26.339  1.00  0.00    -0.013 C 
ATOM     12  C   UNL A   1      33.958  26.713  25.636  1.00  0.00     0.006 C 
ENDBRANCH  10  11
ENDBRANCH   9  10
BRANCH   9  13
ATOM     13  C   UNL A   1      31.343  24.454  24.394  1.00  0.00     0.321 C 
ATOM     14  O   UNL A   1      30.457  23.680  24.782  1.00  0.00    -0.248 OA
BRANCH  13  15
ATOM     15  N   UNL A   1      32.385  23.890  23.701  1.00  0.00    -0.311 N 
ATOM     16  C   UNL A   1      32.955  24.107  22.385  1.00  0.00     0.122 C 
ATOM     17  C   UNL A   1      33.305  23.060  24.508  1.00  0.00     0.197 C 
ATOM     18  C   UNL A   1      34.064  23.079  22.230  1.00  0.00     0.024 C 
ATOM     19  C   UNL A   1      34.555  22.858  23.651  1.00  0.00     0.039 C 
BRANCH  17  20
ATOM     20  C   UNL A   1      32.722  21.696  24.886  1.00  0.00     0.328 C 
ATOM     21  O   UNL A   1      32.366  21.401  26.021  1.00  0.00    -0.250 OA
BRANCH  20  22
ATOM     22  O   UNL A   1      32.842  20.812  23.853  1.00  0.00    -0.464 OA
BRANCH  22  23
ATOM     23  C   UNL A   1      33.004  19.431  24.199  1.00  0.00     0.229 C 
ATOM     24  C   UNL A   1      32.519  18.486  23.112  1.00  0.00     0.049 C 
ENDBRANCH  22  23
ENDBRANCH  20  22
ENDBRANCH  17  20
ENDBRANCH  13  15
ENDBRANCH   9  13
ENDBRANCH   8   9
ENDBRANCH   6   8
ENDBRANCH   5   6
ENDBRANCH   4   5
ENDBRANCH   3   4
ENDBRANCH   2   3
ENDBRANCH   1   2
BRANCH   1  25
ATOM     25  C   UNL A   1      34.899  31.244  28.550  1.00  0.00     0.188 C 
BRANCH  25  26
ATOM     26  O   UNL A   1      35.815  32.025  29.288  1.00  0.00    -0.377 OA
BRANCH  26  27
ATOM     27  C   UNL A   1      35.487  33.372  29.526  1.00  0.00     0.188 C 
BRANCH  27  28
ATOM     28  C   UNL A   1      34.478  33.658  30.649  1.00  0.00     0.188 C 
BRANCH  28  29
ATOM     29  O   UNL A   1      34.151  35.031  30.802  1.00  0.00    -0.376 OA
BRANCH  29  30
ATOM     30  C   UNL A   1      34.229  35.624  32.089  1.00  0.00     0.202 C 
BRANCH  30  31
ATOM     31  C   UNL A   1      34.849  34.865  33.272  1.00  0.00     0.261 C 
BRANCH  31  32
ATOM     32  O   UNL A   1      36.183  35.214  33.626  1.00  0.00    -0.460 OA
BRANCH  32  33
ATOM     33  C   UNL A   1      37.152  34.330  33.307  1.00  0.00     0.338 C 
ATOM     34  O   UNL A   1      37.574  34.058  32.208  1.00  0.00    -0.246 OA
BRANCH  33  35
ATOM     35  C   UNL A   1      37.764  33.943  34.592  1.00  0.00     0.060 A 
ATOM     36  C   UNL A   1      38.565  34.885  35.249  1.00  0.00     0.016 A 
ATOM     37  C   UNL A   1      37.475  32.705  35.175  1.00  0.00     0.016 A 
ATOM     38  C   UNL A   1      39.091  34.585  36.496  1.00  0.00     0.010 A 
ATOM     39  C   UNL A   1      38.048  32.380  36.402  1.00  0.00     0.010 A 
ATOM     40  C   UNL A   1      38.892  33.308  37.034  1.00  0.00    -0.014 A 
BRANCH  40  41
ATOM     41  C   UNL A   1      39.858  32.859  38.052  1.00  0.00     0.031 A 
ATOM     42  C   UNL A   1      39.321  32.645  39.438  1.00  0.00     0.074 A 
ATOM     43  C   UNL A   1      41.126  32.558  37.730  1.00  0.00     0.049 A 
ATOM     44  N   UNL A   1      39.918  32.166  40.495  1.00  0.00    -0.248 NA
ATOM     45  C   UNL A   1      37.910  33.013  39.656  1.00  0.00     0.031 C 
ATOM     46  C   UNL A   1      41.715  32.686  36.398  1.00  0.00     0.029 A 
ATOM     47  N   UNL A   1      42.138  32.067  38.508  1.00  0.00    -0.354 N 
ATOM     48  C   UNL A   1      38.958  32.183  41.500  1.00  0.00     0.074 A 
ATOM     49  C   UNL A   1      37.753  32.749  40.940  1.00  0.00     0.031 C 
ATOM     50  C   UNL A   1      42.997  32.283  36.454  1.00  0.00     0.029 A 
ATOM     51  C   UNL A   1      43.317  31.897  37.827  1.00  0.00     0.049 A 
ATOM     52  H   UNL A   1      42.031  31.858  39.464  1.00  0.00     0.167 HD
ATOM     53  C   UNL A   1      39.071  31.758  42.779  1.00  0.00     0.031 A 
ATOM     54  C   UNL A   1      44.518  31.485  38.277  1.00  0.00     0.031 A 
ATOM     55  C   UNL A   1      40.292  31.234  43.323  1.00  0.00     0.049 A 
ATOM     56  C   UNL A   1      44.644  31.074  39.720  1.00  0.00     0.074 A 
ATOM     57  C   UNL A   1      40.537  30.774  44.603  1.00  0.00     0.029 A 
ATOM     58  N   UNL A   1      41.480  31.118  42.616  1.00  0.00    -0.354 N 
ATOM     59  N   UNL A   1      43.727  31.072  40.661  1.00  0.00    -0.248 NA
ATOM     60  C   UNL A   1      45.958  30.588  40.156  1.00  0.00     0.031 C 
ATOM     61  C   UNL A   1      41.895  30.447  44.689  1.00  0.00     0.029 A 
ATOM     62  C   UNL A   1      42.474  30.621  43.439  1.00  0.00     0.049 A 
ATOM     63  H   UNL A   1      41.599  31.355  41.668  1.00  0.00     0.167 HD
ATOM     64  C   UNL A   1      44.345  30.553  41.794  1.00  0.00     0.074 A 
ATOM     65  C   UNL A   1      45.710  30.244  41.413  1.00  0.00     0.031 C 
ATOM     66  C   UNL A   1      43.831  30.339  43.033  1.00  0.00     0.031 A 
BRANCH  53  67
ATOM     67  C   UNL A   1      37.866  31.930  43.667  1.00  0.00    -0.014 A 
ATOM     68  C   UNL A   1      37.639  33.117  44.389  1.00  0.00     0.010 A 
ATOM     69  C   UNL A   1      36.964  30.861  43.812  1.00  0.00     0.010 A 
ATOM     70  C   UNL A   1      36.569  33.208  45.284  1.00  0.00     0.020 A 
ATOM     71  C   UNL A   1      35.872  30.961  44.678  1.00  0.00     0.020 A 
ATOM     72  C   UNL A   1      35.695  32.126  45.427  1.00  0.00     0.054 A 
BRANCH  72  73
ATOM     73  S   UNL A   1      34.321  32.263  46.601  1.00  0.00     0.124 S 
ATOM     74  O   UNL A   1      33.185  32.490  45.712  1.00  0.00    -0.237 OA
ATOM     75  O   UNL A   1      34.344  30.967  47.273  1.00  0.00    -0.237 OA
ATOM     76  O   UNL A   1      34.691  33.403  47.438  1.00  0.00    -0.744 OA
ENDBRANCH  72  73
ENDBRANCH  53  67
BRANCH  54  77
ATOM     77  C   UNL A   1      45.675  31.452  37.343  1.00  0.00    -0.014 A 
ATOM     78  C   UNL A   1      46.541  32.552  37.217  1.00  0.00     0.010 A 
ATOM     79  C   UNL A   1      45.949  30.281  36.612  1.00  0.00     0.010 A 
ATOM     80  C   UNL A   1      47.662  32.478  36.382  1.00  0.00     0.020 A 
ATOM     81  C   UNL A   1      47.082  30.192  35.800  1.00  0.00     0.020 A 
ATOM     82  C   UNL A   1      47.932  31.293  35.689  1.00  0.00     0.054 A 
BRANCH  82  83
ATOM     83  S   UNL A   1      49.445  31.187  34.694  1.00  0.00     0.124 S 
ATOM     84  O   UNL A   1      49.214  32.207  33.675  1.00  0.00    -0.237 OA
ATOM     85  O   UNL A   1      50.486  31.493  35.672  1.00  0.00    -0.237 OA
ATOM     86  O   UNL A   1      49.442  29.808  34.210  1.00  0.00    -0.744 OA
ENDBRANCH  82  83
ENDBRANCH  54  77
BRANCH  66  87
ATOM     87  C   UNL A   1      44.736  29.698  44.053  1.00  0.00    -0.014 A 
ATOM     88  C   UNL A   1      44.886  28.302  44.137  1.00  0.00     0.010 A 
ATOM     89  C   UNL A   1      45.480  30.522  44.919  1.00  0.00     0.010 A 
ATOM     90  C   UNL A   1      45.722  27.742  45.107  1.00  0.00     0.020 A 
ATOM     91  C   UNL A   1      46.345  29.967  45.863  1.00  0.00     0.020 A 
ATOM     92  C   UNL A   1      46.442  28.579  45.966  1.00  0.00     0.054 A 
BRANCH  92  93
ATOM     93  S   UNL A   1      47.525  27.829  47.211  1.00  0.00     0.124 S 
ATOM     94  O   UNL A   1      47.866  26.553  46.587  1.00  0.00    -0.237 OA
ATOM     95  O   UNL A   1      48.617  28.793  47.309  1.00  0.00    -0.237 OA
ATOM     96  O   UNL A   1      46.676  27.734  48.396  1.00  0.00    -0.744 OA
ENDBRANCH  92  93
ENDBRANCH  66  87
ENDBRANCH  40  41
ENDBRANCH  33  35
ENDBRANCH  32  33
ENDBRANCH  31  32
ENDBRANCH  30  31
ENDBRANCH  29  30
ENDBRANCH  28  29
ENDBRANCH  27  28
ENDBRANCH  26  27
ENDBRANCH  25  26
ENDBRANCH   1  25
TORSDOF 31
ENDMDL
MODEL 3
REMARK VINA RESULT:      -5.5      4.652     10.742
REMARK SMILES C=CCN(CC(=O)OCCOCCOCCOCCOC(=O)c1ccc(-c2c3nc(c(-c4ccc(S(=O)(=O)[O-])cc4)c4ccc([nH]4)c(-c4ccc(S(=O)(=O)[O-])cc4)c4nc(c(-c5ccc(S(=O)(=O)[O-])cc5)c5ccc2[nH]5)C=C4)C=C3)cc1)C(=O)N1CCC[C@@H]1C(=O)OCC
REMARK SMILES IDX 12 1 11 2 10 3 9 4 8 5 6 6 7 7 5 8 4 9 3 10 2 11 1 12 83 13
REMARK SMILES IDX 84 14 85 15 86 16 89 17 87 18 88 19 90 20 91 21 92 22 93 23
REMARK SMILES IDX 94 24 13 25 14 26 15 27 16 28 17 29 18 30 19 31 20 32 21 33
REMARK SMILES IDX 22 34 23 35 24 36 82 37 25 38 81 39 26 40 27 41 28 42 75 43
REMARK SMILES IDX 29 44 80 45 74 46 76 47 30 48 79 49 73 50 72 51 31 53 61 54
REMARK SMILES IDX 42 55 60 56 43 57 46 58 59 59 77 60 44 61 45 62 58 64 78 65
REMARK SMILES IDX 47 66 32 67 33 68 41 69 34 70 40 71 35 72 36 73 37 74 38 75
REMARK SMILES IDX 39 76 62 77 63 78 71 79 64 80 70 81 65 82 66 83 67 84 68 85
REMARK SMILES IDX 69 86 48 87 49 88 57 89 50 90 56 91 51 92 52 93 53 94 54 95
REMARK SMILES IDX 55 96
REMARK H PARENT 76 52 46 63
REMARK Flexibility Score: inf
ROOT
ATOM      1  C   UNL A   1      34.830  23.403  26.195  1.00  0.00     0.188 C 
ENDROOT
BRANCH   1   2
ATOM      2  O   UNL A   1      35.937  23.304  25.335  1.00  0.00    -0.376 OA
BRANCH   2   3
ATOM      3  C   UNL A   1      37.244  23.339  25.871  1.00  0.00     0.202 C 
BRANCH   3   4
ATOM      4  C   UNL A   1      38.222  22.142  25.831  1.00  0.00     0.261 C 
BRANCH   4   5
ATOM      5  O   UNL A   1      39.629  22.398  26.058  1.00  0.00    -0.462 OA
BRANCH   5   6
ATOM      6  C   UNL A   1      40.331  21.462  26.755  1.00  0.00     0.325 C 
ATOM      7  O   UNL A   1      40.003  20.279  26.817  1.00  0.00    -0.250 OA
BRANCH   6   8
ATOM      8  C   UNL A   1      41.538  21.990  27.574  1.00  0.00     0.244 C 
BRANCH   8   9
ATOM      9  N   UNL A   1      41.664  23.355  28.114  1.00  0.00    -0.310 N 
BRANCH   9  10
ATOM     10  C   UNL A   1      42.613  23.499  29.234  1.00  0.00     0.149 C 
BRANCH  10  11
ATOM     11  C   UNL A   1      44.026  23.253  28.759  1.00  0.00    -0.013 C 
ATOM     12  C   UNL A   1      44.859  24.229  28.364  1.00  0.00     0.006 C 
ENDBRANCH  10  11
ENDBRANCH   9  10
BRANCH   9  13
ATOM     13  C   UNL A   1      41.091  24.536  27.678  1.00  0.00     0.321 C 
ATOM     14  O   UNL A   1      39.951  24.839  28.057  1.00  0.00    -0.248 OA
BRANCH  13  15
ATOM     15  N   UNL A   1      41.707  25.421  26.830  1.00  0.00    -0.311 N 
ATOM     16  C   UNL A   1      42.438  25.281  25.585  1.00  0.00     0.122 C 
ATOM     17  C   UNL A   1      41.374  26.845  27.051  1.00  0.00     0.197 C 
ATOM     18  C   UNL A   1      42.911  26.677  25.213  1.00  0.00     0.024 C 
ATOM     19  C   UNL A   1      41.847  27.588  25.801  1.00  0.00     0.039 C 
BRANCH  17  20
ATOM     20  C   UNL A   1      42.053  27.444  28.285  1.00  0.00     0.328 C 
ATOM     21  O   UNL A   1      43.231  27.781  28.315  1.00  0.00    -0.250 OA
BRANCH  20  22
ATOM     22  O   UNL A   1      41.238  27.361  29.378  1.00  0.00    -0.464 OA
BRANCH  22  23
ATOM     23  C   UNL A   1      40.846  28.596  29.987  1.00  0.00     0.229 C 
ATOM     24  C   UNL A   1      39.997  28.401  31.232  1.00  0.00     0.049 C 
ENDBRANCH  22  23
ENDBRANCH  20  22
ENDBRANCH  17  20
ENDBRANCH  13  15
ENDBRANCH   9  13
ENDBRANCH   8   9
ENDBRANCH   6   8
ENDBRANCH   5   6
ENDBRANCH   4   5
ENDBRANCH   3   4
ENDBRANCH   2   3
ENDBRANCH   1   2
BRANCH   1  25
ATOM     25  C   UNL A   1      33.466  23.895  25.655  1.00  0.00     0.188 C 
BRANCH  25  26
ATOM     26  O   UNL A   1      33.078  25.252  25.668  1.00  0.00    -0.377 OA
BRANCH  26  27
ATOM     27  C   UNL A   1      34.044  26.214  25.321  1.00  0.00     0.188 C 
BRANCH  27  28
ATOM     28  C   UNL A   1      33.653  27.690  25.492  1.00  0.00     0.188 C 
BRANCH  28  29
ATOM     29  O   UNL A   1      33.205  28.025  26.797  1.00  0.00    -0.376 OA
BRANCH  29  30
ATOM     30  C   UNL A   1      33.791  29.129  27.469  1.00  0.00     0.202 C 
BRANCH  30  31
ATOM     31  C   UNL A   1      35.303  29.391  27.390  1.00  0.00     0.261 C 
BRANCH  31  32
ATOM     32  O   UNL A   1      35.845  30.297  28.344  1.00  0.00    -0.460 OA
BRANCH  32  33
ATOM     33  C   UNL A   1      35.835  31.608  28.018  1.00  0.00     0.338 C 
ATOM     34  O   UNL A   1      34.988  32.210  27.402  1.00  0.00    -0.246 OA
BRANCH  33  35
ATOM     35  C   UNL A   1      36.945  32.208  28.781  1.00  0.00     0.060 A 
ATOM     36  C   UNL A   1      37.962  31.361  29.238  1.00  0.00     0.016 A 
ATOM     37  C   UNL A   1      37.021  33.593  28.958  1.00  0.00     0.016 A 
ATOM     38  C   UNL A   1      39.061  31.901  29.889  1.00  0.00     0.010 A 
ATOM     39  C   UNL A   1      38.097  34.131  29.660  1.00  0.00     0.010 A 
ATOM     40  C   UNL A   1      39.088  33.274  30.162  1.00  0.00    -0.014 A 
BRANCH  40  41
ATOM     41  C   UNL A   1      39.959  33.712  31.267  1.00  0.00     0.031 A 
ATOM     42  C   UNL A   1      41.233  34.408  30.880  1.00  0.00     0.074 A 
ATOM     43  C   UNL A   1      39.581  33.589  32.548  1.00  0.00     0.049 A 
ATOM     44  N   UNL A   1      42.131  34.978  31.637  1.00  0.00    -0.248 NA
ATOM     45  C   UNL A   1      41.528  34.478  29.437  1.00  0.00     0.031 C 
ATOM     46  C   UNL A   1      38.337  32.976  33.010  1.00  0.00     0.029 A 
ATOM     47  N   UNL A   1      40.210  33.993  33.694  1.00  0.00    -0.354 N 
ATOM     48  C   UNL A   1      43.094  35.466  30.762  1.00  0.00     0.074 A 
ATOM     49  C   UNL A   1      42.694  35.097  29.425  1.00  0.00     0.031 C 
ATOM     50  C   UNL A   1      38.297  33.042  34.352  1.00  0.00     0.029 A 
ATOM     51  C   UNL A   1      39.520  33.678  34.837  1.00  0.00     0.049 A 
ATOM     52  H   UNL A   1      41.075  34.464  33.697  1.00  0.00     0.167 HD
ATOM     53  C   UNL A   1      44.215  36.166  31.050  1.00  0.00     0.031 A 
ATOM     54  C   UNL A   1      39.855  33.876  36.126  1.00  0.00     0.031 A 
ATOM     55  C   UNL A   1      44.612  36.487  32.392  1.00  0.00     0.049 A 
ATOM     56  C   UNL A   1      41.138  34.601  36.433  1.00  0.00     0.074 A 
ATOM     57  C   UNL A   1      45.726  37.187  32.817  1.00  0.00     0.029 A 
ATOM     58  N   UNL A   1      43.911  36.111  33.530  1.00  0.00    -0.354 N 
ATOM     59  N   UNL A   1      42.036  35.080  35.601  1.00  0.00    -0.248 NA
ATOM     60  C   UNL A   1      41.442  34.836  37.849  1.00  0.00     0.031 C 
ATOM     61  C   UNL A   1      45.735  37.171  34.216  1.00  0.00     0.029 A 
ATOM     62  C   UNL A   1      44.582  36.538  34.661  1.00  0.00     0.049 A 
ATOM     63  H   UNL A   1      43.062  35.614  33.531  1.00  0.00     0.167 HD
ATOM     64  C   UNL A   1      42.997  35.701  36.392  1.00  0.00     0.074 A 
ATOM     65  C   UNL A   1      42.560  35.545  37.767  1.00  0.00     0.031 C 
ATOM     66  C   UNL A   1      44.129  36.352  36.019  1.00  0.00     0.031 A 
BRANCH  53  67
ATOM     67  C   UNL A   1      45.105  36.540  29.894  1.00  0.00    -0.014 A 
ATOM     68  C   UNL A   1      46.052  35.643  29.364  1.00  0.00     0.010 A 
ATOM     69  C   UNL A   1      45.019  37.836  29.355  1.00  0.00     0.010 A 
ATOM     70  C   UNL A   1      46.934  36.054  28.360  1.00  0.00     0.020 A 
ATOM     71  C   UNL A   1      45.874  38.240  28.327  1.00  0.00     0.020 A 
ATOM     72  C   UNL A   1      46.842  37.353  27.852  1.00  0.00     0.054 A 
BRANCH  72  73
ATOM     73  S   UNL A   1      48.004  37.867  26.558  1.00  0.00     0.124 S 
ATOM     74  O   UNL A   1      48.886  36.707  26.465  1.00  0.00    -0.237 OA
ATOM     75  O   UNL A   1      47.127  38.084  25.410  1.00  0.00    -0.237 OA
ATOM     76  O   UNL A   1      48.620  39.075  27.104  1.00  0.00    -0.744 OA
ENDBRANCH  72  73
ENDBRANCH  53  67
BRANCH  54  77
ATOM     77  C   UNL A   1      38.958  33.371  37.200  1.00  0.00    -0.014 A 
ATOM     78  C   UNL A   1      38.808  31.994  37.437  1.00  0.00     0.010 A 
ATOM     79  C   UNL A   1      38.288  34.284  38.035  1.00  0.00     0.010 A 
ATOM     80  C   UNL A   1      38.011  31.541  38.495  1.00  0.00     0.020 A 
ATOM     81  C   UNL A   1      37.513  33.838  39.109  1.00  0.00     0.020 A 
ATOM     82  C   UNL A   1      37.379  32.467  39.331  1.00  0.00     0.054 A 
BRANCH  82  83
ATOM     83  S   UNL A   1      36.433  31.858  40.754  1.00  0.00     0.124 S 
ATOM     84  O   UNL A   1      36.298  33.061  41.570  1.00  0.00    -0.237 OA
ATOM     85  O   UNL A   1      35.204  31.375  40.130  1.00  0.00    -0.237 OA
ATOM     86  O   UNL A   1      37.289  30.815  41.315  1.00  0.00    -0.744 OA
ENDBRANCH  82  83
ENDBRANCH  54  77
BRANCH  66  87
ATOM     87  C   UNL A   1      44.950  36.986  37.113  1.00  0.00    -0.014 A 
ATOM     88  C   UNL A   1      45.815  36.230  37.923  1.00  0.00     0.010 A 
ATOM     89  C   UNL A   1      44.876  38.379  37.301  1.00  0.00     0.010 A 
ATOM     90  C   UNL A   1      46.547  36.849  38.939  1.00  0.00     0.020 A 
ATOM     91  C   UNL A   1      45.636  39.006  38.290  1.00  0.00     0.020 A 
ATOM     92  C   UNL A   1      46.450  38.233  39.117  1.00  0.00     0.054 A 
BRANCH  92  93
ATOM     93  S   UNL A   1      47.415  39.014  40.438  1.00  0.00     0.124 S 
ATOM     94  O   UNL A   1      46.389  39.291  41.440  1.00  0.00    -0.237 OA
ATOM     95  O   UNL A   1      48.374  37.970  40.793  1.00  0.00    -0.237 OA
ATOM     96  O   UNL A   1      47.993  40.191  39.796  1.00  0.00    -0.744 OA
ENDBRANCH  92  93
ENDBRANCH  66  87
ENDBRANCH  40  41
ENDBRANCH  33  35
ENDBRANCH  32  33
ENDBRANCH  31  32
ENDBRANCH  30  31
ENDBRANCH  29  30
ENDBRANCH  28  29
ENDBRANCH  27  28
ENDBRANCH  26  27
ENDBRANCH  25  26
ENDBRANCH   1  25
TORSDOF 31
ENDMDL
