MODEL 1
REMARK VINA RESULT:      -6.7      0.000      0.000
REMARK SMILES CC(C)Cc1ccc(S(=O)(=O)Nc2cnc(N3CCCC3)c(C(=O)OCCOCCOCCOCCOC(=O)c3ccc(-c4c5nc(c(-c6ccc(S(=O)(=O)[O-])cc6)c6ccc([nH]6)c(-c6ccc(S(=O)(=O)[O-])cc6)c6nc(c(-c7ccc(S(=O)(=O)[O-])cc7)c7ccc4[nH]7)C=C6)C=C5)cc3)c2)cc1
REMARK SMILES IDX 30 1 29 2 28 3 27 4 26 5 25 6 23 7 24 8 22 9 13 10 14 11
REMARK SMILES IDX 100 12 15 13 16 14 12 15 9 17 10 18 11 19 8 20 5 21 6 22
REMARK SMILES IDX 102 23 7 24 101 25 4 26 2 27 1 28 3 29 17 30 18 31 21 32
REMARK SMILES IDX 19 33 20 34 31 35 32 36 33 37 34 38 35 39 36 40 37 41 38 42
REMARK SMILES IDX 39 43 40 44 41 45 99 46 42 47 98 48 43 49 44 50 45 51 92 52
REMARK SMILES IDX 46 53 97 54 91 55 93 56 47 57 96 58 90 59 89 60 48 62 78 63
REMARK SMILES IDX 59 64 77 65 60 66 63 67 76 68 94 69 61 70 62 71 75 73 95 74
REMARK SMILES IDX 64 75 49 76 50 77 58 78 51 79 57 80 52 81 53 82 54 83 55 84
REMARK SMILES IDX 56 85 79 86 80 87 88 88 81 89 87 90 82 91 83 92 84 93 85 94
REMARK SMILES IDX 86 95 65 96 66 97 74 98 67 99 73 100 68 101 69 102 70 103
REMARK SMILES IDX 71 104 72 105
REMARK H PARENT 12 16 93 61 63 72
REMARK Flexibility Score: inf
ROOT
ATOM      1  C   UNL A   1      43.276  23.493  28.847  1.00  0.00     0.188 C 
ENDROOT
BRANCH   1   2
ATOM      2  C   UNL A   1      44.737  23.500  29.337  1.00  0.00     0.188 C 
BRANCH   2   3
ATOM      3  O   UNL A   1      45.652  24.398  28.747  1.00  0.00    -0.376 OA
BRANCH   3   4
ATOM      4  C   UNL A   1      46.466  23.987  27.664  1.00  0.00     0.202 C 
BRANCH   4   5
ATOM      5  C   UNL A   1      46.496  24.635  26.272  1.00  0.00     0.261 C 
BRANCH   5   6
ATOM      6  O   UNL A   1      47.654  25.358  25.868  1.00  0.00    -0.460 OA
BRANCH   6   7
ATOM      7  C   UNL A   1      48.390  25.953  26.831  1.00  0.00     0.342 C 
ATOM      8  O   UNL A   1      49.107  25.402  27.646  1.00  0.00    -0.246 OA
BRANCH   7   9
ATOM      9  C   UNL A   1      48.196  27.415  26.704  1.00  0.00     0.104 A 
ATOM     10  C   UNL A   1      46.800  29.313  27.161  1.00  0.00     0.068 A 
ATOM     11  C   UNL A   1      47.891  30.101  26.814  1.00  0.00     0.140 A 
ATOM     12  C   UNL A   1      46.938  27.947  27.014  1.00  0.00     0.048 A 
ATOM     13  N   UNL A   1      49.078  29.611  26.361  1.00  0.00    -0.236 NA
ATOM     14  C   UNL A   1      49.239  28.267  26.317  1.00  0.00     0.143 A 
BRANCH  10  15
ATOM     15  N   UNL A   1      45.558  29.866  27.611  1.00  0.00    -0.278 N 
ATOM     16  H   UNL A   1      44.983  29.333  28.205  1.00  0.00     0.180 HD
BRANCH  15  17
ATOM     17  S   UNL A   1      45.049  31.432  27.141  1.00  0.00     0.261 S 
ATOM     18  O   UNL A   1      43.615  31.421  27.348  1.00  0.00    -0.201 OA
ATOM     19  O   UNL A   1      45.590  31.632  25.812  1.00  0.00    -0.201 OA
BRANCH  17  20
ATOM     20  C   UNL A   1      45.748  32.688  28.187  1.00  0.00     0.087 A 
ATOM     21  C   UNL A   1      46.699  34.534  30.080  1.00  0.00    -0.048 A 
ATOM     22  C   UNL A   1      45.441  34.704  29.490  1.00  0.00     0.005 A 
ATOM     23  C   UNL A   1      47.535  33.520  29.589  1.00  0.00     0.005 A 
ATOM     24  C   UNL A   1      44.951  33.766  28.577  1.00  0.00     0.022 A 
ATOM     25  C   UNL A   1      47.080  32.636  28.601  1.00  0.00     0.022 A 
BRANCH  21  26
ATOM     26  C   UNL A   1      47.157  35.415  31.229  1.00  0.00     0.038 C 
BRANCH  26  27
ATOM     27  C   UNL A   1      47.708  34.662  32.467  1.00  0.00    -0.013 C 
ATOM     28  C   UNL A   1      49.222  34.491  32.414  1.00  0.00     0.008 C 
ATOM     29  C   UNL A   1      47.367  35.421  33.754  1.00  0.00     0.008 C 
ENDBRANCH  26  27
ENDBRANCH  21  26
ENDBRANCH  17  20
ENDBRANCH  15  17
ENDBRANCH  10  15
BRANCH  14  30
ATOM     30  N   UNL A   1      50.403  27.796  25.788  1.00  0.00    -0.356 N 
ATOM     31  C   UNL A   1      50.522  27.210  24.473  1.00  0.00     0.118 C 
ATOM     32  C   UNL A   1      51.704  28.074  26.360  1.00  0.00     0.118 C 
ATOM     33  C   UNL A   1      51.744  26.315  24.676  1.00  0.00     0.023 C 
ATOM     34  C   UNL A   1      52.656  27.188  25.536  1.00  0.00     0.023 C 
ENDBRANCH  14  30
ENDBRANCH   7   9
ENDBRANCH   6   7
ENDBRANCH   5   6
ENDBRANCH   4   5
ENDBRANCH   3   4
ENDBRANCH   2   3
ENDBRANCH   1   2
BRANCH   1  35
ATOM     35  O   UNL A   1      43.154  23.364  27.445  1.00  0.00    -0.377 OA
BRANCH  35  36
ATOM     36  C   UNL A   1      43.708  22.197  26.851  1.00  0.00     0.188 C 
BRANCH  36  37
ATOM     37  C   UNL A   1      43.131  21.637  25.527  1.00  0.00     0.188 C 
BRANCH  37  38
ATOM     38  O   UNL A   1      41.732  21.827  25.349  1.00  0.00    -0.376 OA
BRANCH  38  39
ATOM     39  C   UNL A   1      40.835  21.271  26.297  1.00  0.00     0.202 C 
BRANCH  39  40
ATOM     40  C   UNL A   1      39.336  21.453  26.025  1.00  0.00     0.261 C 
BRANCH  40  41
ATOM     41  O   UNL A   1      38.692  22.508  26.748  1.00  0.00    -0.460 OA
BRANCH  41  42
ATOM     42  C   UNL A   1      38.468  23.669  26.095  1.00  0.00     0.338 C 
ATOM     43  O   UNL A   1      37.696  23.859  25.171  1.00  0.00    -0.246 OA
BRANCH  42  44
ATOM     44  C   UNL A   1      39.172  24.730  26.841  1.00  0.00     0.060 A 
ATOM     45  C   UNL A   1      38.896  24.907  28.204  1.00  0.00     0.016 A 
ATOM     46  C   UNL A   1      40.124  25.522  26.197  1.00  0.00     0.016 A 
ATOM     47  C   UNL A   1      39.547  25.909  28.920  1.00  0.00     0.010 A 
ATOM     48  C   UNL A   1      40.751  26.545  26.906  1.00  0.00     0.010 A 
ATOM     49  C   UNL A   1      40.434  26.767  28.257  1.00  0.00    -0.014 A 
BRANCH  49  50
ATOM     50  C   UNL A   1      40.813  28.053  28.881  1.00  0.00     0.031 A 
ATOM     51  C   UNL A   1      42.200  28.161  29.453  1.00  0.00     0.074 A 
ATOM     52  C   UNL A   1      39.960  29.089  28.951  1.00  0.00     0.049 A 
ATOM     53  N   UNL A   1      42.746  29.133  30.132  1.00  0.00    -0.248 NA
ATOM     54  C   UNL A   1      43.089  27.005  29.230  1.00  0.00     0.031 C 
ATOM     55  C   UNL A   1      38.613  29.122  28.383  1.00  0.00     0.029 A 
ATOM     56  N   UNL A   1      40.106  30.315  29.548  1.00  0.00    -0.354 N 
ATOM     57  C   UNL A   1      44.034  28.702  30.431  1.00  0.00     0.074 A 
ATOM     58  C   UNL A   1      44.180  27.374  29.883  1.00  0.00     0.031 C 
ATOM     59  C   UNL A   1      38.050  30.309  28.674  1.00  0.00     0.029 A 
ATOM     60  C   UNL A   1      38.979  31.098  29.482  1.00  0.00     0.049 A 
ATOM     61  H   UNL A   1      40.940  30.607  29.983  1.00  0.00     0.167 HD
ATOM     62  C   UNL A   1      45.008  29.355  31.104  1.00  0.00     0.031 A 
ATOM     63  C   UNL A   1      38.722  32.300  30.037  1.00  0.00     0.031 A 
ATOM     64  C   UNL A   1      44.846  30.666  31.670  1.00  0.00     0.049 A 
ATOM     65  C   UNL A   1      39.793  32.974  30.859  1.00  0.00     0.074 A 
ATOM     66  C   UNL A   1      45.769  31.420  32.370  1.00  0.00     0.029 A 
ATOM     67  N   UNL A   1      43.679  31.413  31.607  1.00  0.00    -0.354 N 
ATOM     68  N   UNL A   1      41.011  32.564  31.125  1.00  0.00    -0.248 NA
ATOM     69  C   UNL A   1      39.455  34.275  31.451  1.00  0.00     0.031 C 
ATOM     70  C   UNL A   1      45.140  32.598  32.785  1.00  0.00     0.029 A 
ATOM     71  C   UNL A   1      43.849  32.610  32.279  1.00  0.00     0.049 A 
ATOM     72  H   UNL A   1      42.852  31.131  31.153  1.00  0.00     0.167 HD
ATOM     73  C   UNL A   1      41.596  33.574  31.883  1.00  0.00     0.074 A 
ATOM     74  C   UNL A   1      40.599  34.616  32.029  1.00  0.00     0.031 C 
ATOM     75  C   UNL A   1      42.847  33.638  32.405  1.00  0.00     0.031 A 
BRANCH  62  76
ATOM     76  C   UNL A   1      46.313  28.632  31.304  1.00  0.00    -0.014 A 
ATOM     77  C   UNL A   1      47.434  28.907  30.499  1.00  0.00     0.010 A 
ATOM     78  C   UNL A   1      46.422  27.667  32.321  1.00  0.00     0.010 A 
ATOM     79  C   UNL A   1      48.624  28.199  30.679  1.00  0.00     0.020 A 
ATOM     80  C   UNL A   1      47.620  26.979  32.525  1.00  0.00     0.020 A 
ATOM     81  C   UNL A   1      48.709  27.237  31.690  1.00  0.00     0.054 A 
BRANCH  81  82
ATOM     82  S   UNL A   1      50.271  26.342  31.910  1.00  0.00     0.124 S 
ATOM     83  O   UNL A   1      51.250  27.335  31.479  1.00  0.00    -0.237 OA
ATOM     84  O   UNL A   1      50.269  26.044  33.340  1.00  0.00    -0.237 OA
ATOM     85  O   UNL A   1      50.134  25.182  31.034  1.00  0.00    -0.744 OA
ENDBRANCH  81  82
ENDBRANCH  62  76
BRANCH  63  86
ATOM     86  C   UNL A   1      37.389  32.938  29.848  1.00  0.00    -0.014 A 
ATOM     87  C   UNL A   1      36.465  32.995  30.906  1.00  0.00     0.010 A 
ATOM     88  C   UNL A   1      37.038  33.497  28.605  1.00  0.00     0.010 A 
ATOM     89  C   UNL A   1      35.212  33.588  30.722  1.00  0.00     0.020 A 
ATOM     90  C   UNL A   1      35.797  34.116  28.426  1.00  0.00     0.020 A 
ATOM     91  C   UNL A   1      34.889  34.150  29.484  1.00  0.00     0.054 A 
BRANCH  91  92
ATOM     92  S   UNL A   1      33.282  34.973  29.291  1.00  0.00     0.124 S 
ATOM     93  O   UNL A   1      33.674  36.314  28.873  1.00  0.00    -0.237 OA
ATOM     94  O   UNL A   1      32.632  34.155  28.270  1.00  0.00    -0.237 OA
ATOM     95  O   UNL A   1      32.687  34.879  30.623  1.00  0.00    -0.744 OA
ENDBRANCH  91  92
ENDBRANCH  63  86
BRANCH  75  96
ATOM     96  C   UNL A   1      43.240  34.896  33.137  1.00  0.00    -0.014 A 
ATOM     97  C   UNL A   1      43.225  34.966  34.541  1.00  0.00     0.010 A 
ATOM     98  C   UNL A   1      43.711  35.999  32.401  1.00  0.00     0.010 A 
ATOM     99  C   UNL A   1      43.651  36.127  35.193  1.00  0.00     0.020 A 
ATOM    100  C   UNL A   1      44.167  37.149  33.049  1.00  0.00     0.020 A 
ATOM    101  C   UNL A   1      44.123  37.210  34.443  1.00  0.00     0.054 A 
BRANCH 101 102
ATOM    102  S   UNL A   1      44.725  38.682  35.315  1.00  0.00     0.124 S 
ATOM    103  O   UNL A   1      46.093  38.793  34.817  1.00  0.00    -0.237 OA
ATOM    104  O   UNL A   1      43.803  39.721  34.861  1.00  0.00    -0.237 OA
ATOM    105  O   UNL A   1      44.604  38.324  36.727  1.00  0.00    -0.744 OA
ENDBRANCH 101 102
ENDBRANCH  75  96
ENDBRANCH  49  50
ENDBRANCH  42  44
ENDBRANCH  41  42
ENDBRANCH  40  41
ENDBRANCH  39  40
ENDBRANCH  38  39
ENDBRANCH  37  38
ENDBRANCH  36  37
ENDBRANCH  35  36
ENDBRANCH   1  35
TORSDOF 29
ENDMDL
MODEL 2
REMARK VINA RESULT:      -5.5     10.042     16.176
REMARK SMILES CC(C)Cc1ccc(S(=O)(=O)Nc2cnc(N3CCCC3)c(C(=O)OCCOCCOCCOCCOC(=O)c3ccc(-c4c5nc(c(-c6ccc(S(=O)(=O)[O-])cc6)c6ccc([nH]6)c(-c6ccc(S(=O)(=O)[O-])cc6)c6nc(c(-c7ccc(S(=O)(=O)[O-])cc7)c7ccc4[nH]7)C=C6)C=C5)cc3)c2)cc1
REMARK SMILES IDX 30 1 29 2 28 3 27 4 26 5 25 6 23 7 24 8 22 9 13 10 14 11
REMARK SMILES IDX 100 12 15 13 16 14 12 15 9 17 10 18 11 19 8 20 5 21 6 22
REMARK SMILES IDX 102 23 7 24 101 25 4 26 2 27 1 28 3 29 17 30 18 31 21 32
REMARK SMILES IDX 19 33 20 34 31 35 32 36 33 37 34 38 35 39 36 40 37 41 38 42
REMARK SMILES IDX 39 43 40 44 41 45 99 46 42 47 98 48 43 49 44 50 45 51 92 52
REMARK SMILES IDX 46 53 97 54 91 55 93 56 47 57 96 58 90 59 89 60 48 62 78 63
REMARK SMILES IDX 59 64 77 65 60 66 63 67 76 68 94 69 61 70 62 71 75 73 95 74
REMARK SMILES IDX 64 75 49 76 50 77 58 78 51 79 57 80 52 81 53 82 54 83 55 84
REMARK SMILES IDX 56 85 79 86 80 87 88 88 81 89 87 90 82 91 83 92 84 93 85 94
REMARK SMILES IDX 86 95 65 96 66 97 74 98 67 99 73 100 68 101 69 102 70 103
REMARK SMILES IDX 71 104 72 105
REMARK H PARENT 12 16 93 61 63 72
REMARK Flexibility Score: inf
ROOT
ATOM      1  C   UNL A   1      44.621  28.003  25.651  1.00  0.00     0.188 C 
ENDROOT
BRANCH   1   2
ATOM      2  C   UNL A   1      44.913  26.517  25.938  1.00  0.00     0.188 C 
BRANCH   2   3
ATOM      3  O   UNL A   1      44.488  25.544  25.007  1.00  0.00    -0.376 OA
BRANCH   3   4
ATOM      4  C   UNL A   1      44.673  24.166  25.271  1.00  0.00     0.202 C 
BRANCH   4   5
ATOM      5  C   UNL A   1      43.772  23.296  26.161  1.00  0.00     0.261 C 
BRANCH   5   6
ATOM      6  O   UNL A   1      42.363  23.495  26.125  1.00  0.00    -0.460 OA
BRANCH   6   7
ATOM      7  C   UNL A   1      41.644  23.085  27.192  1.00  0.00     0.342 C 
ATOM      8  O   UNL A   1      41.944  23.211  28.365  1.00  0.00    -0.246 OA
BRANCH   7   9
ATOM      9  C   UNL A   1      40.395  22.475  26.683  1.00  0.00     0.104 A 
ATOM     10  C   UNL A   1      38.163  22.823  25.872  1.00  0.00     0.068 A 
ATOM     11  C   UNL A   1      38.195  21.501  25.447  1.00  0.00     0.140 A 
ATOM     12  C   UNL A   1      39.255  23.283  26.582  1.00  0.00     0.048 A 
ATOM     13  N   UNL A   1      39.232  20.648  25.670  1.00  0.00    -0.236 NA
ATOM     14  C   UNL A   1      40.341  21.135  26.277  1.00  0.00     0.143 A 
BRANCH  10  15
ATOM     15  N   UNL A   1      37.042  23.684  25.641  1.00  0.00    -0.278 N 
ATOM     16  H   UNL A   1      37.141  24.652  25.793  1.00  0.00     0.180 HD
BRANCH  15  17
ATOM     17  S   UNL A   1      35.535  23.072  25.106  1.00  0.00     0.261 S 
ATOM     18  O   UNL A   1      35.109  22.185  26.170  1.00  0.00    -0.201 OA
ATOM     19  O   UNL A   1      35.780  22.548  23.778  1.00  0.00    -0.201 OA
BRANCH  17  20
ATOM     20  C   UNL A   1      34.324  24.364  24.947  1.00  0.00     0.087 A 
ATOM     21  C   UNL A   1      32.192  26.178  24.701  1.00  0.00    -0.048 A 
ATOM     22  C   UNL A   1      32.715  25.536  23.572  1.00  0.00     0.005 A 
ATOM     23  C   UNL A   1      32.858  26.021  25.926  1.00  0.00     0.005 A 
ATOM     24  C   UNL A   1      33.749  24.605  23.697  1.00  0.00     0.022 A 
ATOM     25  C   UNL A   1      33.959  25.160  26.035  1.00  0.00     0.022 A 
BRANCH  21  26
ATOM     26  C   UNL A   1      30.933  27.021  24.617  1.00  0.00     0.038 C 
BRANCH  26  27
ATOM     27  C   UNL A   1      31.126  28.453  24.056  1.00  0.00    -0.013 C 
ATOM     28  C   UNL A   1      32.514  29.010  24.356  1.00  0.00     0.008 C 
ATOM     29  C   UNL A   1      30.936  28.465  22.535  1.00  0.00     0.008 C 
ENDBRANCH  26  27
ENDBRANCH  21  26
ENDBRANCH  17  20
ENDBRANCH  15  17
ENDBRANCH  10  15
BRANCH  14  30
ATOM     30  N   UNL A   1      41.337  20.250  26.561  1.00  0.00    -0.356 N 
ATOM     31  C   UNL A   1      42.484  20.015  25.715  1.00  0.00     0.118 C 
ATOM     32  C   UNL A   1      41.510  19.643  27.865  1.00  0.00     0.118 C 
ATOM     33  C   UNL A   1      42.840  18.585  26.120  1.00  0.00     0.023 C 
ATOM     34  C   UNL A   1      42.622  18.603  27.632  1.00  0.00     0.023 C 
ENDBRANCH  14  30
ENDBRANCH   7   9
ENDBRANCH   6   7
ENDBRANCH   5   6
ENDBRANCH   4   5
ENDBRANCH   3   4
ENDBRANCH   2   3
ENDBRANCH   1   2
BRANCH   1  35
ATOM     35  O   UNL A   1      44.636  28.812  26.809  1.00  0.00    -0.377 OA
BRANCH  35  36
ATOM     36  C   UNL A   1      43.641  29.824  26.905  1.00  0.00     0.188 C 
BRANCH  36  37
ATOM     37  C   UNL A   1      44.041  31.318  26.990  1.00  0.00     0.188 C 
BRANCH  37  38
ATOM     38  O   UNL A   1      44.653  31.847  25.819  1.00  0.00    -0.376 OA
BRANCH  38  39
ATOM     39  C   UNL A   1      44.846  33.248  25.715  1.00  0.00     0.202 C 
BRANCH  39  40
ATOM     40  C   UNL A   1      44.184  34.122  26.789  1.00  0.00     0.261 C 
BRANCH  40  41
ATOM     41  O   UNL A   1      44.178  35.531  26.533  1.00  0.00    -0.460 OA
BRANCH  41  42
ATOM     42  C   UNL A   1      44.117  36.360  27.598  1.00  0.00     0.338 C 
ATOM     43  O   UNL A   1      43.776  36.078  28.733  1.00  0.00    -0.246 OA
BRANCH  42  44
ATOM     44  C   UNL A   1      44.746  37.632  27.195  1.00  0.00     0.060 A 
ATOM     45  C   UNL A   1      46.023  37.612  26.615  1.00  0.00     0.016 A 
ATOM     46  C   UNL A   1      44.059  38.835  27.363  1.00  0.00     0.016 A 
ATOM     47  C   UNL A   1      46.634  38.806  26.236  1.00  0.00     0.010 A 
ATOM     48  C   UNL A   1      44.682  40.032  27.012  1.00  0.00     0.010 A 
ATOM     49  C   UNL A   1      45.987  40.022  26.487  1.00  0.00    -0.014 A 
BRANCH  49  50
ATOM     50  C   UNL A   1      46.762  41.281  26.470  1.00  0.00     0.031 A 
ATOM     51  C   UNL A   1      46.640  42.151  25.250  1.00  0.00     0.074 A 
ATOM     52  C   UNL A   1      47.557  41.641  27.493  1.00  0.00     0.049 A 
ATOM     53  N   UNL A   1      47.279  43.247  24.942  1.00  0.00    -0.248 NA
ATOM     54  C   UNL A   1      45.663  41.717  24.234  1.00  0.00     0.031 C 
ATOM     55  C   UNL A   1      47.711  40.909  28.748  1.00  0.00     0.029 A 
ATOM     56  N   UNL A   1      48.396  42.718  27.622  1.00  0.00    -0.354 N 
ATOM     57  C   UNL A   1      46.795  43.624  23.695  1.00  0.00     0.074 A 
ATOM     58  C   UNL A   1      45.829  42.630  23.291  1.00  0.00     0.031 C 
ATOM     59  C   UNL A   1      48.607  41.554  29.518  1.00  0.00     0.029 A 
ATOM     60  C   UNL A   1      49.118  42.716  28.791  1.00  0.00     0.049 A 
ATOM     61  H   UNL A   1      48.474  43.426  26.942  1.00  0.00     0.167 HD
ATOM     62  C   UNL A   1      47.128  44.704  22.951  1.00  0.00     0.031 A 
ATOM     63  C   UNL A   1      50.097  43.544  29.209  1.00  0.00     0.031 A 
ATOM     64  C   UNL A   1      48.110  45.675  23.348  1.00  0.00     0.049 A 
ATOM     65  C   UNL A   1      50.516  44.692  28.325  1.00  0.00     0.074 A 
ATOM     66  C   UNL A   1      48.522  46.807  22.671  1.00  0.00     0.029 A 
ATOM     67  N   UNL A   1      48.841  45.620  24.526  1.00  0.00    -0.354 N 
ATOM     68  N   UNL A   1      50.043  45.048  27.154  1.00  0.00    -0.248 NA
ATOM     69  C   UNL A   1      51.596  45.554  28.823  1.00  0.00     0.031 C 
ATOM     70  C   UNL A   1      49.547  47.405  23.411  1.00  0.00     0.029 A 
ATOM     71  C   UNL A   1      49.721  46.686  24.584  1.00  0.00     0.049 A 
ATOM     72  H   UNL A   1      48.747  44.926  25.218  1.00  0.00     0.167 HD
ATOM     73  C   UNL A   1      50.743  46.196  26.792  1.00  0.00     0.074 A 
ATOM     74  C   UNL A   1      51.667  46.477  27.873  1.00  0.00     0.031 C 
ATOM     75  C   UNL A   1      50.627  46.953  25.673  1.00  0.00     0.031 A 
BRANCH  62  76
ATOM     76  C   UNL A   1      46.456  44.854  21.612  1.00  0.00    -0.014 A 
ATOM     77  C   UNL A   1      47.038  44.340  20.439  1.00  0.00     0.010 A 
ATOM     78  C   UNL A   1      45.215  45.511  21.529  1.00  0.00     0.010 A 
ATOM     79  C   UNL A   1      46.413  44.521  19.203  1.00  0.00     0.020 A 
ATOM     80  C   UNL A   1      44.572  45.667  20.300  1.00  0.00     0.020 A 
ATOM     81  C   UNL A   1      45.185  45.186  19.141  1.00  0.00     0.054 A 
BRANCH  81  82
ATOM     82  S   UNL A   1      44.390  45.395  17.524  1.00  0.00     0.124 S 
ATOM     83  O   UNL A   1      43.521  46.544  17.762  1.00  0.00    -0.237 OA
ATOM     84  O   UNL A   1      45.526  45.640  16.639  1.00  0.00    -0.237 OA
ATOM     85  O   UNL A   1      43.698  44.126  17.310  1.00  0.00    -0.744 OA
ENDBRANCH  81  82
ENDBRANCH  62  76
BRANCH  63  86
ATOM     86  C   UNL A   1      50.762  43.308  30.521  1.00  0.00    -0.014 A 
ATOM     87  C   UNL A   1      50.239  43.868  31.701  1.00  0.00     0.010 A 
ATOM     88  C   UNL A   1      51.924  42.517  30.599  1.00  0.00     0.010 A 
ATOM     89  C   UNL A   1      50.870  43.651  32.929  1.00  0.00     0.020 A 
ATOM     90  C   UNL A   1      52.541  42.275  31.830  1.00  0.00     0.020 A 
ATOM     91  C   UNL A   1      52.014  42.850  32.987  1.00  0.00     0.054 A 
BRANCH  91  92
ATOM     92  S   UNL A   1      52.776  42.530  34.603  1.00  0.00     0.124 S 
ATOM     93  O   UNL A   1      53.356  43.828  34.929  1.00  0.00    -0.237 OA
ATOM     94  O   UNL A   1      51.631  42.126  35.414  1.00  0.00    -0.237 OA
ATOM     95  O   UNL A   1      53.737  41.466  34.323  1.00  0.00    -0.744 OA
ENDBRANCH  91  92
ENDBRANCH  63  86
BRANCH  75  96
ATOM     96  C   UNL A   1      51.476  48.195  25.573  1.00  0.00    -0.014 A 
ATOM     97  C   UNL A   1      51.183  49.349  26.319  1.00  0.00     0.010 A 
ATOM     98  C   UNL A   1      52.636  48.171  24.776  1.00  0.00     0.010 A 
ATOM     99  C   UNL A   1      52.022  50.465  26.250  1.00  0.00     0.020 A 
ATOM    100  C   UNL A   1      53.494  49.272  24.729  1.00  0.00     0.020 A 
ATOM    101  C   UNL A   1      53.174  50.418  25.458  1.00  0.00     0.054 A 
BRANCH 101 102
ATOM    102  S   UNL A   1      54.278  51.857  25.432  1.00  0.00     0.124 S 
ATOM    103  O   UNL A   1      53.827  52.565  24.237  1.00  0.00    -0.237 OA
ATOM    104  O   UNL A   1      53.977  52.513  26.703  1.00  0.00    -0.237 OA
ATOM    105  O   UNL A   1      55.613  51.270  25.341  1.00  0.00    -0.744 OA
ENDBRANCH 101 102
ENDBRANCH  75  96
ENDBRANCH  49  50
ENDBRANCH  42  44
ENDBRANCH  41  42
ENDBRANCH  40  41
ENDBRANCH  39  40
ENDBRANCH  38  39
ENDBRANCH  37  38
ENDBRANCH  36  37
ENDBRANCH  35  36
ENDBRANCH   1  35
TORSDOF 29
ENDMDL
MODEL 3
REMARK VINA RESULT:      -5.3      6.276     11.215
REMARK SMILES CC(C)Cc1ccc(S(=O)(=O)Nc2cnc(N3CCCC3)c(C(=O)OCCOCCOCCOCCOC(=O)c3ccc(-c4c5nc(c(-c6ccc(S(=O)(=O)[O-])cc6)c6ccc([nH]6)c(-c6ccc(S(=O)(=O)[O-])cc6)c6nc(c(-c7ccc(S(=O)(=O)[O-])cc7)c7ccc4[nH]7)C=C6)C=C5)cc3)c2)cc1
REMARK SMILES IDX 30 1 29 2 28 3 27 4 26 5 25 6 23 7 24 8 22 9 13 10 14 11
REMARK SMILES IDX 100 12 15 13 16 14 12 15 9 17 10 18 11 19 8 20 5 21 6 22
REMARK SMILES IDX 102 23 7 24 101 25 4 26 2 27 1 28 3 29 17 30 18 31 21 32
REMARK SMILES IDX 19 33 20 34 31 35 32 36 33 37 34 38 35 39 36 40 37 41 38 42
REMARK SMILES IDX 39 43 40 44 41 45 99 46 42 47 98 48 43 49 44 50 45 51 92 52
REMARK SMILES IDX 46 53 97 54 91 55 93 56 47 57 96 58 90 59 89 60 48 62 78 63
REMARK SMILES IDX 59 64 77 65 60 66 63 67 76 68 94 69 61 70 62 71 75 73 95 74
REMARK SMILES IDX 64 75 49 76 50 77 58 78 51 79 57 80 52 81 53 82 54 83 55 84
REMARK SMILES IDX 56 85 79 86 80 87 88 88 81 89 87 90 82 91 83 92 84 93 85 94
REMARK SMILES IDX 86 95 65 96 66 97 74 98 67 99 73 100 68 101 69 102 70 103
REMARK SMILES IDX 71 104 72 105
REMARK H PARENT 12 16 93 61 63 72
REMARK Flexibility Score: inf
ROOT
ATOM      1  C   UNL A   1      40.016  33.854  30.192  1.00  0.00     0.188 C 
ENDROOT
BRANCH   1   2
ATOM      2  C   UNL A   1      40.078  32.599  31.083  1.00  0.00     0.188 C 
BRANCH   2   3
ATOM      3  O   UNL A   1      39.829  31.336  30.504  1.00  0.00    -0.376 OA
BRANCH   3   4
ATOM      4  C   UNL A   1      40.880  30.596  29.910  1.00  0.00     0.202 C 
BRANCH   4   5
ATOM      5  C   UNL A   1      41.179  29.110  30.160  1.00  0.00     0.261 C 
BRANCH   5   6
ATOM      6  O   UNL A   1      41.545  28.283  29.060  1.00  0.00    -0.460 OA
BRANCH   6   7
ATOM      7  C   UNL A   1      42.811  27.815  29.020  1.00  0.00     0.342 C 
ATOM      8  O   UNL A   1      43.587  27.731  29.955  1.00  0.00    -0.246 OA
BRANCH   7   9
ATOM      9  C   UNL A   1      43.087  27.387  27.631  1.00  0.00     0.104 A 
ATOM     10  C   UNL A   1      42.843  25.685  25.957  1.00  0.00     0.068 A 
ATOM     11  C   UNL A   1      43.251  26.642  25.035  1.00  0.00     0.140 A 
ATOM     12  C   UNL A   1      42.851  26.050  27.289  1.00  0.00     0.048 A 
ATOM     13  N   UNL A   1      43.636  27.907  25.362  1.00  0.00    -0.236 NA
ATOM     14  C   UNL A   1      43.542  28.288  26.659  1.00  0.00     0.143 A 
BRANCH  10  15
ATOM     15  N   UNL A   1      42.470  24.356  25.577  1.00  0.00    -0.278 N 
ATOM     16  H   UNL A   1      41.529  24.164  25.362  1.00  0.00     0.180 HD
BRANCH  15  17
ATOM     17  S   UNL A   1      43.621  23.090  25.487  1.00  0.00     0.261 S 
ATOM     18  O   UNL A   1      43.561  22.648  24.109  1.00  0.00    -0.201 OA
ATOM     19  O   UNL A   1      43.278  22.179  26.558  1.00  0.00    -0.201 OA
BRANCH  17  20
ATOM     20  C   UNL A   1      45.267  23.681  25.806  1.00  0.00     0.087 A 
ATOM     21  C   UNL A   1      47.755  24.904  26.263  1.00  0.00    -0.048 A 
ATOM     22  C   UNL A   1      47.328  24.626  24.959  1.00  0.00     0.005 A 
ATOM     23  C   UNL A   1      46.993  24.415  27.334  1.00  0.00     0.005 A 
ATOM     24  C   UNL A   1      46.074  24.053  24.728  1.00  0.00     0.022 A 
ATOM     25  C   UNL A   1      45.780  23.751  27.103  1.00  0.00     0.022 A 
BRANCH  21  26
ATOM     26  C   UNL A   1      49.008  25.720  26.526  1.00  0.00     0.038 C 
BRANCH  26  27
ATOM     27  C   UNL A   1      50.186  24.945  27.169  1.00  0.00    -0.013 C 
ATOM     28  C   UNL A   1      51.522  25.268  26.508  1.00  0.00     0.008 C 
ATOM     29  C   UNL A   1      50.305  25.285  28.658  1.00  0.00     0.008 C 
ENDBRANCH  26  27
ENDBRANCH  21  26
ENDBRANCH  17  20
ENDBRANCH  15  17
ENDBRANCH  10  15
BRANCH  14  30
ATOM     30  N   UNL A   1      44.004  29.529  26.978  1.00  0.00    -0.356 N 
ATOM     31  C   UNL A   1      43.182  30.717  27.027  1.00  0.00     0.118 C 
ATOM     32  C   UNL A   1      45.303  29.763  27.574  1.00  0.00     0.118 C 
ATOM     33  C   UNL A   1      44.232  31.793  26.758  1.00  0.00     0.023 C 
ATOM     34  C   UNL A   1      45.430  31.298  27.567  1.00  0.00     0.023 C 
ENDBRANCH  14  30
ENDBRANCH   7   9
ENDBRANCH   6   7
ENDBRANCH   5   6
ENDBRANCH   4   5
ENDBRANCH   3   4
ENDBRANCH   2   3
ENDBRANCH   1   2
BRANCH   1  35
ATOM     35  O   UNL A   1      39.000  33.799  29.213  1.00  0.00    -0.377 OA
BRANCH  35  36
ATOM     36  C   UNL A   1      37.798  34.509  29.485  1.00  0.00     0.188 C 
BRANCH  36  37
ATOM     37  C   UNL A   1      36.434  33.969  28.987  1.00  0.00     0.188 C 
BRANCH  37  38
ATOM     38  O   UNL A   1      35.372  34.049  29.932  1.00  0.00    -0.376 OA
BRANCH  38  39
ATOM     39  C   UNL A   1      34.685  32.864  30.299  1.00  0.00     0.202 C 
BRANCH  39  40
ATOM     40  C   UNL A   1      35.465  31.547  30.187  1.00  0.00     0.261 C 
BRANCH  40  41
ATOM     41  O   UNL A   1      36.606  31.419  31.043  1.00  0.00    -0.460 OA
BRANCH  41  42
ATOM     42  C   UNL A   1      36.551  30.495  32.025  1.00  0.00     0.338 C 
ATOM     43  O   UNL A   1      36.273  29.314  31.913  1.00  0.00    -0.246 OA
BRANCH  42  44
ATOM     44  C   UNL A   1      37.102  31.122  33.243  1.00  0.00     0.060 A 
ATOM     45  C   UNL A   1      36.597  32.359  33.666  1.00  0.00     0.016 A 
ATOM     46  C   UNL A   1      38.093  30.468  33.977  1.00  0.00     0.016 A 
ATOM     47  C   UNL A   1      37.111  32.967  34.809  1.00  0.00     0.010 A 
ATOM     48  C   UNL A   1      38.630  31.091  35.103  1.00  0.00     0.010 A 
ATOM     49  C   UNL A   1      38.169  32.359  35.496  1.00  0.00    -0.014 A 
BRANCH  49  50
ATOM     50  C   UNL A   1      38.981  33.155  36.442  1.00  0.00     0.031 A 
ATOM     51  C   UNL A   1      38.600  33.100  37.896  1.00  0.00     0.074 A 
ATOM     52  C   UNL A   1      40.014  33.911  36.032  1.00  0.00     0.049 A 
ATOM     53  N   UNL A   1      39.081  33.770  38.908  1.00  0.00    -0.248 NA
ATOM     54  C   UNL A   1      37.520  32.161  38.252  1.00  0.00     0.031 C 
ATOM     55  C   UNL A   1      40.512  33.998  34.660  1.00  0.00     0.029 A 
ATOM     56  N   UNL A   1      40.823  34.760  36.742  1.00  0.00    -0.354 N 
ATOM     57  C   UNL A   1      38.355  33.347  40.015  1.00  0.00     0.074 A 
ATOM     58  C   UNL A   1      37.385  32.383  39.549  1.00  0.00     0.031 C 
ATOM     59  C   UNL A   1      41.536  34.870  34.627  1.00  0.00     0.029 A 
ATOM     60  C   UNL A   1      41.736  35.431  35.963  1.00  0.00     0.049 A 
ATOM     61  H   UNL A   1      40.757  34.880  37.717  1.00  0.00     0.167 HD
ATOM     62  C   UNL A   1      38.484  33.729  41.306  1.00  0.00     0.031 A 
ATOM     63  C   UNL A   1      42.609  36.404  36.292  1.00  0.00     0.031 A 
ATOM     64  C   UNL A   1      39.433  34.709  41.758  1.00  0.00     0.049 A 
ATOM     65  C   UNL A   1      42.677  36.880  37.722  1.00  0.00     0.074 A 
ATOM     66  C   UNL A   1      39.649  35.168  43.043  1.00  0.00     0.029 A 
ATOM     67  N   UNL A   1      40.319  35.386  40.932  1.00  0.00    -0.354 N 
ATOM     68  N   UNL A   1      41.995  36.464  38.763  1.00  0.00    -0.248 NA
ATOM     69  C   UNL A   1      43.636  37.952  38.021  1.00  0.00     0.031 C 
ATOM     70  C   UNL A   1      40.623  36.169  42.987  1.00  0.00     0.029 A 
ATOM     71  C   UNL A   1      41.067  36.280  41.678  1.00  0.00     0.049 A 
ATOM     72  H   UNL A   1      40.402  35.251  39.961  1.00  0.00     0.167 HD
ATOM     73  C   UNL A   1      42.469  37.198  39.847  1.00  0.00     0.074 A 
ATOM     74  C   UNL A   1      43.500  38.079  39.334  1.00  0.00     0.031 C 
ATOM     75  C   UNL A   1      42.094  37.143  41.150  1.00  0.00     0.031 A 
BRANCH  62  76
ATOM     76  C   UNL A   1      37.537  33.118  42.305  1.00  0.00    -0.014 A 
ATOM     77  C   UNL A   1      36.290  33.705  42.585  1.00  0.00     0.010 A 
ATOM     78  C   UNL A   1      37.899  31.930  42.966  1.00  0.00     0.010 A 
ATOM     79  C   UNL A   1      35.442  33.139  43.541  1.00  0.00     0.020 A 
ATOM     80  C   UNL A   1      37.041  31.345  43.899  1.00  0.00     0.020 A 
ATOM     81  C   UNL A   1      35.825  31.964  44.194  1.00  0.00     0.054 A 
BRANCH  81  82
ATOM     82  S   UNL A   1      34.699  31.245  45.421  1.00  0.00     0.124 S 
ATOM     83  O   UNL A   1      33.422  31.844  45.045  1.00  0.00    -0.237 OA
ATOM     84  O   UNL A   1      34.820  29.812  45.164  1.00  0.00    -0.237 OA
ATOM     85  O   UNL A   1      35.244  31.695  46.699  1.00  0.00    -0.744 OA
ENDBRANCH  81  82
ENDBRANCH  62  76
BRANCH  63  86
ATOM     86  C   UNL A   1      43.480  37.008  35.244  1.00  0.00    -0.014 A 
ATOM     87  C   UNL A   1      43.057  38.139  34.524  1.00  0.00     0.010 A 
ATOM     88  C   UNL A   1      44.743  36.454  34.963  1.00  0.00     0.010 A 
ATOM     89  C   UNL A   1      43.874  38.697  33.537  1.00  0.00     0.020 A 
ATOM     90  C   UNL A   1      45.575  37.027  33.996  1.00  0.00     0.020 A 
ATOM     91  C   UNL A   1      45.131  38.141  33.284  1.00  0.00     0.054 A 
BRANCH  91  92
ATOM     92  S   UNL A   1      46.200  38.925  32.043  1.00  0.00     0.124 S 
ATOM     93  O   UNL A   1      47.011  37.802  31.586  1.00  0.00    -0.237 OA
ATOM     94  O   UNL A   1      45.233  39.441  31.078  1.00  0.00    -0.237 OA
ATOM     95  O   UNL A   1      46.915  39.948  32.804  1.00  0.00    -0.744 OA
ENDBRANCH  91  92
ENDBRANCH  63  86
BRANCH  75  96
ATOM     96  C   UNL A   1      42.832  38.015  42.132  1.00  0.00    -0.014 A 
ATOM     97  C   UNL A   1      44.017  37.584  42.754  1.00  0.00     0.010 A 
ATOM     98  C   UNL A   1      42.371  39.323  42.370  1.00  0.00     0.010 A 
ATOM     99  C   UNL A   1      44.711  38.438  43.616  1.00  0.00     0.020 A 
ATOM    100  C   UNL A   1      43.079  40.190  43.206  1.00  0.00     0.020 A 
ATOM    101  C   UNL A   1      44.240  39.737  43.833  1.00  0.00     0.054 A 
BRANCH 101 102
ATOM    102  S   UNL A   1      45.191  40.844  44.910  1.00  0.00     0.124 S 
ATOM    103  O   UNL A   1      46.214  41.350  43.999  1.00  0.00    -0.237 OA
ATOM    104  O   UNL A   1      44.187  41.819  45.332  1.00  0.00    -0.237 OA
ATOM    105  O   UNL A   1      45.681  39.964  45.969  1.00  0.00    -0.744 OA
ENDBRANCH 101 102
ENDBRANCH  75  96
ENDBRANCH  49  50
ENDBRANCH  42  44
ENDBRANCH  41  42
ENDBRANCH  40  41
ENDBRANCH  39  40
ENDBRANCH  38  39
ENDBRANCH  37  38
ENDBRANCH  36  37
ENDBRANCH  35  36
ENDBRANCH   1  35
TORSDOF 29
ENDMDL
