MODEL 1
REMARK VINA RESULT:      -9.1      0.000      0.000
REMARK SMILES O=C(C[C@H]1N=NC(=O)c2ccccc21)N[C@@H](CC1=c2ccccc2=NC1)C(=O)OCCOCCOCCOCCOC(=O)c1ccc(-c2c3nc(c(-c4ccc(S(=O)(=O)[O-])cc4)c4ccc([nH]4)c(-c4ccc(S(=O)(=O)[O-])cc4)c4nc(c(-c5ccc(S(=O)(=O)[O-])cc5)c5ccc2[nH]5)C=C4)C=C3)cc1
REMARK SMILES IDX 35 1 34 2 33 3 32 4 31 5 30 6 29 7 27 8 28 9 16 10 15 11
REMARK SMILES IDX 1 12 2 13 3 15 4 16 5 17 14 18 6 19 9 20 13 21 7 22 10 23
REMARK SMILES IDX 12 24 8 25 11 26 17 27 18 28 19 29 26 30 20 31 24 32 25 33
REMARK SMILES IDX 21 34 23 35 22 36 36 37 37 38 38 39 39 40 40 41 41 42 42 43
REMARK SMILES IDX 43 44 44 45 45 46 103 47 46 48 102 49 47 50 48 51 49 52
REMARK SMILES IDX 96 53 50 54 101 55 95 56 97 57 51 58 100 59 94 60 93 61
REMARK SMILES IDX 52 63 82 64 63 65 81 66 64 67 67 68 80 69 98 70 65 71 66 72
REMARK SMILES IDX 79 74 99 75 68 76 53 77 54 78 62 79 55 80 61 81 56 82 57 83
REMARK SMILES IDX 58 84 59 85 60 86 83 87 84 88 92 89 85 90 91 91 86 92 87 93
REMARK SMILES IDX 88 94 89 95 90 96 69 97 70 98 78 99 71 100 77 101 72 102
REMARK SMILES IDX 73 103 74 104 75 105 76 106
REMARK H PARENT 15 14 97 62 67 73
REMARK Flexibility Score: inf
ROOT
ATOM      1  O   UNL A   1      36.112  22.819  25.711  1.00  0.00    -0.377 OA
ENDROOT
BRANCH   1   2
ATOM      2  C   UNL A   1      34.431  23.868  25.476  1.00  0.00     0.188 C 
BRANCH   2   3
ATOM      3  C   UNL A   1      34.107  25.489  25.185  1.00  0.00     0.188 C 
BRANCH   3   4
ATOM      4  O   UNL A   1      33.530  26.504  25.999  1.00  0.00    -0.376 OA
BRANCH   4   5
ATOM      5  C   UNL A   1      32.928  27.714  25.599  1.00  0.00     0.202 C 
BRANCH   5   6
ATOM      6  C   UNL A   1      33.571  29.074  25.915  1.00  0.00     0.261 C 
BRANCH   6   7
ATOM      7  O   UNL A   1      34.741  29.031  26.744  1.00  0.00    -0.462 OA
BRANCH   7   8
ATOM      8  C   UNL A   1      34.886  30.110  27.556  1.00  0.00     0.329 C 
ATOM      9  O   UNL A   1      33.944  30.784  27.965  1.00  0.00    -0.250 OA
BRANCH   8  10
ATOM     10  C   UNL A   1      36.349  30.553  27.747  1.00  0.00     0.196 C 
BRANCH  10  11
ATOM     11  N   UNL A   1      36.791  31.649  28.641  1.00  0.00    -0.342 N 
ATOM     12  O   UNL A   1      35.755  33.363  27.534  1.00  0.00    -0.275 OA
ATOM     13  C   UNL A   1      36.501  32.979  28.430  1.00  0.00     0.223 C 
ATOM     14  H   UNL A   1      37.326  31.413  29.433  1.00  0.00     0.164 HD
BRANCH  13  15
ATOM     15  C   UNL A   1      37.169  33.964  29.384  1.00  0.00     0.134 C 
BRANCH  15  16
ATOM     16  C   UNL A   1      36.855  33.820  30.886  1.00  0.00     0.169 C 
ATOM     17  N   UNL A   1      35.591  33.056  31.026  1.00  0.00    -0.177 NA
ATOM     18  C   UNL A   1      37.960  33.279  31.712  1.00  0.00    -0.008 A 
ATOM     19  N   UNL A   1      35.480  31.842  31.334  1.00  0.00    -0.111 NA
ATOM     20  C   UNL A   1      37.815  31.545  32.051  1.00  0.00     0.049 A 
ATOM     21  C   UNL A   1      39.340  34.241  32.325  1.00  0.00     0.007 A 
ATOM     22  C   UNL A   1      36.488  31.008  31.788  1.00  0.00     0.295 C 
ATOM     23  C   UNL A   1      39.111  30.674  32.952  1.00  0.00     0.014 A 
ATOM     24  C   UNL A   1      40.657  33.399  33.253  1.00  0.00     0.000 A 
ATOM     25  O   UNL A   1      36.306  29.828  32.074  1.00  0.00    -0.265 OA
ATOM     26  C   UNL A   1      40.532  31.602  33.589  1.00  0.00     0.001 A 
ENDBRANCH  15  16
ENDBRANCH  13  15
ENDBRANCH  10  11
BRANCH  10  27
ATOM     27  C   UNL A   1      37.102  29.247  28.065  1.00  0.00     0.070 C 
BRANCH  27  28
ATOM     28  C   UNL A   1      38.642  29.253  28.268  1.00  0.00    -0.037 C 
ATOM     29  C   UNL A   1      39.464  28.650  27.395  1.00  0.00     0.001 A 
ATOM     30  C   UNL A   1      38.914  28.598  29.611  1.00  0.00     0.174 C 
ATOM     31  C   UNL A   1      40.713  29.048  26.784  1.00  0.00     0.010 A 
ATOM     32  C   UNL A   1      39.547  27.301  28.021  1.00  0.00     0.065 A 
ATOM     33  N   UNL A   1      39.176  27.180  29.256  1.00  0.00    -0.280 NA
ATOM     34  C   UNL A   1      41.460  28.074  26.223  1.00  0.00     0.001 A 
ATOM     35  C   UNL A   1      40.082  26.262  27.120  1.00  0.00     0.028 A 
ATOM     36  C   UNL A   1      41.001  26.687  26.233  1.00  0.00     0.002 A 
ENDBRANCH  27  28
ENDBRANCH  10  27
ENDBRANCH   8  10
ENDBRANCH   7   8
ENDBRANCH   6   7
ENDBRANCH   5   6
ENDBRANCH   4   5
ENDBRANCH   3   4
ENDBRANCH   2   3
ENDBRANCH   1   2
BRANCH   1  37
ATOM     37  C   UNL A   1      37.435  22.327  25.103  1.00  0.00     0.188 C 
BRANCH  37  38
ATOM     38  C   UNL A   1      38.661  22.235  26.041  1.00  0.00     0.188 C 
BRANCH  38  39
ATOM     39  O   UNL A   1      39.360  21.003  26.189  1.00  0.00    -0.376 OA
BRANCH  39  40
ATOM     40  C   UNL A   1      40.606  21.004  26.863  1.00  0.00     0.202 C 
BRANCH  40  41
ATOM     41  C   UNL A   1      41.869  21.262  26.028  1.00  0.00     0.261 C 
BRANCH  41  42
ATOM     42  O   UNL A   1      42.073  22.624  25.646  1.00  0.00    -0.460 OA
BRANCH  42  43
ATOM     43  C   UNL A   1      43.358  23.043  25.643  1.00  0.00     0.338 C 
ATOM     44  O   UNL A   1      44.098  23.156  24.678  1.00  0.00    -0.246 OA
BRANCH  43  45
ATOM     45  C   UNL A   1      43.682  23.521  27.003  1.00  0.00     0.060 A 
ATOM     46  C   UNL A   1      44.999  23.503  27.474  1.00  0.00     0.016 A 
ATOM     47  C   UNL A   1      42.643  24.013  27.806  1.00  0.00     0.016 A 
ATOM     48  C   UNL A   1      45.290  24.074  28.709  1.00  0.00     0.010 A 
ATOM     49  C   UNL A   1      42.927  24.566  29.048  1.00  0.00     0.010 A 
ATOM     50  C   UNL A   1      44.261  24.668  29.460  1.00  0.00    -0.014 A 
BRANCH  50  51
ATOM     51  C   UNL A   1      44.603  25.690  30.469  1.00  0.00     0.031 A 
ATOM     52  C   UNL A   1      44.823  25.344  31.898  1.00  0.00     0.074 A 
ATOM     53  C   UNL A   1      44.654  26.961  30.026  1.00  0.00     0.049 A 
ATOM     54  N   UNL A   1      45.179  26.132  32.875  1.00  0.00    -0.248 NA
ATOM     55  C   UNL A   1      44.615  23.942  32.291  1.00  0.00     0.031 C 
ATOM     56  C   UNL A   1      44.407  27.365  28.637  1.00  0.00     0.029 A 
ATOM     57  N   UNL A   1      44.934  28.137  30.666  1.00  0.00    -0.354 N 
ATOM     58  C   UNL A   1      45.272  25.325  33.996  1.00  0.00     0.074 A 
ATOM     59  C   UNL A   1      44.873  23.992  33.593  1.00  0.00     0.031 C 
ATOM     60  C   UNL A   1      44.597  28.685  28.520  1.00  0.00     0.029 A 
ATOM     61  C   UNL A   1      44.931  29.228  29.829  1.00  0.00     0.049 A 
ATOM     62  H   UNL A   1      45.121  28.196  31.631  1.00  0.00     0.167 HD
ATOM     63  C   UNL A   1      45.682  25.677  35.237  1.00  0.00     0.031 A 
ATOM     64  C   UNL A   1      45.182  30.526  30.083  1.00  0.00     0.031 A 
ATOM     65  C   UNL A   1      46.017  27.031  35.603  1.00  0.00     0.049 A 
ATOM     66  C   UNL A   1      45.576  30.898  31.480  1.00  0.00     0.074 A 
ATOM     67  C   UNL A   1      46.437  27.511  36.830  1.00  0.00     0.029 A 
ATOM     68  N   UNL A   1      45.964  28.125  34.744  1.00  0.00    -0.354 N 
ATOM     69  N   UNL A   1      45.726  30.112  32.522  1.00  0.00    -0.248 NA
ATOM     70  C   UNL A   1      45.852  32.313  31.742  1.00  0.00     0.031 C 
ATOM     71  C   UNL A   1      46.565  28.899  36.733  1.00  0.00     0.029 A 
ATOM     72  C   UNL A   1      46.315  29.281  35.422  1.00  0.00     0.049 A 
ATOM     73  H   UNL A   1      45.712  28.083  33.793  1.00  0.00     0.167 HD
ATOM     74  C   UNL A   1      46.130  30.934  33.563  1.00  0.00     0.074 A 
ATOM     75  C   UNL A   1      46.224  32.275  33.016  1.00  0.00     0.031 C 
ATOM     76  C   UNL A   1      46.395  30.609  34.852  1.00  0.00     0.031 A 
BRANCH  63  77
ATOM     77  C   UNL A   1      45.811  24.591  36.275  1.00  0.00    -0.014 A 
ATOM     78  C   UNL A   1      44.855  24.457  37.297  1.00  0.00     0.010 A 
ATOM     79  C   UNL A   1      46.943  23.753  36.292  1.00  0.00     0.010 A 
ATOM     80  C   UNL A   1      45.037  23.529  38.327  1.00  0.00     0.020 A 
ATOM     81  C   UNL A   1      47.113  22.800  37.299  1.00  0.00     0.020 A 
ATOM     82  C   UNL A   1      46.169  22.709  38.323  1.00  0.00     0.054 A 
BRANCH  82  83
ATOM     83  S   UNL A   1      46.397  21.519  39.673  1.00  0.00     0.124 S 
ATOM     84  O   UNL A   1      45.339  21.900  40.602  1.00  0.00    -0.237 OA
ATOM     85  O   UNL A   1      46.215  20.237  38.996  1.00  0.00    -0.237 OA
ATOM     86  O   UNL A   1      47.759  21.781  40.131  1.00  0.00    -0.744 OA
ENDBRANCH  82  83
ENDBRANCH  63  77
BRANCH  64  87
ATOM     87  C   UNL A   1      45.147  31.500  28.956  1.00  0.00    -0.014 A 
ATOM     88  C   UNL A   1      44.178  32.522  28.921  1.00  0.00     0.010 A 
ATOM     89  C   UNL A   1      45.977  31.311  27.837  1.00  0.00     0.010 A 
ATOM     90  C   UNL A   1      43.982  33.277  27.761  1.00  0.00     0.020 A 
ATOM     91  C   UNL A   1      45.808  32.090  26.687  1.00  0.00     0.020 A 
ATOM     92  C   UNL A   1      44.787  33.042  26.645  1.00  0.00     0.054 A 
BRANCH  92  93
ATOM     93  S   UNL A   1      44.445  33.961  25.118  1.00  0.00     0.124 S 
ATOM     94  O   UNL A   1      43.271  34.745  25.498  1.00  0.00    -0.237 OA
ATOM     95  O   UNL A   1      45.675  34.723  24.925  1.00  0.00    -0.237 OA
ATOM     96  O   UNL A   1      44.201  32.911  24.132  1.00  0.00    -0.744 OA
ENDBRANCH  92  93
ENDBRANCH  64  87
BRANCH  76  97
ATOM     97  C   UNL A   1      46.801  31.720  35.785  1.00  0.00    -0.014 A 
ATOM     98  C   UNL A   1      45.809  32.476  36.438  1.00  0.00     0.010 A 
ATOM     99  C   UNL A   1      48.146  32.112  35.893  1.00  0.00     0.010 A 
ATOM    100  C   UNL A   1      46.149  33.640  37.131  1.00  0.00     0.020 A 
ATOM    101  C   UNL A   1      48.495  33.252  36.620  1.00  0.00     0.020 A 
ATOM    102  C   UNL A   1      47.490  34.028  37.204  1.00  0.00     0.054 A 
BRANCH 102 103
ATOM    103  S   UNL A   1      47.901  35.580  38.042  1.00  0.00     0.124 S 
ATOM    104  O   UNL A   1      49.131  35.978  37.363  1.00  0.00    -0.237 OA
ATOM    105  O   UNL A   1      46.731  36.411  37.766  1.00  0.00    -0.237 OA
ATOM    106  O   UNL A   1      48.060  35.185  39.440  1.00  0.00    -0.744 OA
ENDBRANCH 102 103
ENDBRANCH  76  97
ENDBRANCH  50  51
ENDBRANCH  43  45
ENDBRANCH  42  43
ENDBRANCH  41  42
ENDBRANCH  40  41
ENDBRANCH  39  40
ENDBRANCH  38  39
ENDBRANCH  37  38
ENDBRANCH   1  37
TORSDOF 28
ENDMDL
MODEL 2
REMARK VINA RESULT:      -8.9      1.794      2.257
REMARK SMILES O=C(C[C@H]1N=NC(=O)c2ccccc21)N[C@@H](CC1=c2ccccc2=NC1)C(=O)OCCOCCOCCOCCOC(=O)c1ccc(-c2c3nc(c(-c4ccc(S(=O)(=O)[O-])cc4)c4ccc([nH]4)c(-c4ccc(S(=O)(=O)[O-])cc4)c4nc(c(-c5ccc(S(=O)(=O)[O-])cc5)c5ccc2[nH]5)C=C4)C=C3)cc1
REMARK SMILES IDX 35 1 34 2 33 3 32 4 31 5 30 6 29 7 27 8 28 9 16 10 15 11
REMARK SMILES IDX 1 12 2 13 3 15 4 16 5 17 14 18 6 19 9 20 13 21 7 22 10 23
REMARK SMILES IDX 12 24 8 25 11 26 17 27 18 28 19 29 26 30 20 31 24 32 25 33
REMARK SMILES IDX 21 34 23 35 22 36 36 37 37 38 38 39 39 40 40 41 41 42 42 43
REMARK SMILES IDX 43 44 44 45 45 46 103 47 46 48 102 49 47 50 48 51 49 52
REMARK SMILES IDX 96 53 50 54 101 55 95 56 97 57 51 58 100 59 94 60 93 61
REMARK SMILES IDX 52 63 82 64 63 65 81 66 64 67 67 68 80 69 98 70 65 71 66 72
REMARK SMILES IDX 79 74 99 75 68 76 53 77 54 78 62 79 55 80 61 81 56 82 57 83
REMARK SMILES IDX 58 84 59 85 60 86 83 87 84 88 92 89 85 90 91 91 86 92 87 93
REMARK SMILES IDX 88 94 89 95 90 96 69 97 70 98 78 99 71 100 77 101 72 102
REMARK SMILES IDX 73 103 74 104 75 105 76 106
REMARK H PARENT 15 14 97 62 67 73
REMARK Flexibility Score: inf
ROOT
ATOM      1  O   UNL A   1      36.159  22.124  25.424  1.00  0.00    -0.377 OA
ENDROOT
BRANCH   1   2
ATOM      2  C   UNL A   1      34.711  23.497  25.403  1.00  0.00     0.188 C 
BRANCH   2   3
ATOM      3  C   UNL A   1      34.706  25.174  25.356  1.00  0.00     0.188 C 
BRANCH   3   4
ATOM      4  O   UNL A   1      34.026  26.145  26.145  1.00  0.00    -0.376 OA
BRANCH   4   5
ATOM      5  C   UNL A   1      33.316  27.285  25.715  1.00  0.00     0.202 C 
BRANCH   5   6
ATOM      6  C   UNL A   1      33.856  28.704  25.956  1.00  0.00     0.261 C 
BRANCH   6   7
ATOM      7  O   UNL A   1      34.787  28.841  27.038  1.00  0.00    -0.462 OA
BRANCH   7   8
ATOM      8  C   UNL A   1      34.861  30.095  27.553  1.00  0.00     0.329 C 
ATOM      9  O   UNL A   1      33.882  30.816  27.730  1.00  0.00    -0.250 OA
BRANCH   8  10
ATOM     10  C   UNL A   1      36.300  30.626  27.694  1.00  0.00     0.196 C 
BRANCH  10  11
ATOM     11  N   UNL A   1      36.747  31.598  28.721  1.00  0.00    -0.342 N 
ATOM     12  O   UNL A   1      35.918  33.481  27.718  1.00  0.00    -0.275 OA
ATOM     13  C   UNL A   1      36.565  32.960  28.622  1.00  0.00     0.223 C 
ATOM     14  H   UNL A   1      37.202  31.249  29.521  1.00  0.00     0.164 HD
BRANCH  13  15
ATOM     15  C   UNL A   1      37.224  33.798  29.713  1.00  0.00     0.134 C 
BRANCH  15  16
ATOM     16  C   UNL A   1      36.674  33.656  31.145  1.00  0.00     0.169 C 
ATOM     17  N   UNL A   1      35.542  32.697  31.116  1.00  0.00    -0.177 NA
ATOM     18  C   UNL A   1      37.685  33.335  32.179  1.00  0.00    -0.008 A 
ATOM     19  N   UNL A   1      35.571  31.493  31.477  1.00  0.00    -0.111 NA
ATOM     20  C   UNL A   1      37.757  31.614  32.598  1.00  0.00     0.049 A 
ATOM     21  C   UNL A   1      38.765  34.534  32.957  1.00  0.00     0.007 A 
ATOM     22  C   UNL A   1      36.600  30.855  32.148  1.00  0.00     0.295 C 
ATOM     23  C   UNL A   1      38.993  31.003  33.759  1.00  0.00     0.014 A 
ATOM     24  C   UNL A   1      40.011  33.956  34.147  1.00  0.00     0.000 A 
ATOM     25  O   UNL A   1      36.559  29.671  32.473  1.00  0.00    -0.265 OA
ATOM     26  C   UNL A   1      40.114  32.175  34.570  1.00  0.00     0.001 A 
ENDBRANCH  15  16
ENDBRANCH  13  15
ENDBRANCH  10  11
BRANCH  10  27
ATOM     27  C   UNL A   1      37.172  29.356  27.724  1.00  0.00     0.070 C 
BRANCH  27  28
ATOM     28  C   UNL A   1      38.696  29.451  28.008  1.00  0.00    -0.037 C 
ATOM     29  C   UNL A   1      39.553  28.534  27.535  1.00  0.00     0.001 A 
ATOM     30  C   UNL A   1      38.867  29.436  29.517  1.00  0.00     0.174 C 
ATOM     31  C   UNL A   1      40.847  28.633  26.898  1.00  0.00     0.010 A 
ATOM     32  C   UNL A   1      39.561  27.584  28.682  1.00  0.00     0.065 A 
ATOM     33  N   UNL A   1      39.111  28.003  29.822  1.00  0.00    -0.280 NA
ATOM     34  C   UNL A   1      41.601  27.515  26.859  1.00  0.00     0.001 A 
ATOM     35  C   UNL A   1      40.122  26.260  28.351  1.00  0.00     0.028 A 
ATOM     36  C   UNL A   1      41.105  26.265  27.431  1.00  0.00     0.002 A 
ENDBRANCH  27  28
ENDBRANCH  10  27
ENDBRANCH   8  10
ENDBRANCH   7   8
ENDBRANCH   6   7
ENDBRANCH   5   6
ENDBRANCH   4   5
ENDBRANCH   3   4
ENDBRANCH   2   3
ENDBRANCH   1   2
BRANCH   1  37
ATOM     37  C   UNL A   1      37.546  21.687  24.928  1.00  0.00     0.188 C 
BRANCH  37  38
ATOM     38  C   UNL A   1      38.737  21.848  25.901  1.00  0.00     0.188 C 
BRANCH  38  39
ATOM     39  O   UNL A   1      39.620  20.756  26.142  1.00  0.00    -0.376 OA
BRANCH  39  40
ATOM     40  C   UNL A   1      40.867  21.014  26.761  1.00  0.00     0.202 C 
BRANCH  40  41
ATOM     41  C   UNL A   1      41.938  21.740  25.933  1.00  0.00     0.261 C 
BRANCH  41  42
ATOM     42  O   UNL A   1      42.228  23.073  26.358  1.00  0.00    -0.460 OA
BRANCH  42  43
ATOM     43  C   UNL A   1      43.538  23.408  26.376  1.00  0.00     0.338 C 
ATOM     44  O   UNL A   1      44.281  23.546  25.417  1.00  0.00    -0.246 OA
BRANCH  43  45
ATOM     45  C   UNL A   1      43.895  23.761  27.766  1.00  0.00     0.060 A 
ATOM     46  C   UNL A   1      45.134  24.340  28.062  1.00  0.00     0.016 A 
ATOM     47  C   UNL A   1      42.957  23.522  28.781  1.00  0.00     0.016 A 
ATOM     48  C   UNL A   1      45.391  24.775  29.358  1.00  0.00     0.010 A 
ATOM     49  C   UNL A   1      43.219  23.938  30.080  1.00  0.00     0.010 A 
ATOM     50  C   UNL A   1      44.403  24.636  30.347  1.00  0.00    -0.014 A 
BRANCH  50  51
ATOM     51  C   UNL A   1      44.441  25.515  31.533  1.00  0.00     0.031 A 
ATOM     52  C   UNL A   1      44.838  25.011  32.875  1.00  0.00     0.074 A 
ATOM     53  C   UNL A   1      44.046  26.788  31.337  1.00  0.00     0.049 A 
ATOM     54  N   UNL A   1      44.964  25.684  33.985  1.00  0.00    -0.248 NA
ATOM     55  C   UNL A   1      45.125  23.574  32.997  1.00  0.00     0.031 C 
ATOM     56  C   UNL A   1      43.607  27.329  30.045  1.00  0.00     0.029 A 
ATOM     57  N   UNL A   1      43.956  27.854  32.188  1.00  0.00    -0.354 N 
ATOM     58  C   UNL A   1      45.378  24.767  34.937  1.00  0.00     0.074 A 
ATOM     59  C   UNL A   1      45.420  23.473  34.287  1.00  0.00     0.031 C 
ATOM     60  C   UNL A   1      43.345  28.634  30.178  1.00  0.00     0.029 A 
ATOM     61  C   UNL A   1      43.549  29.013  31.570  1.00  0.00     0.049 A 
ATOM     62  H   UNL A   1      44.164  27.798  33.149  1.00  0.00     0.167 HD
ATOM     63  C   UNL A   1      45.713  25.007  36.226  1.00  0.00     0.031 A 
ATOM     64  C   UNL A   1      43.371  30.253  32.064  1.00  0.00     0.031 A 
ATOM     65  C   UNL A   1      45.602  26.305  36.842  1.00  0.00     0.049 A 
ATOM     66  C   UNL A   1      43.693  30.477  33.510  1.00  0.00     0.074 A 
ATOM     67  C   UNL A   1      45.904  26.670  38.141  1.00  0.00     0.029 A 
ATOM     68  N   UNL A   1      45.146  27.455  36.202  1.00  0.00    -0.354 N 
ATOM     69  N   UNL A   1      44.149  29.613  34.388  1.00  0.00    -0.248 NA
ATOM     70  C   UNL A   1      43.501  31.832  34.034  1.00  0.00     0.031 C 
ATOM     71  C   UNL A   1      45.561  28.014  38.307  1.00  0.00     0.029 A 
ATOM     72  C   UNL A   1      45.132  28.520  37.088  1.00  0.00     0.049 A 
ATOM     73  H   UNL A   1      44.872  27.503  35.258  1.00  0.00     0.167 HD
ATOM     74  C   UNL A   1      44.314  30.322  35.569  1.00  0.00     0.074 A 
ATOM     75  C   UNL A   1      43.931  31.692  35.283  1.00  0.00     0.031 C 
ATOM     76  C   UNL A   1      44.739  29.877  36.777  1.00  0.00     0.031 A 
BRANCH  63  77
ATOM     77  C   UNL A   1      46.248  23.858  37.043  1.00  0.00    -0.014 A 
ATOM     78  C   UNL A   1      45.513  23.344  38.126  1.00  0.00     0.010 A 
ATOM     79  C   UNL A   1      47.537  23.346  36.795  1.00  0.00     0.010 A 
ATOM     80  C   UNL A   1      46.060  22.361  38.957  1.00  0.00     0.020 A 
ATOM     81  C   UNL A   1      48.075  22.340  37.601  1.00  0.00     0.020 A 
ATOM     82  C   UNL A   1      47.340  21.869  38.691  1.00  0.00     0.054 A 
BRANCH  82  83
ATOM     83  S   UNL A   1      48.041  20.603  39.786  1.00  0.00     0.124 S 
ATOM     84  O   UNL A   1      49.116  21.332  40.450  1.00  0.00    -0.237 OA
ATOM     85  O   UNL A   1      46.901  20.248  40.627  1.00  0.00    -0.237 OA
ATOM     86  O   UNL A   1      48.471  19.555  38.863  1.00  0.00    -0.744 OA
ENDBRANCH  82  83
ENDBRANCH  63  77
BRANCH  64  87
ATOM     87  C   UNL A   1      42.958  31.344  31.139  1.00  0.00    -0.014 A 
ATOM     88  C   UNL A   1      43.829  31.793  30.126  1.00  0.00     0.010 A 
ATOM     89  C   UNL A   1      41.762  32.047  31.368  1.00  0.00     0.010 A 
ATOM     90  C   UNL A   1      43.553  32.969  29.421  1.00  0.00     0.020 A 
ATOM     91  C   UNL A   1      41.465  33.204  30.639  1.00  0.00     0.020 A 
ATOM     92  C   UNL A   1      42.382  33.677  29.697  1.00  0.00     0.054 A 
BRANCH  92  93
ATOM     93  S   UNL A   1      42.099  35.254  28.846  1.00  0.00     0.124 S 
ATOM     94  O   UNL A   1      42.784  36.197  29.727  1.00  0.00    -0.237 OA
ATOM     95  O   UNL A   1      42.731  35.031  27.549  1.00  0.00    -0.237 OA
ATOM     96  O   UNL A   1      40.643  35.373  28.817  1.00  0.00    -0.744 OA
ENDBRANCH  92  93
ENDBRANCH  64  87
BRANCH  76  97
ATOM     97  C   UNL A   1      44.803  30.874  37.906  1.00  0.00    -0.014 A 
ATOM     98  C   UNL A   1      43.618  31.467  38.378  1.00  0.00     0.010 A 
ATOM     99  C   UNL A   1      46.042  31.333  38.387  1.00  0.00     0.010 A 
ATOM    100  C   UNL A   1      43.671  32.543  39.265  1.00  0.00     0.020 A 
ATOM    101  C   UNL A   1      46.097  32.382  39.307  1.00  0.00     0.020 A 
ATOM    102  C   UNL A   1      44.912  33.003  39.713  1.00  0.00     0.054 A 
BRANCH 102 103
ATOM    103  S   UNL A   1      44.963  34.449  40.803  1.00  0.00     0.124 S 
ATOM    104  O   UNL A   1      43.899  34.149  41.758  1.00  0.00    -0.237 OA
ATOM    105  O   UNL A   1      46.322  34.398  41.337  1.00  0.00    -0.237 OA
ATOM    106  O   UNL A   1      44.695  35.568  39.904  1.00  0.00    -0.744 OA
ENDBRANCH 102 103
ENDBRANCH  76  97
ENDBRANCH  50  51
ENDBRANCH  43  45
ENDBRANCH  42  43
ENDBRANCH  41  42
ENDBRANCH  40  41
ENDBRANCH  39  40
ENDBRANCH  38  39
ENDBRANCH  37  38
ENDBRANCH   1  37
TORSDOF 28
ENDMDL
MODEL 3
REMARK VINA RESULT:      -8.3      9.842     15.925
REMARK SMILES O=C(C[C@H]1N=NC(=O)c2ccccc21)N[C@@H](CC1=c2ccccc2=NC1)C(=O)OCCOCCOCCOCCOC(=O)c1ccc(-c2c3nc(c(-c4ccc(S(=O)(=O)[O-])cc4)c4ccc([nH]4)c(-c4ccc(S(=O)(=O)[O-])cc4)c4nc(c(-c5ccc(S(=O)(=O)[O-])cc5)c5ccc2[nH]5)C=C4)C=C3)cc1
REMARK SMILES IDX 35 1 34 2 33 3 32 4 31 5 30 6 29 7 27 8 28 9 16 10 15 11
REMARK SMILES IDX 1 12 2 13 3 15 4 16 5 17 14 18 6 19 9 20 13 21 7 22 10 23
REMARK SMILES IDX 12 24 8 25 11 26 17 27 18 28 19 29 26 30 20 31 24 32 25 33
REMARK SMILES IDX 21 34 23 35 22 36 36 37 37 38 38 39 39 40 40 41 41 42 42 43
REMARK SMILES IDX 43 44 44 45 45 46 103 47 46 48 102 49 47 50 48 51 49 52
REMARK SMILES IDX 96 53 50 54 101 55 95 56 97 57 51 58 100 59 94 60 93 61
REMARK SMILES IDX 52 63 82 64 63 65 81 66 64 67 67 68 80 69 98 70 65 71 66 72
REMARK SMILES IDX 79 74 99 75 68 76 53 77 54 78 62 79 55 80 61 81 56 82 57 83
REMARK SMILES IDX 58 84 59 85 60 86 83 87 84 88 92 89 85 90 91 91 86 92 87 93
REMARK SMILES IDX 88 94 89 95 90 96 69 97 70 98 78 99 71 100 77 101 72 102
REMARK SMILES IDX 73 103 74 104 75 105 76 106
REMARK H PARENT 15 14 97 62 67 73
REMARK Flexibility Score: inf
ROOT
ATOM      1  O   UNL A   1      44.114  40.316  26.204  1.00  0.00    -0.377 OA
ENDROOT
BRANCH   1   2
ATOM      2  C   UNL A   1      43.557  41.949  25.203  1.00  0.00     0.188 C 
BRANCH   2   3
ATOM      3  C   UNL A   1      42.431  42.238  23.992  1.00  0.00     0.188 C 
BRANCH   3   4
ATOM      4  O   UNL A   1      42.087  43.419  23.276  1.00  0.00    -0.376 OA
BRANCH   4   5
ATOM      5  C   UNL A   1      41.748  43.554  21.914  1.00  0.00     0.202 C 
BRANCH   5   6
ATOM      6  C   UNL A   1      42.380  42.658  20.838  1.00  0.00     0.261 C 
BRANCH   6   7
ATOM      7  O   UNL A   1      41.927  42.883  19.496  1.00  0.00    -0.462 OA
BRANCH   7   8
ATOM      8  C   UNL A   1      41.589  44.171  19.231  1.00  0.00     0.329 C 
ATOM      9  O   UNL A   1      40.441  44.601  19.307  1.00  0.00    -0.250 OA
BRANCH   8  10
ATOM     10  C   UNL A   1      42.731  45.000  18.614  1.00  0.00     0.196 C 
BRANCH  10  11
ATOM     11  N   UNL A   1      44.130  44.534  18.463  1.00  0.00    -0.342 N 
ATOM     12  O   UNL A   1      44.941  45.417  20.413  1.00  0.00    -0.275 OA
ATOM     13  C   UNL A   1      45.139  44.828  19.354  1.00  0.00     0.223 C 
ATOM     14  H   UNL A   1      44.352  43.982  17.679  1.00  0.00     0.164 HD
BRANCH  13  15
ATOM     15  C   UNL A   1      46.537  44.376  18.945  1.00  0.00     0.134 C 
BRANCH  15  16
ATOM     16  C   UNL A   1      47.646  45.445  18.911  1.00  0.00     0.169 C 
ATOM     17  N   UNL A   1      48.128  45.662  20.297  1.00  0.00    -0.177 NA
ATOM     18  C   UNL A   1      48.740  45.189  17.945  1.00  0.00    -0.008 A 
ATOM     19  N   UNL A   1      49.187  45.209  20.801  1.00  0.00    -0.111 NA
ATOM     20  C   UNL A   1      50.185  44.468  18.678  1.00  0.00     0.049 A 
ATOM     21  C   UNL A   1      48.657  45.544  16.192  1.00  0.00     0.007 A 
ATOM     22  C   UNL A   1      50.217  44.574  20.128  1.00  0.00     0.295 C 
ATOM     23  C   UNL A   1      51.588  43.983  17.655  1.00  0.00     0.014 A 
ATOM     24  C   UNL A   1      50.061  45.085  15.132  1.00  0.00     0.000 A 
ATOM     25  O   UNL A   1      51.229  44.158  20.687  1.00  0.00    -0.265 OA
ATOM     26  C   UNL A   1      51.551  44.316  15.873  1.00  0.00     0.001 A 
ENDBRANCH  15  16
ENDBRANCH  13  15
ENDBRANCH  10  11
BRANCH  10  27
ATOM     27  C   UNL A   1      42.164  45.481  17.265  1.00  0.00     0.070 C 
BRANCH  27  28
ATOM     28  C   UNL A   1      42.818  46.673  16.513  1.00  0.00    -0.037 C 
ATOM     29  C   UNL A   1      43.733  47.454  17.105  1.00  0.00     0.001 A 
ATOM     30  C   UNL A   1      41.691  47.602  16.094  1.00  0.00     0.174 C 
ATOM     31  C   UNL A   1      45.001  47.992  16.662  1.00  0.00     0.010 A 
ATOM     32  C   UNL A   1      42.840  48.505  17.667  1.00  0.00     0.065 A 
ATOM     33  N   UNL A   1      41.638  48.597  17.195  1.00  0.00    -0.280 NA
ATOM     34  C   UNL A   1      45.511  49.023  17.367  1.00  0.00     0.001 A 
ATOM     35  C   UNL A   1      43.484  49.338  18.700  1.00  0.00     0.028 A 
ATOM     36  C   UNL A   1      44.803  49.548  18.533  1.00  0.00     0.002 A 
ENDBRANCH  27  28
ENDBRANCH  10  27
ENDBRANCH   8  10
ENDBRANCH   7   8
ENDBRANCH   6   7
ENDBRANCH   5   6
ENDBRANCH   4   5
ENDBRANCH   3   4
ENDBRANCH   2   3
ENDBRANCH   1   2
BRANCH   1  37
ATOM     37  C   UNL A   1      44.166  39.565  27.544  1.00  0.00     0.188 C 
BRANCH  37  38
ATOM     38  C   UNL A   1      44.990  40.200  28.688  1.00  0.00     0.188 C 
BRANCH  38  39
ATOM     39  O   UNL A   1      46.298  39.717  28.984  1.00  0.00    -0.376 OA
BRANCH  39  40
ATOM     40  C   UNL A   1      46.679  39.576  30.341  1.00  0.00     0.202 C 
BRANCH  40  41
ATOM     41  C   UNL A   1      47.910  38.711  30.649  1.00  0.00     0.261 C 
BRANCH  41  42
ATOM     42  O   UNL A   1      47.811  37.348  30.230  1.00  0.00    -0.460 OA
BRANCH  42  43
ATOM     43  C   UNL A   1      47.303  36.492  31.145  1.00  0.00     0.338 C 
ATOM     44  O   UNL A   1      46.725  36.773  32.184  1.00  0.00    -0.246 OA
BRANCH  43  45
ATOM     45  C   UNL A   1      47.405  35.125  30.592  1.00  0.00     0.060 A 
ATOM     46  C   UNL A   1      47.747  34.044  31.412  1.00  0.00     0.016 A 
ATOM     47  C   UNL A   1      47.133  34.931  29.230  1.00  0.00     0.016 A 
ATOM     48  C   UNL A   1      47.714  32.755  30.889  1.00  0.00     0.010 A 
ATOM     49  C   UNL A   1      47.118  33.647  28.701  1.00  0.00     0.010 A 
ATOM     50  C   UNL A   1      47.329  32.556  29.552  1.00  0.00    -0.014 A 
BRANCH  50  51
ATOM     51  C   UNL A   1      46.802  31.239  29.142  1.00  0.00     0.031 A 
ATOM     52  C   UNL A   1      47.645  30.237  28.438  1.00  0.00     0.074 A 
ATOM     53  C   UNL A   1      45.498  31.021  29.399  1.00  0.00     0.049 A 
ATOM     54  N   UNL A   1      47.324  29.028  28.069  1.00  0.00    -0.248 NA
ATOM     55  C   UNL A   1      49.019  30.635  28.095  1.00  0.00     0.031 C 
ATOM     56  C   UNL A   1      44.609  31.988  30.054  1.00  0.00     0.029 A 
ATOM     57  N   UNL A   1      44.692  29.941  29.164  1.00  0.00    -0.354 N 
ATOM     58  C   UNL A   1      48.460  28.500  27.480  1.00  0.00     0.074 A 
ATOM     59  C   UNL A   1      49.464  29.545  27.482  1.00  0.00     0.031 C 
ATOM     60  C   UNL A   1      43.399  31.438  30.215  1.00  0.00     0.029 A 
ATOM     61  C   UNL A   1      43.410  30.103  29.632  1.00  0.00     0.049 A 
ATOM     62  H   UNL A   1      45.002  29.126  28.705  1.00  0.00     0.167 HD
ATOM     63  C   UNL A   1      48.640  27.243  27.009  1.00  0.00     0.031 A 
ATOM     64  C   UNL A   1      42.357  29.264  29.610  1.00  0.00     0.031 A 
ATOM     65  C   UNL A   1      47.592  26.254  26.979  1.00  0.00     0.049 A 
ATOM     66  C   UNL A   1      42.568  27.899  29.028  1.00  0.00     0.074 A 
ATOM     67  C   UNL A   1      47.652  24.951  26.520  1.00  0.00     0.029 A 
ATOM     68  N   UNL A   1      46.288  26.460  27.424  1.00  0.00    -0.354 N 
ATOM     69  N   UNL A   1      43.670  27.385  28.532  1.00  0.00    -0.248 NA
ATOM     70  C   UNL A   1      41.416  26.994  29.015  1.00  0.00     0.031 C 
ATOM     71  C   UNL A   1      46.372  24.397  26.615  1.00  0.00     0.029 A 
ATOM     72  C   UNL A   1      45.530  25.319  27.221  1.00  0.00     0.049 A 
ATOM     73  H   UNL A   1      45.955  27.296  27.822  1.00  0.00     0.167 HD
ATOM     74  C   UNL A   1      43.351  26.089  28.160  1.00  0.00     0.074 A 
ATOM     75  C   UNL A   1      41.956  25.891  28.512  1.00  0.00     0.031 C 
ATOM     76  C   UNL A   1      44.137  25.151  27.577  1.00  0.00     0.031 A 
BRANCH  63  77
ATOM     77  C   UNL A   1      50.012  26.863  26.513  1.00  0.00    -0.014 A 
ATOM     78  C   UNL A   1      50.356  27.024  25.159  1.00  0.00     0.010 A 
ATOM     79  C   UNL A   1      50.939  26.251  27.379  1.00  0.00     0.010 A 
ATOM     80  C   UNL A   1      51.584  26.562  24.674  1.00  0.00     0.020 A 
ATOM     81  C   UNL A   1      52.181  25.818  26.908  1.00  0.00     0.020 A 
ATOM     82  C   UNL A   1      52.487  25.957  25.553  1.00  0.00     0.054 A 
BRANCH  82  83
ATOM     83  S   UNL A   1      54.070  25.350  24.907  1.00  0.00     0.124 S 
ATOM     84  O   UNL A   1      54.129  25.983  23.594  1.00  0.00    -0.237 OA
ATOM     85  O   UNL A   1      55.024  25.848  25.895  1.00  0.00    -0.237 OA
ATOM     86  O   UNL A   1      53.900  23.899  24.897  1.00  0.00    -0.744 OA
ENDBRANCH  82  83
ENDBRANCH  63  77
BRANCH  64  87
ATOM     87  C   UNL A   1      41.079  29.696  30.241  1.00  0.00    -0.014 A 
ATOM     88  C   UNL A   1      40.828  29.435  31.603  1.00  0.00     0.010 A 
ATOM     89  C   UNL A   1      40.045  30.223  29.448  1.00  0.00     0.010 A 
ATOM     90  C   UNL A   1      39.548  29.612  32.137  1.00  0.00     0.020 A 
ATOM     91  C   UNL A   1      38.772  30.437  29.988  1.00  0.00     0.020 A 
ATOM     92  C   UNL A   1      38.523  30.093  31.319  1.00  0.00     0.054 A 
BRANCH  92  93
ATOM     93  S   UNL A   1      36.848  30.214  32.005  1.00  0.00     0.124 S 
ATOM     94  O   UNL A   1      36.730  31.649  32.256  1.00  0.00    -0.237 OA
ATOM     95  O   UNL A   1      36.023  29.695  30.919  1.00  0.00    -0.237 OA
ATOM     96  O   UNL A   1      36.905  29.376  33.200  1.00  0.00    -0.744 OA
ENDBRANCH  92  93
ENDBRANCH  64  87
BRANCH  76  97
ATOM     97  C   UNL A   1      43.516  23.815  27.260  1.00  0.00    -0.014 A 
ATOM     98  C   UNL A   1      42.972  23.588  25.982  1.00  0.00     0.010 A 
ATOM     99  C   UNL A   1      43.335  22.851  28.266  1.00  0.00     0.010 A 
ATOM    100  C   UNL A   1      42.205  22.448  25.733  1.00  0.00     0.020 A 
ATOM    101  C   UNL A   1      42.602  21.690  28.009  1.00  0.00     0.020 A 
ATOM    102  C   UNL A   1      42.013  21.514  26.754  1.00  0.00     0.054 A 
BRANCH 102 103
ATOM    103  S   UNL A   1      40.951  20.081  26.434  1.00  0.00     0.124 S 
ATOM    104  O   UNL A   1      40.872  19.458  27.752  1.00  0.00    -0.237 OA
ATOM    105  O   UNL A   1      39.717  20.700  25.954  1.00  0.00    -0.237 OA
ATOM    106  O   UNL A   1      41.691  19.322  25.429  1.00  0.00    -0.744 OA
ENDBRANCH 102 103
ENDBRANCH  76  97
ENDBRANCH  50  51
ENDBRANCH  43  45
ENDBRANCH  42  43
ENDBRANCH  41  42
ENDBRANCH  40  41
ENDBRANCH  39  40
ENDBRANCH  38  39
ENDBRANCH  37  38
ENDBRANCH   1  37
TORSDOF 28
ENDMDL
