MODEL 1
REMARK VINA RESULT:      -9.7      0.000      0.000
REMARK SMILES C[C@H]1CCC[C@H](C)N1C(=O)[C@H]1[C@@H](C(=O)OCCOCCOCCOCCOC(=O)c2ccc(-c3c4nc(c(-c5ccc(S(=O)(=O)[O-])cc5)c5ccc([nH]5)c(-c5ccc(S(=O)(=O)[O-])cc5)c5nc(c(-c6ccc(S(=O)(=O)[O-])cc6)c6ccc3[nH]6)C=C5)C=C4)cc2)[C@H]2CC[C@@H]1O2
REMARK SMILES IDX 22 1 21 2 20 3 19 4 18 5 17 6 16 7 15 8 13 9 14 10 12 11
REMARK SMILES IDX 11 12 93 13 90 14 92 15 94 16 91 17 9 18 1 19 2 20 3 21 8 22
REMARK SMILES IDX 4 23 6 24 5 25 7 26 10 27 23 28 24 29 25 30 26 31 27 32
REMARK SMILES IDX 28 33 29 34 30 35 31 36 89 37 32 38 88 39 33 40 34 41 35 42
REMARK SMILES IDX 82 43 36 44 87 45 81 46 83 47 37 48 86 49 80 50 79 51 38 53
REMARK SMILES IDX 68 54 49 55 67 56 50 57 53 58 66 59 84 60 51 61 52 62 65 64
REMARK SMILES IDX 85 65 54 66 39 67 40 68 48 69 41 70 47 71 42 72 43 73 44 74
REMARK SMILES IDX 45 75 46 76 69 77 70 78 78 79 71 80 77 81 72 82 73 83 74 84
REMARK SMILES IDX 75 85 76 86 55 87 56 88 64 89 57 90 63 91 58 92 59 93 60 94
REMARK SMILES IDX 61 95 62 96
REMARK H PARENT 83 52 53 63
REMARK Flexibility Score: inf
ROOT
ATOM      1  C   UNL A   1      43.318  18.465  25.801  1.00  0.00     0.188 C 
ENDROOT
BRANCH   1   2
ATOM      2  O   UNL A   1      42.262  19.297  25.315  1.00  0.00    -0.377 OA
BRANCH   2   3
ATOM      3  C   UNL A   1      41.734  20.306  26.168  1.00  0.00     0.188 C 
BRANCH   3   4
ATOM      4  C   UNL A   1      40.226  20.151  26.330  1.00  0.00     0.188 C 
BRANCH   4   5
ATOM      5  O   UNL A   1      39.485  21.363  26.491  1.00  0.00    -0.376 OA
BRANCH   5   6
ATOM      6  C   UNL A   1      38.601  21.751  25.440  1.00  0.00     0.202 C 
BRANCH   6   7
ATOM      7  C   UNL A   1      37.131  21.952  25.823  1.00  0.00     0.261 C 
BRANCH   7   8
ATOM      8  O   UNL A   1      36.291  22.208  24.682  1.00  0.00    -0.463 OA
BRANCH   8   9
ATOM      9  C   UNL A   1      35.154  21.516  24.535  1.00  0.00     0.312 C 
ATOM     10  O   UNL A   1      35.074  20.323  24.829  1.00  0.00    -0.252 OA
BRANCH   9  11
ATOM     11  C   UNL A   1      33.941  22.273  23.926  1.00  0.00     0.143 C 
ATOM     12  C   UNL A   1      33.366  23.738  23.721  1.00  0.00     0.124 C 
ATOM     13  C   UNL A   1      31.837  23.378  23.728  1.00  0.00     0.132 C 
ATOM     14  C   UNL A   1      32.704  21.484  24.550  1.00  0.00     0.133 C 
ATOM     15  C   UNL A   1      31.069  23.222  25.036  1.00  0.00     0.035 C 
ATOM     16  O   UNL A   1      31.908  21.967  23.423  1.00  0.00    -0.373 OA
ATOM     17  C   UNL A   1      31.504  21.843  25.493  1.00  0.00     0.036 C 
BRANCH  12  18
ATOM     18  C   UNL A   1      33.538  25.152  24.411  1.00  0.00     0.229 C 
ATOM     19  C   UNL A   1      33.064  25.835  21.571  1.00  0.00     0.031 C 
ATOM     20  C   UNL A   1      32.618  26.762  22.639  1.00  0.00     0.082 C 
ATOM     21  C   UNL A   1      31.213  27.270  22.374  1.00  0.00     0.025 C 
ATOM     22  N   UNL A   1      32.769  26.274  24.015  1.00  0.00    -0.337 N 
ATOM     23  C   UNL A   1      31.004  28.503  23.232  1.00  0.00     0.004 C 
ATOM     24  C   UNL A   1      32.481  27.335  25.028  1.00  0.00     0.082 C 
ATOM     25  C   UNL A   1      31.196  28.149  24.707  1.00  0.00     0.025 C 
ATOM     26  C   UNL A   1      33.665  28.291  25.237  1.00  0.00     0.031 C 
ATOM     27  O   UNL A   1      34.162  25.232  25.477  1.00  0.00    -0.274 OA
ENDBRANCH  12  18
ENDBRANCH   9  11
ENDBRANCH   8   9
ENDBRANCH   7   8
ENDBRANCH   6   7
ENDBRANCH   5   6
ENDBRANCH   4   5
ENDBRANCH   3   4
ENDBRANCH   2   3
ENDBRANCH   1   2
BRANCH   1  28
ATOM     28  C   UNL A   1      44.751  18.737  25.331  1.00  0.00     0.188 C 
BRANCH  28  29
ATOM     29  O   UNL A   1      45.011  19.992  24.695  1.00  0.00    -0.376 OA
BRANCH  29  30
ATOM     30  C   UNL A   1      46.002  20.851  25.253  1.00  0.00     0.202 C 
BRANCH  30  31
ATOM     31  C   UNL A   1      45.669  22.341  25.203  1.00  0.00     0.261 C 
BRANCH  31  32
ATOM     32  O   UNL A   1      44.531  22.648  26.022  1.00  0.00    -0.460 OA
BRANCH  32  33
ATOM     33  C   UNL A   1      43.512  23.259  25.371  1.00  0.00     0.338 C 
ATOM     34  O   UNL A   1      43.031  22.952  24.298  1.00  0.00    -0.246 OA
BRANCH  33  35
ATOM     35  C   UNL A   1      42.928  24.288  26.251  1.00  0.00     0.060 A 
ATOM     36  C   UNL A   1      43.336  25.614  26.063  1.00  0.00     0.016 A 
ATOM     37  C   UNL A   1      42.065  23.946  27.295  1.00  0.00     0.016 A 
ATOM     38  C   UNL A   1      42.933  26.598  26.959  1.00  0.00     0.010 A 
ATOM     39  C   UNL A   1      41.673  24.931  28.202  1.00  0.00     0.010 A 
ATOM     40  C   UNL A   1      42.148  26.248  28.063  1.00  0.00    -0.014 A 
BRANCH  40  41
ATOM     41  C   UNL A   1      42.017  27.203  29.186  1.00  0.00     0.031 A 
ATOM     42  C   UNL A   1      43.010  27.115  30.313  1.00  0.00     0.074 A 
ATOM     43  C   UNL A   1      41.064  28.152  29.183  1.00  0.00     0.049 A 
ATOM     44  N   UNL A   1      43.070  27.808  31.418  1.00  0.00    -0.248 NA
ATOM     45  C   UNL A   1      44.078  26.109  30.173  1.00  0.00     0.031 C 
ATOM     46  C   UNL A   1      40.094  28.374  28.112  1.00  0.00     0.029 A 
ATOM     47  N   UNL A   1      40.761  29.105  30.121  1.00  0.00    -0.354 N 
ATOM     48  C   UNL A   1      44.170  27.314  32.112  1.00  0.00     0.074 A 
ATOM     49  C   UNL A   1      44.732  26.246  31.316  1.00  0.00     0.031 C 
ATOM     50  C   UNL A   1      39.294  29.397  28.460  1.00  0.00     0.029 A 
ATOM     51  C   UNL A   1      39.670  29.871  29.791  1.00  0.00     0.049 A 
ATOM     52  H   UNL A   1      41.275  29.228  30.951  1.00  0.00     0.167 HD
ATOM     53  C   UNL A   1      44.668  27.718  33.303  1.00  0.00     0.031 A 
ATOM     54  C   UNL A   1      39.034  30.826  30.497  1.00  0.00     0.031 A 
ATOM     55  C   UNL A   1      44.095  28.775  34.093  1.00  0.00     0.049 A 
ATOM     56  C   UNL A   1      39.552  31.195  31.863  1.00  0.00     0.074 A 
ATOM     57  C   UNL A   1      44.527  29.268  35.310  1.00  0.00     0.029 A 
ATOM     58  N   UNL A   1      42.962  29.494  33.747  1.00  0.00    -0.354 N 
ATOM     59  N   UNL A   1      40.599  30.731  32.503  1.00  0.00    -0.248 NA
ATOM     60  C   UNL A   1      38.804  32.223  32.601  1.00  0.00     0.031 C 
ATOM     61  C   UNL A   1      43.615  30.239  35.734  1.00  0.00     0.029 A 
ATOM     62  C   UNL A   1      42.658  30.405  34.744  1.00  0.00     0.049 A 
ATOM     63  H   UNL A   1      42.447  29.375  32.916  1.00  0.00     0.167 HD
ATOM     64  C   UNL A   1      40.655  31.433  33.702  1.00  0.00     0.074 A 
ATOM     65  C   UNL A   1      39.542  32.361  33.694  1.00  0.00     0.031 C 
ATOM     66  C   UNL A   1      41.548  31.325  34.718  1.00  0.00     0.031 A 
BRANCH  53  67
ATOM     67  C   UNL A   1      45.865  26.984  33.846  1.00  0.00    -0.014 A 
ATOM     68  C   UNL A   1      47.177  27.417  33.581  1.00  0.00     0.010 A 
ATOM     69  C   UNL A   1      45.671  25.861  34.671  1.00  0.00     0.010 A 
ATOM     70  C   UNL A   1      48.270  26.720  34.103  1.00  0.00     0.020 A 
ATOM     71  C   UNL A   1      46.760  25.180  35.219  1.00  0.00     0.020 A 
ATOM     72  C   UNL A   1      48.055  25.606  34.919  1.00  0.00     0.054 A 
BRANCH  72  73
ATOM     73  S   UNL A   1      49.492  24.740  35.606  1.00  0.00     0.124 S 
ATOM     74  O   UNL A   1      50.450  24.824  34.505  1.00  0.00    -0.237 OA
ATOM     75  O   UNL A   1      49.816  25.543  36.782  1.00  0.00    -0.237 OA
ATOM     76  O   UNL A   1      48.988  23.398  35.890  1.00  0.00    -0.744 OA
ENDBRANCH  72  73
ENDBRANCH  53  67
BRANCH  54  77
ATOM     77  C   UNL A   1      37.821  31.482  29.936  1.00  0.00    -0.014 A 
ATOM     78  C   UNL A   1      36.538  30.980  30.213  1.00  0.00     0.010 A 
ATOM     79  C   UNL A   1      37.947  32.619  29.116  1.00  0.00     0.010 A 
ATOM     80  C   UNL A   1      35.405  31.591  29.667  1.00  0.00     0.020 A 
ATOM     81  C   UNL A   1      36.816  33.252  28.595  1.00  0.00     0.020 A 
ATOM     82  C   UNL A   1      35.552  32.727  28.865  1.00  0.00     0.054 A 
BRANCH  82  83
ATOM     83  S   UNL A   1      34.065  33.535  28.213  1.00  0.00     0.124 S 
ATOM     84  O   UNL A   1      33.482  34.117  29.417  1.00  0.00    -0.237 OA
ATOM     85  O   UNL A   1      34.621  34.486  27.253  1.00  0.00    -0.237 OA
ATOM     86  O   UNL A   1      33.310  32.433  27.620  1.00  0.00    -0.744 OA
ENDBRANCH  82  83
ENDBRANCH  54  77
BRANCH  66  87
ATOM     87  C   UNL A   1      41.395  32.260  35.889  1.00  0.00    -0.014 A 
ATOM     88  C   UNL A   1      42.052  33.502  35.927  1.00  0.00     0.010 A 
ATOM     89  C   UNL A   1      40.514  31.919  36.933  1.00  0.00     0.010 A 
ATOM     90  C   UNL A   1      41.852  34.373  37.002  1.00  0.00     0.020 A 
ATOM     91  C   UNL A   1      40.287  32.800  37.992  1.00  0.00     0.020 A 
ATOM     92  C   UNL A   1      40.967  34.018  38.026  1.00  0.00     0.054 A 
BRANCH  92  93
ATOM     93  S   UNL A   1      40.682  35.193  39.378  1.00  0.00     0.124 S 
ATOM     94  O   UNL A   1      41.379  36.384  38.898  1.00  0.00    -0.237 OA
ATOM     95  O   UNL A   1      39.226  35.289  39.415  1.00  0.00    -0.237 OA
ATOM     96  O   UNL A   1      41.289  34.542  40.537  1.00  0.00    -0.744 OA
ENDBRANCH  92  93
ENDBRANCH  66  87
ENDBRANCH  40  41
ENDBRANCH  33  35
ENDBRANCH  32  33
ENDBRANCH  31  32
ENDBRANCH  30  31
ENDBRANCH  29  30
ENDBRANCH  28  29
ENDBRANCH   1  28
TORSDOF 24
ENDMDL
MODEL 2
REMARK VINA RESULT:      -9.5      1.994      3.146
REMARK SMILES C[C@H]1CCC[C@H](C)N1C(=O)[C@H]1[C@@H](C(=O)OCCOCCOCCOCCOC(=O)c2ccc(-c3c4nc(c(-c5ccc(S(=O)(=O)[O-])cc5)c5ccc([nH]5)c(-c5ccc(S(=O)(=O)[O-])cc5)c5nc(c(-c6ccc(S(=O)(=O)[O-])cc6)c6ccc3[nH]6)C=C5)C=C4)cc2)[C@H]2CC[C@@H]1O2
REMARK SMILES IDX 22 1 21 2 20 3 19 4 18 5 17 6 16 7 15 8 13 9 14 10 12 11
REMARK SMILES IDX 11 12 93 13 90 14 92 15 94 16 91 17 9 18 1 19 2 20 3 21 8 22
REMARK SMILES IDX 4 23 6 24 5 25 7 26 10 27 23 28 24 29 25 30 26 31 27 32
REMARK SMILES IDX 28 33 29 34 30 35 31 36 89 37 32 38 88 39 33 40 34 41 35 42
REMARK SMILES IDX 82 43 36 44 87 45 81 46 83 47 37 48 86 49 80 50 79 51 38 53
REMARK SMILES IDX 68 54 49 55 67 56 50 57 53 58 66 59 84 60 51 61 52 62 65 64
REMARK SMILES IDX 85 65 54 66 39 67 40 68 48 69 41 70 47 71 42 72 43 73 44 74
REMARK SMILES IDX 45 75 46 76 69 77 70 78 78 79 71 80 77 81 72 82 73 83 74 84
REMARK SMILES IDX 75 85 76 86 55 87 56 88 64 89 57 90 63 91 58 92 59 93 60 94
REMARK SMILES IDX 61 95 62 96
REMARK H PARENT 83 52 53 63
REMARK Flexibility Score: inf
ROOT
ATOM      1  C   UNL A   1      39.320  21.673  25.828  1.00  0.00     0.188 C 
ENDROOT
BRANCH   1   2
ATOM      2  O   UNL A   1      38.472  20.869  25.005  1.00  0.00    -0.377 OA
BRANCH   2   3
ATOM      3  C   UNL A   1      37.193  21.373  24.637  1.00  0.00     0.188 C 
BRANCH   3   4
ATOM      4  C   UNL A   1      36.301  21.546  25.861  1.00  0.00     0.188 C 
BRANCH   4   5
ATOM      5  O   UNL A   1      34.943  21.127  25.712  1.00  0.00    -0.376 OA
BRANCH   5   6
ATOM      6  C   UNL A   1      34.069  21.952  24.943  1.00  0.00     0.202 C 
BRANCH   6   7
ATOM      7  C   UNL A   1      33.463  21.320  23.685  1.00  0.00     0.261 C 
BRANCH   7   8
ATOM      8  O   UNL A   1      32.515  22.184  23.032  1.00  0.00    -0.463 OA
BRANCH   8   9
ATOM      9  C   UNL A   1      32.901  23.404  22.638  1.00  0.00     0.312 C 
ATOM     10  O   UNL A   1      33.936  23.585  21.997  1.00  0.00    -0.252 OA
BRANCH   9  11
ATOM     11  C   UNL A   1      32.006  24.600  23.066  1.00  0.00     0.143 C 
ATOM     12  C   UNL A   1      32.084  26.025  23.760  1.00  0.00     0.124 C 
ATOM     13  C   UNL A   1      30.647  26.042  24.394  1.00  0.00     0.132 C 
ATOM     14  C   UNL A   1      30.833  23.874  23.865  1.00  0.00     0.133 C 
ATOM     15  C   UNL A   1      30.367  25.367  25.731  1.00  0.00     0.035 C 
ATOM     16  O   UNL A   1      30.000  25.040  23.578  1.00  0.00    -0.373 OA
ATOM     17  C   UNL A   1      30.290  23.904  25.336  1.00  0.00     0.036 C 
BRANCH  12  18
ATOM     18  C   UNL A   1      33.065  26.772  24.753  1.00  0.00     0.229 C 
ATOM     19  C   UNL A   1      32.018  28.960  23.056  1.00  0.00     0.031 C 
ATOM     20  C   UNL A   1      32.395  29.232  24.465  1.00  0.00     0.082 C 
ATOM     21  C   UNL A   1      31.345  30.077  25.160  1.00  0.00     0.025 C 
ATOM     22  N   UNL A   1      32.769  28.060  25.265  1.00  0.00    -0.337 N 
ATOM     23  C   UNL A   1      31.983  30.663  26.406  1.00  0.00     0.004 C 
ATOM     24  C   UNL A   1      33.318  28.439  26.603  1.00  0.00     0.082 C 
ATOM     25  C   UNL A   1      32.481  29.539  27.314  1.00  0.00     0.025 C 
ATOM     26  C   UNL A   1      34.792  28.865  26.539  1.00  0.00     0.031 C 
ATOM     27  O   UNL A   1      33.976  26.135  25.296  1.00  0.00    -0.274 OA
ENDBRANCH  12  18
ENDBRANCH   9  11
ENDBRANCH   8   9
ENDBRANCH   7   8
ENDBRANCH   6   7
ENDBRANCH   5   6
ENDBRANCH   4   5
ENDBRANCH   3   4
ENDBRANCH   2   3
ENDBRANCH   1   2
BRANCH   1  28
ATOM     28  C   UNL A   1      40.245  20.982  26.835  1.00  0.00     0.188 C 
BRANCH  28  29
ATOM     29  O   UNL A   1      41.651  21.012  26.571  1.00  0.00    -0.376 OA
BRANCH  29  30
ATOM     30  C   UNL A   1      42.463  21.944  27.280  1.00  0.00     0.202 C 
BRANCH  30  31
ATOM     31  C   UNL A   1      42.775  23.235  26.527  1.00  0.00     0.261 C 
BRANCH  31  32
ATOM     32  O   UNL A   1      41.656  24.135  26.549  1.00  0.00    -0.460 OA
BRANCH  32  33
ATOM     33  C   UNL A   1      41.917  25.376  26.072  1.00  0.00     0.338 C 
ATOM     34  O   UNL A   1      42.422  25.667  25.006  1.00  0.00    -0.246 OA
BRANCH  33  35
ATOM     35  C   UNL A   1      41.329  26.374  26.985  1.00  0.00     0.060 A 
ATOM     36  C   UNL A   1      41.883  27.660  26.987  1.00  0.00     0.016 A 
ATOM     37  C   UNL A   1      40.316  26.030  27.881  1.00  0.00     0.016 A 
ATOM     38  C   UNL A   1      41.469  28.593  27.931  1.00  0.00     0.010 A 
ATOM     39  C   UNL A   1      39.910  26.962  28.838  1.00  0.00     0.010 A 
ATOM     40  C   UNL A   1      40.523  28.227  28.895  1.00  0.00    -0.014 A 
BRANCH  40  41
ATOM     41  C   UNL A   1      40.347  29.081  30.091  1.00  0.00     0.031 A 
ATOM     42  C   UNL A   1      41.231  28.827  31.281  1.00  0.00     0.074 A 
ATOM     43  C   UNL A   1      39.451  30.083  30.102  1.00  0.00     0.049 A 
ATOM     44  N   UNL A   1      41.232  29.410  32.450  1.00  0.00    -0.248 NA
ATOM     45  C   UNL A   1      42.251  27.774  31.132  1.00  0.00     0.031 C 
ATOM     46  C   UNL A   1      38.592  30.464  28.982  1.00  0.00     0.029 A 
ATOM     47  N   UNL A   1      39.119  30.962  31.101  1.00  0.00    -0.354 N 
ATOM     48  C   UNL A   1      42.239  28.787  33.181  1.00  0.00     0.074 A 
ATOM     49  C   UNL A   1      42.809  27.764  32.333  1.00  0.00     0.031 C 
ATOM     50  C   UNL A   1      37.821  31.498  29.361  1.00  0.00     0.029 A 
ATOM     51  C   UNL A   1      38.104  31.822  30.759  1.00  0.00     0.049 A 
ATOM     52  H   UNL A   1      39.564  30.976  31.978  1.00  0.00     0.167 HD
ATOM     53  C   UNL A   1      42.651  29.047  34.442  1.00  0.00     0.031 A 
ATOM     54  C   UNL A   1      37.461  32.746  31.500  1.00  0.00     0.031 A 
ATOM     55  C   UNL A   1      42.070  30.060  35.281  1.00  0.00     0.049 A 
ATOM     56  C   UNL A   1      37.877  32.954  32.933  1.00  0.00     0.074 A 
ATOM     57  C   UNL A   1      42.420  30.411  36.572  1.00  0.00     0.029 A 
ATOM     58  N   UNL A   1      41.012  30.877  34.915  1.00  0.00    -0.354 N 
ATOM     59  N   UNL A   1      38.837  32.368  33.609  1.00  0.00    -0.248 NA
ATOM     60  C   UNL A   1      37.124  33.954  33.704  1.00  0.00     0.031 C 
ATOM     61  C   UNL A   1      41.528  31.393  37.012  1.00  0.00     0.029 A 
ATOM     62  C   UNL A   1      40.672  31.709  35.968  1.00  0.00     0.049 A 
ATOM     63  H   UNL A   1      40.566  30.868  34.037  1.00  0.00     0.167 HD
ATOM     64  C   UNL A   1      38.826  32.952  34.871  1.00  0.00     0.074 A 
ATOM     65  C   UNL A   1      37.770  33.943  34.862  1.00  0.00     0.031 C 
ATOM     66  C   UNL A   1      39.620  32.695  35.941  1.00  0.00     0.031 A 
BRANCH  53  67
ATOM     67  C   UNL A   1      43.754  28.192  35.007  1.00  0.00    -0.014 A 
ATOM     68  C   UNL A   1      43.499  26.910  35.526  1.00  0.00     0.010 A 
ATOM     69  C   UNL A   1      45.079  28.667  34.981  1.00  0.00     0.010 A 
ATOM     70  C   UNL A   1      44.543  26.134  36.039  1.00  0.00     0.020 A 
ATOM     71  C   UNL A   1      46.128  27.883  35.465  1.00  0.00     0.020 A 
ATOM     72  C   UNL A   1      45.851  26.625  36.005  1.00  0.00     0.054 A 
BRANCH  72  73
ATOM     73  S   UNL A   1      47.189  25.585  36.650  1.00  0.00     0.124 S 
ATOM     74  O   UNL A   1      47.892  26.512  37.534  1.00  0.00    -0.237 OA
ATOM     75  O   UNL A   1      46.461  24.510  37.319  1.00  0.00    -0.237 OA
ATOM     76  O   UNL A   1      47.927  25.185  35.454  1.00  0.00    -0.744 OA
ENDBRANCH  72  73
ENDBRANCH  53  67
BRANCH  54  77
ATOM     77  C   UNL A   1      36.339  33.525  30.908  1.00  0.00    -0.014 A 
ATOM     78  C   UNL A   1      35.220  33.878  31.682  1.00  0.00     0.010 A 
ATOM     79  C   UNL A   1      36.387  33.919  29.557  1.00  0.00     0.010 A 
ATOM     80  C   UNL A   1      34.163  34.595  31.113  1.00  0.00     0.020 A 
ATOM     81  C   UNL A   1      35.347  34.662  28.994  1.00  0.00     0.020 A 
ATOM     82  C   UNL A   1      34.237  34.986  29.772  1.00  0.00     0.054 A 
BRANCH  82  83
ATOM     83  S   UNL A   1      32.878  35.962  29.072  1.00  0.00     0.124 S 
ATOM     84  O   UNL A   1      32.139  36.357  30.266  1.00  0.00    -0.237 OA
ATOM     85  O   UNL A   1      33.588  37.035  28.381  1.00  0.00    -0.237 OA
ATOM     86  O   UNL A   1      32.193  35.013  28.196  1.00  0.00    -0.744 OA
ENDBRANCH  82  83
ENDBRANCH  54  77
BRANCH  66  87
ATOM     87  C   UNL A   1      39.416  33.525  37.181  1.00  0.00    -0.014 A 
ATOM     88  C   UNL A   1      38.455  33.178  38.147  1.00  0.00     0.010 A 
ATOM     89  C   UNL A   1      40.257  34.629  37.418  1.00  0.00     0.010 A 
ATOM     90  C   UNL A   1      38.322  33.936  39.313  1.00  0.00     0.020 A 
ATOM     91  C   UNL A   1      40.149  35.369  38.597  1.00  0.00     0.020 A 
ATOM     92  C   UNL A   1      39.173  35.024  39.533  1.00  0.00     0.054 A 
BRANCH  92  93
ATOM     93  S   UNL A   1      39.016  35.954  41.083  1.00  0.00     0.124 S 
ATOM     94  O   UNL A   1      38.999  37.335  40.609  1.00  0.00    -0.237 OA
ATOM     95  O   UNL A   1      37.754  35.459  41.625  1.00  0.00    -0.237 OA
ATOM     96  O   UNL A   1      40.206  35.571  41.840  1.00  0.00    -0.744 OA
ENDBRANCH  92  93
ENDBRANCH  66  87
ENDBRANCH  40  41
ENDBRANCH  33  35
ENDBRANCH  32  33
ENDBRANCH  31  32
ENDBRANCH  30  31
ENDBRANCH  29  30
ENDBRANCH  28  29
ENDBRANCH   1  28
TORSDOF 24
ENDMDL
MODEL 3
REMARK VINA RESULT:      -9.3      5.107     11.246
REMARK SMILES C[C@H]1CCC[C@H](C)N1C(=O)[C@H]1[C@@H](C(=O)OCCOCCOCCOCCOC(=O)c2ccc(-c3c4nc(c(-c5ccc(S(=O)(=O)[O-])cc5)c5ccc([nH]5)c(-c5ccc(S(=O)(=O)[O-])cc5)c5nc(c(-c6ccc(S(=O)(=O)[O-])cc6)c6ccc3[nH]6)C=C5)C=C4)cc2)[C@H]2CC[C@@H]1O2
REMARK SMILES IDX 22 1 21 2 20 3 19 4 18 5 17 6 16 7 15 8 13 9 14 10 12 11
REMARK SMILES IDX 11 12 93 13 90 14 92 15 94 16 91 17 9 18 1 19 2 20 3 21 8 22
REMARK SMILES IDX 4 23 6 24 5 25 7 26 10 27 23 28 24 29 25 30 26 31 27 32
REMARK SMILES IDX 28 33 29 34 30 35 31 36 89 37 32 38 88 39 33 40 34 41 35 42
REMARK SMILES IDX 82 43 36 44 87 45 81 46 83 47 37 48 86 49 80 50 79 51 38 53
REMARK SMILES IDX 68 54 49 55 67 56 50 57 53 58 66 59 84 60 51 61 52 62 65 64
REMARK SMILES IDX 85 65 54 66 39 67 40 68 48 69 41 70 47 71 42 72 43 73 44 74
REMARK SMILES IDX 45 75 46 76 69 77 70 78 78 79 71 80 77 81 72 82 73 83 74 84
REMARK SMILES IDX 75 85 76 86 55 87 56 88 64 89 57 90 63 91 58 92 59 93 60 94
REMARK SMILES IDX 61 95 62 96
REMARK H PARENT 83 52 53 63
REMARK Flexibility Score: inf
ROOT
ATOM      1  C   UNL A   1      31.807  28.411  26.452  1.00  0.00     0.188 C 
ENDROOT
BRANCH   1   2
ATOM      2  O   UNL A   1      31.145  28.265  25.193  1.00  0.00    -0.377 OA
BRANCH   2   3
ATOM      3  C   UNL A   1      31.333  29.264  24.199  1.00  0.00     0.188 C 
BRANCH   3   4
ATOM      4  C   UNL A   1      31.329  28.654  22.802  1.00  0.00     0.188 C 
BRANCH   4   5
ATOM      5  O   UNL A   1      31.019  27.261  22.726  1.00  0.00    -0.376 OA
BRANCH   5   6
ATOM      6  C   UNL A   1      32.030  26.375  22.249  1.00  0.00     0.202 C 
BRANCH   6   7
ATOM      7  C   UNL A   1      32.050  24.968  22.857  1.00  0.00     0.261 C 
BRANCH   7   8
ATOM      8  O   UNL A   1      31.988  24.985  24.295  1.00  0.00    -0.463 OA
BRANCH   8   9
ATOM      9  C   UNL A   1      33.098  24.738  25.003  1.00  0.00     0.312 C 
ATOM     10  O   UNL A   1      33.321  25.292  26.080  1.00  0.00    -0.252 OA
BRANCH   9  11
ATOM     11  C   UNL A   1      34.124  23.750  24.384  1.00  0.00     0.143 C 
ATOM     12  C   UNL A   1      34.393  22.198  24.184  1.00  0.00     0.124 C 
ATOM     13  C   UNL A   1      35.963  22.246  24.164  1.00  0.00     0.132 C 
ATOM     14  C   UNL A   1      35.505  24.280  24.979  1.00  0.00     0.133 C 
ATOM     15  C   UNL A   1      36.768  22.254  25.457  1.00  0.00     0.035 C 
ATOM     16  O   UNL A   1      36.168  23.640  23.845  1.00  0.00    -0.373 OA
ATOM     17  C   UNL A   1      36.625  23.696  25.907  1.00  0.00     0.036 C 
BRANCH  12  18
ATOM     18  C   UNL A   1      33.953  20.852  24.892  1.00  0.00     0.229 C 
ATOM     19  C   UNL A   1      31.934  21.187  22.755  1.00  0.00     0.031 C 
ATOM     20  C   UNL A   1      32.326  19.826  23.195  1.00  0.00     0.082 C 
ATOM     21  C   UNL A   1      32.555  18.910  22.007  1.00  0.00     0.025 C 
ATOM     22  N   UNL A   1      33.433  19.758  24.156  1.00  0.00    -0.337 N 
ATOM     23  C   UNL A   1      32.519  17.482  22.519  1.00  0.00     0.004 C 
ATOM     24  C   UNL A   1      33.634  18.377  24.692  1.00  0.00     0.082 C 
ATOM     25  C   UNL A   1      33.594  17.284  23.587  1.00  0.00     0.025 C 
ATOM     26  C   UNL A   1      32.641  18.025  25.810  1.00  0.00     0.031 C 
ATOM     27  O   UNL A   1      34.299  20.643  26.062  1.00  0.00    -0.274 OA
ENDBRANCH  12  18
ENDBRANCH   9  11
ENDBRANCH   8   9
ENDBRANCH   7   8
ENDBRANCH   6   7
ENDBRANCH   5   6
ENDBRANCH   4   5
ENDBRANCH   3   4
ENDBRANCH   2   3
ENDBRANCH   1   2
BRANCH   1  28
ATOM     28  C   UNL A   1      32.154  29.818  26.948  1.00  0.00     0.188 C 
BRANCH  28  29
ATOM     29  O   UNL A   1      33.537  30.126  27.150  1.00  0.00    -0.376 OA
BRANCH  29  30
ATOM     30  C   UNL A   1      33.893  31.436  27.583  1.00  0.00     0.202 C 
BRANCH  30  31
ATOM     31  C   UNL A   1      34.741  31.491  28.851  1.00  0.00     0.261 C 
BRANCH  31  32
ATOM     32  O   UNL A   1      36.016  32.101  28.599  1.00  0.00    -0.460 OA
BRANCH  32  33
ATOM     33  C   UNL A   1      36.829  32.183  29.679  1.00  0.00     0.338 C 
ATOM     34  O   UNL A   1      36.630  32.799  30.708  1.00  0.00    -0.246 OA
BRANCH  33  35
ATOM     35  C   UNL A   1      37.960  31.253  29.502  1.00  0.00     0.060 A 
ATOM     36  C   UNL A   1      38.939  31.220  30.503  1.00  0.00     0.016 A 
ATOM     37  C   UNL A   1      38.101  30.495  28.338  1.00  0.00     0.016 A 
ATOM     38  C   UNL A   1      40.098  30.475  30.316  1.00  0.00     0.010 A 
ATOM     39  C   UNL A   1      39.271  29.759  28.144  1.00  0.00     0.010 A 
ATOM     40  C   UNL A   1      40.292  29.790  29.112  1.00  0.00    -0.014 A 
BRANCH  40  41
ATOM     41  C   UNL A   1      41.646  29.300  28.773  1.00  0.00     0.031 A 
ATOM     42  C   UNL A   1      42.785  30.282  28.803  1.00  0.00     0.074 A 
ATOM     43  C   UNL A   1      41.864  28.004  28.485  1.00  0.00     0.049 A 
ATOM     44  N   UNL A   1      44.043  30.100  28.502  1.00  0.00    -0.248 NA
ATOM     45  C   UNL A   1      42.460  31.655  29.230  1.00  0.00     0.031 C 
ATOM     46  C   UNL A   1      40.849  26.952  28.495  1.00  0.00     0.029 A 
ATOM     47  N   UNL A   1      43.020  27.359  28.127  1.00  0.00    -0.354 N 
ATOM     48  C   UNL A   1      44.657  31.334  28.688  1.00  0.00     0.074 A 
ATOM     49  C   UNL A   1      43.630  32.263  29.103  1.00  0.00     0.031 C 
ATOM     50  C   UNL A   1      41.428  25.790  28.147  1.00  0.00     0.029 A 
ATOM     51  C   UNL A   1      42.841  26.026  27.852  1.00  0.00     0.049 A 
ATOM     52  H   UNL A   1      43.894  27.809  28.072  1.00  0.00     0.167 HD
ATOM     53  C   UNL A   1      45.960  31.661  28.531  1.00  0.00     0.031 A 
ATOM     54  C   UNL A   1      43.714  25.109  27.389  1.00  0.00     0.031 A 
ATOM     55  C   UNL A   1      46.973  30.731  28.108  1.00  0.00     0.049 A 
ATOM     56  C   UNL A   1      45.141  25.520  27.133  1.00  0.00     0.074 A 
ATOM     57  C   UNL A   1      48.325  30.959  27.926  1.00  0.00     0.029 A 
ATOM     58  N   UNL A   1      46.743  29.402  27.793  1.00  0.00    -0.354 N 
ATOM     59  N   UNL A   1      45.712  26.686  27.324  1.00  0.00    -0.248 NA
ATOM     60  C   UNL A   1      46.043  24.488  26.603  1.00  0.00     0.031 C 
ATOM     61  C   UNL A   1      48.901  29.784  27.434  1.00  0.00     0.029 A 
ATOM     62  C   UNL A   1      47.922  28.803  27.384  1.00  0.00     0.049 A 
ATOM     63  H   UNL A   1      45.870  28.949  27.850  1.00  0.00     0.167 HD
ATOM     64  C   UNL A   1      47.047  26.518  26.971  1.00  0.00     0.074 A 
ATOM     65  C   UNL A   1      47.200  25.137  26.563  1.00  0.00     0.031 C 
ATOM     66  C   UNL A   1      48.057  27.423  26.985  1.00  0.00     0.031 A 
BRANCH  53  67
ATOM     67  C   UNL A   1      46.356  33.093  28.774  1.00  0.00    -0.014 A 
ATOM     68  C   UNL A   1      46.935  33.501  29.989  1.00  0.00     0.010 A 
ATOM     69  C   UNL A   1      46.180  34.041  27.749  1.00  0.00     0.010 A 
ATOM     70  C   UNL A   1      47.299  34.837  30.186  1.00  0.00     0.020 A 
ATOM     71  C   UNL A   1      46.570  35.370  27.931  1.00  0.00     0.020 A 
ATOM     72  C   UNL A   1      47.114  35.763  29.155  1.00  0.00     0.054 A 
BRANCH  72  73
ATOM     73  S   UNL A   1      47.623  37.482  29.428  1.00  0.00     0.124 S 
ATOM     74  O   UNL A   1      48.447  37.365  30.629  1.00  0.00    -0.237 OA
ATOM     75  O   UNL A   1      48.347  37.798  28.200  1.00  0.00    -0.237 OA
ATOM     76  O   UNL A   1      46.361  38.195  29.607  1.00  0.00    -0.744 OA
ENDBRANCH  72  73
ENDBRANCH  53  67
BRANCH  54  77
ATOM     77  C   UNL A   1      43.257  23.720  27.114  1.00  0.00    -0.014 A 
ATOM     78  C   UNL A   1      42.975  23.301  25.802  1.00  0.00     0.010 A 
ATOM     79  C   UNL A   1      43.100  22.804  28.171  1.00  0.00     0.010 A 
ATOM     80  C   UNL A   1      42.529  22.000  25.554  1.00  0.00     0.020 A 
ATOM     81  C   UNL A   1      42.685  21.493  27.924  1.00  0.00     0.020 A 
ATOM     82  C   UNL A   1      42.391  21.102  26.618  1.00  0.00     0.054 A 
BRANCH  82  83
ATOM     83  S   UNL A   1      41.863  19.403  26.264  1.00  0.00     0.124 S 
ATOM     84  O   UNL A   1      42.168  18.723  27.518  1.00  0.00    -0.237 OA
ATOM     85  O   UNL A   1      40.444  19.574  25.963  1.00  0.00    -0.237 OA
ATOM     86  O   UNL A   1      42.692  19.019  25.124  1.00  0.00    -0.744 OA
ENDBRANCH  82  83
ENDBRANCH  54  77
BRANCH  66  87
ATOM     87  C   UNL A   1      49.432  26.947  26.594  1.00  0.00    -0.014 A 
ATOM     88  C   UNL A   1      49.936  27.148  25.297  1.00  0.00     0.010 A 
ATOM     89  C   UNL A   1      50.260  26.358  27.567  1.00  0.00     0.010 A 
ATOM     90  C   UNL A   1      51.234  26.742  24.975  1.00  0.00     0.020 A 
ATOM     91  C   UNL A   1      51.569  25.980  27.259  1.00  0.00     0.020 A 
ATOM     92  C   UNL A   1      52.044  26.165  25.959  1.00  0.00     0.054 A 
BRANCH  92  93
ATOM     93  S   UNL A   1      53.744  25.702  25.528  1.00  0.00     0.124 S 
ATOM     94  O   UNL A   1      53.550  24.942  24.297  1.00  0.00    -0.237 OA
ATOM     95  O   UNL A   1      54.397  26.999  25.370  1.00  0.00    -0.237 OA
ATOM     96  O   UNL A   1      54.194  24.921  26.678  1.00  0.00    -0.744 OA
ENDBRANCH  92  93
ENDBRANCH  66  87
ENDBRANCH  40  41
ENDBRANCH  33  35
ENDBRANCH  32  33
ENDBRANCH  31  32
ENDBRANCH  30  31
ENDBRANCH  29  30
ENDBRANCH  28  29
ENDBRANCH   1  28
TORSDOF 24
ENDMDL
