MODEL 1
REMARK VINA RESULT:      -9.5      0.000      0.000
REMARK SMILES C[N@@H+]1CCC[C@@H](NC(=O)N(CC(=O)OCCOCCOCCOCCOC(=O)c2ccc(-c3c4nc(c(-c5ccc(S(=O)(=O)[O-])cc5)c5ccc([nH]5)c(-c5ccc(S(=O)(=O)[O-])cc5)c5nc(c(-c6ccc(S(=O)(=O)[O-])cc6)c6ccc3[nH]6)C=C5)C=C4)cc2)C(C)(C)C)C1
REMARK SMILES IDX 20 1 19 2 18 3 17 4 16 5 15 6 14 7 12 8 13 9 11 10 10 11
REMARK SMILES IDX 8 12 7 13 9 15 6 16 1 17 2 18 3 19 93 20 4 22 5 23 89 24
REMARK SMILES IDX 90 25 91 26 92 27 21 28 22 29 23 30 24 31 25 32 26 33 27 34
REMARK SMILES IDX 28 35 29 36 30 37 88 38 31 39 87 40 32 41 33 42 34 43 81 44
REMARK SMILES IDX 35 45 86 46 80 47 82 48 36 49 85 50 79 51 78 52 37 54 67 55
REMARK SMILES IDX 48 56 66 57 49 58 52 59 65 60 83 61 50 62 51 63 64 65 84 66
REMARK SMILES IDX 53 67 38 68 39 69 47 70 40 71 46 72 41 73 42 74 43 75 44 76
REMARK SMILES IDX 45 77 68 78 69 79 77 80 70 81 76 82 71 83 72 84 73 85 74 86
REMARK SMILES IDX 75 87 54 88 55 89 63 90 56 91 62 92 57 93 58 94 59 95 60 96
REMARK SMILES IDX 61 97
REMARK H PARENT 7 14 2 21 82 53 52 64
REMARK Flexibility Score: inf
ROOT
ATOM      1  O   UNL A   1      33.115  21.470  26.385  1.00  0.00    -0.377 OA
ENDROOT
BRANCH   1   2
ATOM      2  C   UNL A   1      32.689  20.286  25.746  1.00  0.00     0.188 C 
BRANCH   2   3
ATOM      3  C   UNL A   1      33.092  20.210  24.258  1.00  0.00     0.188 C 
BRANCH   3   4
ATOM      4  O   UNL A   1      33.377  21.394  23.517  1.00  0.00    -0.376 OA
BRANCH   4   5
ATOM      5  C   UNL A   1      32.395  21.908  22.632  1.00  0.00     0.202 C 
BRANCH   5   6
ATOM      6  C   UNL A   1      32.190  23.436  22.637  1.00  0.00     0.261 C 
BRANCH   6   7
ATOM      7  O   UNL A   1      33.304  24.245  22.184  1.00  0.00    -0.462 OA
BRANCH   7   8
ATOM      8  C   UNL A   1      33.053  25.550  21.905  1.00  0.00     0.325 C 
ATOM      9  O   UNL A   1      33.424  26.110  20.875  1.00  0.00    -0.250 OA
BRANCH   8  10
ATOM     10  C   UNL A   1      32.237  26.332  22.987  1.00  0.00     0.244 C 
BRANCH  10  11
ATOM     11  N   UNL A   1      32.710  27.478  23.807  1.00  0.00    -0.309 N 
BRANCH  11  12
ATOM     12  C   UNL A   1      32.701  28.782  23.356  1.00  0.00     0.318 C 
ATOM     13  N   UNL A   1      31.668  29.621  23.484  1.00  0.00    -0.330 N 
ATOM     14  H   UNL A   1      31.880  30.490  23.073  1.00  0.00     0.165 HD
ATOM     15  O   UNL A   1      33.680  29.300  22.808  1.00  0.00    -0.249 OA
BRANCH  13  16
ATOM     16  C   UNL A   1      30.323  29.644  24.047  1.00  0.00     0.139 C 
ATOM     17  C   UNL A   1      28.882  32.993  22.992  1.00  0.00     0.332 C 
ATOM     18  N   UNL A   1      29.389  31.632  22.830  1.00  0.00    -0.336 N 
ATOM     19  C   UNL A   1      28.377  30.773  22.199  1.00  0.00     0.262 C 
ATOM     20  C   UNL A   1      29.788  31.086  24.139  1.00  0.00     0.287 C 
ATOM     21  H   UNL A   1      30.207  31.657  22.221  1.00  0.00     0.347 HD
ATOM     22  C   UNL A   1      28.931  29.370  21.952  1.00  0.00     0.064 C 
ATOM     23  C   UNL A   1      29.396  28.724  23.251  1.00  0.00     0.037 C 
ENDBRANCH  13  16
ENDBRANCH  11  12
BRANCH  11  24
ATOM     24  C   UNL A   1      32.990  27.292  25.307  1.00  0.00     0.037 C 
ATOM     25  C   UNL A   1      33.636  28.570  25.909  1.00  0.00     0.034 C 
ATOM     26  C   UNL A   1      31.683  27.008  26.100  1.00  0.00     0.034 C 
ATOM     27  C   UNL A   1      33.892  26.079  25.661  1.00  0.00     0.034 C 
ENDBRANCH  11  24
ENDBRANCH  10  11
ENDBRANCH   8  10
ENDBRANCH   7   8
ENDBRANCH   6   7
ENDBRANCH   5   6
ENDBRANCH   4   5
ENDBRANCH   3   4
ENDBRANCH   2   3
ENDBRANCH   1   2
BRANCH   1  28
ATOM     28  C   UNL A   1      34.467  21.472  26.794  1.00  0.00     0.188 C 
BRANCH  28  29
ATOM     29  C   UNL A   1      35.310  22.604  26.184  1.00  0.00     0.188 C 
BRANCH  29  30
ATOM     30  O   UNL A   1      36.600  22.163  25.782  1.00  0.00    -0.376 OA
BRANCH  30  31
ATOM     31  C   UNL A   1      37.563  23.068  25.280  1.00  0.00     0.202 C 
BRANCH  31  32
ATOM     32  C   UNL A   1      38.757  23.543  26.127  1.00  0.00     0.261 C 
BRANCH  32  33
ATOM     33  O   UNL A   1      38.831  24.932  26.449  1.00  0.00    -0.460 OA
BRANCH  33  34
ATOM     34  C   UNL A   1      40.063  25.482  26.439  1.00  0.00     0.338 C 
ATOM     35  O   UNL A   1      40.833  25.516  25.491  1.00  0.00    -0.246 OA
BRANCH  34  36
ATOM     36  C   UNL A   1      40.251  26.233  27.697  1.00  0.00     0.060 A 
ATOM     37  C   UNL A   1      39.360  25.984  28.750  1.00  0.00     0.016 A 
ATOM     38  C   UNL A   1      41.283  27.165  27.847  1.00  0.00     0.016 A 
ATOM     39  C   UNL A   1      39.470  26.693  29.942  1.00  0.00     0.010 A 
ATOM     40  C   UNL A   1      41.367  27.907  29.030  1.00  0.00     0.010 A 
ATOM     41  C   UNL A   1      40.430  27.704  30.060  1.00  0.00    -0.014 A 
BRANCH  41  42
ATOM     42  C   UNL A   1      40.246  28.721  31.121  1.00  0.00     0.031 A 
ATOM     43  C   UNL A   1      41.163  28.651  32.314  1.00  0.00     0.074 A 
ATOM     44  C   UNL A   1      39.359  29.723  31.001  1.00  0.00     0.049 A 
ATOM     45  N   UNL A   1      41.240  29.440  33.352  1.00  0.00    -0.248 NA
ATOM     46  C   UNL A   1      42.129  27.539  32.326  1.00  0.00     0.031 C 
ATOM     47  C   UNL A   1      38.476  29.941  29.857  1.00  0.00     0.029 A 
ATOM     48  N   UNL A   1      39.070  30.756  31.856  1.00  0.00    -0.354 N 
ATOM     49  C   UNL A   1      42.259  28.919  34.142  1.00  0.00     0.074 A 
ATOM     50  C   UNL A   1      42.740  27.725  33.483  1.00  0.00     0.031 C 
ATOM     51  C   UNL A   1      37.745  31.049  30.079  1.00  0.00     0.029 A 
ATOM     52  C   UNL A   1      38.088  31.597  31.392  1.00  0.00     0.049 A 
ATOM     53  H   UNL A   1      39.523  30.882  32.720  1.00  0.00     0.167 HD
ATOM     54  C   UNL A   1      42.758  29.393  35.308  1.00  0.00     0.031 A 
ATOM     55  C   UNL A   1      37.528  32.679  31.968  1.00  0.00     0.031 A 
ATOM     56  C   UNL A   1      42.247  30.556  35.979  1.00  0.00     0.049 A 
ATOM     57  C   UNL A   1      38.016  33.125  33.323  1.00  0.00     0.074 A 
ATOM     58  C   UNL A   1      42.660  31.115  37.174  1.00  0.00     0.029 A 
ATOM     59  N   UNL A   1      41.192  31.333  35.516  1.00  0.00    -0.354 N 
ATOM     60  N   UNL A   1      38.981  32.627  34.060  1.00  0.00    -0.248 NA
ATOM     61  C   UNL A   1      37.346  34.290  33.917  1.00  0.00     0.031 C 
ATOM     62  C   UNL A   1      41.814  32.190  37.466  1.00  0.00     0.029 A 
ATOM     63  C   UNL A   1      40.924  32.350  36.415  1.00  0.00     0.049 A 
ATOM     64  H   UNL A   1      40.707  31.181  34.673  1.00  0.00     0.167 HD
ATOM     65  C   UNL A   1      39.061  33.442  35.186  1.00  0.00     0.074 A 
ATOM     66  C   UNL A   1      38.048  34.466  35.028  1.00  0.00     0.031 C 
ATOM     67  C   UNL A   1      39.907  33.361  36.245  1.00  0.00     0.031 A 
BRANCH  54  68
ATOM     68  C   UNL A   1      43.872  28.601  35.944  1.00  0.00    -0.014 A 
ATOM     69  C   UNL A   1      45.225  28.896  35.685  1.00  0.00     0.010 A 
ATOM     70  C   UNL A   1      43.559  27.517  36.785  1.00  0.00     0.010 A 
ATOM     71  C   UNL A   1      46.238  28.078  36.193  1.00  0.00     0.020 A 
ATOM     72  C   UNL A   1      44.571  26.719  37.325  1.00  0.00     0.020 A 
ATOM     73  C   UNL A   1      45.902  26.987  37.002  1.00  0.00     0.054 A 
BRANCH  73  74
ATOM     74  S   UNL A   1      47.233  25.922  37.619  1.00  0.00     0.124 S 
ATOM     75  O   UNL A   1      46.795  24.603  37.168  1.00  0.00    -0.237 OA
ATOM     76  O   UNL A   1      48.412  26.456  36.944  1.00  0.00    -0.237 OA
ATOM     77  O   UNL A   1      47.200  26.127  39.065  1.00  0.00    -0.744 OA
ENDBRANCH  73  74
ENDBRANCH  54  68
BRANCH  55  78
ATOM     78  C   UNL A   1      36.459  33.429  31.253  1.00  0.00    -0.014 A 
ATOM     79  C   UNL A   1      36.697  33.972  29.979  1.00  0.00     0.010 A 
ATOM     80  C   UNL A   1      35.186  33.586  31.834  1.00  0.00     0.010 A 
ATOM     81  C   UNL A   1      35.686  34.656  29.298  1.00  0.00     0.020 A 
ATOM     82  C   UNL A   1      34.164  34.246  31.145  1.00  0.00     0.020 A 
ATOM     83  C   UNL A   1      34.422  34.779  29.881  1.00  0.00     0.054 A 
BRANCH  83  84
ATOM     84  S   UNL A   1      33.105  35.600  28.940  1.00  0.00     0.124 S 
ATOM     85  O   UNL A   1      32.342  36.261  29.994  1.00  0.00    -0.237 OA
ATOM     86  O   UNL A   1      33.858  36.484  28.054  1.00  0.00    -0.237 OA
ATOM     87  O   UNL A   1      32.421  34.495  28.271  1.00  0.00    -0.744 OA
ENDBRANCH  83  84
ENDBRANCH  55  78
BRANCH  67  88
ATOM     88  C   UNL A   1      39.815  34.437  37.296  1.00  0.00    -0.014 A 
ATOM     89  C   UNL A   1      39.061  34.266  38.470  1.00  0.00     0.010 A 
ATOM     90  C   UNL A   1      40.548  35.627  37.125  1.00  0.00     0.010 A 
ATOM     91  C   UNL A   1      39.011  35.277  39.434  1.00  0.00     0.020 A 
ATOM     92  C   UNL A   1      40.529  36.627  38.099  1.00  0.00     0.020 A 
ATOM     93  C   UNL A   1      39.747  36.452  39.242  1.00  0.00     0.054 A 
BRANCH  93  94
ATOM     94  S   UNL A   1      39.695  37.735  40.523  1.00  0.00     0.124 S 
ATOM     95  O   UNL A   1      39.068  37.030  41.636  1.00  0.00    -0.237 OA
ATOM     96  O   UNL A   1      41.108  38.064  40.702  1.00  0.00    -0.237 OA
ATOM     97  O   UNL A   1      38.886  38.794  39.922  1.00  0.00    -0.744 OA
ENDBRANCH  93  94
ENDBRANCH  67  88
ENDBRANCH  41  42
ENDBRANCH  34  36
ENDBRANCH  33  34
ENDBRANCH  32  33
ENDBRANCH  31  32
ENDBRANCH  30  31
ENDBRANCH  29  30
ENDBRANCH  28  29
ENDBRANCH   1  28
TORSDOF 27
ENDMDL
MODEL 2
REMARK VINA RESULT:      -9.1      3.336      4.038
REMARK SMILES C[N@@H+]1CCC[C@@H](NC(=O)N(CC(=O)OCCOCCOCCOCCOC(=O)c2ccc(-c3c4nc(c(-c5ccc(S(=O)(=O)[O-])cc5)c5ccc([nH]5)c(-c5ccc(S(=O)(=O)[O-])cc5)c5nc(c(-c6ccc(S(=O)(=O)[O-])cc6)c6ccc3[nH]6)C=C5)C=C4)cc2)C(C)(C)C)C1
REMARK SMILES IDX 20 1 19 2 18 3 17 4 16 5 15 6 14 7 12 8 13 9 11 10 10 11
REMARK SMILES IDX 8 12 7 13 9 15 6 16 1 17 2 18 3 19 93 20 4 22 5 23 89 24
REMARK SMILES IDX 90 25 91 26 92 27 21 28 22 29 23 30 24 31 25 32 26 33 27 34
REMARK SMILES IDX 28 35 29 36 30 37 88 38 31 39 87 40 32 41 33 42 34 43 81 44
REMARK SMILES IDX 35 45 86 46 80 47 82 48 36 49 85 50 79 51 78 52 37 54 67 55
REMARK SMILES IDX 48 56 66 57 49 58 52 59 65 60 83 61 50 62 51 63 64 65 84 66
REMARK SMILES IDX 53 67 38 68 39 69 47 70 40 71 46 72 41 73 42 74 43 75 44 76
REMARK SMILES IDX 45 77 68 78 69 79 77 80 70 81 76 82 71 83 72 84 73 85 74 86
REMARK SMILES IDX 75 87 54 88 55 89 63 90 56 91 62 92 57 93 58 94 59 95 60 96
REMARK SMILES IDX 61 97
REMARK H PARENT 7 14 2 21 82 53 52 64
REMARK Flexibility Score: inf
ROOT
ATOM      1  O   UNL A   1      34.048  21.994  26.034  1.00  0.00    -0.377 OA
ENDROOT
BRANCH   1   2
ATOM      2  C   UNL A   1      32.662  21.759  25.905  1.00  0.00     0.188 C 
BRANCH   2   3
ATOM      3  C   UNL A   1      32.035  22.441  24.670  1.00  0.00     0.188 C 
BRANCH   3   4
ATOM      4  O   UNL A   1      32.703  23.511  24.007  1.00  0.00    -0.376 OA
BRANCH   4   5
ATOM      5  C   UNL A   1      32.038  24.198  22.960  1.00  0.00     0.202 C 
BRANCH   5   6
ATOM      6  C   UNL A   1      30.559  24.562  23.199  1.00  0.00     0.261 C 
BRANCH   6   7
ATOM      7  O   UNL A   1      30.286  25.902  23.680  1.00  0.00    -0.462 OA
BRANCH   7   8
ATOM      8  C   UNL A   1      30.586  26.171  24.976  1.00  0.00     0.325 C 
ATOM      9  O   UNL A   1      29.817  25.956  25.912  1.00  0.00    -0.250 OA
BRANCH   8  10
ATOM     10  C   UNL A   1      32.003  26.781  25.235  1.00  0.00     0.244 C 
BRANCH  10  11
ATOM     11  N   UNL A   1      32.363  28.223  25.266  1.00  0.00    -0.309 N 
BRANCH  11  12
ATOM     12  C   UNL A   1      32.381  29.020  24.138  1.00  0.00     0.318 C 
ATOM     13  N   UNL A   1      31.299  29.594  23.600  1.00  0.00    -0.330 N 
ATOM     14  H   UNL A   1      31.547  30.099  22.793  1.00  0.00     0.165 HD
ATOM     15  O   UNL A   1      33.424  29.295  23.537  1.00  0.00    -0.249 OA
BRANCH  13  16
ATOM     16  C   UNL A   1      29.866  29.702  23.844  1.00  0.00     0.139 C 
ATOM     17  C   UNL A   1      29.016  33.319  23.067  1.00  0.00     0.332 C 
ATOM     18  N   UNL A   1      29.428  31.942  22.798  1.00  0.00    -0.336 N 
ATOM     19  C   UNL A   1      28.526  31.313  21.822  1.00  0.00     0.262 C 
ATOM     20  C   UNL A   1      29.451  31.172  24.053  1.00  0.00     0.287 C 
ATOM     21  H   UNL A   1      30.366  31.952  22.400  1.00  0.00     0.347 HD
ATOM     22  C   UNL A   1      29.000  29.902  21.475  1.00  0.00     0.064 C 
ATOM     23  C   UNL A   1      29.081  29.026  22.719  1.00  0.00     0.037 C 
ENDBRANCH  13  16
ENDBRANCH  11  12
BRANCH  11  24
ATOM     24  C   UNL A   1      32.482  28.962  26.608  1.00  0.00     0.037 C 
ATOM     25  C   UNL A   1      31.505  28.360  27.656  1.00  0.00     0.034 C 
ATOM     26  C   UNL A   1      33.919  28.857  27.191  1.00  0.00     0.034 C 
ATOM     27  C   UNL A   1      32.236  30.493  26.539  1.00  0.00     0.034 C 
ENDBRANCH  11  24
ENDBRANCH  10  11
ENDBRANCH   8  10
ENDBRANCH   7   8
ENDBRANCH   6   7
ENDBRANCH   5   6
ENDBRANCH   4   5
ENDBRANCH   3   4
ENDBRANCH   2   3
ENDBRANCH   1   2
BRANCH   1  28
ATOM     28  C   UNL A   1      34.835  21.512  24.965  1.00  0.00     0.188 C 
BRANCH  28  29
ATOM     29  C   UNL A   1      35.235  20.033  25.092  1.00  0.00     0.188 C 
BRANCH  29  30
ATOM     30  O   UNL A   1      36.645  19.849  25.063  1.00  0.00    -0.376 OA
BRANCH  30  31
ATOM     31  C   UNL A   1      37.514  20.886  24.656  1.00  0.00     0.202 C 
BRANCH  31  32
ATOM     32  C   UNL A   1      38.658  21.392  25.553  1.00  0.00     0.261 C 
BRANCH  32  33
ATOM     33  O   UNL A   1      38.371  22.457  26.459  1.00  0.00    -0.460 OA
BRANCH  33  34
ATOM     34  C   UNL A   1      38.205  23.678  25.911  1.00  0.00     0.338 C 
ATOM     35  O   UNL A   1      37.411  23.975  25.031  1.00  0.00    -0.246 OA
BRANCH  34  36
ATOM     36  C   UNL A   1      38.983  24.655  26.701  1.00  0.00     0.060 A 
ATOM     37  C   UNL A   1      38.737  24.731  28.078  1.00  0.00     0.016 A 
ATOM     38  C   UNL A   1      39.941  25.481  26.105  1.00  0.00     0.016 A 
ATOM     39  C   UNL A   1      39.416  25.660  28.860  1.00  0.00     0.010 A 
ATOM     40  C   UNL A   1      40.592  26.444  26.884  1.00  0.00     0.010 A 
ATOM     41  C   UNL A   1      40.294  26.565  28.254  1.00  0.00    -0.014 A 
BRANCH  41  42
ATOM     42  C   UNL A   1      40.648  27.797  28.994  1.00  0.00     0.031 A 
ATOM     43  C   UNL A   1      42.047  27.897  29.544  1.00  0.00     0.074 A 
ATOM     44  C   UNL A   1      39.796  28.830  29.108  1.00  0.00     0.049 A 
ATOM     45  N   UNL A   1      42.621  28.878  30.188  1.00  0.00    -0.248 NA
ATOM     46  C   UNL A   1      42.915  26.727  29.326  1.00  0.00     0.031 C 
ATOM     47  C   UNL A   1      38.447  28.882  28.549  1.00  0.00     0.029 A 
ATOM     48  N   UNL A   1      39.955  30.044  29.727  1.00  0.00    -0.354 N 
ATOM     49  C   UNL A   1      43.915  28.443  30.454  1.00  0.00     0.074 A 
ATOM     50  C   UNL A   1      44.026  27.096  29.940  1.00  0.00     0.031 C 
ATOM     51  C   UNL A   1      37.901  30.075  28.844  1.00  0.00     0.029 A 
ATOM     52  C   UNL A   1      38.850  30.856  29.639  1.00  0.00     0.049 A 
ATOM     53  H   UNL A   1      40.782  30.308  30.190  1.00  0.00     0.167 HD
ATOM     54  C   UNL A   1      44.925  29.105  31.065  1.00  0.00     0.031 A 
ATOM     55  C   UNL A   1      38.633  32.083  30.150  1.00  0.00     0.031 A 
ATOM     56  C   UNL A   1      44.795  30.428  31.612  1.00  0.00     0.049 A 
ATOM     57  C   UNL A   1      39.731  32.760  30.930  1.00  0.00     0.074 A 
ATOM     58  C   UNL A   1      45.745  31.187  32.271  1.00  0.00     0.029 A 
ATOM     59  N   UNL A   1      43.631  31.184  31.577  1.00  0.00    -0.354 N 
ATOM     60  N   UNL A   1      40.951  32.341  31.175  1.00  0.00    -0.248 NA
ATOM     61  C   UNL A   1      39.425  34.083  31.493  1.00  0.00     0.031 C 
ATOM     62  C   UNL A   1      45.136  32.375  32.691  1.00  0.00     0.029 A 
ATOM     63  C   UNL A   1      43.830  32.391  32.225  1.00  0.00     0.049 A 
ATOM     64  H   UNL A   1      42.788  30.903  31.153  1.00  0.00     0.167 HD
ATOM     65  C   UNL A   1      41.571  33.367  31.884  1.00  0.00     0.074 A 
ATOM     66  C   UNL A   1      40.590  34.424  32.025  1.00  0.00     0.031 C 
ATOM     67  C   UNL A   1      42.841  33.433  32.361  1.00  0.00     0.031 A 
BRANCH  54  68
ATOM     68  C   UNL A   1      46.230  28.365  31.220  1.00  0.00    -0.014 A 
ATOM     69  C   UNL A   1      46.492  27.565  32.349  1.00  0.00     0.010 A 
ATOM     70  C   UNL A   1      47.227  28.506  30.237  1.00  0.00     0.010 A 
ATOM     71  C   UNL A   1      47.749  26.982  32.527  1.00  0.00     0.020 A 
ATOM     72  C   UNL A   1      48.473  27.895  30.394  1.00  0.00     0.020 A 
ATOM     73  C   UNL A   1      48.736  27.160  31.552  1.00  0.00     0.054 A 
BRANCH  73  74
ATOM     74  S   UNL A   1      50.370  26.423  31.824  1.00  0.00     0.124 S 
ATOM     75  O   UNL A   1      50.023  25.053  32.195  1.00  0.00    -0.237 OA
ATOM     76  O   UNL A   1      51.012  26.577  30.522  1.00  0.00    -0.237 OA
ATOM     77  O   UNL A   1      50.942  27.232  32.897  1.00  0.00    -0.744 OA
ENDBRANCH  73  74
ENDBRANCH  54  68
BRANCH  55  78
ATOM     78  C   UNL A   1      37.327  32.762  29.918  1.00  0.00    -0.014 A 
ATOM     79  C   UNL A   1      36.349  32.790  30.928  1.00  0.00     0.010 A 
ATOM     80  C   UNL A   1      37.064  33.405  28.695  1.00  0.00     0.010 A 
ATOM     81  C   UNL A   1      35.133  33.447  30.720  1.00  0.00     0.020 A 
ATOM     82  C   UNL A   1      35.859  34.086  28.492  1.00  0.00     0.020 A 
ATOM     83  C   UNL A   1      34.900  34.100  29.506  1.00  0.00     0.054 A 
BRANCH  83  84
ATOM     84  S   UNL A   1      33.347  35.014  29.293  1.00  0.00     0.124 S 
ATOM     85  O   UNL A   1      32.671  34.235  28.262  1.00  0.00    -0.237 OA
ATOM     86  O   UNL A   1      32.758  34.945  30.628  1.00  0.00    -0.237 OA
ATOM     87  O   UNL A   1      33.786  36.347  28.884  1.00  0.00    -0.744 OA
ENDBRANCH  83  84
ENDBRANCH  55  78
BRANCH  67  88
ATOM     88  C   UNL A   1      43.268  34.713  33.034  1.00  0.00    -0.014 A 
ATOM     89  C   UNL A   1      43.729  34.734  34.362  1.00  0.00     0.010 A 
ATOM     90  C   UNL A   1      43.256  35.912  32.296  1.00  0.00     0.010 A 
ATOM     91  C   UNL A   1      44.135  35.936  34.950  1.00  0.00     0.020 A 
ATOM     92  C   UNL A   1      43.691  37.109  32.868  1.00  0.00     0.020 A 
ATOM     93  C   UNL A   1      44.114  37.116  34.199  1.00  0.00     0.054 A 
BRANCH  93  94
ATOM     94  S   UNL A   1      44.679  38.656  34.973  1.00  0.00     0.124 S 
ATOM     95  O   UNL A   1      44.315  39.653  33.971  1.00  0.00    -0.237 OA
ATOM     96  O   UNL A   1      43.902  38.694  36.210  1.00  0.00    -0.237 OA
ATOM     97  O   UNL A   1      46.115  38.448  35.152  1.00  0.00    -0.744 OA
ENDBRANCH  93  94
ENDBRANCH  67  88
ENDBRANCH  41  42
ENDBRANCH  34  36
ENDBRANCH  33  34
ENDBRANCH  32  33
ENDBRANCH  31  32
ENDBRANCH  30  31
ENDBRANCH  29  30
ENDBRANCH  28  29
ENDBRANCH   1  28
TORSDOF 27
ENDMDL
MODEL 3
REMARK VINA RESULT:      -8.2      4.779      5.690
REMARK SMILES C[N@@H+]1CCC[C@@H](NC(=O)N(CC(=O)OCCOCCOCCOCCOC(=O)c2ccc(-c3c4nc(c(-c5ccc(S(=O)(=O)[O-])cc5)c5ccc([nH]5)c(-c5ccc(S(=O)(=O)[O-])cc5)c5nc(c(-c6ccc(S(=O)(=O)[O-])cc6)c6ccc3[nH]6)C=C5)C=C4)cc2)C(C)(C)C)C1
REMARK SMILES IDX 20 1 19 2 18 3 17 4 16 5 15 6 14 7 12 8 13 9 11 10 10 11
REMARK SMILES IDX 8 12 7 13 9 15 6 16 1 17 2 18 3 19 93 20 4 22 5 23 89 24
REMARK SMILES IDX 90 25 91 26 92 27 21 28 22 29 23 30 24 31 25 32 26 33 27 34
REMARK SMILES IDX 28 35 29 36 30 37 88 38 31 39 87 40 32 41 33 42 34 43 81 44
REMARK SMILES IDX 35 45 86 46 80 47 82 48 36 49 85 50 79 51 78 52 37 54 67 55
REMARK SMILES IDX 48 56 66 57 49 58 52 59 65 60 83 61 50 62 51 63 64 65 84 66
REMARK SMILES IDX 53 67 38 68 39 69 47 70 40 71 46 72 41 73 42 74 43 75 44 76
REMARK SMILES IDX 45 77 68 78 69 79 77 80 70 81 76 82 71 83 72 84 73 85 74 86
REMARK SMILES IDX 75 87 54 88 55 89 63 90 56 91 62 92 57 93 58 94 59 95 60 96
REMARK SMILES IDX 61 97
REMARK H PARENT 7 14 2 21 82 53 52 64
REMARK Flexibility Score: inf
ROOT
ATOM      1  O   UNL A   1      34.243  21.420  26.049  1.00  0.00    -0.377 OA
ENDROOT
BRANCH   1   2
ATOM      2  C   UNL A   1      32.947  21.032  25.645  1.00  0.00     0.188 C 
BRANCH   2   3
ATOM      3  C   UNL A   1      32.669  21.281  24.148  1.00  0.00     0.188 C 
BRANCH   3   4
ATOM      4  O   UNL A   1      32.961  22.542  23.550  1.00  0.00    -0.376 OA
BRANCH   4   5
ATOM      5  C   UNL A   1      31.988  23.155  22.719  1.00  0.00     0.202 C 
BRANCH   5   6
ATOM      6  C   UNL A   1      30.651  23.536  23.383  1.00  0.00     0.261 C 
BRANCH   6   7
ATOM      7  O   UNL A   1      30.375  24.952  23.529  1.00  0.00    -0.462 OA
BRANCH   7   8
ATOM      8  C   UNL A   1      31.065  25.626  24.484  1.00  0.00     0.325 C 
ATOM      9  O   UNL A   1      30.767  25.612  25.677  1.00  0.00    -0.250 OA
BRANCH   8  10
ATOM     10  C   UNL A   1      32.301  26.443  23.981  1.00  0.00     0.244 C 
BRANCH  10  11
ATOM     11  N   UNL A   1      32.607  27.869  24.270  1.00  0.00    -0.309 N 
BRANCH  11  12
ATOM     12  C   UNL A   1      32.438  28.878  23.344  1.00  0.00     0.318 C 
ATOM     13  N   UNL A   1      31.316  29.592  23.199  1.00  0.00    -0.330 N 
ATOM     14  H   UNL A   1      31.418  30.242  22.467  1.00  0.00     0.165 HD
ATOM     15  O   UNL A   1      33.339  29.230  22.575  1.00  0.00    -0.249 OA
BRANCH  13  16
ATOM     16  C   UNL A   1      29.990  29.704  23.793  1.00  0.00     0.139 C 
ATOM     17  C   UNL A   1      28.862  33.241  23.003  1.00  0.00     0.332 C 
ATOM     18  N   UNL A   1      29.233  31.852  22.737  1.00  0.00    -0.336 N 
ATOM     19  C   UNL A   1      28.132  31.141  22.072  1.00  0.00     0.262 C 
ATOM     20  C   UNL A   1      29.598  31.181  23.996  1.00  0.00     0.287 C 
ATOM     21  H   UNL A   1      30.039  31.842  22.112  1.00  0.00     0.347 HD
ATOM     22  C   UNL A   1      28.544  29.712  21.717  1.00  0.00     0.064 C 
ATOM     23  C   UNL A   1      28.965  28.935  22.957  1.00  0.00     0.037 C 
ENDBRANCH  13  16
ENDBRANCH  11  12
BRANCH  11  24
ATOM     24  C   UNL A   1      32.883  28.324  25.712  1.00  0.00     0.037 C 
ATOM     25  C   UNL A   1      31.557  28.442  26.515  1.00  0.00     0.034 C 
ATOM     26  C   UNL A   1      33.798  27.316  26.463  1.00  0.00     0.034 C 
ATOM     27  C   UNL A   1      33.650  29.667  25.842  1.00  0.00     0.034 C 
ENDBRANCH  11  24
ENDBRANCH  10  11
ENDBRANCH   8  10
ENDBRANCH   7   8
ENDBRANCH   6   7
ENDBRANCH   5   6
ENDBRANCH   4   5
ENDBRANCH   3   4
ENDBRANCH   2   3
ENDBRANCH   1   2
BRANCH   1  28
ATOM     28  C   UNL A   1      35.241  21.284  25.059  1.00  0.00     0.188 C 
BRANCH  28  29
ATOM     29  C   UNL A   1      35.885  19.888  25.000  1.00  0.00     0.188 C 
BRANCH  29  30
ATOM     30  O   UNL A   1      37.305  19.948  24.955  1.00  0.00    -0.376 OA
BRANCH  30  31
ATOM     31  C   UNL A   1      37.988  21.185  24.942  1.00  0.00     0.202 C 
BRANCH  31  32
ATOM     32  C   UNL A   1      39.267  21.420  25.766  1.00  0.00     0.261 C 
BRANCH  32  33
ATOM     33  O   UNL A   1      39.229  22.424  26.780  1.00  0.00    -0.460 OA
BRANCH  33  34
ATOM     34  C   UNL A   1      38.703  23.614  26.422  1.00  0.00     0.338 C 
ATOM     35  O   UNL A   1      37.589  23.803  25.959  1.00  0.00    -0.246 OA
BRANCH  34  36
ATOM     36  C   UNL A   1      39.610  24.685  26.885  1.00  0.00     0.060 A 
ATOM     37  C   UNL A   1      39.884  24.767  28.256  1.00  0.00     0.016 A 
ATOM     38  C   UNL A   1      40.188  25.593  25.992  1.00  0.00     0.016 A 
ATOM     39  C   UNL A   1      40.701  25.779  28.749  1.00  0.00     0.010 A 
ATOM     40  C   UNL A   1      40.975  26.636  26.491  1.00  0.00     0.010 A 
ATOM     41  C   UNL A   1      41.192  26.757  27.876  1.00  0.00    -0.014 A 
BRANCH  41  42
ATOM     42  C   UNL A   1      41.662  28.036  28.455  1.00  0.00     0.031 A 
ATOM     43  C   UNL A   1      43.144  28.309  28.420  1.00  0.00     0.074 A 
ATOM     44  C   UNL A   1      40.809  28.964  28.919  1.00  0.00     0.049 A 
ATOM     45  N   UNL A   1      43.806  29.362  28.818  1.00  0.00    -0.248 NA
ATOM     46  C   UNL A   1      43.987  27.244  27.851  1.00  0.00     0.031 C 
ATOM     47  C   UNL A   1      39.353  28.848  28.929  1.00  0.00     0.029 A 
ATOM     48  N   UNL A   1      41.056  30.200  29.460  1.00  0.00    -0.354 N 
ATOM     49  C   UNL A   1      45.142  29.086  28.549  1.00  0.00     0.074 A 
ATOM     50  C   UNL A   1      45.199  27.752  27.995  1.00  0.00     0.031 C 
ATOM     51  C   UNL A   1      38.831  29.976  29.445  1.00  0.00     0.029 A 
ATOM     52  C   UNL A   1      39.919  30.877  29.830  1.00  0.00     0.049 A 
ATOM     53  H   UNL A   1      41.962  30.568  29.572  1.00  0.00     0.167 HD
ATOM     54  C   UNL A   1      46.228  29.873  28.738  1.00  0.00     0.031 A 
ATOM     55  C   UNL A   1      39.778  32.080  30.419  1.00  0.00     0.031 A 
ATOM     56  C   UNL A   1      46.169  31.182  29.328  1.00  0.00     0.049 A 
ATOM     57  C   UNL A   1      41.007  32.895  30.730  1.00  0.00     0.074 A 
ATOM     58  C   UNL A   1      47.207  32.059  29.587  1.00  0.00     0.029 A 
ATOM     59  N   UNL A   1      45.005  31.797  29.768  1.00  0.00    -0.354 N 
ATOM     60  N   UNL A   1      42.266  32.626  30.471  1.00  0.00    -0.248 NA
ATOM     61  C   UNL A   1      40.794  34.184  31.403  1.00  0.00     0.031 C 
ATOM     62  C   UNL A   1      46.677  33.176  30.243  1.00  0.00     0.029 A 
ATOM     63  C   UNL A   1      45.300  33.031  30.321  1.00  0.00     0.049 A 
ATOM     64  H   UNL A   1      44.102  31.411  29.698  1.00  0.00     0.167 HD
ATOM     65  C   UNL A   1      42.991  33.730  30.911  1.00  0.00     0.074 A 
ATOM     66  C   UNL A   1      42.028  34.669  31.450  1.00  0.00     0.031 C 
ATOM     67  C   UNL A   1      44.329  33.953  30.859  1.00  0.00     0.031 A 
BRANCH  54  68
ATOM     68  C   UNL A   1      47.565  29.293  28.353  1.00  0.00    -0.014 A 
ATOM     69  C   UNL A   1      48.208  29.660  27.154  1.00  0.00     0.010 A 
ATOM     70  C   UNL A   1      48.170  28.334  29.185  1.00  0.00     0.010 A 
ATOM     71  C   UNL A   1      49.389  29.026  26.761  1.00  0.00     0.020 A 
ATOM     72  C   UNL A   1      49.371  27.724  28.814  1.00  0.00     0.020 A 
ATOM     73  C   UNL A   1      49.958  28.053  27.590  1.00  0.00     0.054 A 
BRANCH  73  74
ATOM     74  S   UNL A   1      51.471  27.220  27.041  1.00  0.00     0.124 S 
ATOM     75  O   UNL A   1      51.137  26.865  25.664  1.00  0.00    -0.237 OA
ATOM     76  O   UNL A   1      52.484  28.261  27.192  1.00  0.00    -0.237 OA
ATOM     77  O   UNL A   1      51.601  26.092  27.960  1.00  0.00    -0.744 OA
ENDBRANCH  73  74
ENDBRANCH  54  68
BRANCH  55  78
ATOM     78  C   UNL A   1      38.416  32.598  30.731  1.00  0.00    -0.014 A 
ATOM     79  C   UNL A   1      37.820  32.330  31.975  1.00  0.00     0.010 A 
ATOM     80  C   UNL A   1      37.718  33.382  29.794  1.00  0.00     0.010 A 
ATOM     81  C   UNL A   1      36.552  32.835  32.278  1.00  0.00     0.020 A 
ATOM     82  C   UNL A   1      36.461  33.912  30.103  1.00  0.00     0.020 A 
ATOM     83  C   UNL A   1      35.885  33.631  31.343  1.00  0.00     0.054 A 
BRANCH  83  84
ATOM     84  S   UNL A   1      34.277  34.342  31.794  1.00  0.00     0.124 S 
ATOM     85  O   UNL A   1      34.660  35.627  32.370  1.00  0.00    -0.237 OA
ATOM     86  O   UNL A   1      33.591  34.405  30.505  1.00  0.00    -0.237 OA
ATOM     87  O   UNL A   1      33.725  33.372  32.737  1.00  0.00    -0.744 OA
ENDBRANCH  83  84
ENDBRANCH  55  78
BRANCH  67  88
ATOM     88  C   UNL A   1      44.834  35.287  31.348  1.00  0.00    -0.014 A 
ATOM     89  C   UNL A   1      45.136  35.514  32.702  1.00  0.00     0.010 A 
ATOM     90  C   UNL A   1      45.063  36.317  30.416  1.00  0.00     0.010 A 
ATOM     91  C   UNL A   1      45.620  36.758  33.120  1.00  0.00     0.020 A 
ATOM     92  C   UNL A   1      45.578  37.550  30.823  1.00  0.00     0.020 A 
ATOM     93  C   UNL A   1      45.838  37.768  32.176  1.00  0.00     0.054 A 
BRANCH  93  94
ATOM     94  S   UNL A   1      46.501  39.360  32.738  1.00  0.00     0.124 S 
ATOM     95  O   UNL A   1      47.888  39.024  33.042  1.00  0.00    -0.237 OA
ATOM     96  O   UNL A   1      46.302  40.217  31.571  1.00  0.00    -0.237 OA
ATOM     97  O   UNL A   1      45.672  39.692  33.895  1.00  0.00    -0.744 OA
ENDBRANCH  93  94
ENDBRANCH  67  88
ENDBRANCH  41  42
ENDBRANCH  34  36
ENDBRANCH  33  34
ENDBRANCH  32  33
ENDBRANCH  31  32
ENDBRANCH  30  31
ENDBRANCH  29  30
ENDBRANCH  28  29
ENDBRANCH   1  28
TORSDOF 27
ENDMDL
