MODEL 1
REMARK VINA RESULT:      -5.5      0.000      0.000
REMARK SMILES Cc1oc2c(C)c3oc(=O)c(CCC(=O)N[C@H](Cc4ccc(Cl)cc4)C(=O)OCCOCCOCCOCCOC(=O)c4ccc(-c5c6nc(c(-c7ccc(S(=O)(=O)[O-])cc7)c7ccc([nH]7)c(-c7ccc(S(=O)(=O)[O-])cc7)c7nc(c(-c8ccc(S(=O)(=O)[O-])cc8)c8ccc5[nH]8)C=C7)C=C6)cc4)c(C)c3cc2c1C
REMARK SMILES IDX 33 1 32 2 31 3 30 4 29 5 28 6 26 7 27 8 17 9 16 10 14 11
REMARK SMILES IDX 15 12 13 14 12 15 11 16 1 17 2 18 3 19 108 20 4 21 107 22
REMARK SMILES IDX 109 23 5 24 106 25 6 26 7 27 105 28 8 29 103 30 9 31 104 32
REMARK SMILES IDX 10 33 18 34 19 35 20 36 25 37 21 38 24 39 22 40 23 41 34 42
REMARK SMILES IDX 35 43 36 44 37 45 38 46 39 47 40 48 41 49 42 50 43 51 44 52
REMARK SMILES IDX 102 53 45 54 101 55 46 56 47 57 48 58 95 59 49 60 100 61
REMARK SMILES IDX 94 62 96 63 50 64 99 65 93 66 92 67 51 69 81 70 62 71 80 72
REMARK SMILES IDX 63 73 66 74 79 75 97 76 64 77 65 78 78 80 98 81 67 82 52 83
REMARK SMILES IDX 53 84 61 85 54 86 60 87 55 88 56 89 57 90 58 91 59 92 82 93
REMARK SMILES IDX 83 94 91 95 84 96 90 97 85 98 86 99 87 100 88 101 89 102
REMARK SMILES IDX 68 103 69 104 77 105 70 106 76 107 71 108 72 109 73 110
REMARK SMILES IDX 74 111 75 112
REMARK H PARENT 16 13 96 68 66 79
REMARK Flexibility Score: inf
ROOT
ATOM      1  C   UNL A   1      55.391  34.073  27.880  1.00  0.00     0.188 C 
ENDROOT
BRANCH   1   2
ATOM      2  C   UNL A   1      54.172  33.150  27.802  1.00  0.00     0.188 C 
BRANCH   2   3
ATOM      3  O   UNL A   1      52.914  33.736  27.573  1.00  0.00    -0.376 OA
BRANCH   3   4
ATOM      4  C   UNL A   1      52.275  33.560  26.331  1.00  0.00     0.202 C 
BRANCH   4   5
ATOM      5  C   UNL A   1      51.345  34.597  25.697  1.00  0.00     0.261 C 
BRANCH   5   6
ATOM      6  O   UNL A   1      49.916  34.371  25.723  1.00  0.00    -0.462 OA
BRANCH   6   7
ATOM      7  C   UNL A   1      48.945  35.341  25.128  1.00  0.00     0.329 C 
ATOM      8  O   UNL A   1      49.637  36.067  24.348  1.00  0.00    -0.250 OA
BRANCH   7   9
ATOM      9  C   UNL A   1      46.911  35.576  25.827  1.00  0.00     0.196 C 
BRANCH   9  10
ATOM     10  N   UNL A   1      45.442  35.181  25.019  1.00  0.00    -0.342 N 
ATOM     11  C   UNL A   1      44.560  34.121  25.112  1.00  0.00     0.221 C 
ATOM     12  O   UNL A   1      44.313  33.448  24.115  1.00  0.00    -0.275 OA
ATOM     13  H   UNL A   1      45.174  35.852  24.350  1.00  0.00     0.164 HD
BRANCH  11  14
ATOM     14  C   UNL A   1      43.733  33.974  26.388  1.00  0.00     0.105 C 
BRANCH  14  15
ATOM     15  C   UNL A   1      44.551  33.602  27.597  1.00  0.00     0.053 C 
BRANCH  15  16
ATOM     16  C   UNL A   1      44.288  32.157  27.827  1.00  0.00     0.042 A 
ATOM     17  C   UNL A   1      43.021  23.127  28.300  1.00  0.00     0.088 C 
ATOM     18  C   UNL A   1      43.380  24.557  28.421  1.00  0.00     0.105 A 
ATOM     19  O   UNL A   1      42.521  25.408  29.044  1.00  0.00    -0.461 OA
ATOM     20  C   UNL A   1      44.489  25.253  27.996  1.00  0.00    -0.002 A 
ATOM     21  C   UNL A   1      43.004  26.685  28.855  1.00  0.00     0.141 A 
ATOM     22  C   UNL A   1      44.086  26.633  27.950  1.00  0.00     0.025 A 
ATOM     23  C   UNL A   1      45.807  24.647  27.703  1.00  0.00     0.049 C 
ATOM     24  C   UNL A   1      42.427  27.815  29.460  1.00  0.00     0.036 A 
ATOM     25  C   UNL A   1      44.617  27.798  27.254  1.00  0.00     0.024 A 
ATOM     26  C   UNL A   1      41.211  27.806  30.309  1.00  0.00     0.052 C 
ATOM     27  C   UNL A   1      43.122  28.921  28.969  1.00  0.00     0.145 A 
ATOM     28  C   UNL A   1      44.350  29.080  27.746  1.00  0.00     0.022 A 
ATOM     29  O   UNL A   1      42.536  30.476  29.642  1.00  0.00    -0.422 OA
ATOM     30  C   UNL A   1      44.973  30.861  27.225  1.00  0.00    -0.030 A 
ATOM     31  C   UNL A   1      43.011  32.118  29.278  1.00  0.00     0.339 A 
ATOM     32  C   UNL A   1      46.073  31.193  26.238  1.00  0.00     0.046 C 
ATOM     33  O   UNL A   1      42.521  33.075  29.862  1.00  0.00    -0.246 OA
ENDBRANCH  15  16
ENDBRANCH  14  15
ENDBRANCH  11  14
ENDBRANCH   9  10
BRANCH   9  34
ATOM     34  C   UNL A   1      46.095  36.849  26.945  1.00  0.00     0.072 C 
BRANCH  34  35
ATOM     35  C   UNL A   1      44.812  37.764  27.007  1.00  0.00    -0.045 A 
ATOM     36  C   UNL A   1      43.476  37.378  27.184  1.00  0.00     0.005 A 
ATOM     37  C   UNL A   1      44.943  39.119  26.653  1.00  0.00     0.005 A 
ATOM     38  C   UNL A   1      42.345  38.167  26.942  1.00  0.00     0.021 A 
ATOM     39  C   UNL A   1      43.818  39.951  26.414  1.00  0.00     0.021 A 
ATOM     40  C   UNL A   1      42.522  39.460  26.531  1.00  0.00     0.041 A 
ATOM     41  Cl  UNL A   1      41.156  40.377  26.041  1.00  0.00    -0.084 Cl
ENDBRANCH  34  35
ENDBRANCH   9  34
ENDBRANCH   7   9
ENDBRANCH   6   7
ENDBRANCH   5   6
ENDBRANCH   4   5
ENDBRANCH   3   4
ENDBRANCH   2   3
ENDBRANCH   1   2
BRANCH   1  42
ATOM     42  O   UNL A   1      56.501  33.847  28.724  1.00  0.00    -0.377 OA
BRANCH  42  43
ATOM     43  C   UNL A   1      56.823  34.815  29.693  1.00  0.00     0.188 C 
BRANCH  43  44
ATOM     44  C   UNL A   1      57.247  34.304  31.083  1.00  0.00     0.188 C 
BRANCH  44  45
ATOM     45  O   UNL A   1      56.190  34.066  31.995  1.00  0.00    -0.376 OA
BRANCH  45  46
ATOM     46  C   UNL A   1      55.824  32.746  32.372  1.00  0.00     0.202 C 
BRANCH  46  47
ATOM     47  C   UNL A   1      55.822  32.296  33.852  1.00  0.00     0.261 C 
BRANCH  47  48
ATOM     48  O   UNL A   1      54.657  32.627  34.600  1.00  0.00    -0.460 OA
BRANCH  48  49
ATOM     49  C   UNL A   1      53.795  31.609  34.680  1.00  0.00     0.338 C 
ATOM     50  O   UNL A   1      54.040  30.422  34.810  1.00  0.00    -0.246 OA
BRANCH  49  51
ATOM     51  C   UNL A   1      52.431  32.097  34.641  1.00  0.00     0.060 A 
ATOM     52  C   UNL A   1      51.601  31.856  35.747  1.00  0.00     0.016 A 
ATOM     53  C   UNL A   1      51.947  32.229  33.353  1.00  0.00     0.016 A 
ATOM     54  C   UNL A   1      50.283  31.551  35.544  1.00  0.00     0.010 A 
ATOM     55  C   UNL A   1      50.638  31.872  33.147  1.00  0.00     0.010 A 
ATOM     56  C   UNL A   1      49.832  31.489  34.236  1.00  0.00    -0.014 A 
BRANCH  56  57
ATOM     57  C   UNL A   1      48.445  31.072  34.078  1.00  0.00     0.031 A 
ATOM     58  C   UNL A   1      47.626  32.204  33.569  1.00  0.00     0.074 A 
ATOM     59  C   UNL A   1      48.172  29.762  33.892  1.00  0.00     0.049 A 
ATOM     60  N   UNL A   1      47.694  32.519  32.310  1.00  0.00    -0.248 NA
ATOM     61  C   UNL A   1      47.152  33.300  34.413  1.00  0.00     0.031 C 
ATOM     62  C   UNL A   1      49.107  28.806  33.268  1.00  0.00     0.029 A 
ATOM     63  N   UNL A   1      47.007  29.046  34.025  1.00  0.00    -0.354 N 
ATOM     64  C   UNL A   1      47.370  33.853  32.186  1.00  0.00     0.074 A 
ATOM     65  C   UNL A   1      46.983  34.286  33.512  1.00  0.00     0.031 C 
ATOM     66  C   UNL A   1      48.410  27.728  32.854  1.00  0.00     0.029 A 
ATOM     67  C   UNL A   1      47.026  27.846  33.301  1.00  0.00     0.049 A 
ATOM     68  H   UNL A   1      46.243  29.343  34.569  1.00  0.00     0.167 HD
ATOM     69  C   UNL A   1      47.500  34.497  30.996  1.00  0.00     0.031 A 
ATOM     70  C   UNL A   1      45.946  27.415  32.591  1.00  0.00     0.031 A 
ATOM     71  C   UNL A   1      48.103  33.720  29.944  1.00  0.00     0.049 A 
ATOM     72  C   UNL A   1      45.941  28.413  31.448  1.00  0.00     0.074 A 
ATOM     73  C   UNL A   1      49.278  33.692  29.226  1.00  0.00     0.029 A 
ATOM     74  N   UNL A   1      47.388  32.647  29.469  1.00  0.00    -0.354 N 
ATOM     75  N   UNL A   1      46.751  28.417  30.420  1.00  0.00    -0.248 NA
ATOM     76  C   UNL A   1      45.244  29.681  31.669  1.00  0.00     0.031 C 
ATOM     77  C   UNL A   1      49.380  32.358  28.709  1.00  0.00     0.029 A 
ATOM     78  C   UNL A   1      48.265  31.644  29.148  1.00  0.00     0.049 A 
ATOM     79  H   UNL A   1      46.409  32.605  29.373  1.00  0.00     0.167 HD
ATOM     80  C   UNL A   1      46.904  29.762  30.062  1.00  0.00     0.074 A 
ATOM     81  C   UNL A   1      45.922  30.477  30.853  1.00  0.00     0.031 C 
ATOM     82  C   UNL A   1      47.923  30.238  29.282  1.00  0.00     0.031 A 
BRANCH  69  83
ATOM     83  C   UNL A   1      46.814  35.762  30.666  1.00  0.00    -0.014 A 
ATOM     84  C   UNL A   1      47.675  36.861  30.480  1.00  0.00     0.010 A 
ATOM     85  C   UNL A   1      45.432  35.975  30.729  1.00  0.00     0.010 A 
ATOM     86  C   UNL A   1      47.183  38.156  30.411  1.00  0.00     0.020 A 
ATOM     87  C   UNL A   1      44.926  37.284  30.639  1.00  0.00     0.020 A 
ATOM     88  C   UNL A   1      45.810  38.363  30.502  1.00  0.00     0.054 A 
BRANCH  88  89
ATOM     89  S   UNL A   1      45.227  40.079  30.480  1.00  0.00     0.124 S 
ATOM     90  O   UNL A   1      46.227  40.736  29.642  1.00  0.00    -0.237 OA
ATOM     91  O   UNL A   1      43.899  39.944  29.885  1.00  0.00    -0.237 OA
ATOM     92  O   UNL A   1      45.239  40.467  31.888  1.00  0.00    -0.744 OA
ENDBRANCH  88  89
ENDBRANCH  69  83
BRANCH  70  93
ATOM     93  C   UNL A   1      44.750  27.109  33.447  1.00  0.00    -0.014 A 
ATOM     94  C   UNL A   1      44.264  25.780  33.427  1.00  0.00     0.010 A 
ATOM     95  C   UNL A   1      44.111  28.015  34.309  1.00  0.00     0.010 A 
ATOM     96  C   UNL A   1      43.305  25.336  34.338  1.00  0.00     0.020 A 
ATOM     97  C   UNL A   1      43.160  27.575  35.243  1.00  0.00     0.020 A 
ATOM     98  C   UNL A   1      42.791  26.230  35.274  1.00  0.00     0.054 A 
BRANCH  98  99
ATOM     99  S   UNL A   1      41.688  25.583  36.559  1.00  0.00     0.124 S 
ATOM    100  O   UNL A   1      40.407  25.512  35.862  1.00  0.00    -0.237 OA
ATOM    101  O   UNL A   1      42.307  24.297  36.871  1.00  0.00    -0.237 OA
ATOM    102  O   UNL A   1      41.770  26.583  37.619  1.00  0.00    -0.744 OA
ENDBRANCH  98  99
ENDBRANCH  70  93
BRANCH  82 103
ATOM    103  C   UNL A   1      48.804  29.217  28.627  1.00  0.00    -0.014 A 
ATOM    104  C   UNL A   1      49.784  28.573  29.398  1.00  0.00     0.010 A 
ATOM    105  C   UNL A   1      48.598  28.797  27.299  1.00  0.00     0.010 A 
ATOM    106  C   UNL A   1      50.500  27.495  28.881  1.00  0.00     0.020 A 
ATOM    107  C   UNL A   1      49.304  27.704  26.778  1.00  0.00     0.020 A 
ATOM    108  C   UNL A   1      50.236  27.047  27.584  1.00  0.00     0.054 A 
BRANCH 108 109
ATOM    109  S   UNL A   1      51.078  25.549  27.012  1.00  0.00     0.124 S 
ATOM    110  O   UNL A   1      50.930  25.636  25.561  1.00  0.00    -0.237 OA
ATOM    111  O   UNL A   1      52.436  25.741  27.515  1.00  0.00    -0.237 OA
ATOM    112  O   UNL A   1      50.335  24.462  27.647  1.00  0.00    -0.744 OA
ENDBRANCH 108 109
ENDBRANCH  82 103
ENDBRANCH  56  57
ENDBRANCH  49  51
ENDBRANCH  48  49
ENDBRANCH  47  48
ENDBRANCH  46  47
ENDBRANCH  45  46
ENDBRANCH  44  45
ENDBRANCH  43  44
ENDBRANCH  42  43
ENDBRANCH   1  42
TORSDOF 29
ENDMDL
MODEL 2
REMARK VINA RESULT:      -5.4      5.241     12.086
REMARK SMILES Cc1oc2c(C)c3oc(=O)c(CCC(=O)N[C@H](Cc4ccc(Cl)cc4)C(=O)OCCOCCOCCOCCOC(=O)c4ccc(-c5c6nc(c(-c7ccc(S(=O)(=O)[O-])cc7)c7ccc([nH]7)c(-c7ccc(S(=O)(=O)[O-])cc7)c7nc(c(-c8ccc(S(=O)(=O)[O-])cc8)c8ccc5[nH]8)C=C7)C=C6)cc4)c(C)c3cc2c1C
REMARK SMILES IDX 33 1 32 2 31 3 30 4 29 5 28 6 26 7 27 8 17 9 16 10 14 11
REMARK SMILES IDX 15 12 13 14 12 15 11 16 1 17 2 18 3 19 108 20 4 21 107 22
REMARK SMILES IDX 109 23 5 24 106 25 6 26 7 27 105 28 8 29 103 30 9 31 104 32
REMARK SMILES IDX 10 33 18 34 19 35 20 36 25 37 21 38 24 39 22 40 23 41 34 42
REMARK SMILES IDX 35 43 36 44 37 45 38 46 39 47 40 48 41 49 42 50 43 51 44 52
REMARK SMILES IDX 102 53 45 54 101 55 46 56 47 57 48 58 95 59 49 60 100 61
REMARK SMILES IDX 94 62 96 63 50 64 99 65 93 66 92 67 51 69 81 70 62 71 80 72
REMARK SMILES IDX 63 73 66 74 79 75 97 76 64 77 65 78 78 80 98 81 67 82 52 83
REMARK SMILES IDX 53 84 61 85 54 86 60 87 55 88 56 89 57 90 58 91 59 92 82 93
REMARK SMILES IDX 83 94 91 95 84 96 90 97 85 98 86 99 87 100 88 101 89 102
REMARK SMILES IDX 68 103 69 104 77 105 70 106 76 107 71 108 72 109 73 110
REMARK SMILES IDX 74 111 75 112
REMARK H PARENT 16 13 96 68 66 79
REMARK Flexibility Score: inf
ROOT
ATOM      1  C   UNL A   1      34.954  33.065  31.494  1.00  0.00     0.188 C 
ENDROOT
BRANCH   1   2
ATOM      2  C   UNL A   1      35.490  32.734  32.889  1.00  0.00     0.188 C 
BRANCH   2   3
ATOM      3  O   UNL A   1      35.900  33.800  33.709  1.00  0.00    -0.376 OA
BRANCH   3   4
ATOM      4  C   UNL A   1      37.135  33.732  34.382  1.00  0.00     0.202 C 
BRANCH   4   5
ATOM      5  C   UNL A   1      37.352  32.965  35.689  1.00  0.00     0.261 C 
BRANCH   5   6
ATOM      6  O   UNL A   1      38.362  33.426  36.615  1.00  0.00    -0.462 OA
BRANCH   6   7
ATOM      7  C   UNL A   1      39.680  32.734  36.766  1.00  0.00     0.329 C 
ATOM      8  O   UNL A   1      39.618  31.730  35.990  1.00  0.00    -0.250 OA
BRANCH   7   9
ATOM      9  C   UNL A   1      41.127  33.240  38.293  1.00  0.00     0.196 C 
BRANCH   9  10
ATOM     10  N   UNL A   1      42.774  33.706  38.105  1.00  0.00    -0.342 N 
ATOM     11  C   UNL A   1      43.812  33.237  37.321  1.00  0.00     0.221 C 
ATOM     12  O   UNL A   1      44.852  32.857  37.855  1.00  0.00    -0.275 OA
ATOM     13  H   UNL A   1      43.031  34.467  38.675  1.00  0.00     0.164 HD
BRANCH  11  14
ATOM     14  C   UNL A   1      43.729  33.437  35.810  1.00  0.00     0.105 C 
BRANCH  14  15
ATOM     15  C   UNL A   1      42.808  32.464  35.122  1.00  0.00     0.053 C 
BRANCH  15  16
ATOM     16  C   UNL A   1      42.933  32.754  33.670  1.00  0.00     0.042 A 
ATOM     17  C   UNL A   1      44.654  34.186  24.818  1.00  0.00     0.088 C 
ATOM     18  C   UNL A   1      44.191  33.800  26.170  1.00  0.00     0.105 A 
ATOM     19  O   UNL A   1      43.378  34.643  26.859  1.00  0.00    -0.461 OA
ATOM     20  C   UNL A   1      44.440  32.678  26.928  1.00  0.00    -0.002 A 
ATOM     21  C   UNL A   1      43.254  34.137  28.136  1.00  0.00     0.141 A 
ATOM     22  C   UNL A   1      44.150  33.057  28.285  1.00  0.00     0.025 A 
ATOM     23  C   UNL A   1      44.877  31.372  26.387  1.00  0.00     0.049 C 
ATOM     24  C   UNL A   1      42.392  34.694  29.096  1.00  0.00     0.036 A 
ATOM     25  C   UNL A   1      44.546  32.505  29.574  1.00  0.00     0.024 A 
ATOM     26  C   UNL A   1      41.564  35.910  28.903  1.00  0.00     0.052 C 
ATOM     27  C   UNL A   1      42.603  33.979  30.275  1.00  0.00     0.145 A 
ATOM     28  C   UNL A   1      43.756  32.748  30.703  1.00  0.00     0.022 A 
ATOM     29  O   UNL A   1      41.571  34.536  31.631  1.00  0.00    -0.422 OA
ATOM     30  C   UNL A   1      43.834  32.092  32.546  1.00  0.00    -0.030 A 
ATOM     31  C   UNL A   1      41.529  34.031  33.304  1.00  0.00     0.339 A 
ATOM     32  C   UNL A   1      44.716  30.987  33.088  1.00  0.00     0.046 C 
ATOM     33  O   UNL A   1      40.729  34.504  34.099  1.00  0.00    -0.246 OA
ENDBRANCH  15  16
ENDBRANCH  14  15
ENDBRANCH  11  14
ENDBRANCH   9  10
BRANCH   9  34
ATOM     34  C   UNL A   1      41.377  32.627  40.054  1.00  0.00     0.072 C 
BRANCH  34  35
ATOM     35  C   UNL A   1      40.622  32.572  41.438  1.00  0.00    -0.045 A 
ATOM     36  C   UNL A   1      41.129  32.206  42.692  1.00  0.00     0.005 A 
ATOM     37  C   UNL A   1      39.221  32.709  41.437  1.00  0.00     0.005 A 
ATOM     38  C   UNL A   1      40.379  31.884  43.830  1.00  0.00     0.021 A 
ATOM     39  C   UNL A   1      38.431  32.405  42.577  1.00  0.00     0.021 A 
ATOM     40  C   UNL A   1      39.014  31.965  43.760  1.00  0.00     0.041 A 
ATOM     41  Cl  UNL A   1      38.074  31.387  45.076  1.00  0.00    -0.084 Cl
ENDBRANCH  34  35
ENDBRANCH   9  34
ENDBRANCH   7   9
ENDBRANCH   6   7
ENDBRANCH   5   6
ENDBRANCH   4   5
ENDBRANCH   3   4
ENDBRANCH   2   3
ENDBRANCH   1   2
BRANCH   1  42
ATOM     42  O   UNL A   1      35.512  34.045  30.644  1.00  0.00    -0.377 OA
BRANCH  42  43
ATOM     43  C   UNL A   1      36.572  33.682  29.794  1.00  0.00     0.188 C 
BRANCH  43  44
ATOM     44  C   UNL A   1      37.908  33.302  30.459  1.00  0.00     0.188 C 
BRANCH  44  45
ATOM     45  O   UNL A   1      38.671  32.320  29.782  1.00  0.00    -0.376 OA
BRANCH  45  46
ATOM     46  C   UNL A   1      38.213  30.979  29.666  1.00  0.00     0.202 C 
BRANCH  46  47
ATOM     47  C   UNL A   1      38.905  29.818  30.418  1.00  0.00     0.261 C 
BRANCH  47  48
ATOM     48  O   UNL A   1      40.150  30.131  31.032  1.00  0.00    -0.460 OA
BRANCH  48  49
ATOM     49  C   UNL A   1      41.193  29.839  30.249  1.00  0.00     0.338 C 
ATOM     50  O   UNL A   1      41.717  30.538  29.399  1.00  0.00    -0.246 OA
BRANCH  49  51
ATOM     51  C   UNL A   1      41.711  28.523  30.566  1.00  0.00     0.060 A 
ATOM     52  C   UNL A   1      42.123  28.264  31.883  1.00  0.00     0.016 A 
ATOM     53  C   UNL A   1      42.257  27.884  29.469  1.00  0.00     0.016 A 
ATOM     54  C   UNL A   1      43.232  27.494  32.100  1.00  0.00     0.010 A 
ATOM     55  C   UNL A   1      43.400  27.156  29.685  1.00  0.00     0.010 A 
ATOM     56  C   UNL A   1      43.905  27.008  30.991  1.00  0.00    -0.014 A 
BRANCH  56  57
ATOM     57  C   UNL A   1      45.128  26.271  31.281  1.00  0.00     0.031 A 
ATOM     58  C   UNL A   1      45.276  25.133  30.335  1.00  0.00     0.074 A 
ATOM     59  C   UNL A   1      46.143  26.908  31.906  1.00  0.00     0.049 A 
ATOM     60  N   UNL A   1      45.681  25.366  29.123  1.00  0.00    -0.248 NA
ATOM     61  C   UNL A   1      44.542  23.875  30.466  1.00  0.00     0.031 C 
ATOM     62  C   UNL A   1      46.386  28.360  31.814  1.00  0.00     0.029 A 
ATOM     63  N   UNL A   1      47.245  26.430  32.573  1.00  0.00    -0.354 N 
ATOM     64  C   UNL A   1      45.198  24.363  28.312  1.00  0.00     0.074 A 
ATOM     65  C   UNL A   1      44.543  23.425  29.198  1.00  0.00     0.031 C 
ATOM     66  C   UNL A   1      47.660  28.609  32.179  1.00  0.00     0.029 A 
ATOM     67  C   UNL A   1      48.275  27.376  32.659  1.00  0.00     0.049 A 
ATOM     68  H   UNL A   1      47.304  25.523  32.949  1.00  0.00     0.167 HD
ATOM     69  C   UNL A   1      45.343  24.424  26.961  1.00  0.00     0.031 A 
ATOM     70  C   UNL A   1      49.582  27.039  32.467  1.00  0.00     0.031 A 
ATOM     71  C   UNL A   1      45.915  25.649  26.464  1.00  0.00     0.049 A 
ATOM     72  C   UNL A   1      49.589  26.775  30.973  1.00  0.00     0.074 A 
ATOM     73  C   UNL A   1      45.521  26.752  25.739  1.00  0.00     0.029 A 
ATOM     74  N   UNL A   1      47.230  25.899  26.778  1.00  0.00    -0.354 N 
ATOM     75  N   UNL A   1      49.571  27.678  30.026  1.00  0.00    -0.248 NA
ATOM     76  C   UNL A   1      49.216  25.431  30.529  1.00  0.00     0.031 C 
ATOM     77  C   UNL A   1      46.470  27.779  26.058  1.00  0.00     0.029 A 
ATOM     78  C   UNL A   1      47.385  27.247  26.967  1.00  0.00     0.049 A 
ATOM     79  H   UNL A   1      47.942  25.223  26.853  1.00  0.00     0.167 HD
ATOM     80  C   UNL A   1      48.887  27.092  28.955  1.00  0.00     0.074 A 
ATOM     81  C   UNL A   1      48.728  25.700  29.325  1.00  0.00     0.031 C 
ATOM     82  C   UNL A   1      48.340  27.795  27.915  1.00  0.00     0.031 A 
BRANCH  69  83
ATOM     83  C   UNL A   1      45.239  23.253  26.068  1.00  0.00    -0.014 A 
ATOM     84  C   UNL A   1      43.994  22.597  26.109  1.00  0.00     0.010 A 
ATOM     85  C   UNL A   1      46.305  22.661  25.381  1.00  0.00     0.010 A 
ATOM     86  C   UNL A   1      43.818  21.351  25.526  1.00  0.00     0.020 A 
ATOM     87  C   UNL A   1      46.127  21.407  24.770  1.00  0.00     0.020 A 
ATOM     88  C   UNL A   1      44.890  20.756  24.867  1.00  0.00     0.054 A 
BRANCH  88  89
ATOM     89  S   UNL A   1      44.627  19.096  24.187  1.00  0.00     0.124 S 
ATOM     90  O   UNL A   1      45.884  18.426  24.510  1.00  0.00    -0.237 OA
ATOM     91  O   UNL A   1      43.460  18.639  24.938  1.00  0.00    -0.237 OA
ATOM     92  O   UNL A   1      44.396  19.338  22.765  1.00  0.00    -0.744 OA
ENDBRANCH  88  89
ENDBRANCH  69  83
BRANCH  70  93
ATOM     93  C   UNL A   1      50.110  26.079  33.495  1.00  0.00    -0.014 A 
ATOM     94  C   UNL A   1      49.330  25.888  34.660  1.00  0.00     0.010 A 
ATOM     95  C   UNL A   1      51.279  25.313  33.370  1.00  0.00     0.010 A 
ATOM     96  C   UNL A   1      49.610  24.869  35.571  1.00  0.00     0.020 A 
ATOM     97  C   UNL A   1      51.559  24.271  34.269  1.00  0.00     0.020 A 
ATOM     98  C   UNL A   1      50.702  24.035  35.344  1.00  0.00     0.054 A 
BRANCH  98  99
ATOM     99  S   UNL A   1      50.933  22.609  36.440  1.00  0.00     0.124 S 
ATOM    100  O   UNL A   1      52.385  22.462  36.456  1.00  0.00    -0.237 OA
ATOM    101  O   UNL A   1      50.334  23.085  37.686  1.00  0.00    -0.237 OA
ATOM    102  O   UNL A   1      50.201  21.538  35.771  1.00  0.00    -0.744 OA
ENDBRANCH  98  99
ENDBRANCH  70  93
BRANCH  82 103
ATOM    103  C   UNL A   1      48.670  29.256  27.843  1.00  0.00    -0.014 A 
ATOM    104  C   UNL A   1      49.874  29.650  27.241  1.00  0.00     0.010 A 
ATOM    105  C   UNL A   1      47.754  30.247  28.248  1.00  0.00     0.010 A 
ATOM    106  C   UNL A   1      50.136  30.996  26.990  1.00  0.00     0.020 A 
ATOM    107  C   UNL A   1      48.005  31.600  27.985  1.00  0.00     0.020 A 
ATOM    108  C   UNL A   1      49.188  31.962  27.337  1.00  0.00     0.054 A 
BRANCH 108 109
ATOM    109  S   UNL A   1      49.504  33.679  26.852  1.00  0.00     0.124 S 
ATOM    110  O   UNL A   1      50.884  33.882  27.282  1.00  0.00    -0.237 OA
ATOM    111  O   UNL A   1      49.298  33.639  25.407  1.00  0.00    -0.237 OA
ATOM    112  O   UNL A   1      48.504  34.444  27.595  1.00  0.00    -0.744 OA
ENDBRANCH 108 109
ENDBRANCH  82 103
ENDBRANCH  56  57
ENDBRANCH  49  51
ENDBRANCH  48  49
ENDBRANCH  47  48
ENDBRANCH  46  47
ENDBRANCH  45  46
ENDBRANCH  44  45
ENDBRANCH  43  44
ENDBRANCH  42  43
ENDBRANCH   1  42
TORSDOF 29
ENDMDL
MODEL 3
REMARK VINA RESULT:      -5.3      4.140     10.983
REMARK SMILES Cc1oc2c(C)c3oc(=O)c(CCC(=O)N[C@H](Cc4ccc(Cl)cc4)C(=O)OCCOCCOCCOCCOC(=O)c4ccc(-c5c6nc(c(-c7ccc(S(=O)(=O)[O-])cc7)c7ccc([nH]7)c(-c7ccc(S(=O)(=O)[O-])cc7)c7nc(c(-c8ccc(S(=O)(=O)[O-])cc8)c8ccc5[nH]8)C=C7)C=C6)cc4)c(C)c3cc2c1C
REMARK SMILES IDX 33 1 32 2 31 3 30 4 29 5 28 6 26 7 27 8 17 9 16 10 14 11
REMARK SMILES IDX 15 12 13 14 12 15 11 16 1 17 2 18 3 19 108 20 4 21 107 22
REMARK SMILES IDX 109 23 5 24 106 25 6 26 7 27 105 28 8 29 103 30 9 31 104 32
REMARK SMILES IDX 10 33 18 34 19 35 20 36 25 37 21 38 24 39 22 40 23 41 34 42
REMARK SMILES IDX 35 43 36 44 37 45 38 46 39 47 40 48 41 49 42 50 43 51 44 52
REMARK SMILES IDX 102 53 45 54 101 55 46 56 47 57 48 58 95 59 49 60 100 61
REMARK SMILES IDX 94 62 96 63 50 64 99 65 93 66 92 67 51 69 81 70 62 71 80 72
REMARK SMILES IDX 63 73 66 74 79 75 97 76 64 77 65 78 78 80 98 81 67 82 52 83
REMARK SMILES IDX 53 84 61 85 54 86 60 87 55 88 56 89 57 90 58 91 59 92 82 93
REMARK SMILES IDX 83 94 91 95 84 96 90 97 85 98 86 99 87 100 88 101 89 102
REMARK SMILES IDX 68 103 69 104 77 105 70 106 76 107 71 108 72 109 73 110
REMARK SMILES IDX 74 111 75 112
REMARK H PARENT 16 13 96 68 66 79
REMARK Flexibility Score: inf
ROOT
ATOM      1  C   UNL A   1      35.340  32.840  32.446  1.00  0.00     0.188 C 
ENDROOT
BRANCH   1   2
ATOM      2  C   UNL A   1      34.534  32.605  31.165  1.00  0.00     0.188 C 
BRANCH   2   3
ATOM      3  O   UNL A   1      35.242  32.426  29.964  1.00  0.00    -0.376 OA
BRANCH   3   4
ATOM      4  C   UNL A   1      36.117  33.430  29.508  1.00  0.00     0.202 C 
BRANCH   4   5
ATOM      5  C   UNL A   1      37.567  33.173  29.091  1.00  0.00     0.261 C 
BRANCH   5   6
ATOM      6  O   UNL A   1      38.596  34.094  29.520  1.00  0.00    -0.462 OA
BRANCH   6   7
ATOM      7  C   UNL A   1      39.962  33.634  29.919  1.00  0.00     0.329 C 
ATOM      8  O   UNL A   1      39.812  32.426  30.285  1.00  0.00    -0.250 OA
BRANCH   7   9
ATOM      9  C   UNL A   1      41.657  34.962  30.131  1.00  0.00     0.196 C 
BRANCH   9  10
ATOM     10  N   UNL A   1      42.760  35.503  28.924  1.00  0.00    -0.342 N 
ATOM     11  C   UNL A   1      42.688  36.463  27.931  1.00  0.00     0.221 C 
ATOM     12  O   UNL A   1      42.865  36.138  26.760  1.00  0.00    -0.275 OA
ATOM     13  H   UNL A   1      43.622  35.029  28.945  1.00  0.00     0.164 HD
BRANCH  11  14
ATOM     14  C   UNL A   1      42.637  37.932  28.344  1.00  0.00     0.105 C 
BRANCH  14  15
ATOM     15  C   UNL A   1      43.922  38.433  28.950  1.00  0.00     0.053 C 
BRANCH  15  16
ATOM     16  C   UNL A   1      44.485  39.387  27.959  1.00  0.00     0.042 A 
ATOM     17  C   UNL A   1      48.674  44.556  21.705  1.00  0.00     0.088 C 
ATOM     18  C   UNL A   1      47.796  43.730  22.563  1.00  0.00     0.105 A 
ATOM     19  O   UNL A   1      47.179  44.303  23.631  1.00  0.00    -0.461 OA
ATOM     20  C   UNL A   1      47.455  42.398  22.495  1.00  0.00    -0.002 A 
ATOM     21  C   UNL A   1      46.585  43.288  24.351  1.00  0.00     0.141 A 
ATOM     22  C   UNL A   1      46.993  42.049  23.812  1.00  0.00     0.025 A 
ATOM     23  C   UNL A   1      47.534  41.565  21.274  1.00  0.00     0.049 C 
ATOM     24  C   UNL A   1      45.761  43.526  25.465  1.00  0.00     0.036 A 
ATOM     25  C   UNL A   1      46.852  40.777  24.509  1.00  0.00     0.024 A 
ATOM     26  C   UNL A   1      45.473  44.859  26.049  1.00  0.00     0.052 C 
ATOM     27  C   UNL A   1      45.424  42.273  25.978  1.00  0.00     0.145 A 
ATOM     28  C   UNL A   1      45.947  40.664  25.568  1.00  0.00     0.022 A 
ATOM     29  O   UNL A   1      44.350  42.365  27.411  1.00  0.00    -0.422 OA
ATOM     30  C   UNL A   1      45.348  39.147  26.651  1.00  0.00    -0.030 A 
ATOM     31  C   UNL A   1      43.736  41.100  28.449  1.00  0.00     0.339 A 
ATOM     32  C   UNL A   1      45.640  37.680  26.411  1.00  0.00     0.046 C 
ATOM     33  O   UNL A   1      42.979  41.342  29.379  1.00  0.00    -0.246 OA
ENDBRANCH  15  16
ENDBRANCH  14  15
ENDBRANCH  11  14
ENDBRANCH   9  10
BRANCH   9  34
ATOM     34  C   UNL A   1      42.869  35.254  31.540  1.00  0.00     0.072 C 
BRANCH  34  35
ATOM     35  C   UNL A   1      44.229  35.996  31.836  1.00  0.00    -0.045 A 
ATOM     36  C   UNL A   1      44.422  37.281  32.361  1.00  0.00     0.005 A 
ATOM     37  C   UNL A   1      45.419  35.423  31.351  1.00  0.00     0.005 A 
ATOM     38  C   UNL A   1      45.612  38.018  32.336  1.00  0.00     0.021 A 
ATOM     39  C   UNL A   1      46.646  36.136  31.324  1.00  0.00     0.021 A 
ATOM     40  C   UNL A   1      46.729  37.444  31.790  1.00  0.00     0.041 A 
ATOM     41  Cl  UNL A   1      48.139  38.398  31.572  1.00  0.00    -0.084 Cl
ENDBRANCH  34  35
ENDBRANCH   9  34
ENDBRANCH   7   9
ENDBRANCH   6   7
ENDBRANCH   5   6
ENDBRANCH   4   5
ENDBRANCH   3   4
ENDBRANCH   2   3
ENDBRANCH   1   2
BRANCH   1  42
ATOM     42  O   UNL A   1      36.662  32.384  32.644  1.00  0.00    -0.377 OA
BRANCH  42  43
ATOM     43  C   UNL A   1      37.682  33.331  32.848  1.00  0.00     0.188 C 
BRANCH  43  44
ATOM     44  C   UNL A   1      37.918  33.810  34.293  1.00  0.00     0.188 C 
BRANCH  44  45
ATOM     45  O   UNL A   1      37.349  33.001  35.305  1.00  0.00    -0.376 OA
BRANCH  45  46
ATOM     46  C   UNL A   1      38.155  32.157  36.116  1.00  0.00     0.202 C 
BRANCH  46  47
ATOM     47  C   UNL A   1      38.842  30.895  35.542  1.00  0.00     0.261 C 
BRANCH  47  48
ATOM     48  O   UNL A   1      39.661  31.102  34.396  1.00  0.00    -0.460 OA
BRANCH  48  49
ATOM     49  C   UNL A   1      40.397  30.027  34.095  1.00  0.00     0.338 C 
ATOM     50  O   UNL A   1      40.668  29.074  34.806  1.00  0.00    -0.246 OA
BRANCH  49  51
ATOM     51  C   UNL A   1      40.837  30.087  32.716  1.00  0.00     0.060 A 
ATOM     52  C   UNL A   1      40.142  29.334  31.756  1.00  0.00     0.016 A 
ATOM     53  C   UNL A   1      42.177  30.403  32.595  1.00  0.00     0.016 A 
ATOM     54  C   UNL A   1      40.838  28.720  30.751  1.00  0.00     0.010 A 
ATOM     55  C   UNL A   1      42.880  29.745  31.617  1.00  0.00     0.010 A 
ATOM     56  C   UNL A   1      42.214  28.873  30.736  1.00  0.00    -0.014 A 
BRANCH  56  57
ATOM     57  C   UNL A   1      42.909  28.124  29.697  1.00  0.00     0.031 A 
ATOM     58  C   UNL A   1      43.690  29.052  28.835  1.00  0.00     0.074 A 
ATOM     59  C   UNL A   1      43.199  26.822  29.910  1.00  0.00     0.049 A 
ATOM     60  N   UNL A   1      44.817  29.526  29.273  1.00  0.00    -0.248 NA
ATOM     61  C   UNL A   1      43.092  29.869  27.781  1.00  0.00     0.031 C 
ATOM     62  C   UNL A   1      43.413  26.234  31.246  1.00  0.00     0.029 A 
ATOM     63  N   UNL A   1      43.542  25.811  29.045  1.00  0.00    -0.354 N 
ATOM     64  C   UNL A   1      45.047  30.730  28.644  1.00  0.00     0.074 A 
ATOM     65  C   UNL A   1      43.978  30.878  27.681  1.00  0.00     0.031 C 
ATOM     66  C   UNL A   1      44.077  25.069  31.104  1.00  0.00     0.029 A 
ATOM     67  C   UNL A   1      44.210  24.759  29.684  1.00  0.00     0.049 A 
ATOM     68  H   UNL A   1      43.340  25.825  28.082  1.00  0.00     0.167 HD
ATOM     69  C   UNL A   1      46.085  31.527  29.015  1.00  0.00     0.031 A 
ATOM     70  C   UNL A   1      45.292  24.146  29.126  1.00  0.00     0.031 A 
ATOM     71  C   UNL A   1      46.821  31.073  30.167  1.00  0.00     0.049 A 
ATOM     72  C   UNL A   1      46.335  25.239  29.257  1.00  0.00     0.074 A 
ATOM     73  C   UNL A   1      47.018  31.448  31.478  1.00  0.00     0.029 A 
ATOM     74  N   UNL A   1      47.549  29.915  30.030  1.00  0.00    -0.354 N 
ATOM     75  N   UNL A   1      46.961  25.585  30.353  1.00  0.00    -0.248 NA
ATOM     76  C   UNL A   1      46.396  26.239  28.190  1.00  0.00     0.031 C 
ATOM     77  C   UNL A   1      47.465  30.263  32.152  1.00  0.00     0.029 A 
ATOM     78  C   UNL A   1      47.506  29.230  31.215  1.00  0.00     0.049 A 
ATOM     79  H   UNL A   1      48.022  29.627  29.217  1.00  0.00     0.167 HD
ATOM     80  C   UNL A   1      47.219  26.956  30.228  1.00  0.00     0.074 A 
ATOM     81  C   UNL A   1      46.872  27.281  28.859  1.00  0.00     0.031 C 
ATOM     82  C   UNL A   1      47.531  27.778  31.276  1.00  0.00     0.031 A 
BRANCH  69  83
ATOM     83  C   UNL A   1      46.647  32.594  28.165  1.00  0.00    -0.014 A 
ATOM     84  C   UNL A   1      47.679  32.172  27.305  1.00  0.00     0.010 A 
ATOM     85  C   UNL A   1      46.382  33.962  28.300  1.00  0.00     0.010 A 
ATOM     86  C   UNL A   1      48.472  33.088  26.629  1.00  0.00     0.020 A 
ATOM     87  C   UNL A   1      47.170  34.895  27.602  1.00  0.00     0.020 A 
ATOM     88  C   UNL A   1      48.221  34.447  26.790  1.00  0.00     0.054 A 
BRANCH  88  89
ATOM     89  S   UNL A   1      49.333  35.602  25.943  1.00  0.00     0.124 S 
ATOM     90  O   UNL A   1      50.306  34.702  25.330  1.00  0.00    -0.237 OA
ATOM     91  O   UNL A   1      48.427  36.274  25.014  1.00  0.00    -0.237 OA
ATOM     92  O   UNL A   1      49.849  36.439  27.022  1.00  0.00    -0.744 OA
ENDBRANCH  88  89
ENDBRANCH  69  83
BRANCH  70  93
ATOM     93  C   UNL A   1      44.979  23.430  27.843  1.00  0.00    -0.014 A 
ATOM     94  C   UNL A   1      46.004  23.375  26.869  1.00  0.00     0.010 A 
ATOM     95  C   UNL A   1      43.778  22.763  27.553  1.00  0.00     0.010 A 
ATOM     96  C   UNL A   1      45.900  22.558  25.741  1.00  0.00     0.020 A 
ATOM     97  C   UNL A   1      43.671  21.923  26.433  1.00  0.00     0.020 A 
ATOM     98  C   UNL A   1      44.748  21.799  25.554  1.00  0.00     0.054 A 
BRANCH  98  99
ATOM     99  S   UNL A   1      44.717  20.613  24.185  1.00  0.00     0.124 S 
ATOM    100  O   UNL A   1      43.574  19.771  24.529  1.00  0.00    -0.237 OA
ATOM    101  O   UNL A   1      44.529  21.488  23.030  1.00  0.00    -0.237 OA
ATOM    102  O   UNL A   1      46.021  19.962  24.263  1.00  0.00    -0.744 OA
ENDBRANCH  98  99
ENDBRANCH  70  93
BRANCH  82 103
ATOM    103  C   UNL A   1      47.794  27.117  32.596  1.00  0.00    -0.014 A 
ATOM    104  C   UNL A   1      49.119  26.847  32.967  1.00  0.00     0.010 A 
ATOM    105  C   UNL A   1      46.763  26.872  33.525  1.00  0.00     0.010 A 
ATOM    106  C   UNL A   1      49.421  26.402  34.254  1.00  0.00     0.020 A 
ATOM    107  C   UNL A   1      47.061  26.439  34.824  1.00  0.00     0.020 A 
ATOM    108  C   UNL A   1      48.394  26.228  35.184  1.00  0.00     0.054 A 
BRANCH 108 109
ATOM    109  S   UNL A   1      48.848  25.800  36.885  1.00  0.00     0.124 S 
ATOM    110  O   UNL A   1      50.281  26.081  36.911  1.00  0.00    -0.237 OA
ATOM    111  O   UNL A   1      48.017  26.709  37.670  1.00  0.00    -0.237 OA
ATOM    112  O   UNL A   1      48.491  24.387  37.000  1.00  0.00    -0.744 OA
ENDBRANCH 108 109
ENDBRANCH  82 103
ENDBRANCH  56  57
ENDBRANCH  49  51
ENDBRANCH  48  49
ENDBRANCH  47  48
ENDBRANCH  46  47
ENDBRANCH  45  46
ENDBRANCH  44  45
ENDBRANCH  43  44
ENDBRANCH  42  43
ENDBRANCH   1  42
TORSDOF 29
ENDMDL
