MODEL 1
REMARK VINA RESULT:     -10.1      0.000      0.000
REMARK SMILES [NH3+]Cc1c(-c2ccccc2)c(C(=O)OCCOCCOCCOCCOC(=O)c2ccc(-c3c4nc(c(-c5ccc(S(=O)(=O)[O-])cc5)c5ccc([nH]5)c(-c5ccc(S(=O)(=O)[O-])cc5)c5nc(c(-c6ccc(S(=O)(=O)[O-])cc6)c6ccc3[nH]6)C=C5)C=C4)cc2)c2ccccn12
REMARK SMILES IDX 21 1 20 2 19 3 18 4 17 5 16 6 15 7 14 8 12 9 13 10 11 11
REMARK SMILES IDX 3 12 4 13 94 14 89 15 93 16 90 17 92 18 91 19 2 20 1 21 5 25
REMARK SMILES IDX 6 26 10 27 7 28 9 29 8 30 22 31 23 32 24 33 25 34 26 35
REMARK SMILES IDX 27 36 28 37 29 38 30 39 88 40 31 41 87 42 32 43 33 44 34 45
REMARK SMILES IDX 81 46 35 47 86 48 80 49 82 50 36 51 85 52 79 53 78 54 37 56
REMARK SMILES IDX 67 57 48 58 66 59 49 60 52 61 65 62 83 63 50 64 51 65 64 67
REMARK SMILES IDX 84 68 53 69 38 70 39 71 47 72 40 73 46 74 41 75 42 76 43 77
REMARK SMILES IDX 44 78 45 79 68 80 69 81 77 82 70 83 76 84 71 85 72 86 73 87
REMARK SMILES IDX 74 88 75 89 54 90 55 91 63 92 56 93 62 94 57 95 58 96 59 97
REMARK SMILES IDX 60 98 61 99
REMARK H PARENT 1 22 1 23 1 24 82 55 52 66
REMARK Flexibility Score: inf
ROOT
ATOM      1  C   UNL A   1      31.835  30.202  25.563  1.00  0.00     0.188 C 
ENDROOT
BRANCH   1   2
ATOM      2  O   UNL A   1      30.809  30.268  24.591  1.00  0.00    -0.377 OA
BRANCH   2   3
ATOM      3  C   UNL A   1      30.404  29.074  23.936  1.00  0.00     0.188 C 
BRANCH   3   4
ATOM      4  C   UNL A   1      30.426  28.927  22.403  1.00  0.00     0.188 C 
BRANCH   4   5
ATOM      5  O   UNL A   1      30.650  27.597  21.942  1.00  0.00    -0.376 OA
BRANCH   5   6
ATOM      6  C   UNL A   1      31.302  26.730  22.866  1.00  0.00     0.202 C 
BRANCH   6   7
ATOM      7  C   UNL A   1      32.137  25.662  22.156  1.00  0.00     0.261 C 
BRANCH   7   8
ATOM      8  O   UNL A   1      31.815  24.321  22.553  1.00  0.00    -0.460 OA
BRANCH   8   9
ATOM      9  C   UNL A   1      32.806  23.393  22.484  1.00  0.00     0.341 C 
ATOM     10  O   UNL A   1      33.607  23.314  21.557  1.00  0.00    -0.246 OA
BRANCH   9  11
ATOM     11  C   UNL A   1      32.876  22.564  23.682  1.00  0.00     0.093 A 
ATOM     12  C   UNL A   1      33.115  21.904  25.865  1.00  0.00     0.086 A 
ATOM     13  C   UNL A   1      33.032  23.014  25.030  1.00  0.00     0.024 A 
ATOM     14  N   UNL A   1      32.903  20.779  25.076  1.00  0.00    -0.314 N 
ATOM     15  C   UNL A   1      32.723  21.187  23.752  1.00  0.00     0.061 A 
ATOM     16  C   UNL A   1      32.843  19.429  25.451  1.00  0.00     0.092 A 
ATOM     17  C   UNL A   1      32.434  20.173  22.784  1.00  0.00     0.027 A 
ATOM     18  C   UNL A   1      32.589  18.484  24.531  1.00  0.00     0.018 A 
ATOM     19  C   UNL A   1      32.364  18.882  23.158  1.00  0.00     0.004 A 
BRANCH  12  20
ATOM     20  C   UNL A   1      33.404  21.830  27.330  1.00  0.00     0.315 C 
BRANCH  20  21
ATOM     21  N   UNL A   1      34.777  22.211  27.625  1.00  0.00    -0.353 N 
ATOM     22  H   UNL A   1      35.160  21.583  28.332  1.00  0.00     0.344 HD
ATOM     23  H   UNL A   1      34.796  23.169  27.974  1.00  0.00     0.344 HD
ATOM     24  H   UNL A   1      35.338  22.148  26.775  1.00  0.00     0.344 HD
ENDBRANCH  20  21
ENDBRANCH  12  20
BRANCH  13  25
ATOM     25  C   UNL A   1      33.000  24.382  25.518  1.00  0.00    -0.015 A 
ATOM     26  C   UNL A   1      31.818  24.877  26.091  1.00  0.00     0.009 A 
ATOM     27  C   UNL A   1      34.106  25.221  25.391  1.00  0.00     0.009 A 
ATOM     28  C   UNL A   1      31.736  26.201  26.516  1.00  0.00     0.001 A 
ATOM     29  C   UNL A   1      34.026  26.547  25.826  1.00  0.00     0.001 A 
ATOM     30  C   UNL A   1      32.843  27.037  26.382  1.00  0.00     0.000 A 
ENDBRANCH  13  25
ENDBRANCH   9  11
ENDBRANCH   8   9
ENDBRANCH   7   8
ENDBRANCH   6   7
ENDBRANCH   5   6
ENDBRANCH   4   5
ENDBRANCH   3   4
ENDBRANCH   2   3
ENDBRANCH   1   2
BRANCH   1  31
ATOM     31  C   UNL A   1      31.688  31.196  26.724  1.00  0.00     0.188 C 
BRANCH  31  32
ATOM     32  O   UNL A   1      32.907  31.425  27.436  1.00  0.00    -0.376 OA
BRANCH  32  33
ATOM     33  C   UNL A   1      33.942  30.475  27.202  1.00  0.00     0.202 C 
BRANCH  33  34
ATOM     34  C   UNL A   1      35.223  30.710  28.011  1.00  0.00     0.261 C 
BRANCH  34  35
ATOM     35  O   UNL A   1      36.044  29.550  28.208  1.00  0.00    -0.460 OA
BRANCH  35  36
ATOM     36  C   UNL A   1      36.781  29.487  29.339  1.00  0.00     0.338 C 
ATOM     37  O   UNL A   1      36.391  29.601  30.486  1.00  0.00    -0.246 OA
BRANCH  36  38
ATOM     38  C   UNL A   1      38.140  29.071  28.951  1.00  0.00     0.060 A 
ATOM     39  C   UNL A   1      38.926  28.375  29.879  1.00  0.00     0.016 A 
ATOM     40  C   UNL A   1      38.620  29.340  27.667  1.00  0.00     0.016 A 
ATOM     41  C   UNL A   1      40.214  27.969  29.529  1.00  0.00     0.010 A 
ATOM     42  C   UNL A   1      39.917  28.956  27.327  1.00  0.00     0.010 A 
ATOM     43  C   UNL A   1      40.726  28.297  28.267  1.00  0.00    -0.014 A 
BRANCH  43  44
ATOM     44  C   UNL A   1      42.173  28.158  27.993  1.00  0.00     0.031 A 
ATOM     45  C   UNL A   1      43.051  29.353  28.247  1.00  0.00     0.074 A 
ATOM     46  C   UNL A   1      42.693  27.019  27.506  1.00  0.00     0.049 A 
ATOM     47  N   UNL A   1      44.329  29.503  28.025  1.00  0.00    -0.248 NA
ATOM     48  C   UNL A   1      42.393  30.537  28.827  1.00  0.00     0.031 C 
ATOM     49  C   UNL A   1      41.949  25.787  27.249  1.00  0.00     0.029 A 
ATOM     50  N   UNL A   1      43.978  26.724  27.125  1.00  0.00    -0.354 N 
ATOM     51  C   UNL A   1      44.629  30.796  28.438  1.00  0.00     0.074 A 
ATOM     52  C   UNL A   1      43.398  31.395  28.902  1.00  0.00     0.031 C 
ATOM     53  C   UNL A   1      42.791  24.871  26.736  1.00  0.00     0.029 A 
ATOM     54  C   UNL A   1      44.122  25.461  26.603  1.00  0.00     0.049 A 
ATOM     55  H   UNL A   1      44.725  27.358  27.216  1.00  0.00     0.167 HD
ATOM     56  C   UNL A   1      45.823  31.431  28.429  1.00  0.00     0.031 A 
ATOM     57  C   UNL A   1      45.201  24.864  26.060  1.00  0.00     0.031 A 
ATOM     58  C   UNL A   1      47.038  30.851  27.930  1.00  0.00     0.049 A 
ATOM     59  C   UNL A   1      46.504  25.618  25.983  1.00  0.00     0.074 A 
ATOM     60  C   UNL A   1      48.301  31.412  27.873  1.00  0.00     0.029 A 
ATOM     61  N   UNL A   1      47.136  29.579  27.387  1.00  0.00    -0.354 N 
ATOM     62  N   UNL A   1      46.780  26.831  26.404  1.00  0.00    -0.248 NA
ATOM     63  C   UNL A   1      47.639  24.925  25.358  1.00  0.00     0.031 C 
ATOM     64  C   UNL A   1      49.155  30.494  27.254  1.00  0.00     0.029 A 
ATOM     65  C   UNL A   1      48.434  29.344  26.970  1.00  0.00     0.049 A 
ATOM     66  H   UNL A   1      46.393  28.938  27.309  1.00  0.00     0.167 HD
ATOM     67  C   UNL A   1      48.126  27.034  26.118  1.00  0.00     0.074 A 
ATOM     68  C   UNL A   1      48.610  25.819  25.494  1.00  0.00     0.031 C 
ATOM     69  C   UNL A   1      48.895  28.126  26.355  1.00  0.00     0.031 A 
BRANCH  56  70
ATOM     70  C   UNL A   1      45.851  32.840  28.946  1.00  0.00    -0.014 A 
ATOM     71  C   UNL A   1      45.592  33.928  28.093  1.00  0.00     0.010 A 
ATOM     72  C   UNL A   1      46.141  33.081  30.301  1.00  0.00     0.010 A 
ATOM     73  C   UNL A   1      45.664  35.236  28.576  1.00  0.00     0.020 A 
ATOM     74  C   UNL A   1      46.192  34.388  30.793  1.00  0.00     0.020 A 
ATOM     75  C   UNL A   1      45.971  35.457  29.923  1.00  0.00     0.054 A 
BRANCH  75  76
ATOM     76  S   UNL A   1      46.054  37.165  30.529  1.00  0.00     0.124 S 
ATOM     77  O   UNL A   1      44.694  37.636  30.282  1.00  0.00    -0.237 OA
ATOM     78  O   UNL A   1      46.412  36.991  31.934  1.00  0.00    -0.237 OA
ATOM     79  O   UNL A   1      47.087  37.777  29.698  1.00  0.00    -0.744 OA
ENDBRANCH  75  76
ENDBRANCH  56  70
BRANCH  57  80
ATOM     80  C   UNL A   1      45.096  23.480  25.524  1.00  0.00    -0.014 A 
ATOM     81  C   UNL A   1      45.544  22.384  26.281  1.00  0.00     0.010 A 
ATOM     82  C   UNL A   1      44.548  23.253  24.249  1.00  0.00     0.010 A 
ATOM     83  C   UNL A   1      45.458  21.086  25.768  1.00  0.00     0.020 A 
ATOM     84  C   UNL A   1      44.440  21.955  23.740  1.00  0.00     0.020 A 
ATOM     85  C   UNL A   1      44.906  20.879  24.500  1.00  0.00     0.054 A 
BRANCH  85  86
ATOM     86  S   UNL A   1      44.751  19.182  23.874  1.00  0.00     0.124 S 
ATOM     87  O   UNL A   1      43.604  18.685  24.627  1.00  0.00    -0.237 OA
ATOM     88  O   UNL A   1      44.528  19.391  22.445  1.00  0.00    -0.237 OA
ATOM     89  O   UNL A   1      46.036  18.577  24.213  1.00  0.00    -0.744 OA
ENDBRANCH  85  86
ENDBRANCH  57  80
BRANCH  69  90
ATOM     90  C   UNL A   1      50.348  28.054  25.974  1.00  0.00    -0.014 A 
ATOM     91  C   UNL A   1      50.798  28.547  24.738  1.00  0.00     0.010 A 
ATOM     92  C   UNL A   1      51.284  27.568  26.905  1.00  0.00     0.010 A 
ATOM     93  C   UNL A   1      52.163  28.543  24.433  1.00  0.00     0.020 A 
ATOM     94  C   UNL A   1      52.650  27.582  26.613  1.00  0.00     0.020 A 
ATOM     95  C   UNL A   1      53.080  28.062  25.374  1.00  0.00     0.054 A 
BRANCH  95  96
ATOM     96  S   UNL A   1      54.851  28.130  24.987  1.00  0.00     0.124 S 
ATOM     97  O   UNL A   1      55.221  29.453  25.483  1.00  0.00    -0.237 OA
ATOM     98  O   UNL A   1      55.391  27.001  25.741  1.00  0.00    -0.237 OA
ATOM     99  O   UNL A   1      54.893  27.976  23.533  1.00  0.00    -0.744 OA
ENDBRANCH  95  96
ENDBRANCH  69  90
ENDBRANCH  43  44
ENDBRANCH  36  38
ENDBRANCH  35  36
ENDBRANCH  34  35
ENDBRANCH  33  34
ENDBRANCH  32  33
ENDBRANCH  31  32
ENDBRANCH   1  31
TORSDOF 26
ENDMDL
MODEL 2
REMARK VINA RESULT:      -9.4      2.146      8.260
REMARK SMILES [NH3+]Cc1c(-c2ccccc2)c(C(=O)OCCOCCOCCOCCOC(=O)c2ccc(-c3c4nc(c(-c5ccc(S(=O)(=O)[O-])cc5)c5ccc([nH]5)c(-c5ccc(S(=O)(=O)[O-])cc5)c5nc(c(-c6ccc(S(=O)(=O)[O-])cc6)c6ccc3[nH]6)C=C5)C=C4)cc2)c2ccccn12
REMARK SMILES IDX 21 1 20 2 19 3 18 4 17 5 16 6 15 7 14 8 12 9 13 10 11 11
REMARK SMILES IDX 3 12 4 13 94 14 89 15 93 16 90 17 92 18 91 19 2 20 1 21 5 25
REMARK SMILES IDX 6 26 10 27 7 28 9 29 8 30 22 31 23 32 24 33 25 34 26 35
REMARK SMILES IDX 27 36 28 37 29 38 30 39 88 40 31 41 87 42 32 43 33 44 34 45
REMARK SMILES IDX 81 46 35 47 86 48 80 49 82 50 36 51 85 52 79 53 78 54 37 56
REMARK SMILES IDX 67 57 48 58 66 59 49 60 52 61 65 62 83 63 50 64 51 65 64 67
REMARK SMILES IDX 84 68 53 69 38 70 39 71 47 72 40 73 46 74 41 75 42 76 43 77
REMARK SMILES IDX 44 78 45 79 68 80 69 81 77 82 70 83 76 84 71 85 72 86 73 87
REMARK SMILES IDX 74 88 75 89 54 90 55 91 63 92 56 93 62 94 57 95 58 96 59 97
REMARK SMILES IDX 60 98 61 99
REMARK H PARENT 1 22 1 23 1 24 82 55 52 66
REMARK Flexibility Score: inf
ROOT
ATOM      1  C   UNL A   1      33.187  28.735  24.306  1.00  0.00     0.188 C 
ENDROOT
BRANCH   1   2
ATOM      2  O   UNL A   1      32.538  27.648  23.675  1.00  0.00    -0.377 OA
BRANCH   2   3
ATOM      3  C   UNL A   1      31.496  26.973  24.366  1.00  0.00     0.188 C 
BRANCH   3   4
ATOM      4  C   UNL A   1      31.237  25.464  24.193  1.00  0.00     0.188 C 
BRANCH   4   5
ATOM      5  O   UNL A   1      30.531  24.862  25.276  1.00  0.00    -0.376 OA
BRANCH   5   6
ATOM      6  C   UNL A   1      31.262  24.739  26.492  1.00  0.00     0.202 C 
BRANCH   6   7
ATOM      7  C   UNL A   1      32.292  23.609  26.428  1.00  0.00     0.261 C 
BRANCH   7   8
ATOM      8  O   UNL A   1      33.594  23.989  26.899  1.00  0.00    -0.460 OA
BRANCH   8   9
ATOM      9  C   UNL A   1      34.495  24.412  25.974  1.00  0.00     0.341 C 
ATOM     10  O   UNL A   1      34.514  25.546  25.504  1.00  0.00    -0.246 OA
BRANCH   9  11
ATOM     11  C   UNL A   1      35.501  23.399  25.674  1.00  0.00     0.093 A 
ATOM     12  C   UNL A   1      36.512  21.500  24.880  1.00  0.00     0.086 A 
ATOM     13  C   UNL A   1      35.332  22.237  24.858  1.00  0.00     0.024 A 
ATOM     14  N   UNL A   1      37.444  22.238  25.603  1.00  0.00    -0.314 N 
ATOM     15  C   UNL A   1      36.834  23.410  26.056  1.00  0.00     0.061 A 
ATOM     16  C   UNL A   1      38.790  21.950  25.872  1.00  0.00     0.092 A 
ATOM     17  C   UNL A   1      37.649  24.337  26.780  1.00  0.00     0.027 A 
ATOM     18  C   UNL A   1      39.540  22.819  26.568  1.00  0.00     0.018 A 
ATOM     19  C   UNL A   1      38.943  24.058  27.019  1.00  0.00     0.004 A 
BRANCH  12  20
ATOM     20  C   UNL A   1      36.811  20.156  24.298  1.00  0.00     0.315 C 
BRANCH  20  21
ATOM     21  N   UNL A   1      36.289  19.084  25.133  1.00  0.00    -0.353 N 
ATOM     22  H   UNL A   1      36.602  19.219  26.094  1.00  0.00     0.344 HD
ATOM     23  H   UNL A   1      36.629  18.187  24.787  1.00  0.00     0.344 HD
ATOM     24  H   UNL A   1      35.269  19.095  25.104  1.00  0.00     0.344 HD
ENDBRANCH  20  21
ENDBRANCH  12  20
BRANCH  13  25
ATOM     25  C   UNL A   1      34.189  21.892  24.030  1.00  0.00    -0.015 A 
ATOM     26  C   UNL A   1      33.439  20.747  24.342  1.00  0.00     0.009 A 
ATOM     27  C   UNL A   1      33.850  22.653  22.913  1.00  0.00     0.009 A 
ATOM     28  C   UNL A   1      32.373  20.357  23.534  1.00  0.00     0.001 A 
ATOM     29  C   UNL A   1      32.774  22.266  22.109  1.00  0.00     0.001 A 
ATOM     30  C   UNL A   1      32.040  21.119  22.416  1.00  0.00     0.000 A 
ENDBRANCH  13  25
ENDBRANCH   9  11
ENDBRANCH   8   9
ENDBRANCH   7   8
ENDBRANCH   6   7
ENDBRANCH   5   6
ENDBRANCH   4   5
ENDBRANCH   3   4
ENDBRANCH   2   3
ENDBRANCH   1   2
BRANCH   1  31
ATOM     31  C   UNL A   1      32.276  29.613  25.177  1.00  0.00     0.188 C 
BRANCH  31  32
ATOM     32  O   UNL A   1      32.772  29.808  26.504  1.00  0.00    -0.376 OA
BRANCH  32  33
ATOM     33  C   UNL A   1      33.970  29.105  26.820  1.00  0.00     0.202 C 
BRANCH  33  34
ATOM     34  C   UNL A   1      34.762  29.687  27.998  1.00  0.00     0.261 C 
BRANCH  34  35
ATOM     35  O   UNL A   1      36.096  29.180  28.148  1.00  0.00    -0.460 OA
BRANCH  35  36
ATOM     36  C   UNL A   1      36.789  29.551  29.247  1.00  0.00     0.338 C 
ATOM     37  O   UNL A   1      36.356  29.740  30.369  1.00  0.00    -0.246 OA
BRANCH  36  38
ATOM     38  C   UNL A   1      38.219  29.516  28.894  1.00  0.00     0.060 A 
ATOM     39  C   UNL A   1      38.583  29.556  27.542  1.00  0.00     0.016 A 
ATOM     40  C   UNL A   1      39.192  29.474  29.896  1.00  0.00     0.016 A 
ATOM     41  C   UNL A   1      39.932  29.527  27.188  1.00  0.00     0.010 A 
ATOM     42  C   UNL A   1      40.538  29.421  29.540  1.00  0.00     0.010 A 
ATOM     43  C   UNL A   1      40.910  29.417  28.185  1.00  0.00    -0.014 A 
BRANCH  43  44
ATOM     44  C   UNL A   1      42.303  29.071  27.826  1.00  0.00     0.031 A 
ATOM     45  C   UNL A   1      42.617  27.625  27.554  1.00  0.00     0.074 A 
ATOM     46  C   UNL A   1      43.269  30.003  27.771  1.00  0.00     0.049 A 
ATOM     47  N   UNL A   1      43.765  27.064  27.288  1.00  0.00    -0.248 NA
ATOM     48  C   UNL A   1      41.478  26.690  27.593  1.00  0.00     0.031 C 
ATOM     49  C   UNL A   1      43.080  31.437  27.984  1.00  0.00     0.029 A 
ATOM     50  N   UNL A   1      44.614  29.871  27.532  1.00  0.00    -0.354 N 
ATOM     51  C   UNL A   1      43.490  25.711  27.126  1.00  0.00     0.074 A 
ATOM     52  C   UNL A   1      42.072  25.533  27.346  1.00  0.00     0.031 C 
ATOM     53  C   UNL A   1      44.273  32.051  27.880  1.00  0.00     0.029 A 
ATOM     54  C   UNL A   1      45.309  31.052  27.623  1.00  0.00     0.049 A 
ATOM     55  H   UNL A   1      45.040  29.010  27.315  1.00  0.00     0.167 HD
ATOM     56  C   UNL A   1      44.341  24.705  26.823  1.00  0.00     0.031 A 
ATOM     57  C   UNL A   1      46.632  31.291  27.534  1.00  0.00     0.031 A 
ATOM     58  C   UNL A   1      45.755  24.875  26.644  1.00  0.00     0.049 A 
ATOM     59  C   UNL A   1      47.575  30.142  27.278  1.00  0.00     0.074 A 
ATOM     60  C   UNL A   1      46.707  23.919  26.340  1.00  0.00     0.029 A 
ATOM     61  N   UNL A   1      46.424  26.083  26.772  1.00  0.00    -0.354 N 
ATOM     62  N   UNL A   1      47.297  28.872  27.098  1.00  0.00    -0.248 NA
ATOM     63  C   UNL A   1      49.009  30.459  27.214  1.00  0.00     0.031 C 
ATOM     64  C   UNL A   1      47.959  24.542  26.326  1.00  0.00     0.029 A 
ATOM     65  C   UNL A   1      47.779  25.895  26.574  1.00  0.00     0.049 A 
ATOM     66  H   UNL A   1      45.996  26.948  26.972  1.00  0.00     0.167 HD
ATOM     67  C   UNL A   1      48.518  28.244  26.874  1.00  0.00     0.074 A 
ATOM     68  C   UNL A   1      49.536  29.273  26.936  1.00  0.00     0.031 C 
ATOM     69  C   UNL A   1      48.774  26.934  26.635  1.00  0.00     0.031 A 
BRANCH  56  70
ATOM     70  C   UNL A   1      43.755  23.328  26.704  1.00  0.00    -0.014 A 
ATOM     71  C   UNL A   1      43.265  22.652  27.836  1.00  0.00     0.010 A 
ATOM     72  C   UNL A   1      43.696  22.700  25.448  1.00  0.00     0.010 A 
ATOM     73  C   UNL A   1      42.762  21.354  27.720  1.00  0.00     0.020 A 
ATOM     74  C   UNL A   1      43.174  21.410  25.324  1.00  0.00     0.020 A 
ATOM     75  C   UNL A   1      42.727  20.738  26.464  1.00  0.00     0.054 A 
BRANCH  75  76
ATOM     76  S   UNL A   1      42.066  19.054  26.336  1.00  0.00     0.124 S 
ATOM     77  O   UNL A   1      43.017  18.428  25.422  1.00  0.00    -0.237 OA
ATOM     78  O   UNL A   1      42.118  18.581  27.717  1.00  0.00    -0.237 OA
ATOM     79  O   UNL A   1      40.722  19.251  25.799  1.00  0.00    -0.744 OA
ENDBRANCH  75  76
ENDBRANCH  56  70
BRANCH  57  80
ATOM     80  C   UNL A   1      47.154  32.673  27.705  1.00  0.00    -0.014 A 
ATOM     81  C   UNL A   1      47.320  33.519  26.595  1.00  0.00     0.010 A 
ATOM     82  C   UNL A   1      47.490  33.151  28.985  1.00  0.00     0.010 A 
ATOM     83  C   UNL A   1      47.825  34.812  26.758  1.00  0.00     0.020 A 
ATOM     84  C   UNL A   1      47.976  34.451  29.155  1.00  0.00     0.020 A 
ATOM     85  C   UNL A   1      48.149  35.271  28.038  1.00  0.00     0.054 A 
BRANCH  85  86
ATOM     86  S   UNL A   1      48.750  36.972  28.237  1.00  0.00     0.124 S 
ATOM     87  O   UNL A   1      48.397  37.258  29.624  1.00  0.00    -0.237 OA
ATOM     88  O   UNL A   1      50.179  36.837  27.962  1.00  0.00    -0.237 OA
ATOM     89  O   UNL A   1      47.999  37.717  27.230  1.00  0.00    -0.744 OA
ENDBRANCH  85  86
ENDBRANCH  57  80
BRANCH  69  90
ATOM     90  C   UNL A   1      50.203  26.536  26.385  1.00  0.00    -0.014 A 
ATOM     91  C   UNL A   1      50.741  26.545  25.087  1.00  0.00     0.010 A 
ATOM     92  C   UNL A   1      51.038  26.235  27.476  1.00  0.00     0.010 A 
ATOM     93  C   UNL A   1      52.092  26.247  24.883  1.00  0.00     0.020 A 
ATOM     94  C   UNL A   1      52.393  25.957  27.279  1.00  0.00     0.020 A 
ATOM     95  C   UNL A   1      52.909  25.957  25.981  1.00  0.00     0.054 A 
BRANCH  95  96
ATOM     96  S   UNL A   1      54.673  25.641  25.701  1.00  0.00     0.124 S 
ATOM     97  O   UNL A   1      54.805  24.251  26.127  1.00  0.00    -0.237 OA
ATOM     98  O   UNL A   1      54.821  25.876  24.266  1.00  0.00    -0.237 OA
ATOM     99  O   UNL A   1      55.340  26.621  26.557  1.00  0.00    -0.744 OA
ENDBRANCH  95  96
ENDBRANCH  69  90
ENDBRANCH  43  44
ENDBRANCH  36  38
ENDBRANCH  35  36
ENDBRANCH  34  35
ENDBRANCH  33  34
ENDBRANCH  32  33
ENDBRANCH  31  32
ENDBRANCH   1  31
TORSDOF 26
ENDMDL
MODEL 3
REMARK VINA RESULT:      -9.1      1.669      3.032
REMARK SMILES [NH3+]Cc1c(-c2ccccc2)c(C(=O)OCCOCCOCCOCCOC(=O)c2ccc(-c3c4nc(c(-c5ccc(S(=O)(=O)[O-])cc5)c5ccc([nH]5)c(-c5ccc(S(=O)(=O)[O-])cc5)c5nc(c(-c6ccc(S(=O)(=O)[O-])cc6)c6ccc3[nH]6)C=C5)C=C4)cc2)c2ccccn12
REMARK SMILES IDX 21 1 20 2 19 3 18 4 17 5 16 6 15 7 14 8 12 9 13 10 11 11
REMARK SMILES IDX 3 12 4 13 94 14 89 15 93 16 90 17 92 18 91 19 2 20 1 21 5 25
REMARK SMILES IDX 6 26 10 27 7 28 9 29 8 30 22 31 23 32 24 33 25 34 26 35
REMARK SMILES IDX 27 36 28 37 29 38 30 39 88 40 31 41 87 42 32 43 33 44 34 45
REMARK SMILES IDX 81 46 35 47 86 48 80 49 82 50 36 51 85 52 79 53 78 54 37 56
REMARK SMILES IDX 67 57 48 58 66 59 49 60 52 61 65 62 83 63 50 64 51 65 64 67
REMARK SMILES IDX 84 68 53 69 38 70 39 71 47 72 40 73 46 74 41 75 42 76 43 77
REMARK SMILES IDX 44 78 45 79 68 80 69 81 77 82 70 83 76 84 71 85 72 86 73 87
REMARK SMILES IDX 74 88 75 89 54 90 55 91 63 92 56 93 62 94 57 95 58 96 59 97
REMARK SMILES IDX 60 98 61 99
REMARK H PARENT 1 22 1 23 1 24 82 55 52 66
REMARK Flexibility Score: inf
ROOT
ATOM      1  C   UNL A   1      32.965  28.582  24.181  1.00  0.00     0.188 C 
ENDROOT
BRANCH   1   2
ATOM      2  O   UNL A   1      32.315  27.421  23.700  1.00  0.00    -0.377 OA
BRANCH   2   3
ATOM      3  C   UNL A   1      31.351  26.781  24.525  1.00  0.00     0.188 C 
BRANCH   3   4
ATOM      4  C   UNL A   1      31.099  25.262  24.470  1.00  0.00     0.188 C 
BRANCH   4   5
ATOM      5  O   UNL A   1      30.467  24.729  25.631  1.00  0.00    -0.376 OA
BRANCH   5   6
ATOM      6  C   UNL A   1      31.308  24.577  26.771  1.00  0.00     0.202 C 
BRANCH   6   7
ATOM      7  C   UNL A   1      32.257  23.386  26.626  1.00  0.00     0.261 C 
BRANCH   7   8
ATOM      8  O   UNL A   1      33.599  23.663  27.055  1.00  0.00    -0.460 OA
BRANCH   8   9
ATOM      9  C   UNL A   1      34.462  24.158  26.128  1.00  0.00     0.341 C 
ATOM     10  O   UNL A   1      34.428  25.309  25.706  1.00  0.00    -0.246 OA
BRANCH   9  11
ATOM     11  C   UNL A   1      35.497  23.196  25.764  1.00  0.00     0.093 A 
ATOM     12  C   UNL A   1      36.554  21.362  24.884  1.00  0.00     0.086 A 
ATOM     13  C   UNL A   1      35.344  22.047  24.927  1.00  0.00     0.024 A 
ATOM     14  N   UNL A   1      37.483  22.122  25.588  1.00  0.00    -0.314 N 
ATOM     15  C   UNL A   1      36.843  23.256  26.094  1.00  0.00     0.061 A 
ATOM     16  C   UNL A   1      38.849  21.886  25.796  1.00  0.00     0.092 A 
ATOM     17  C   UNL A   1      37.646  24.200  26.808  1.00  0.00     0.027 A 
ATOM     18  C   UNL A   1      39.589  22.770  26.484  1.00  0.00     0.018 A 
ATOM     19  C   UNL A   1      38.959  23.971  26.989  1.00  0.00     0.004 A 
BRANCH  12  20
ATOM     20  C   UNL A   1      36.886  20.045  24.258  1.00  0.00     0.315 C 
BRANCH  20  21
ATOM     21  N   UNL A   1      36.588  18.937  25.153  1.00  0.00    -0.353 N 
ATOM     22  H   UNL A   1      35.934  19.248  25.872  1.00  0.00     0.344 HD
ATOM     23  H   UNL A   1      37.450  18.614  25.592  1.00  0.00     0.344 HD
ATOM     24  H   UNL A   1      36.170  18.173  24.621  1.00  0.00     0.344 HD
ENDBRANCH  20  21
ENDBRANCH  12  20
BRANCH  13  25
ATOM     25  C   UNL A   1      34.184  21.672  24.136  1.00  0.00    -0.015 A 
ATOM     26  C   UNL A   1      33.544  20.451  24.397  1.00  0.00     0.009 A 
ATOM     27  C   UNL A   1      33.723  22.484  23.101  1.00  0.00     0.009 A 
ATOM     28  C   UNL A   1      32.465  20.036  23.619  1.00  0.00     0.001 A 
ATOM     29  C   UNL A   1      32.634  22.071  22.327  1.00  0.00     0.001 A 
ATOM     30  C   UNL A   1      32.010  20.849  22.582  1.00  0.00     0.000 A 
ENDBRANCH  13  25
ENDBRANCH   9  11
ENDBRANCH   8   9
ENDBRANCH   7   8
ENDBRANCH   6   7
ENDBRANCH   5   6
ENDBRANCH   4   5
ENDBRANCH   3   4
ENDBRANCH   2   3
ENDBRANCH   1   2
BRANCH   1  31
ATOM     31  C   UNL A   1      32.073  29.531  24.994  1.00  0.00     0.188 C 
BRANCH  31  32
ATOM     32  O   UNL A   1      32.615  29.864  26.275  1.00  0.00    -0.376 OA
BRANCH  32  33
ATOM     33  C   UNL A   1      33.797  29.159  26.643  1.00  0.00     0.202 C 
BRANCH  33  34
ATOM     34  C   UNL A   1      34.714  29.911  27.616  1.00  0.00     0.261 C 
BRANCH  34  35
ATOM     35  O   UNL A   1      36.089  29.497  27.604  1.00  0.00    -0.460 OA
BRANCH  35  36
ATOM     36  C   UNL A   1      36.871  29.890  28.632  1.00  0.00     0.338 C 
ATOM     37  O   UNL A   1      36.521  30.412  29.675  1.00  0.00    -0.246 OA
BRANCH  36  38
ATOM     38  C   UNL A   1      38.235  29.409  28.351  1.00  0.00     0.060 A 
ATOM     39  C   UNL A   1      38.966  28.805  29.382  1.00  0.00     0.016 A 
ATOM     40  C   UNL A   1      38.774  29.528  27.067  1.00  0.00     0.016 A 
ATOM     41  C   UNL A   1      40.258  28.340  29.135  1.00  0.00     0.010 A 
ATOM     42  C   UNL A   1      40.074  29.085  26.827  1.00  0.00     0.010 A 
ATOM     43  C   UNL A   1      40.829  28.517  27.867  1.00  0.00    -0.014 A 
BRANCH  43  44
ATOM     44  C   UNL A   1      42.282  28.323  27.673  1.00  0.00     0.031 A 
ATOM     45  C   UNL A   1      43.186  29.496  27.937  1.00  0.00     0.074 A 
ATOM     46  C   UNL A   1      42.787  27.153  27.246  1.00  0.00     0.049 A 
ATOM     47  N   UNL A   1      44.479  29.598  27.777  1.00  0.00    -0.248 NA
ATOM     48  C   UNL A   1      42.541  30.718  28.448  1.00  0.00     0.031 C 
ATOM     49  C   UNL A   1      42.015  25.939  26.987  1.00  0.00     0.029 A 
ATOM     50  N   UNL A   1      44.078  26.805  26.941  1.00  0.00    -0.354 N 
ATOM     51  C   UNL A   1      44.802  30.891  28.167  1.00  0.00     0.074 A 
ATOM     52  C   UNL A   1      43.569  31.544  28.550  1.00  0.00     0.031 C 
ATOM     53  C   UNL A   1      42.850  24.980  26.545  1.00  0.00     0.029 A 
ATOM     54  C   UNL A   1      44.205  25.522  26.464  1.00  0.00     0.049 A 
ATOM     55  H   UNL A   1      44.841  27.417  27.052  1.00  0.00     0.167 HD
ATOM     56  C   UNL A   1      46.016  31.486  28.202  1.00  0.00     0.031 A 
ATOM     57  C   UNL A   1      45.289  24.874  25.994  1.00  0.00     0.031 A 
ATOM     58  C   UNL A   1      47.233  30.852  27.784  1.00  0.00     0.049 A 
ATOM     59  C   UNL A   1      46.619  25.583  25.964  1.00  0.00     0.074 A 
ATOM     60  C   UNL A   1      48.516  31.369  27.775  1.00  0.00     0.029 A 
ATOM     61  N   UNL A   1      47.316  29.562  27.282  1.00  0.00    -0.354 N 
ATOM     62  N   UNL A   1      46.915  26.797  26.363  1.00  0.00    -0.248 NA
ATOM     63  C   UNL A   1      47.761  24.833  25.418  1.00  0.00     0.031 C 
ATOM     64  C   UNL A   1      49.369  30.406  27.228  1.00  0.00     0.029 A 
ATOM     65  C   UNL A   1      48.624  29.271  26.940  1.00  0.00     0.049 A 
ATOM     66  H   UNL A   1      46.555  28.943  27.186  1.00  0.00     0.167 HD
ATOM     67  C   UNL A   1      48.281  26.947  26.141  1.00  0.00     0.074 A 
ATOM     68  C   UNL A   1      48.754  25.699  25.578  1.00  0.00     0.031 C 
ATOM     69  C   UNL A   1      49.073  28.020  26.386  1.00  0.00     0.031 A 
BRANCH  56  70
ATOM     70  C   UNL A   1      46.065  32.909  28.679  1.00  0.00    -0.014 A 
ATOM     71  C   UNL A   1      46.074  33.977  27.765  1.00  0.00     0.010 A 
ATOM     72  C   UNL A   1      46.106  33.182  30.058  1.00  0.00     0.010 A 
ATOM     73  C   UNL A   1      46.164  35.295  28.219  1.00  0.00     0.020 A 
ATOM     74  C   UNL A   1      46.175  34.500  30.518  1.00  0.00     0.020 A 
ATOM     75  C   UNL A   1      46.222  35.547  29.594  1.00  0.00     0.054 A 
BRANCH  75  76
ATOM     76  S   UNL A   1      46.334  37.266  30.162  1.00  0.00     0.124 S 
ATOM     77  O   UNL A   1      47.614  37.265  30.866  1.00  0.00    -0.237 OA
ATOM     78  O   UNL A   1      46.306  38.021  28.913  1.00  0.00    -0.237 OA
ATOM     79  O   UNL A   1      45.156  37.427  31.010  1.00  0.00    -0.744 OA
ENDBRANCH  75  76
ENDBRANCH  56  70
BRANCH  57  80
ATOM     80  C   UNL A   1      45.164  23.478  25.494  1.00  0.00    -0.014 A 
ATOM     81  C   UNL A   1      44.547  23.213  24.260  1.00  0.00     0.010 A 
ATOM     82  C   UNL A   1      45.662  22.405  26.255  1.00  0.00     0.010 A 
ATOM     83  C   UNL A   1      44.417  21.898  23.800  1.00  0.00     0.020 A 
ATOM     84  C   UNL A   1      45.553  21.091  25.790  1.00  0.00     0.020 A 
ATOM     85  C   UNL A   1      44.922  20.845  24.568  1.00  0.00     0.054 A 
BRANCH  85  86
ATOM     86  S   UNL A   1      44.795  19.151  23.930  1.00  0.00     0.124 S 
ATOM     87  O   UNL A   1      45.910  18.490  24.600  1.00  0.00    -0.237 OA
ATOM     88  O   UNL A   1      43.462  18.746  24.369  1.00  0.00    -0.237 OA
ATOM     89  O   UNL A   1      44.941  19.321  22.486  1.00  0.00    -0.744 OA
ENDBRANCH  85  86
ENDBRANCH  57  80
BRANCH  69  90
ATOM     90  C   UNL A   1      50.540  27.889  26.083  1.00  0.00    -0.014 A 
ATOM     91  C   UNL A   1      51.398  27.183  26.943  1.00  0.00     0.010 A 
ATOM     92  C   UNL A   1      51.046  28.404  24.876  1.00  0.00     0.010 A 
ATOM     93  C   UNL A   1      52.743  27.005  26.606  1.00  0.00     0.020 A 
ATOM     94  C   UNL A   1      52.384  28.211  24.525  1.00  0.00     0.020 A 
ATOM     95  C   UNL A   1      53.227  27.519  25.398  1.00  0.00     0.054 A 
BRANCH  95  96
ATOM     96  S   UNL A   1      54.958  27.217  24.948  1.00  0.00     0.124 S 
ATOM     97  O   UNL A   1      55.426  26.401  26.065  1.00  0.00    -0.237 OA
ATOM     98  O   UNL A   1      54.843  26.523  23.667  1.00  0.00    -0.237 OA
ATOM     99  O   UNL A   1      55.534  28.558  24.872  1.00  0.00    -0.744 OA
ENDBRANCH  95  96
ENDBRANCH  69  90
ENDBRANCH  43  44
ENDBRANCH  36  38
ENDBRANCH  35  36
ENDBRANCH  34  35
ENDBRANCH  33  34
ENDBRANCH  32  33
ENDBRANCH  31  32
ENDBRANCH   1  31
TORSDOF 26
ENDMDL
