MODEL 1
REMARK VINA RESULT:      -8.6      0.000      0.000
REMARK SMILES O=C(CCCCCN1C(=O)[C@@H]2CC=CC[C@H]2C1=O)OCCOCCOCCOCCOC(=O)c1ccc(-c2c3nc(c(-c4ccc(S(=O)(=O)[O-])cc4)c4ccc([nH]4)c(-c4ccc(S(=O)(=O)[O-])cc4)c4nc(c(-c5ccc(S(=O)(=O)[O-])cc5)c5ccc2[nH]5)C=C4)C=C3)cc1
REMARK SMILES IDX 24 1 23 2 22 3 21 4 20 5 19 6 2 7 1 8 3 9 4 10 5 11 6 12
REMARK SMILES IDX 7 13 8 14 9 15 17 16 10 17 11 18 16 19 18 20 12 21 15 22
REMARK SMILES IDX 13 23 14 24 25 25 26 26 27 27 28 28 29 29 30 30 31 31 32 32
REMARK SMILES IDX 33 33 34 34 35 35 93 36 36 37 92 38 37 39 38 40 39 41 86 42
REMARK SMILES IDX 40 43 91 44 85 45 87 46 41 47 90 48 84 49 83 50 42 52 72 53
REMARK SMILES IDX 53 54 71 55 54 56 57 57 70 58 88 59 55 60 56 61 69 63 89 64
REMARK SMILES IDX 58 65 43 66 44 67 52 68 45 69 51 70 46 71 47 72 48 73 49 74
REMARK SMILES IDX 50 75 73 76 74 77 82 78 75 79 81 80 76 81 77 82 78 83 79 84
REMARK SMILES IDX 80 85 59 86 60 87 68 88 61 89 67 90 62 91 63 92 64 93 65 94
REMARK SMILES IDX 66 95
REMARK H PARENT 87 51 57 62
REMARK Flexibility Score: inf
ROOT
ATOM      1  C   UNL A   1      35.888  21.287  25.011  1.00  0.00     0.188 C 
ENDROOT
BRANCH   1   2
ATOM      2  C   UNL A   1      35.070  21.244  26.294  1.00  0.00     0.188 C 
BRANCH   2   3
ATOM      3  O   UNL A   1      33.681  20.952  26.141  1.00  0.00    -0.376 OA
BRANCH   3   4
ATOM      4  C   UNL A   1      33.252  20.321  24.953  1.00  0.00     0.202 C 
BRANCH   4   5
ATOM      5  C   UNL A   1      32.415  21.227  24.066  1.00  0.00     0.261 C 
BRANCH   5   6
ATOM      6  O   UNL A   1      32.429  22.633  24.386  1.00  0.00    -0.463 OA
BRANCH   6   7
ATOM      7  C   UNL A   1      32.129  23.361  25.472  1.00  0.00     0.305 C 
ATOM      8  O   UNL A   1      33.066  23.957  26.015  1.00  0.00    -0.252 OA
BRANCH   7   9
ATOM      9  C   UNL A   1      30.761  23.448  26.133  1.00  0.00     0.123 C 
BRANCH   9  10
ATOM     10  C   UNL A   1      29.983  24.749  26.183  1.00  0.00     0.012 C 
BRANCH  10  11
ATOM     11  C   UNL A   1      30.397  25.861  25.217  1.00  0.00     0.002 C 
BRANCH  11  12
ATOM     12  C   UNL A   1      31.581  26.761  25.606  1.00  0.00     0.022 C 
BRANCH  12  13
ATOM     13  C   UNL A   1      32.151  27.678  24.514  1.00  0.00     0.128 C 
BRANCH  13  14
ATOM     14  N   UNL A   1      31.168  28.633  24.039  1.00  0.00    -0.282 N 
ATOM     15  C   UNL A   1      30.356  28.416  22.956  1.00  0.00     0.233 C 
ATOM     16  C   UNL A   1      30.939  29.892  24.556  1.00  0.00     0.233 C 
ATOM     17  O   UNL A   1      30.532  27.680  21.996  1.00  0.00    -0.274 OA
ATOM     18  C   UNL A   1      29.178  29.291  23.197  1.00  0.00     0.095 C 
ATOM     19  C   UNL A   1      29.939  30.535  23.619  1.00  0.00     0.095 C 
ATOM     20  O   UNL A   1      31.483  30.427  25.505  1.00  0.00    -0.274 OA
ATOM     21  C   UNL A   1      28.206  29.509  22.066  1.00  0.00     0.041 C 
ATOM     22  C   UNL A   1      28.994  31.602  24.122  1.00  0.00     0.041 C 
ATOM     23  C   UNL A   1      27.487  30.819  22.248  1.00  0.00    -0.030 C 
ATOM     24  C   UNL A   1      27.823  31.740  23.173  1.00  0.00    -0.030 C 
ENDBRANCH  13  14
ENDBRANCH  12  13
ENDBRANCH  11  12
ENDBRANCH  10  11
ENDBRANCH   9  10
ENDBRANCH   7   9
ENDBRANCH   6   7
ENDBRANCH   5   6
ENDBRANCH   4   5
ENDBRANCH   3   4
ENDBRANCH   2   3
ENDBRANCH   1   2
BRANCH   1  25
ATOM     25  O   UNL A   1      37.261  20.912  25.067  1.00  0.00    -0.377 OA
BRANCH  25  26
ATOM     26  C   UNL A   1      38.270  21.849  25.404  1.00  0.00     0.188 C 
BRANCH  26  27
ATOM     27  C   UNL A   1      39.590  21.225  25.874  1.00  0.00     0.188 C 
BRANCH  27  28
ATOM     28  O   UNL A   1      40.121  21.665  27.116  1.00  0.00    -0.376 OA
BRANCH  28  29
ATOM     29  C   UNL A   1      40.720  22.958  27.172  1.00  0.00     0.202 C 
BRANCH  29  30
ATOM     30  C   UNL A   1      41.666  23.434  26.047  1.00  0.00     0.261 C 
BRANCH  30  31
ATOM     31  O   UNL A   1      42.577  24.490  26.420  1.00  0.00    -0.460 OA
BRANCH  31  32
ATOM     32  C   UNL A   1      42.131  25.758  26.253  1.00  0.00     0.338 C 
ATOM     33  O   UNL A   1      41.451  26.172  25.328  1.00  0.00    -0.246 OA
BRANCH  32  34
ATOM     34  C   UNL A   1      42.392  26.575  27.462  1.00  0.00     0.060 A 
ATOM     35  C   UNL A   1      42.087  26.017  28.715  1.00  0.00     0.016 A 
ATOM     36  C   UNL A   1      42.817  27.901  27.377  1.00  0.00     0.016 A 
ATOM     37  C   UNL A   1      42.169  26.787  29.877  1.00  0.00     0.010 A 
ATOM     38  C   UNL A   1      42.864  28.684  28.540  1.00  0.00     0.010 A 
ATOM     39  C   UNL A   1      42.501  28.144  29.790  1.00  0.00    -0.014 A 
BRANCH  39  40
ATOM     40  C   UNL A   1      42.214  29.039  30.943  1.00  0.00     0.031 A 
ATOM     41  C   UNL A   1      40.981  29.906  30.875  1.00  0.00     0.074 A 
ATOM     42  C   UNL A   1      42.992  29.070  32.040  1.00  0.00     0.049 A 
ATOM     43  N   UNL A   1      40.536  30.790  31.729  1.00  0.00    -0.248 NA
ATOM     44  C   UNL A   1      40.137  29.750  29.678  1.00  0.00     0.031 C 
ATOM     45  C   UNL A   1      44.175  28.242  32.267  1.00  0.00     0.029 A 
ATOM     46  N   UNL A   1      42.901  29.842  33.175  1.00  0.00    -0.354 N 
ATOM     47  C   UNL A   1      39.371  31.304  31.169  1.00  0.00     0.074 A 
ATOM     48  C   UNL A   1      39.193  30.653  29.891  1.00  0.00     0.031 C 
ATOM     49  C   UNL A   1      44.706  28.559  33.463  1.00  0.00     0.029 A 
ATOM     50  C   UNL A   1      43.923  29.636  34.070  1.00  0.00     0.049 A 
ATOM     51  H   UNL A   1      42.170  30.483  33.331  1.00  0.00     0.167 HD
ATOM     52  C   UNL A   1      38.522  32.233  31.671  1.00  0.00     0.031 A 
ATOM     53  C   UNL A   1      44.207  30.258  35.234  1.00  0.00     0.031 A 
ATOM     54  C   UNL A   1      38.709  32.898  32.934  1.00  0.00     0.049 A 
ATOM     55  C   UNL A   1      43.296  31.355  35.732  1.00  0.00     0.074 A 
ATOM     56  C   UNL A   1      37.901  33.850  33.531  1.00  0.00     0.029 A 
ATOM     57  N   UNL A   1      39.782  32.692  33.787  1.00  0.00    -0.354 N 
ATOM     58  N   UNL A   1      42.189  31.815  35.200  1.00  0.00    -0.248 NA
ATOM     59  C   UNL A   1      43.671  32.007  36.995  1.00  0.00     0.031 C 
ATOM     60  C   UNL A   1      38.520  34.268  34.713  1.00  0.00     0.029 A 
ATOM     61  C   UNL A   1      39.673  33.521  34.891  1.00  0.00     0.049 A 
ATOM     62  H   UNL A   1      40.513  32.052  33.630  1.00  0.00     0.167 HD
ATOM     63  C   UNL A   1      41.718  32.786  36.082  1.00  0.00     0.074 A 
ATOM     64  C   UNL A   1      42.652  32.835  37.186  1.00  0.00     0.031 C 
ATOM     65  C   UNL A   1      40.608  33.561  35.988  1.00  0.00     0.031 A 
BRANCH  52  66
ATOM     66  C   UNL A   1      37.334  32.618  30.827  1.00  0.00    -0.014 A 
ATOM     67  C   UNL A   1      36.079  32.008  31.006  1.00  0.00     0.010 A 
ATOM     68  C   UNL A   1      37.471  33.627  29.857  1.00  0.00     0.010 A 
ATOM     69  C   UNL A   1      34.995  32.373  30.203  1.00  0.00     0.020 A 
ATOM     70  C   UNL A   1      36.382  34.017  29.074  1.00  0.00     0.020 A 
ATOM     71  C   UNL A   1      35.154  33.375  29.241  1.00  0.00     0.054 A 
BRANCH  71  72
ATOM     72  S   UNL A   1      33.723  33.845  28.230  1.00  0.00     0.124 S 
ATOM     73  O   UNL A   1      34.318  34.787  27.286  1.00  0.00    -0.237 OA
ATOM     74  O   UNL A   1      33.303  32.567  27.659  1.00  0.00    -0.237 OA
ATOM     75  O   UNL A   1      32.794  34.430  29.192  1.00  0.00    -0.744 OA
ENDBRANCH  71  72
ENDBRANCH  52  66
BRANCH  53  76
ATOM     76  C   UNL A   1      45.423  29.878  36.010  1.00  0.00    -0.014 A 
ATOM     77  C   UNL A   1      46.661  30.497  35.758  1.00  0.00     0.010 A 
ATOM     78  C   UNL A   1      45.352  28.876  36.995  1.00  0.00     0.010 A 
ATOM     79  C   UNL A   1      47.805  30.111  36.467  1.00  0.00     0.020 A 
ATOM     80  C   UNL A   1      46.485  28.510  37.727  1.00  0.00     0.020 A 
ATOM     81  C   UNL A   1      47.708  29.125  37.452  1.00  0.00     0.054 A 
BRANCH  81  82
ATOM     82  S   UNL A   1      49.192  28.687  38.400  1.00  0.00     0.124 S 
ATOM     83  O   UNL A   1      48.937  29.335  39.683  1.00  0.00    -0.237 OA
ATOM     84  O   UNL A   1      49.139  27.227  38.405  1.00  0.00    -0.237 OA
ATOM     85  O   UNL A   1      50.282  29.260  37.613  1.00  0.00    -0.744 OA
ENDBRANCH  81  82
ENDBRANCH  53  76
BRANCH  65  86
ATOM     86  C   UNL A   1      40.308  34.500  37.130  1.00  0.00    -0.014 A 
ATOM     87  C   UNL A   1      39.569  34.086  38.253  1.00  0.00     0.010 A 
ATOM     88  C   UNL A   1      40.825  35.809  37.101  1.00  0.00     0.010 A 
ATOM     89  C   UNL A   1      39.321  34.975  39.304  1.00  0.00     0.020 A 
ATOM     90  C   UNL A   1      40.609  36.689  38.164  1.00  0.00     0.020 A 
ATOM     91  C   UNL A   1      39.843  36.271  39.253  1.00  0.00     0.054 A 
BRANCH  91  92
ATOM     92  S   UNL A   1      39.535  37.393  40.645  1.00  0.00     0.124 S 
ATOM     93  O   UNL A   1      39.130  38.619  39.964  1.00  0.00    -0.237 OA
ATOM     94  O   UNL A   1      38.479  36.705  41.383  1.00  0.00    -0.237 OA
ATOM     95  O   UNL A   1      40.825  37.459  41.330  1.00  0.00    -0.744 OA
ENDBRANCH  91  92
ENDBRANCH  65  86
ENDBRANCH  39  40
ENDBRANCH  32  34
ENDBRANCH  31  32
ENDBRANCH  30  31
ENDBRANCH  29  30
ENDBRANCH  28  29
ENDBRANCH  27  28
ENDBRANCH  26  27
ENDBRANCH  25  26
ENDBRANCH   1  25
TORSDOF 28
ENDMDL
MODEL 2
REMARK VINA RESULT:      -7.4      9.944     15.558
REMARK SMILES O=C(CCCCCN1C(=O)[C@@H]2CC=CC[C@H]2C1=O)OCCOCCOCCOCCOC(=O)c1ccc(-c2c3nc(c(-c4ccc(S(=O)(=O)[O-])cc4)c4ccc([nH]4)c(-c4ccc(S(=O)(=O)[O-])cc4)c4nc(c(-c5ccc(S(=O)(=O)[O-])cc5)c5ccc2[nH]5)C=C4)C=C3)cc1
REMARK SMILES IDX 24 1 23 2 22 3 21 4 20 5 19 6 2 7 1 8 3 9 4 10 5 11 6 12
REMARK SMILES IDX 7 13 8 14 9 15 17 16 10 17 11 18 16 19 18 20 12 21 15 22
REMARK SMILES IDX 13 23 14 24 25 25 26 26 27 27 28 28 29 29 30 30 31 31 32 32
REMARK SMILES IDX 33 33 34 34 35 35 93 36 36 37 92 38 37 39 38 40 39 41 86 42
REMARK SMILES IDX 40 43 91 44 85 45 87 46 41 47 90 48 84 49 83 50 42 52 72 53
REMARK SMILES IDX 53 54 71 55 54 56 57 57 70 58 88 59 55 60 56 61 69 63 89 64
REMARK SMILES IDX 58 65 43 66 44 67 52 68 45 69 51 70 46 71 47 72 48 73 49 74
REMARK SMILES IDX 50 75 73 76 74 77 82 78 75 79 81 80 76 81 77 82 78 83 79 84
REMARK SMILES IDX 80 85 59 86 60 87 68 88 61 89 67 90 62 91 63 92 64 93 65 94
REMARK SMILES IDX 66 95
REMARK H PARENT 87 51 57 62
REMARK Flexibility Score: inf
ROOT
ATOM      1  C   UNL A   1      48.307  41.890  27.548  1.00  0.00     0.188 C 
ENDROOT
BRANCH   1   2
ATOM      2  C   UNL A   1      47.542  40.817  26.786  1.00  0.00     0.188 C 
BRANCH   2   3
ATOM      3  O   UNL A   1      46.353  41.246  26.124  1.00  0.00    -0.376 OA
BRANCH   3   4
ATOM      4  C   UNL A   1      45.892  42.561  26.352  1.00  0.00     0.202 C 
BRANCH   4   5
ATOM      5  C   UNL A   1      44.397  42.715  26.132  1.00  0.00     0.261 C 
BRANCH   5   6
ATOM      6  O   UNL A   1      43.885  42.272  24.859  1.00  0.00    -0.463 OA
BRANCH   6   7
ATOM      7  C   UNL A   1      44.096  42.616  23.581  1.00  0.00     0.305 C 
ATOM      8  O   UNL A   1      45.148  42.219  23.066  1.00  0.00    -0.252 OA
BRANCH   7   9
ATOM      9  C   UNL A   1      43.198  43.514  22.743  1.00  0.00     0.123 C 
BRANCH   9  10
ATOM     10  C   UNL A   1      43.085  43.346  21.239  1.00  0.00     0.012 C 
BRANCH  10  11
ATOM     11  C   UNL A   1      41.690  43.447  20.617  1.00  0.00     0.002 C 
BRANCH  11  12
ATOM     12  C   UNL A   1      41.570  43.385  19.086  1.00  0.00     0.022 C 
BRANCH  12  13
ATOM     13  C   UNL A   1      42.878  43.367  18.282  1.00  0.00     0.128 C 
BRANCH  13  14
ATOM     14  N   UNL A   1      43.246  44.689  17.813  1.00  0.00    -0.282 N 
ATOM     15  C   UNL A   1      42.406  45.507  17.102  1.00  0.00     0.233 C 
ATOM     16  C   UNL A   1      44.479  45.293  17.962  1.00  0.00     0.233 C 
ATOM     17  O   UNL A   1      41.450  45.208  16.402  1.00  0.00    -0.274 OA
ATOM     18  C   UNL A   1      42.917  46.879  17.364  1.00  0.00     0.095 C 
ATOM     19  C   UNL A   1      44.394  46.580  17.170  1.00  0.00     0.095 C 
ATOM     20  O   UNL A   1      45.468  44.858  18.523  1.00  0.00    -0.274 OA
ATOM     21  C   UNL A   1      42.394  48.011  16.518  1.00  0.00     0.041 C 
ATOM     22  C   UNL A   1      45.241  47.772  17.552  1.00  0.00     0.041 C 
ATOM     23  C   UNL A   1      43.400  49.130  16.473  1.00  0.00    -0.030 C 
ATOM     24  C   UNL A   1      44.657  49.032  16.950  1.00  0.00    -0.030 C 
ENDBRANCH  13  14
ENDBRANCH  12  13
ENDBRANCH  11  12
ENDBRANCH  10  11
ENDBRANCH   9  10
ENDBRANCH   7   9
ENDBRANCH   6   7
ENDBRANCH   5   6
ENDBRANCH   4   5
ENDBRANCH   3   4
ENDBRANCH   2   3
ENDBRANCH   1   2
BRANCH   1  25
ATOM     25  O   UNL A   1      49.314  41.482  28.469  1.00  0.00    -0.377 OA
BRANCH  25  26
ATOM     26  C   UNL A   1      50.211  42.417  29.045  1.00  0.00     0.188 C 
BRANCH  26  27
ATOM     27  C   UNL A   1      50.930  41.918  30.306  1.00  0.00     0.188 C 
BRANCH  27  28
ATOM     28  O   UNL A   1      50.865  40.529  30.595  1.00  0.00    -0.376 OA
BRANCH  28  29
ATOM     29  C   UNL A   1      49.793  40.061  31.411  1.00  0.00     0.202 C 
BRANCH  29  30
ATOM     30  C   UNL A   1      49.423  38.561  31.435  1.00  0.00     0.261 C 
BRANCH  30  31
ATOM     31  O   UNL A   1      48.037  38.268  31.159  1.00  0.00    -0.460 OA
BRANCH  31  32
ATOM     32  C   UNL A   1      47.357  37.602  32.124  1.00  0.00     0.338 C 
ATOM     33  O   UNL A   1      47.269  37.919  33.299  1.00  0.00    -0.246 OA
BRANCH  32  34
ATOM     34  C   UNL A   1      46.531  36.520  31.538  1.00  0.00     0.060 A 
ATOM     35  C   UNL A   1      45.826  35.678  32.414  1.00  0.00     0.016 A 
ATOM     36  C   UNL A   1      46.529  36.254  30.168  1.00  0.00     0.016 A 
ATOM     37  C   UNL A   1      45.152  34.553  31.934  1.00  0.00     0.010 A 
ATOM     38  C   UNL A   1      45.882  35.104  29.691  1.00  0.00     0.010 A 
ATOM     39  C   UNL A   1      45.226  34.226  30.575  1.00  0.00    -0.014 A 
BRANCH  39  40
ATOM     40  C   UNL A   1      44.851  32.855  30.135  1.00  0.00     0.031 A 
ATOM     41  C   UNL A   1      43.385  32.500  30.101  1.00  0.00     0.074 A 
ATOM     42  C   UNL A   1      45.766  31.951  29.740  1.00  0.00     0.049 A 
ATOM     43  N   UNL A   1      42.809  31.368  29.792  1.00  0.00    -0.248 NA
ATOM     44  C   UNL A   1      42.444  33.573  30.467  1.00  0.00     0.031 C 
ATOM     45  C   UNL A   1      47.207  32.179  29.660  1.00  0.00     0.029 A 
ATOM     46  N   UNL A   1      45.610  30.646  29.333  1.00  0.00    -0.354 N 
ATOM     47  C   UNL A   1      41.443  31.587  29.938  1.00  0.00     0.074 A 
ATOM     48  C   UNL A   1      41.278  32.950  30.389  1.00  0.00     0.031 C 
ATOM     49  C   UNL A   1      47.805  31.048  29.243  1.00  0.00     0.029 A 
ATOM     50  C   UNL A   1      46.795  30.006  29.058  1.00  0.00     0.049 A 
ATOM     51  H   UNL A   1      44.731  30.212  29.246  1.00  0.00     0.167 HD
ATOM     52  C   UNL A   1      40.415  30.733  29.715  1.00  0.00     0.031 A 
ATOM     53  C   UNL A   1      47.038  28.722  28.719  1.00  0.00     0.031 A 
ATOM     54  C   UNL A   1      40.576  29.369  29.286  1.00  0.00     0.049 A 
ATOM     55  C   UNL A   1      45.883  27.762  28.563  1.00  0.00     0.074 A 
ATOM     56  C   UNL A   1      39.596  28.427  29.028  1.00  0.00     0.029 A 
ATOM     57  N   UNL A   1      41.796  28.748  29.064  1.00  0.00    -0.354 N 
ATOM     58  N   UNL A   1      44.597  27.990  28.687  1.00  0.00    -0.248 NA
ATOM     59  C   UNL A   1      46.215  26.373  28.213  1.00  0.00     0.031 C 
ATOM     60  C   UNL A   1      40.224  27.218  28.715  1.00  0.00     0.029 A 
ATOM     61  C   UNL A   1      41.594  27.426  28.702  1.00  0.00     0.049 A 
ATOM     62  H   UNL A   1      42.675  29.182  29.152  1.00  0.00     0.167 HD
ATOM     63  C   UNL A   1      43.967  26.782  28.394  1.00  0.00     0.074 A 
ATOM     64  C   UNL A   1      45.012  25.833  28.074  1.00  0.00     0.031 C 
ATOM     65  C   UNL A   1      42.641  26.489  28.384  1.00  0.00     0.031 A 
BRANCH  52  66
ATOM     66  C   UNL A   1      39.020  31.241  29.977  1.00  0.00    -0.014 A 
ATOM     67  C   UNL A   1      38.283  30.815  31.097  1.00  0.00     0.010 A 
ATOM     68  C   UNL A   1      38.449  32.184  29.103  1.00  0.00     0.010 A 
ATOM     69  C   UNL A   1      36.986  31.291  31.313  1.00  0.00     0.020 A 
ATOM     70  C   UNL A   1      37.167  32.687  29.333  1.00  0.00     0.020 A 
ATOM     71  C   UNL A   1      36.436  32.224  30.429  1.00  0.00     0.054 A 
BRANCH  71  72
ATOM     72  S   UNL A   1      34.761  32.842  30.748  1.00  0.00     0.124 S 
ATOM     73  O   UNL A   1      34.025  32.323  29.598  1.00  0.00    -0.237 OA
ATOM     74  O   UNL A   1      34.434  32.226  32.032  1.00  0.00    -0.237 OA
ATOM     75  O   UNL A   1      34.926  34.293  30.779  1.00  0.00    -0.744 OA
ENDBRANCH  71  72
ENDBRANCH  52  66
BRANCH  53  76
ATOM     76  C   UNL A   1      48.440  28.253  28.520  1.00  0.00    -0.014 A 
ATOM     77  C   UNL A   1      49.076  28.391  27.273  1.00  0.00     0.010 A 
ATOM     78  C   UNL A   1      49.142  27.644  29.577  1.00  0.00     0.010 A 
ATOM     79  C   UNL A   1      50.380  27.918  27.084  1.00  0.00     0.020 A 
ATOM     80  C   UNL A   1      50.455  27.199  29.402  1.00  0.00     0.020 A 
ATOM     81  C   UNL A   1      51.064  27.331  28.152  1.00  0.00     0.054 A 
BRANCH  81  82
ATOM     82  S   UNL A   1      52.775  26.783  27.900  1.00  0.00     0.124 S 
ATOM     83  O   UNL A   1      52.606  25.674  26.966  1.00  0.00    -0.237 OA
ATOM     84  O   UNL A   1      53.409  27.980  27.355  1.00  0.00    -0.237 OA
ATOM     85  O   UNL A   1      53.216  26.411  29.243  1.00  0.00    -0.744 OA
ENDBRANCH  81  82
ENDBRANCH  53  76
BRANCH  65  86
ATOM     86  C   UNL A   1      42.233  25.097  27.969  1.00  0.00    -0.014 A 
ATOM     87  C   UNL A   1      42.088  24.059  28.908  1.00  0.00     0.010 A 
ATOM     88  C   UNL A   1      41.936  24.839  26.618  1.00  0.00     0.010 A 
ATOM     89  C   UNL A   1      41.692  22.782  28.496  1.00  0.00     0.020 A 
ATOM     90  C   UNL A   1      41.506  23.574  26.207  1.00  0.00     0.020 A 
ATOM     91  C   UNL A   1      41.404  22.548  27.148  1.00  0.00     0.054 A 
BRANCH  91  92
ATOM     92  S   UNL A   1      40.859  20.892  26.645  1.00  0.00     0.124 S 
ATOM     93  O   UNL A   1      40.865  20.172  27.916  1.00  0.00    -0.237 OA
ATOM     94  O   UNL A   1      39.540  21.148  26.074  1.00  0.00    -0.237 OA
ATOM     95  O   UNL A   1      41.876  20.468  25.685  1.00  0.00    -0.744 OA
ENDBRANCH  91  92
ENDBRANCH  65  86
ENDBRANCH  39  40
ENDBRANCH  32  34
ENDBRANCH  31  32
ENDBRANCH  30  31
ENDBRANCH  29  30
ENDBRANCH  28  29
ENDBRANCH  27  28
ENDBRANCH  26  27
ENDBRANCH  25  26
ENDBRANCH   1  25
TORSDOF 28
ENDMDL
MODEL 3
REMARK VINA RESULT:      -7.3      7.852     12.163
REMARK SMILES O=C(CCCCCN1C(=O)[C@@H]2CC=CC[C@H]2C1=O)OCCOCCOCCOCCOC(=O)c1ccc(-c2c3nc(c(-c4ccc(S(=O)(=O)[O-])cc4)c4ccc([nH]4)c(-c4ccc(S(=O)(=O)[O-])cc4)c4nc(c(-c5ccc(S(=O)(=O)[O-])cc5)c5ccc2[nH]5)C=C4)C=C3)cc1
REMARK SMILES IDX 24 1 23 2 22 3 21 4 20 5 19 6 2 7 1 8 3 9 4 10 5 11 6 12
REMARK SMILES IDX 7 13 8 14 9 15 17 16 10 17 11 18 16 19 18 20 12 21 15 22
REMARK SMILES IDX 13 23 14 24 25 25 26 26 27 27 28 28 29 29 30 30 31 31 32 32
REMARK SMILES IDX 33 33 34 34 35 35 93 36 36 37 92 38 37 39 38 40 39 41 86 42
REMARK SMILES IDX 40 43 91 44 85 45 87 46 41 47 90 48 84 49 83 50 42 52 72 53
REMARK SMILES IDX 53 54 71 55 54 56 57 57 70 58 88 59 55 60 56 61 69 63 89 64
REMARK SMILES IDX 58 65 43 66 44 67 52 68 45 69 51 70 46 71 47 72 48 73 49 74
REMARK SMILES IDX 50 75 73 76 74 77 82 78 75 79 81 80 76 81 77 82 78 83 79 84
REMARK SMILES IDX 80 85 59 86 60 87 68 88 61 89 67 90 62 91 63 92 64 93 65 94
REMARK SMILES IDX 66 95
REMARK H PARENT 87 51 57 62
REMARK Flexibility Score: inf
ROOT
ATOM      1  C   UNL A   1      39.933  30.167  33.153  1.00  0.00     0.188 C 
ENDROOT
BRANCH   1   2
ATOM      2  C   UNL A   1      38.647  30.962  32.975  1.00  0.00     0.188 C 
BRANCH   2   3
ATOM      3  O   UNL A   1      38.740  32.129  32.158  1.00  0.00    -0.376 OA
BRANCH   3   4
ATOM      4  C   UNL A   1      39.857  32.267  31.305  1.00  0.00     0.202 C 
BRANCH   4   5
ATOM      5  C   UNL A   1      40.636  33.549  31.547  1.00  0.00     0.261 C 
BRANCH   5   6
ATOM      6  O   UNL A   1      41.887  33.684  30.844  1.00  0.00    -0.463 OA
BRANCH   6   7
ATOM      7  C   UNL A   1      42.277  34.277  29.706  1.00  0.00     0.305 C 
ATOM      8  O   UNL A   1      43.125  33.681  29.032  1.00  0.00    -0.252 OA
BRANCH   7   9
ATOM      9  C   UNL A   1      41.829  35.648  29.221  1.00  0.00     0.123 C 
BRANCH   9  10
ATOM     10  C   UNL A   1      42.830  36.726  28.846  1.00  0.00     0.012 C 
BRANCH  10  11
ATOM     11  C   UNL A   1      42.776  37.278  27.420  1.00  0.00     0.002 C 
BRANCH  11  12
ATOM     12  C   UNL A   1      43.703  38.449  27.058  1.00  0.00     0.022 C 
BRANCH  12  13
ATOM     13  C   UNL A   1      43.051  39.689  26.429  1.00  0.00     0.128 C 
BRANCH  13  14
ATOM     14  N   UNL A   1      43.801  40.898  26.707  1.00  0.00    -0.282 N 
ATOM     15  C   UNL A   1      44.438  41.638  25.744  1.00  0.00     0.233 C 
ATOM     16  C   UNL A   1      44.025  41.450  27.952  1.00  0.00     0.233 C 
ATOM     17  O   UNL A   1      44.856  41.284  24.651  1.00  0.00    -0.274 OA
ATOM     18  C   UNL A   1      44.525  43.004  26.325  1.00  0.00     0.095 C 
ATOM     19  C   UNL A   1      44.982  42.599  27.716  1.00  0.00     0.095 C 
ATOM     20  O   UNL A   1      43.626  41.057  29.033  1.00  0.00    -0.274 OA
ATOM     21  C   UNL A   1      45.413  44.015  25.647  1.00  0.00     0.041 C 
ATOM     22  C   UNL A   1      44.995  43.789  28.648  1.00  0.00     0.041 C 
ATOM     23  C   UNL A   1      45.860  45.057  26.637  1.00  0.00    -0.030 C 
ATOM     24  C   UNL A   1      45.658  44.968  27.966  1.00  0.00    -0.030 C 
ENDBRANCH  13  14
ENDBRANCH  12  13
ENDBRANCH  11  12
ENDBRANCH  10  11
ENDBRANCH   9  10
ENDBRANCH   7   9
ENDBRANCH   6   7
ENDBRANCH   5   6
ENDBRANCH   4   5
ENDBRANCH   3   4
ENDBRANCH   2   3
ENDBRANCH   1   2
BRANCH   1  25
ATOM     25  O   UNL A   1      39.843  28.826  33.625  1.00  0.00    -0.377 OA
BRANCH  25  26
ATOM     26  C   UNL A   1      40.840  27.866  33.318  1.00  0.00     0.188 C 
BRANCH  26  27
ATOM     27  C   UNL A   1      41.785  27.533  34.480  1.00  0.00     0.188 C 
BRANCH  27  28
ATOM     28  O   UNL A   1      41.818  26.189  34.938  1.00  0.00    -0.376 OA
BRANCH  28  29
ATOM     29  C   UNL A   1      43.016  25.440  34.744  1.00  0.00     0.202 C 
BRANCH  29  30
ATOM     30  C   UNL A   1      44.396  26.125  34.860  1.00  0.00     0.261 C 
BRANCH  30  31
ATOM     31  O   UNL A   1      45.436  25.548  34.042  1.00  0.00    -0.460 OA
BRANCH  31  32
ATOM     32  C   UNL A   1      45.327  25.738  32.704  1.00  0.00     0.338 C 
ATOM     33  O   UNL A   1      45.088  24.881  31.868  1.00  0.00    -0.246 OA
BRANCH  32  34
ATOM     34  C   UNL A   1      45.321  27.182  32.374  1.00  0.00     0.060 A 
ATOM     35  C   UNL A   1      46.283  28.004  32.983  1.00  0.00     0.016 A 
ATOM     36  C   UNL A   1      44.328  27.750  31.574  1.00  0.00     0.016 A 
ATOM     37  C   UNL A   1      46.236  29.392  32.829  1.00  0.00     0.010 A 
ATOM     38  C   UNL A   1      44.260  29.146  31.450  1.00  0.00     0.010 A 
ATOM     39  C   UNL A   1      45.188  29.976  32.110  1.00  0.00    -0.014 A 
BRANCH  39  40
ATOM     40  C   UNL A   1      44.918  31.430  32.268  1.00  0.00     0.031 A 
ATOM     41  C   UNL A   1      45.611  32.384  31.326  1.00  0.00     0.074 A 
ATOM     42  C   UNL A   1      44.061  31.907  33.189  1.00  0.00     0.049 A 
ATOM     43  N   UNL A   1      45.570  33.690  31.284  1.00  0.00    -0.248 NA
ATOM     44  C   UNL A   1      46.467  31.776  30.292  1.00  0.00     0.031 C 
ATOM     45  C   UNL A   1      43.275  31.098  34.118  1.00  0.00     0.029 A 
ATOM     46  N   UNL A   1      43.712  33.202  33.494  1.00  0.00    -0.354 N 
ATOM     47  C   UNL A   1      46.401  34.060  30.231  1.00  0.00     0.074 A 
ATOM     48  C   UNL A   1      46.953  32.844  29.679  1.00  0.00     0.031 C 
ATOM     49  C   UNL A   1      42.546  31.916  34.899  1.00  0.00     0.029 A 
ATOM     50  C   UNL A   1      42.838  33.307  34.550  1.00  0.00     0.049 A 
ATOM     51  H   UNL A   1      44.058  33.982  33.002  1.00  0.00     0.167 HD
ATOM     52  C   UNL A   1      46.680  35.300  29.761  1.00  0.00     0.031 A 
ATOM     53  C   UNL A   1      42.346  34.398  35.176  1.00  0.00     0.031 A 
ATOM     54  C   UNL A   1      46.148  36.514  30.321  1.00  0.00     0.049 A 
ATOM     55  C   UNL A   1      42.741  35.773  34.692  1.00  0.00     0.074 A 
ATOM     56  C   UNL A   1      46.367  37.818  29.912  1.00  0.00     0.029 A 
ATOM     57  N   UNL A   1      45.302  36.576  31.418  1.00  0.00    -0.354 N 
ATOM     58  N   UNL A   1      43.513  36.105  33.685  1.00  0.00    -0.248 NA
ATOM     59  C   UNL A   1      42.190  36.920  35.428  1.00  0.00     0.031 C 
ATOM     60  C   UNL A   1      45.709  38.671  30.802  1.00  0.00     0.029 A 
ATOM     61  C   UNL A   1      45.015  37.897  31.718  1.00  0.00     0.049 A 
ATOM     62  H   UNL A   1      44.958  35.796  31.911  1.00  0.00     0.167 HD
ATOM     63  C   UNL A   1      43.509  37.498  33.645  1.00  0.00     0.074 A 
ATOM     64  C   UNL A   1      42.648  37.943  34.720  1.00  0.00     0.031 C 
ATOM     65  C   UNL A   1      44.155  38.331  32.791  1.00  0.00     0.031 A 
BRANCH  52  66
ATOM     66  C   UNL A   1      47.643  35.405  28.606  1.00  0.00    -0.014 A 
ATOM     67  C   UNL A   1      49.007  35.683  28.811  1.00  0.00     0.010 A 
ATOM     68  C   UNL A   1      47.179  35.194  27.295  1.00  0.00     0.010 A 
ATOM     69  C   UNL A   1      49.878  35.787  27.723  1.00  0.00     0.020 A 
ATOM     70  C   UNL A   1      48.053  35.266  26.208  1.00  0.00     0.020 A 
ATOM     71  C   UNL A   1      49.395  35.579  26.428  1.00  0.00     0.054 A 
BRANCH  71  72
ATOM     72  S   UNL A   1      50.555  35.697  25.038  1.00  0.00     0.124 S 
ATOM     73  O   UNL A   1      50.513  34.342  24.495  1.00  0.00    -0.237 OA
ATOM     74  O   UNL A   1      49.944  36.728  24.202  1.00  0.00    -0.237 OA
ATOM     75  O   UNL A   1      51.816  36.077  25.669  1.00  0.00    -0.744 OA
ENDBRANCH  71  72
ENDBRANCH  52  66
BRANCH  53  76
ATOM     76  C   UNL A   1      41.437  34.243  36.347  1.00  0.00    -0.014 A 
ATOM     77  C   UNL A   1      40.045  34.131  36.170  1.00  0.00     0.010 A 
ATOM     78  C   UNL A   1      41.959  34.226  37.654  1.00  0.00     0.010 A 
ATOM     79  C   UNL A   1      39.195  34.019  37.276  1.00  0.00     0.020 A 
ATOM     80  C   UNL A   1      41.116  34.083  38.760  1.00  0.00     0.020 A 
ATOM     81  C   UNL A   1      39.737  33.989  38.564  1.00  0.00     0.054 A 
BRANCH  81  82
ATOM     82  S   UNL A   1      38.619  33.781  39.978  1.00  0.00     0.124 S 
ATOM     83  O   UNL A   1      37.384  33.351  39.331  1.00  0.00    -0.237 OA
ATOM     84  O   UNL A   1      39.307  32.766  40.773  1.00  0.00    -0.237 OA
ATOM     85  O   UNL A   1      38.581  35.112  40.582  1.00  0.00    -0.744 OA
ENDBRANCH  81  82
ENDBRANCH  53  76
BRANCH  65  86
ATOM     86  C   UNL A   1      43.923  39.814  32.946  1.00  0.00    -0.014 A 
ATOM     87  C   UNL A   1      44.765  40.615  33.739  1.00  0.00     0.010 A 
ATOM     88  C   UNL A   1      42.871  40.426  32.238  1.00  0.00     0.010 A 
ATOM     89  C   UNL A   1      44.535  41.990  33.850  1.00  0.00     0.020 A 
ATOM     90  C   UNL A   1      42.658  41.804  32.320  1.00  0.00     0.020 A 
ATOM     91  C   UNL A   1      43.483  42.576  33.140  1.00  0.00     0.054 A 
BRANCH  91  92
ATOM     92  S   UNL A   1      43.227  44.367  33.276  1.00  0.00     0.124 S 
ATOM     93  O   UNL A   1      41.889  44.440  33.857  1.00  0.00    -0.237 OA
ATOM     94  O   UNL A   1      44.317  44.780  34.155  1.00  0.00    -0.237 OA
ATOM     95  O   UNL A   1      43.332  44.839  31.896  1.00  0.00    -0.744 OA
ENDBRANCH  91  92
ENDBRANCH  65  86
ENDBRANCH  39  40
ENDBRANCH  32  34
ENDBRANCH  31  32
ENDBRANCH  30  31
ENDBRANCH  29  30
ENDBRANCH  28  29
ENDBRANCH  27  28
ENDBRANCH  26  27
ENDBRANCH  25  26
ENDBRANCH   1  25
TORSDOF 28
ENDMDL
