MODEL 1
REMARK VINA RESULT:      -7.6      0.000      0.000
REMARK SMILES C[C@@H](C(=O)OCCOCCOCCOCCOC(=O)c1ccc(-c2c3nc(c(-c4ccc(S(=O)(=O)[O-])cc4)c4ccc([nH]4)c(-c4ccc(S(=O)(=O)[O-])cc4)c4nc(c(-c5ccc(S(=O)(=O)[O-])cc5)c5ccc2[nH]5)C=C4)C=C3)cc1)c1ccc(N[C@H]2CCC[C@@H]2O)cc1F
REMARK SMILES IDX 10 1 9 2 8 3 7 4 6 5 5 6 3 7 4 8 2 9 1 10 80 11 81 12 92 13
REMARK SMILES IDX 82 14 91 15 93 16 83 17 84 18 85 20 86 21 89 22 87 23 88 24
REMARK SMILES IDX 90 25 11 27 12 28 13 29 14 30 15 31 16 32 17 33 18 34 19 35
REMARK SMILES IDX 20 36 21 37 79 38 22 39 78 40 23 41 24 42 25 43 72 44 26 45
REMARK SMILES IDX 77 46 71 47 73 48 27 49 76 50 70 51 69 52 28 54 58 55 39 56
REMARK SMILES IDX 57 57 40 58 43 59 56 60 74 61 41 62 42 63 55 65 75 66 44 67
REMARK SMILES IDX 29 68 30 69 38 70 31 71 37 72 32 73 33 74 34 75 35 76 36 77
REMARK SMILES IDX 59 78 60 79 68 80 61 81 67 82 62 83 63 84 64 85 65 86 66 87
REMARK SMILES IDX 45 88 46 89 54 90 47 91 53 92 48 93 49 94 50 95 51 96 52 97
REMARK H PARENT 84 19 90 26 73 53 43 64
REMARK Flexibility Score: inf
ROOT
ATOM      1  C   UNL A   1      45.626  17.555  43.537  1.00  0.00     0.188 C 
ENDROOT
BRANCH   1   2
ATOM      2  C   UNL A   1      46.681  17.086  44.548  1.00  0.00     0.188 C 
BRANCH   2   3
ATOM      3  O   UNL A   1      46.778  15.710  44.861  1.00  0.00    -0.376 OA
BRANCH   3   4
ATOM      4  C   UNL A   1      46.610  15.247  46.195  1.00  0.00     0.202 C 
BRANCH   4   5
ATOM      5  C   UNL A   1      47.523  14.227  46.913  1.00  0.00     0.261 C 
BRANCH   5   6
ATOM      6  O   UNL A   1      46.908  13.406  47.911  1.00  0.00    -0.463 OA
BRANCH   6   7
ATOM      7  C   UNL A   1      47.030  12.063  47.792  1.00  0.00     0.313 C 
ATOM      8  O   UNL A   1      48.098  11.461  47.853  1.00  0.00    -0.252 OA
BRANCH   7   9
ATOM      9  C   UNL A   1      45.674  11.341  47.731  1.00  0.00     0.129 C 
ATOM     10  C   UNL A   1      45.761   9.861  48.151  1.00  0.00     0.025 C 
BRANCH   9  11
ATOM     11  C   UNL A   1      44.892  11.618  46.443  1.00  0.00     0.002 A 
ATOM     12  C   UNL A   1      43.723  12.393  46.441  1.00  0.00     0.010 A 
ATOM     13  C   UNL A   1      45.242  11.040  45.221  1.00  0.00     0.129 A 
ATOM     14  C   UNL A   1      42.974  12.602  45.277  1.00  0.00     0.026 A 
ATOM     15  C   UNL A   1      44.470  11.221  44.063  1.00  0.00     0.065 A 
ATOM     16  F   UNL A   1      46.323  10.251  45.134  1.00  0.00    -0.207 F 
ATOM     17  C   UNL A   1      43.308  12.002  44.068  1.00  0.00     0.037 A 
BRANCH  17  18
ATOM     18  N   UNL A   1      42.524  12.065  42.936  1.00  0.00    -0.380 N 
ATOM     19  H   UNL A   1      42.380  11.205  42.477  1.00  0.00     0.160 HD
BRANCH  18  20
ATOM     20  C   UNL A   1      41.873  13.221  42.315  1.00  0.00     0.107 C 
ATOM     21  C   UNL A   1      42.666  14.532  42.402  1.00  0.00     0.027 C 
ATOM     22  C   UNL A   1      41.522  13.020  40.829  1.00  0.00     0.136 C 
ATOM     23  C   UNL A   1      42.657  15.131  40.994  1.00  0.00     0.005 C 
ATOM     24  C   UNL A   1      41.519  14.435  40.267  1.00  0.00     0.034 C 
BRANCH  22  25
ATOM     25  O   UNL A   1      40.235  12.429  40.670  1.00  0.00    -0.391 OA
ATOM     26  H   UNL A   1      40.330  11.552  40.267  1.00  0.00     0.211 HD
ENDBRANCH  22  25
ENDBRANCH  18  20
ENDBRANCH  17  18
ENDBRANCH   9  11
ENDBRANCH   7   9
ENDBRANCH   6   7
ENDBRANCH   5   6
ENDBRANCH   4   5
ENDBRANCH   3   4
ENDBRANCH   2   3
ENDBRANCH   1   2
BRANCH   1  27
ATOM     27  O   UNL A   1      46.131  17.890  42.260  1.00  0.00    -0.377 OA
BRANCH  27  28
ATOM     28  C   UNL A   1      45.340  18.722  41.420  1.00  0.00     0.188 C 
BRANCH  28  29
ATOM     29  C   UNL A   1      45.968  19.918  40.671  1.00  0.00     0.188 C 
BRANCH  29  30
ATOM     30  O   UNL A   1      46.052  19.771  39.260  1.00  0.00    -0.376 OA
BRANCH  30  31
ATOM     31  C   UNL A   1      46.407  20.901  38.478  1.00  0.00     0.202 C 
BRANCH  31  32
ATOM     32  C   UNL A   1      46.035  20.883  36.986  1.00  0.00     0.261 C 
BRANCH  32  33
ATOM     33  O   UNL A   1      46.551  21.957  36.186  1.00  0.00    -0.460 OA
BRANCH  33  34
ATOM     34  C   UNL A   1      46.239  21.975  34.874  1.00  0.00     0.338 C 
ATOM     35  O   UNL A   1      46.226  21.023  34.110  1.00  0.00    -0.246 OA
BRANCH  34  36
ATOM     36  C   UNL A   1      45.708  23.316  34.554  1.00  0.00     0.060 A 
ATOM     37  C   UNL A   1      44.725  23.439  33.562  1.00  0.00     0.016 A 
ATOM     38  C   UNL A   1      46.170  24.445  35.235  1.00  0.00     0.016 A 
ATOM     39  C   UNL A   1      44.232  24.698  33.219  1.00  0.00     0.010 A 
ATOM     40  C   UNL A   1      45.692  25.708  34.873  1.00  0.00     0.010 A 
ATOM     41  C   UNL A   1      44.749  25.843  33.838  1.00  0.00    -0.014 A 
BRANCH  41  42
ATOM     42  C   UNL A   1      44.467  27.181  33.262  1.00  0.00     0.031 A 
ATOM     43  C   UNL A   1      45.260  27.618  32.060  1.00  0.00     0.074 A 
ATOM     44  C   UNL A   1      43.516  27.983  33.773  1.00  0.00     0.049 A 
ATOM     45  N   UNL A   1      45.233  28.755  31.414  1.00  0.00    -0.248 NA
ATOM     46  C   UNL A   1      46.216  26.639  31.513  1.00  0.00     0.031 C 
ATOM     47  C   UNL A   1      42.645  27.655  34.901  1.00  0.00     0.029 A 
ATOM     48  N   UNL A   1      43.131  29.250  33.408  1.00  0.00    -0.354 N 
ATOM     49  C   UNL A   1      46.170  28.632  30.395  1.00  0.00     0.074 A 
ATOM     50  C   UNL A   1      46.773  27.324  30.527  1.00  0.00     0.031 C 
ATOM     51  C   UNL A   1      41.834  28.701  35.142  1.00  0.00     0.029 A 
ATOM     52  C   UNL A   1      42.155  29.785  34.214  1.00  0.00     0.049 A 
ATOM     53  H   UNL A   1      43.518  29.730  32.640  1.00  0.00     0.167 HD
ATOM     54  C   UNL A   1      46.498  29.525  29.432  1.00  0.00     0.031 A 
ATOM     55  C   UNL A   1      41.604  31.017  34.219  1.00  0.00     0.031 A 
ATOM     56  C   UNL A   1      45.910  30.832  29.315  1.00  0.00     0.049 A 
ATOM     57  C   UNL A   1      42.047  32.028  33.191  1.00  0.00     0.074 A 
ATOM     58  C   UNL A   1      46.168  31.810  28.370  1.00  0.00     0.029 A 
ATOM     59  N   UNL A   1      44.951  31.350  30.175  1.00  0.00    -0.354 N 
ATOM     60  N   UNL A   1      42.921  31.891  32.221  1.00  0.00    -0.248 NA
ATOM     61  C   UNL A   1      41.421  33.357  33.253  1.00  0.00     0.031 C 
ATOM     62  C   UNL A   1      45.416  32.942  28.698  1.00  0.00     0.029 A 
ATOM     63  C   UNL A   1      44.629  32.644  29.800  1.00  0.00     0.049 A 
ATOM     64  H   UNL A   1      44.558  30.868  30.937  1.00  0.00     0.167 HD
ATOM     65  C   UNL A   1      42.924  33.105  31.538  1.00  0.00     0.074 A 
ATOM     66  C   UNL A   1      41.956  33.957  32.198  1.00  0.00     0.031 C 
ATOM     67  C   UNL A   1      43.661  33.480  30.463  1.00  0.00     0.031 A 
BRANCH  54  68
ATOM     68  C   UNL A   1      47.571  29.131  28.450  1.00  0.00    -0.014 A 
ATOM     69  C   UNL A   1      47.252  28.520  27.224  1.00  0.00     0.010 A 
ATOM     70  C   UNL A   1      48.918  29.412  28.744  1.00  0.00     0.010 A 
ATOM     71  C   UNL A   1      48.262  28.165  26.326  1.00  0.00     0.020 A 
ATOM     72  C   UNL A   1      49.928  29.088  27.834  1.00  0.00     0.020 A 
ATOM     73  C   UNL A   1      49.595  28.453  26.637  1.00  0.00     0.054 A 
BRANCH  73  74
ATOM     74  S   UNL A   1      50.881  28.010  25.439  1.00  0.00     0.124 S 
ATOM     75  O   UNL A   1      50.132  27.209  24.473  1.00  0.00    -0.237 OA
ATOM     76  O   UNL A   1      51.331  29.314  24.958  1.00  0.00    -0.237 OA
ATOM     77  O   UNL A   1      51.859  27.270  26.234  1.00  0.00    -0.744 OA
ENDBRANCH  73  74
ENDBRANCH  54  68
BRANCH  55  78
ATOM     78  C   UNL A   1      40.591  31.377  35.252  1.00  0.00    -0.014 A 
ATOM     79  C   UNL A   1      39.292  30.840  35.209  1.00  0.00     0.010 A 
ATOM     80  C   UNL A   1      40.921  32.277  36.282  1.00  0.00     0.010 A 
ATOM     81  C   UNL A   1      38.339  31.211  36.164  1.00  0.00     0.020 A 
ATOM     82  C   UNL A   1      39.982  32.625  37.257  1.00  0.00     0.020 A 
ATOM     83  C   UNL A   1      38.691  32.097  37.185  1.00  0.00     0.054 A 
BRANCH  83  84
ATOM     84  S   UNL A   1      37.453  32.524  38.440  1.00  0.00     0.124 S 
ATOM     85  O   UNL A   1      38.164  33.507  39.249  1.00  0.00    -0.237 OA
ATOM     86  O   UNL A   1      36.354  33.045  37.629  1.00  0.00    -0.237 OA
ATOM     87  O   UNL A   1      37.180  31.249  39.100  1.00  0.00    -0.744 OA
ENDBRANCH  83  84
ENDBRANCH  55  78
BRANCH  67  88
ATOM     88  C   UNL A   1      43.421  34.855  29.893  1.00  0.00    -0.014 A 
ATOM     89  C   UNL A   1      44.203  35.959  30.278  1.00  0.00     0.010 A 
ATOM     90  C   UNL A   1      42.433  35.031  28.906  1.00  0.00     0.010 A 
ATOM     91  C   UNL A   1      43.978  37.217  29.711  1.00  0.00     0.020 A 
ATOM     92  C   UNL A   1      42.227  36.279  28.313  1.00  0.00     0.020 A 
ATOM     93  C   UNL A   1      42.992  37.368  28.731  1.00  0.00     0.054 A 
BRANCH  93  94
ATOM     94  S   UNL A   1      42.752  39.002  27.979  1.00  0.00     0.124 S 
ATOM     95  O   UNL A   1      42.888  38.704  26.556  1.00  0.00    -0.237 OA
ATOM     96  O   UNL A   1      41.407  39.362  28.421  1.00  0.00    -0.237 OA
ATOM     97  O   UNL A   1      43.826  39.809  28.551  1.00  0.00    -0.744 OA
ENDBRANCH  93  94
ENDBRANCH  67  88
ENDBRANCH  41  42
ENDBRANCH  34  36
ENDBRANCH  33  34
ENDBRANCH  32  33
ENDBRANCH  31  32
ENDBRANCH  30  31
ENDBRANCH  29  30
ENDBRANCH  28  29
ENDBRANCH  27  28
ENDBRANCH   1  27
TORSDOF 27
ENDMDL
MODEL 2
REMARK VINA RESULT:      -7.5     12.630     16.355
REMARK SMILES C[C@@H](C(=O)OCCOCCOCCOCCOC(=O)c1ccc(-c2c3nc(c(-c4ccc(S(=O)(=O)[O-])cc4)c4ccc([nH]4)c(-c4ccc(S(=O)(=O)[O-])cc4)c4nc(c(-c5ccc(S(=O)(=O)[O-])cc5)c5ccc2[nH]5)C=C4)C=C3)cc1)c1ccc(N[C@H]2CCC[C@@H]2O)cc1F
REMARK SMILES IDX 10 1 9 2 8 3 7 4 6 5 5 6 3 7 4 8 2 9 1 10 80 11 81 12 92 13
REMARK SMILES IDX 82 14 91 15 93 16 83 17 84 18 85 20 86 21 89 22 87 23 88 24
REMARK SMILES IDX 90 25 11 27 12 28 13 29 14 30 15 31 16 32 17 33 18 34 19 35
REMARK SMILES IDX 20 36 21 37 79 38 22 39 78 40 23 41 24 42 25 43 72 44 26 45
REMARK SMILES IDX 77 46 71 47 73 48 27 49 76 50 70 51 69 52 28 54 58 55 39 56
REMARK SMILES IDX 57 57 40 58 43 59 56 60 74 61 41 62 42 63 55 65 75 66 44 67
REMARK SMILES IDX 29 68 30 69 38 70 31 71 37 72 32 73 33 74 34 75 35 76 36 77
REMARK SMILES IDX 59 78 60 79 68 80 61 81 67 82 62 83 63 84 64 85 65 86 66 87
REMARK SMILES IDX 45 88 46 89 54 90 47 91 53 92 48 93 49 94 50 95 51 96 52 97
REMARK H PARENT 84 19 90 26 73 53 43 64
REMARK Flexibility Score: inf
ROOT
ATOM      1  C   UNL A   1      36.716  34.410  32.864  1.00  0.00     0.188 C 
ENDROOT
BRANCH   1   2
ATOM      2  C   UNL A   1      35.795  33.407  32.158  1.00  0.00     0.188 C 
BRANCH   2   3
ATOM      3  O   UNL A   1      35.789  33.345  30.745  1.00  0.00    -0.376 OA
BRANCH   3   4
ATOM      4  C   UNL A   1      34.842  32.545  30.048  1.00  0.00     0.202 C 
BRANCH   4   5
ATOM      5  C   UNL A   1      35.074  31.865  28.680  1.00  0.00     0.261 C 
BRANCH   5   6
ATOM      6  O   UNL A   1      33.917  31.344  28.017  1.00  0.00    -0.463 OA
BRANCH   6   7
ATOM      7  C   UNL A   1      34.029  30.150  27.388  1.00  0.00     0.313 C 
ATOM      8  O   UNL A   1      34.794  29.256  27.739  1.00  0.00    -0.252 OA
BRANCH   7   9
ATOM      9  C   UNL A   1      32.983  29.957  26.278  1.00  0.00     0.129 C 
ATOM     10  C   UNL A   1      31.794  30.928  26.397  1.00  0.00     0.025 C 
BRANCH   9  11
ATOM     11  C   UNL A   1      32.618  28.489  26.032  1.00  0.00     0.002 A 
ATOM     12  C   UNL A   1      33.150  27.766  24.954  1.00  0.00     0.010 A 
ATOM     13  C   UNL A   1      31.667  27.820  26.805  1.00  0.00     0.129 A 
ATOM     14  C   UNL A   1      32.774  26.443  24.691  1.00  0.00     0.026 A 
ATOM     15  C   UNL A   1      31.266  26.505  26.519  1.00  0.00     0.065 A 
ATOM     16  F   UNL A   1      31.075  28.444  27.834  1.00  0.00    -0.207 F 
ATOM     17  C   UNL A   1      31.807  25.788  25.445  1.00  0.00     0.037 A 
BRANCH  17  18
ATOM     18  N   UNL A   1      31.307  24.541  25.137  1.00  0.00    -0.380 N 
ATOM     19  H   UNL A   1      30.417  24.539  24.716  1.00  0.00     0.160 HD
BRANCH  18  20
ATOM     20  C   UNL A   1      31.903  23.219  25.344  1.00  0.00     0.107 C 
ATOM     21  C   UNL A   1      32.980  22.830  24.321  1.00  0.00     0.027 C 
ATOM     22  C   UNL A   1      32.533  23.027  26.736  1.00  0.00     0.136 C 
ATOM     23  C   UNL A   1      34.167  22.303  25.130  1.00  0.00     0.005 C 
ATOM     24  C   UNL A   1      33.604  21.970  26.502  1.00  0.00     0.034 C 
BRANCH  22  25
ATOM     25  O   UNL A   1      31.578  22.552  27.681  1.00  0.00    -0.391 OA
ATOM     26  H   UNL A   1      31.676  23.041  28.513  1.00  0.00     0.211 HD
ENDBRANCH  22  25
ENDBRANCH  18  20
ENDBRANCH  17  18
ENDBRANCH   9  11
ENDBRANCH   7   9
ENDBRANCH   6   7
ENDBRANCH   5   6
ENDBRANCH   4   5
ENDBRANCH   3   4
ENDBRANCH   2   3
ENDBRANCH   1   2
BRANCH   1  27
ATOM     27  O   UNL A   1      36.468  34.579  34.244  1.00  0.00    -0.377 OA
BRANCH  27  28
ATOM     28  C   UNL A   1      36.809  33.516  35.126  1.00  0.00     0.188 C 
BRANCH  28  29
ATOM     29  C   UNL A   1      37.272  33.802  36.571  1.00  0.00     0.188 C 
BRANCH  29  30
ATOM     30  O   UNL A   1      37.772  32.677  37.279  1.00  0.00    -0.376 OA
BRANCH  30  31
ATOM     31  C   UNL A   1      37.182  32.341  38.527  1.00  0.00     0.202 C 
BRANCH  31  32
ATOM     32  C   UNL A   1      37.916  32.779  39.805  1.00  0.00     0.261 C 
BRANCH  32  33
ATOM     33  O   UNL A   1      37.683  34.125  40.245  1.00  0.00    -0.460 OA
BRANCH  33  34
ATOM     34  C   UNL A   1      38.707  34.789  40.820  1.00  0.00     0.338 C 
ATOM     35  O   UNL A   1      38.907  34.937  42.014  1.00  0.00    -0.246 OA
BRANCH  34  36
ATOM     36  C   UNL A   1      39.674  35.137  39.757  1.00  0.00     0.060 A 
ATOM     37  C   UNL A   1      39.306  36.078  38.786  1.00  0.00     0.016 A 
ATOM     38  C   UNL A   1      40.939  34.546  39.725  1.00  0.00     0.016 A 
ATOM     39  C   UNL A   1      40.188  36.399  37.754  1.00  0.00     0.010 A 
ATOM     40  C   UNL A   1      41.813  34.851  38.677  1.00  0.00     0.010 A 
ATOM     41  C   UNL A   1      41.425  35.751  37.667  1.00  0.00    -0.014 A 
BRANCH  41  42
ATOM     42  C   UNL A   1      42.221  35.848  36.417  1.00  0.00     0.031 A 
ATOM     43  C   UNL A   1      41.860  34.938  35.274  1.00  0.00     0.074 A 
ATOM     44  C   UNL A   1      43.223  36.736  36.286  1.00  0.00     0.049 A 
ATOM     45  N   UNL A   1      42.436  34.801  34.108  1.00  0.00    -0.248 NA
ATOM     46  C   UNL A   1      40.692  34.062  35.475  1.00  0.00     0.031 C 
ATOM     47  C   UNL A   1      43.635  37.706  37.298  1.00  0.00     0.029 A 
ATOM     48  N   UNL A   1      44.083  36.956  35.238  1.00  0.00    -0.354 N 
ATOM     49  C   UNL A   1      41.709  33.820  33.442  1.00  0.00     0.074 A 
ATOM     50  C   UNL A   1      40.671  33.373  34.345  1.00  0.00     0.031 C 
ATOM     51  C   UNL A   1      44.678  38.412  36.825  1.00  0.00     0.029 A 
ATOM     52  C   UNL A   1      45.032  37.917  35.495  1.00  0.00     0.049 A 
ATOM     53  H   UNL A   1      44.024  36.471  34.382  1.00  0.00     0.167 HD
ATOM     54  C   UNL A   1      41.884  33.337  32.190  1.00  0.00     0.031 A 
ATOM     55  C   UNL A   1      46.081  38.328  34.753  1.00  0.00     0.031 A 
ATOM     56  C   UNL A   1      42.929  33.770  31.301  1.00  0.00     0.049 A 
ATOM     57  C   UNL A   1      46.311  37.715  33.394  1.00  0.00     0.074 A 
ATOM     58  C   UNL A   1      43.189  33.347  30.010  1.00  0.00     0.029 A 
ATOM     59  N   UNL A   1      43.893  34.718  31.613  1.00  0.00    -0.354 N 
ATOM     60  N   UNL A   1      45.603  36.801  32.770  1.00  0.00    -0.248 NA
ATOM     61  C   UNL A   1      47.476  38.193  32.636  1.00  0.00     0.031 C 
ATOM     62  C   UNL A   1      44.349  33.990  29.566  1.00  0.00     0.029 A 
ATOM     63  C   UNL A   1      44.766  34.873  30.550  1.00  0.00     0.049 A 
ATOM     64  H   UNL A   1      43.946  35.209  32.465  1.00  0.00     0.167 HD
ATOM     65  C   UNL A   1      46.220  36.622  31.534  1.00  0.00     0.074 A 
ATOM     66  C   UNL A   1      47.347  37.531  31.495  1.00  0.00     0.031 C 
ATOM     67  C   UNL A   1      45.883  35.784  30.523  1.00  0.00     0.031 A 
BRANCH  54  68
ATOM     68  C   UNL A   1      40.947  32.254  31.722  1.00  0.00    -0.014 A 
ATOM     69  C   UNL A   1      39.701  32.563  31.147  1.00  0.00     0.010 A 
ATOM     70  C   UNL A   1      41.337  30.906  31.822  1.00  0.00     0.010 A 
ATOM     71  C   UNL A   1      38.848  31.544  30.716  1.00  0.00     0.020 A 
ATOM     72  C   UNL A   1      40.501  29.885  31.363  1.00  0.00     0.020 A 
ATOM     73  C   UNL A   1      39.255  30.211  30.825  1.00  0.00     0.054 A 
BRANCH  73  74
ATOM     74  S   UNL A   1      38.140  28.911  30.228  1.00  0.00     0.124 S 
ATOM     75  O   UNL A   1      37.150  28.846  31.301  1.00  0.00    -0.237 OA
ATOM     76  O   UNL A   1      37.660  29.460  28.963  1.00  0.00    -0.237 OA
ATOM     77  O   UNL A   1      39.004  27.739  30.109  1.00  0.00    -0.744 OA
ENDBRANCH  73  74
ENDBRANCH  54  68
BRANCH  55  78
ATOM     78  C   UNL A   1      47.016  39.359  35.289  1.00  0.00    -0.014 A 
ATOM     79  C   UNL A   1      46.800  40.727  35.046  1.00  0.00     0.010 A 
ATOM     80  C   UNL A   1      48.141  38.971  36.038  1.00  0.00     0.010 A 
ATOM     81  C   UNL A   1      47.701  41.684  35.526  1.00  0.00     0.020 A 
ATOM     82  C   UNL A   1      49.027  39.925  36.547  1.00  0.00     0.020 A 
ATOM     83  C   UNL A   1      48.806  41.277  36.278  1.00  0.00     0.054 A 
BRANCH  83  84
ATOM     84  S   UNL A   1      49.934  42.540  36.930  1.00  0.00     0.124 S 
ATOM     85  O   UNL A   1      51.200  42.168  36.308  1.00  0.00    -0.237 OA
ATOM     86  O   UNL A   1      49.329  43.778  36.447  1.00  0.00    -0.237 OA
ATOM     87  O   UNL A   1      49.865  42.345  38.377  1.00  0.00    -0.744 OA
ENDBRANCH  83  84
ENDBRANCH  55  78
BRANCH  67  88
ATOM     88  C   UNL A   1      46.709  35.835  29.263  1.00  0.00    -0.014 A 
ATOM     89  C   UNL A   1      46.411  36.733  28.222  1.00  0.00     0.010 A 
ATOM     90  C   UNL A   1      47.844  35.010  29.146  1.00  0.00     0.010 A 
ATOM     91  C   UNL A   1      47.212  36.781  27.077  1.00  0.00     0.020 A 
ATOM     92  C   UNL A   1      48.666  35.078  28.019  1.00  0.00     0.020 A 
ATOM     93  C   UNL A   1      48.335  35.953  26.984  1.00  0.00     0.054 A 
BRANCH  93  94
ATOM     94  S   UNL A   1      49.382  36.066  25.507  1.00  0.00     0.124 S 
ATOM     95  O   UNL A   1      48.927  37.318  24.908  1.00  0.00    -0.237 OA
ATOM     96  O   UNL A   1      50.729  36.092  26.071  1.00  0.00    -0.237 OA
ATOM     97  O   UNL A   1      49.052  34.860  24.753  1.00  0.00    -0.744 OA
ENDBRANCH  93  94
ENDBRANCH  67  88
ENDBRANCH  41  42
ENDBRANCH  34  36
ENDBRANCH  33  34
ENDBRANCH  32  33
ENDBRANCH  31  32
ENDBRANCH  30  31
ENDBRANCH  29  30
ENDBRANCH  28  29
ENDBRANCH  27  28
ENDBRANCH   1  27
TORSDOF 27
ENDMDL
MODEL 3
REMARK VINA RESULT:      -7.0      5.327      7.769
REMARK SMILES C[C@@H](C(=O)OCCOCCOCCOCCOC(=O)c1ccc(-c2c3nc(c(-c4ccc(S(=O)(=O)[O-])cc4)c4ccc([nH]4)c(-c4ccc(S(=O)(=O)[O-])cc4)c4nc(c(-c5ccc(S(=O)(=O)[O-])cc5)c5ccc2[nH]5)C=C4)C=C3)cc1)c1ccc(N[C@H]2CCC[C@@H]2O)cc1F
REMARK SMILES IDX 10 1 9 2 8 3 7 4 6 5 5 6 3 7 4 8 2 9 1 10 80 11 81 12 92 13
REMARK SMILES IDX 82 14 91 15 93 16 83 17 84 18 85 20 86 21 89 22 87 23 88 24
REMARK SMILES IDX 90 25 11 27 12 28 13 29 14 30 15 31 16 32 17 33 18 34 19 35
REMARK SMILES IDX 20 36 21 37 79 38 22 39 78 40 23 41 24 42 25 43 72 44 26 45
REMARK SMILES IDX 77 46 71 47 73 48 27 49 76 50 70 51 69 52 28 54 58 55 39 56
REMARK SMILES IDX 57 57 40 58 43 59 56 60 74 61 41 62 42 63 55 65 75 66 44 67
REMARK SMILES IDX 29 68 30 69 38 70 31 71 37 72 32 73 33 74 34 75 35 76 36 77
REMARK SMILES IDX 59 78 60 79 68 80 61 81 67 82 62 83 63 84 64 85 65 86 66 87
REMARK SMILES IDX 45 88 46 89 54 90 47 91 53 92 48 93 49 94 50 95 51 96 52 97
REMARK H PARENT 84 19 90 26 73 53 43 64
REMARK Flexibility Score: inf
ROOT
ATOM      1  C   UNL A   1      46.677  18.019  43.750  1.00  0.00     0.188 C 
ENDROOT
BRANCH   1   2
ATOM      2  C   UNL A   1      47.460  17.281  44.843  1.00  0.00     0.188 C 
BRANCH   2   3
ATOM      3  O   UNL A   1      47.345  15.875  44.951  1.00  0.00    -0.376 OA
BRANCH   3   4
ATOM      4  C   UNL A   1      46.947  15.262  46.172  1.00  0.00     0.202 C 
BRANCH   4   5
ATOM      5  C   UNL A   1      47.378  13.859  46.654  1.00  0.00     0.261 C 
BRANCH   5   6
ATOM      6  O   UNL A   1      46.329  12.938  46.971  1.00  0.00    -0.463 OA
BRANCH   6   7
ATOM      7  C   UNL A   1      46.042  11.967  46.072  1.00  0.00     0.313 C 
ATOM      8  O   UNL A   1      46.866  11.471  45.309  1.00  0.00    -0.252 OA
BRANCH   7   9
ATOM      9  C   UNL A   1      44.609  11.429  46.207  1.00  0.00     0.129 C 
ATOM     10  C   UNL A   1      44.540   9.891  46.199  1.00  0.00     0.025 C 
BRANCH   9  11
ATOM     11  C   UNL A   1      43.601  12.141  45.299  1.00  0.00     0.002 A 
ATOM     12  C   UNL A   1      43.186  11.588  44.079  1.00  0.00     0.010 A 
ATOM     13  C   UNL A   1      43.113  13.418  45.586  1.00  0.00     0.129 A 
ATOM     14  C   UNL A   1      42.311  12.261  43.218  1.00  0.00     0.026 A 
ATOM     15  C   UNL A   1      42.263  14.106  44.706  1.00  0.00     0.065 A 
ATOM     16  F   UNL A   1      43.484  14.044  46.713  1.00  0.00    -0.207 F 
ATOM     17  C   UNL A   1      41.849  13.543  43.493  1.00  0.00     0.037 A 
BRANCH  17  18
ATOM     18  N   UNL A   1      41.102  14.296  42.612  1.00  0.00    -0.380 N 
ATOM     19  H   UNL A   1      40.143  14.364  42.826  1.00  0.00     0.160 HD
BRANCH  18  20
ATOM     20  C   UNL A   1      41.524  15.009  41.403  1.00  0.00     0.107 C 
ATOM     21  C   UNL A   1      42.501  16.168  41.646  1.00  0.00     0.027 C 
ATOM     22  C   UNL A   1      42.173  14.107  40.338  1.00  0.00     0.136 C 
ATOM     23  C   UNL A   1      43.636  15.989  40.635  1.00  0.00     0.005 C 
ATOM     24  C   UNL A   1      43.084  15.056  39.571  1.00  0.00     0.034 C 
BRANCH  22  25
ATOM     25  O   UNL A   1      41.198  13.550  39.459  1.00  0.00    -0.391 OA
ATOM     26  H   UNL A   1      41.542  13.552  38.553  1.00  0.00     0.211 HD
ENDBRANCH  22  25
ENDBRANCH  18  20
ENDBRANCH  17  18
ENDBRANCH   9  11
ENDBRANCH   7   9
ENDBRANCH   6   7
ENDBRANCH   5   6
ENDBRANCH   4   5
ENDBRANCH   3   4
ENDBRANCH   2   3
ENDBRANCH   1   2
BRANCH   1  27
ATOM     27  O   UNL A   1      47.432  18.371  42.609  1.00  0.00    -0.377 OA
BRANCH  27  28
ATOM     28  C   UNL A   1      46.740  18.865  41.468  1.00  0.00     0.188 C 
BRANCH  28  29
ATOM     29  C   UNL A   1      47.505  19.528  40.303  1.00  0.00     0.188 C 
BRANCH  29  30
ATOM     30  O   UNL A   1      46.990  19.254  39.008  1.00  0.00    -0.376 OA
BRANCH  30  31
ATOM     31  C   UNL A   1      47.788  19.572  37.876  1.00  0.00     0.202 C 
BRANCH  31  32
ATOM     32  C   UNL A   1      47.064  20.022  36.597  1.00  0.00     0.261 C 
BRANCH  32  33
ATOM     33  O   UNL A   1      47.586  21.190  35.945  1.00  0.00    -0.460 OA
BRANCH  33  34
ATOM     34  C   UNL A   1      46.770  21.867  35.111  1.00  0.00     0.338 C 
ATOM     35  O   UNL A   1      46.278  21.456  34.073  1.00  0.00    -0.246 OA
BRANCH  34  36
ATOM     36  C   UNL A   1      46.398  23.135  35.773  1.00  0.00     0.060 A 
ATOM     37  C   UNL A   1      45.377  23.127  36.733  1.00  0.00     0.016 A 
ATOM     38  C   UNL A   1      47.061  24.323  35.458  1.00  0.00     0.016 A 
ATOM     39  C   UNL A   1      44.985  24.316  37.348  1.00  0.00     0.010 A 
ATOM     40  C   UNL A   1      46.652  25.518  36.057  1.00  0.00     0.010 A 
ATOM     41  C   UNL A   1      45.587  25.524  36.977  1.00  0.00    -0.014 A 
BRANCH  41  42
ATOM     42  C   UNL A   1      44.967  26.810  37.383  1.00  0.00     0.031 A 
ATOM     43  C   UNL A   1      43.923  27.412  36.481  1.00  0.00     0.074 A 
ATOM     44  C   UNL A   1      45.300  27.421  38.535  1.00  0.00     0.049 A 
ATOM     45  N   UNL A   1      43.280  28.545  36.594  1.00  0.00    -0.248 NA
ATOM     46  C   UNL A   1      43.557  26.628  35.288  1.00  0.00     0.031 C 
ATOM     47  C   UNL A   1      46.256  26.916  39.519  1.00  0.00     0.029 A 
ATOM     48  N   UNL A   1      44.869  28.612  39.065  1.00  0.00    -0.354 N 
ATOM     49  C   UNL A   1      42.444  28.615  35.485  1.00  0.00     0.074 A 
ATOM     50  C   UNL A   1      42.683  27.427  34.695  1.00  0.00     0.031 C 
ATOM     51  C   UNL A   1      46.347  27.799  40.529  1.00  0.00     0.029 A 
ATOM     52  C   UNL A   1      45.488  28.948  40.246  1.00  0.00     0.049 A 
ATOM     53  H   UNL A   1      44.180  29.174  38.639  1.00  0.00     0.167 HD
ATOM     54  C   UNL A   1      41.551  29.578  35.155  1.00  0.00     0.031 A 
ATOM     55  C   UNL A   1      45.392  30.065  40.995  1.00  0.00     0.031 A 
ATOM     56  C   UNL A   1      41.329  30.767  35.933  1.00  0.00     0.049 A 
ATOM     57  C   UNL A   1      44.457  31.167  40.563  1.00  0.00     0.074 A 
ATOM     58  C   UNL A   1      40.443  31.801  35.688  1.00  0.00     0.029 A 
ATOM     59  N   UNL A   1      42.004  31.087  37.103  1.00  0.00    -0.354 N 
ATOM     60  N   UNL A   1      43.657  31.210  39.523  1.00  0.00    -0.248 NA
ATOM     61  C   UNL A   1      44.403  32.366  41.412  1.00  0.00     0.031 C 
ATOM     62  C   UNL A   1      40.629  32.777  36.673  1.00  0.00     0.029 A 
ATOM     63  C   UNL A   1      41.575  32.315  37.575  1.00  0.00     0.049 A 
ATOM     64  H   UNL A   1      42.685  30.522  37.533  1.00  0.00     0.167 HD
ATOM     65  C   UNL A   1      42.983  32.426  39.612  1.00  0.00     0.074 A 
ATOM     66  C   UNL A   1      43.458  33.078  40.815  1.00  0.00     0.031 C 
ATOM     67  C   UNL A   1      42.054  32.953  38.776  1.00  0.00     0.031 A 
BRANCH  54  68
ATOM     68  C   UNL A   1      40.777  29.402  33.876  1.00  0.00    -0.014 A 
ATOM     69  C   UNL A   1      39.378  29.257  33.881  1.00  0.00     0.010 A 
ATOM     70  C   UNL A   1      41.457  29.422  32.643  1.00  0.00     0.010 A 
ATOM     71  C   UNL A   1      38.678  29.100  32.682  1.00  0.00     0.020 A 
ATOM     72  C   UNL A   1      40.757  29.297  31.441  1.00  0.00     0.020 A 
ATOM     73  C   UNL A   1      39.372  29.122  31.469  1.00  0.00     0.054 A 
BRANCH  73  74
ATOM     74  S   UNL A   1      38.434  28.947  29.927  1.00  0.00     0.124 S 
ATOM     75  O   UNL A   1      38.789  27.592  29.510  1.00  0.00    -0.237 OA
ATOM     76  O   UNL A   1      37.054  29.125  30.372  1.00  0.00    -0.237 OA
ATOM     77  O   UNL A   1      38.956  30.015  29.078  1.00  0.00    -0.744 OA
ENDBRANCH  73  74
ENDBRANCH  54  68
BRANCH  55  78
ATOM     78  C   UNL A   1      46.228  30.216  42.221  1.00  0.00    -0.014 A 
ATOM     79  C   UNL A   1      47.513  30.784  42.155  1.00  0.00     0.010 A 
ATOM     80  C   UNL A   1      45.742  29.776  43.466  1.00  0.00     0.010 A 
ATOM     81  C   UNL A   1      48.301  30.891  43.306  1.00  0.00     0.020 A 
ATOM     82  C   UNL A   1      46.513  29.911  44.624  1.00  0.00     0.020 A 
ATOM     83  C   UNL A   1      47.794  30.458  44.534  1.00  0.00     0.054 A 
BRANCH  83  84
ATOM     84  S   UNL A   1      48.817  30.652  46.020  1.00  0.00     0.124 S 
ATOM     85  O   UNL A   1      50.141  30.283  45.530  1.00  0.00    -0.237 OA
ATOM     86  O   UNL A   1      48.632  32.065  46.344  1.00  0.00    -0.237 OA
ATOM     87  O   UNL A   1      48.218  29.718  46.972  1.00  0.00    -0.744 OA
ENDBRANCH  83  84
ENDBRANCH  55  78
BRANCH  67  88
ATOM     88  C   UNL A   1      41.447  34.282  39.149  1.00  0.00    -0.014 A 
ATOM     89  C   UNL A   1      40.297  34.367  39.954  1.00  0.00     0.010 A 
ATOM     90  C   UNL A   1      42.079  35.470  38.736  1.00  0.00     0.010 A 
ATOM     91  C   UNL A   1      39.772  35.613  40.309  1.00  0.00     0.020 A 
ATOM     92  C   UNL A   1      41.577  36.717  39.116  1.00  0.00     0.020 A 
ATOM     93  C   UNL A   1      40.418  36.780  39.889  1.00  0.00     0.054 A 
BRANCH  93  94
ATOM     94  S   UNL A   1      39.741  38.384  40.401  1.00  0.00     0.124 S 
ATOM     95  O   UNL A   1      38.552  38.494  39.561  1.00  0.00    -0.237 OA
ATOM     96  O   UNL A   1      39.489  38.184  41.826  1.00  0.00    -0.237 OA
ATOM     97  O   UNL A   1      40.812  39.328  40.090  1.00  0.00    -0.744 OA
ENDBRANCH  93  94
ENDBRANCH  67  88
ENDBRANCH  41  42
ENDBRANCH  34  36
ENDBRANCH  33  34
ENDBRANCH  32  33
ENDBRANCH  31  32
ENDBRANCH  30  31
ENDBRANCH  29  30
ENDBRANCH  28  29
ENDBRANCH  27  28
ENDBRANCH   1  27
TORSDOF 27
ENDMDL
