MODEL 1
REMARK VINA RESULT:      -8.2      0.000      0.000
REMARK SMILES COc1ccc(/C=C(\Sc2nc(C)n[nH]2)C(=O)OCCOCCOCCOCCOC(=O)c2ccc(-c3c4nc(c(-c5ccc(S(=O)(=O)[O-])cc5)c5ccc([nH]5)c(-c5ccc(S(=O)(=O)[O-])cc5)c5nc(c(-c6ccc(S(=O)(=O)[O-])cc6)c6ccc3[nH]6)C=C5)C=C4)cc2)c(OC)c1
REMARK SMILES IDX 25 1 24 2 23 3 22 4 21 5 20 6 19 7 18 8 16 9 17 10 8 11 7 12
REMARK SMILES IDX 6 13 3 14 4 15 96 16 5 17 93 18 2 19 1 20 94 21 95 22 9 23
REMARK SMILES IDX 10 24 11 25 15 26 12 27 14 28 13 30 26 31 27 32 28 33 29 34
REMARK SMILES IDX 30 35 31 36 32 37 33 38 34 39 92 40 35 41 91 42 36 43 37 44
REMARK SMILES IDX 38 45 85 46 39 47 90 48 84 49 86 50 40 51 89 52 83 53 82 54
REMARK SMILES IDX 41 56 71 57 52 58 70 59 53 60 56 61 69 62 87 63 54 64 55 65
REMARK SMILES IDX 68 67 88 68 57 69 42 70 43 71 51 72 44 73 50 74 45 75 46 76
REMARK SMILES IDX 47 77 48 78 49 79 72 80 73 81 81 82 74 83 80 84 75 85 76 86
REMARK SMILES IDX 77 87 78 88 79 89 58 90 59 91 67 92 60 93 66 94 61 95 62 96
REMARK SMILES IDX 63 97 64 98 65 99
REMARK H PARENT 15 29 86 55 56 66
REMARK Flexibility Score: inf
ROOT
ATOM      1  C   UNL A   1      44.245  21.162  24.941  1.00  0.00     0.188 C 
ENDROOT
BRANCH   1   2
ATOM      2  O   UNL A   1      42.889  20.993  25.343  1.00  0.00    -0.377 OA
BRANCH   2   3
ATOM      3  C   UNL A   1      42.626  21.303  26.701  1.00  0.00     0.188 C 
BRANCH   3   4
ATOM      4  C   UNL A   1      41.325  20.678  27.261  1.00  0.00     0.188 C 
BRANCH   4   5
ATOM      5  O   UNL A   1      40.077  21.369  27.243  1.00  0.00    -0.376 OA
BRANCH   5   6
ATOM      6  C   UNL A   1      39.525  21.843  26.024  1.00  0.00     0.202 C 
BRANCH   6   7
ATOM      7  C   UNL A   1      38.311  21.127  25.417  1.00  0.00     0.261 C 
BRANCH   7   8
ATOM      8  O   UNL A   1      37.043  21.635  25.840  1.00  0.00    -0.459 OA
BRANCH   8   9
ATOM      9  C   UNL A   1      36.602  22.771  25.246  1.00  0.00     0.345 C 
ATOM     10  O   UNL A   1      37.278  23.551  24.586  1.00  0.00    -0.246 OA
BRANCH   9  11
ATOM     11  C   UNL A   1      35.106  22.894  25.416  1.00  0.00     0.101 C 
ATOM     12  C   UNL A   1      34.554  23.782  24.557  1.00  0.00     0.035 C 
BRANCH  12  13
ATOM     13  C   UNL A   1      33.190  24.313  24.337  1.00  0.00     0.018 A 
ATOM     14  C   UNL A   1      31.037  25.882  23.524  1.00  0.00     0.122 A 
ATOM     15  C   UNL A   1      31.468  25.933  24.843  1.00  0.00     0.047 A 
ATOM     16  C   UNL A   1      31.507  24.890  22.679  1.00  0.00     0.093 A 
ATOM     17  C   UNL A   1      32.529  25.121  25.259  1.00  0.00     0.016 A 
ATOM     18  C   UNL A   1      32.530  24.049  23.119  1.00  0.00     0.129 A 
BRANCH  14  19
ATOM     19  O   UNL A   1      30.317  26.916  22.998  1.00  0.00    -0.497 OA
ATOM     20  C   UNL A   1      30.413  28.093  23.786  1.00  0.00     0.278 C 
ENDBRANCH  14  19
BRANCH  18  21
ATOM     21  O   UNL A   1      32.955  23.001  22.335  1.00  0.00    -0.496 OA
ATOM     22  C   UNL A   1      32.269  21.782  22.654  1.00  0.00     0.278 C 
ENDBRANCH  18  21
ENDBRANCH  12  13
BRANCH  11  23
ATOM     23  S   UNL A   1      34.489  21.802  26.606  1.00  0.00    -0.043 SA
BRANCH  23  24
ATOM     24  C   UNL A   1      33.819  20.470  25.779  1.00  0.00     0.188 A 
ATOM     25  N   UNL A   1      34.424  19.763  24.856  1.00  0.00    -0.206 NA
ATOM     26  N   UNL A   1      32.626  19.902  26.087  1.00  0.00    -0.254 N 
ATOM     27  C   UNL A   1      33.514  18.778  24.578  1.00  0.00     0.148 A 
ATOM     28  N   UNL A   1      32.406  18.805  25.335  1.00  0.00    -0.158 NA
ATOM     29  H   UNL A   1      32.004  20.245  26.769  1.00  0.00     0.192 HD
ATOM     30  C   UNL A   1      33.724  17.823  23.472  1.00  0.00     0.092 C 
ENDBRANCH  23  24
ENDBRANCH  11  23
ENDBRANCH   9  11
ENDBRANCH   8   9
ENDBRANCH   7   8
ENDBRANCH   6   7
ENDBRANCH   5   6
ENDBRANCH   4   5
ENDBRANCH   3   4
ENDBRANCH   2   3
ENDBRANCH   1   2
BRANCH   1  31
ATOM     31  C   UNL A   1      44.524  22.155  23.788  1.00  0.00     0.188 C 
BRANCH  31  32
ATOM     32  O   UNL A   1      45.236  23.328  24.182  1.00  0.00    -0.376 OA
BRANCH  32  33
ATOM     33  C   UNL A   1      46.222  23.239  25.200  1.00  0.00     0.202 C 
BRANCH  33  34
ATOM     34  C   UNL A   1      46.623  24.588  25.791  1.00  0.00     0.261 C 
BRANCH  34  35
ATOM     35  O   UNL A   1      45.676  25.610  25.519  1.00  0.00    -0.460 OA
BRANCH  35  36
ATOM     36  C   UNL A   1      45.080  26.157  26.583  1.00  0.00     0.338 C 
ATOM     37  O   UNL A   1      44.539  25.560  27.527  1.00  0.00    -0.246 OA
BRANCH  36  38
ATOM     38  C   UNL A   1      45.079  27.604  26.437  1.00  0.00     0.060 A 
ATOM     39  C   UNL A   1      46.133  28.282  27.053  1.00  0.00     0.016 A 
ATOM     40  C   UNL A   1      43.887  28.241  26.051  1.00  0.00     0.016 A 
ATOM     41  C   UNL A   1      45.861  29.510  27.593  1.00  0.00     0.010 A 
ATOM     42  C   UNL A   1      43.611  29.458  26.605  1.00  0.00     0.010 A 
ATOM     43  C   UNL A   1      44.560  30.001  27.468  1.00  0.00    -0.014 A 
BRANCH  43  44
ATOM     44  C   UNL A   1      44.164  31.059  28.362  1.00  0.00     0.031 A 
ATOM     45  C   UNL A   1      44.954  32.291  28.216  1.00  0.00     0.074 A 
ATOM     46  C   UNL A   1      43.083  30.905  29.149  1.00  0.00     0.049 A 
ATOM     47  N   UNL A   1      45.674  32.890  29.103  1.00  0.00    -0.248 NA
ATOM     48  C   UNL A   1      45.068  32.844  26.856  1.00  0.00     0.031 C 
ATOM     49  C   UNL A   1      42.091  29.821  29.108  1.00  0.00     0.029 A 
ATOM     50  N   UNL A   1      42.558  31.771  30.051  1.00  0.00    -0.354 N 
ATOM     51  C   UNL A   1      46.174  34.015  28.461  1.00  0.00     0.074 A 
ATOM     52  C   UNL A   1      45.933  33.835  27.053  1.00  0.00     0.031 C 
ATOM     53  C   UNL A   1      40.974  30.224  29.753  1.00  0.00     0.029 A 
ATOM     54  C   UNL A   1      41.223  31.528  30.344  1.00  0.00     0.049 A 
ATOM     55  H   UNL A   1      43.075  32.502  30.461  1.00  0.00     0.167 HD
ATOM     56  C   UNL A   1      46.503  35.142  29.143  1.00  0.00     0.031 A 
ATOM     57  C   UNL A   1      40.361  32.401  30.920  1.00  0.00     0.031 A 
ATOM     58  C   UNL A   1      46.707  34.891  30.544  1.00  0.00     0.049 A 
ATOM     59  C   UNL A   1      41.173  33.456  31.578  1.00  0.00     0.074 A 
ATOM     60  C   UNL A   1      47.587  34.109  31.264  1.00  0.00     0.029 A 
ATOM     61  N   UNL A   1      45.676  35.202  31.398  1.00  0.00    -0.354 N 
ATOM     62  N   UNL A   1      41.959  33.237  32.596  1.00  0.00    -0.248 NA
ATOM     63  C   UNL A   1      41.449  34.680  30.840  1.00  0.00     0.031 C 
ATOM     64  C   UNL A   1      46.840  33.637  32.381  1.00  0.00     0.029 A 
ATOM     65  C   UNL A   1      45.554  34.175  32.302  1.00  0.00     0.049 A 
ATOM     66  H   UNL A   1      45.123  36.016  31.369  1.00  0.00     0.167 HD
ATOM     67  C   UNL A   1      43.061  34.058  32.390  1.00  0.00     0.074 A 
ATOM     68  C   UNL A   1      42.636  35.004  31.363  1.00  0.00     0.031 C 
ATOM     69  C   UNL A   1      44.296  33.719  32.865  1.00  0.00     0.031 A 
BRANCH  56  70
ATOM     70  C   UNL A   1      46.231  36.513  28.583  1.00  0.00    -0.014 A 
ATOM     71  C   UNL A   1      47.297  37.263  28.056  1.00  0.00     0.010 A 
ATOM     72  C   UNL A   1      45.014  37.197  28.810  1.00  0.00     0.010 A 
ATOM     73  C   UNL A   1      47.167  38.639  27.831  1.00  0.00     0.020 A 
ATOM     74  C   UNL A   1      44.858  38.554  28.540  1.00  0.00     0.020 A 
ATOM     75  C   UNL A   1      45.952  39.276  28.092  1.00  0.00     0.054 A 
BRANCH  75  76
ATOM     76  S   UNL A   1      45.834  41.073  27.940  1.00  0.00     0.124 S 
ATOM     77  O   UNL A   1      45.566  41.470  29.320  1.00  0.00    -0.237 OA
ATOM     78  O   UNL A   1      47.151  41.428  27.420  1.00  0.00    -0.237 OA
ATOM     79  O   UNL A   1      44.728  41.265  27.006  1.00  0.00    -0.744 OA
ENDBRANCH  75  76
ENDBRANCH  56  70
BRANCH  57  80
ATOM     80  C   UNL A   1      38.919  32.555  30.603  1.00  0.00    -0.014 A 
ATOM     81  C   UNL A   1      37.945  32.553  31.616  1.00  0.00     0.010 A 
ATOM     82  C   UNL A   1      38.515  32.948  29.307  1.00  0.00     0.010 A 
ATOM     83  C   UNL A   1      36.629  32.970  31.351  1.00  0.00     0.020 A 
ATOM     84  C   UNL A   1      37.205  33.350  29.033  1.00  0.00     0.020 A 
ATOM     85  C   UNL A   1      36.270  33.379  30.063  1.00  0.00     0.054 A 
BRANCH  85  86
ATOM     86  S   UNL A   1      34.613  34.056  29.762  1.00  0.00     0.124 S 
ATOM     87  O   UNL A   1      34.816  34.845  28.551  1.00  0.00    -0.237 OA
ATOM     88  O   UNL A   1      33.802  32.852  29.606  1.00  0.00    -0.237 OA
ATOM     89  O   UNL A   1      34.334  34.834  30.968  1.00  0.00    -0.744 OA
ENDBRANCH  85  86
ENDBRANCH  57  80
BRANCH  69  90
ATOM     90  C   UNL A   1      44.390  32.581  33.859  1.00  0.00    -0.014 A 
ATOM     91  C   UNL A   1      44.358  32.777  35.254  1.00  0.00     0.010 A 
ATOM     92  C   UNL A   1      44.322  31.266  33.367  1.00  0.00     0.010 A 
ATOM     93  C   UNL A   1      44.267  31.686  36.132  1.00  0.00     0.020 A 
ATOM     94  C   UNL A   1      44.215  30.175  34.236  1.00  0.00     0.020 A 
ATOM     95  C   UNL A   1      44.190  30.390  35.615  1.00  0.00     0.054 A 
BRANCH  95  96
ATOM     96  S   UNL A   1      43.980  28.991  36.753  1.00  0.00     0.124 S 
ATOM     97  O   UNL A   1      44.410  29.552  38.030  1.00  0.00    -0.237 OA
ATOM     98  O   UNL A   1      42.553  28.694  36.645  1.00  0.00    -0.237 OA
ATOM     99  O   UNL A   1      44.860  27.959  36.203  1.00  0.00    -0.744 OA
ENDBRANCH  95  96
ENDBRANCH  69  90
ENDBRANCH  43  44
ENDBRANCH  36  38
ENDBRANCH  35  36
ENDBRANCH  34  35
ENDBRANCH  33  34
ENDBRANCH  32  33
ENDBRANCH  31  32
ENDBRANCH   1  31
TORSDOF 28
ENDMDL
MODEL 2
REMARK VINA RESULT:      -7.7      5.558     14.645
REMARK SMILES COc1ccc(/C=C(\Sc2nc(C)n[nH]2)C(=O)OCCOCCOCCOCCOC(=O)c2ccc(-c3c4nc(c(-c5ccc(S(=O)(=O)[O-])cc5)c5ccc([nH]5)c(-c5ccc(S(=O)(=O)[O-])cc5)c5nc(c(-c6ccc(S(=O)(=O)[O-])cc6)c6ccc3[nH]6)C=C5)C=C4)cc2)c(OC)c1
REMARK SMILES IDX 25 1 24 2 23 3 22 4 21 5 20 6 19 7 18 8 16 9 17 10 8 11 7 12
REMARK SMILES IDX 6 13 3 14 4 15 96 16 5 17 93 18 2 19 1 20 94 21 95 22 9 23
REMARK SMILES IDX 10 24 11 25 15 26 12 27 14 28 13 30 26 31 27 32 28 33 29 34
REMARK SMILES IDX 30 35 31 36 32 37 33 38 34 39 92 40 35 41 91 42 36 43 37 44
REMARK SMILES IDX 38 45 85 46 39 47 90 48 84 49 86 50 40 51 89 52 83 53 82 54
REMARK SMILES IDX 41 56 71 57 52 58 70 59 53 60 56 61 69 62 87 63 54 64 55 65
REMARK SMILES IDX 68 67 88 68 57 69 42 70 43 71 51 72 44 73 50 74 45 75 46 76
REMARK SMILES IDX 47 77 48 78 49 79 72 80 73 81 81 82 74 83 80 84 75 85 76 86
REMARK SMILES IDX 77 87 78 88 79 89 58 90 59 91 67 92 60 93 66 94 61 95 62 96
REMARK SMILES IDX 63 97 64 98 65 99
REMARK H PARENT 15 29 86 55 56 66
REMARK Flexibility Score: inf
ROOT
ATOM      1  C   UNL A   1      35.094  35.466  33.054  1.00  0.00     0.188 C 
ENDROOT
BRANCH   1   2
ATOM      2  O   UNL A   1      35.247  34.598  34.174  1.00  0.00    -0.377 OA
BRANCH   2   3
ATOM      3  C   UNL A   1      36.535  34.023  34.312  1.00  0.00     0.188 C 
BRANCH   3   4
ATOM      4  C   UNL A   1      36.621  32.536  33.891  1.00  0.00     0.188 C 
BRANCH   4   5
ATOM      5  O   UNL A   1      37.584  31.641  34.445  1.00  0.00    -0.376 OA
BRANCH   5   6
ATOM      6  C   UNL A   1      38.442  32.053  35.497  1.00  0.00     0.202 C 
BRANCH   6   7
ATOM      7  C   UNL A   1      37.987  31.881  36.953  1.00  0.00     0.261 C 
BRANCH   7   8
ATOM      8  O   UNL A   1      38.951  32.281  37.931  1.00  0.00    -0.459 OA
BRANCH   8   9
ATOM      9  C   UNL A   1      39.020  33.603  38.227  1.00  0.00     0.345 C 
ATOM     10  O   UNL A   1      38.770  34.528  37.464  1.00  0.00    -0.246 OA
BRANCH   9  11
ATOM     11  C   UNL A   1      39.344  33.786  39.691  1.00  0.00     0.101 C 
ATOM     12  C   UNL A   1      39.922  34.982  39.951  1.00  0.00     0.035 C 
BRANCH  12  13
ATOM     13  C   UNL A   1      40.476  35.632  41.160  1.00  0.00     0.018 A 
ATOM     14  C   UNL A   1      41.085  36.277  43.801  1.00  0.00     0.122 A 
ATOM     15  C   UNL A   1      40.183  37.057  43.091  1.00  0.00     0.047 A 
ATOM     16  C   UNL A   1      41.858  35.336  43.141  1.00  0.00     0.093 A 
ATOM     17  C   UNL A   1      39.901  36.753  41.754  1.00  0.00     0.016 A 
ATOM     18  C   UNL A   1      41.606  35.073  41.793  1.00  0.00     0.129 A 
BRANCH  14  19
ATOM     19  O   UNL A   1      41.069  36.283  45.166  1.00  0.00    -0.497 OA
ATOM     20  C   UNL A   1      41.143  34.974  45.711  1.00  0.00     0.278 C 
ENDBRANCH  14  19
BRANCH  18  21
ATOM     21  O   UNL A   1      42.414  34.210  41.090  1.00  0.00    -0.496 OA
ATOM     22  C   UNL A   1      42.590  32.963  41.777  1.00  0.00     0.278 C 
ENDBRANCH  18  21
ENDBRANCH  12  13
BRANCH  11  23
ATOM     23  S   UNL A   1      38.809  32.454  40.654  1.00  0.00    -0.043 SA
BRANCH  23  24
ATOM     24  C   UNL A   1      37.107  32.418  40.578  1.00  0.00     0.188 A 
ATOM     25  N   UNL A   1      36.306  33.365  41.002  1.00  0.00    -0.206 NA
ATOM     26  N   UNL A   1      36.391  31.459  39.940  1.00  0.00    -0.254 N 
ATOM     27  C   UNL A   1      35.067  32.903  40.642  1.00  0.00     0.148 A 
ATOM     28  N   UNL A   1      35.073  31.749  39.957  1.00  0.00    -0.158 NA
ATOM     29  H   UNL A   1      36.780  30.659  39.519  1.00  0.00     0.192 HD
ATOM     30  C   UNL A   1      33.833  33.599  41.059  1.00  0.00     0.092 C 
ENDBRANCH  23  24
ENDBRANCH  11  23
ENDBRANCH   9  11
ENDBRANCH   8   9
ENDBRANCH   7   8
ENDBRANCH   6   7
ENDBRANCH   5   6
ENDBRANCH   4   5
ENDBRANCH   3   4
ENDBRANCH   2   3
ENDBRANCH   1   2
BRANCH   1  31
ATOM     31  C   UNL A   1      33.673  35.615  32.462  1.00  0.00     0.188 C 
BRANCH  31  32
ATOM     32  O   UNL A   1      33.376  34.696  31.410  1.00  0.00    -0.376 OA
BRANCH  32  33
ATOM     33  C   UNL A   1      34.422  34.235  30.568  1.00  0.00     0.202 C 
BRANCH  33  34
ATOM     34  C   UNL A   1      34.755  32.756  30.752  1.00  0.00     0.261 C 
BRANCH  34  35
ATOM     35  O   UNL A   1      35.767  32.306  29.863  1.00  0.00    -0.460 OA
BRANCH  35  36
ATOM     36  C   UNL A   1      35.353  31.580  28.820  1.00  0.00     0.338 C 
ATOM     37  O   UNL A   1      34.392  31.822  28.074  1.00  0.00    -0.246 OA
BRANCH  36  38
ATOM     38  C   UNL A   1      36.166  30.377  28.724  1.00  0.00     0.060 A 
ATOM     39  C   UNL A   1      36.454  29.735  29.930  1.00  0.00     0.016 A 
ATOM     40  C   UNL A   1      36.903  30.157  27.549  1.00  0.00     0.016 A 
ATOM     41  C   UNL A   1      37.683  29.143  30.048  1.00  0.00     0.010 A 
ATOM     42  C   UNL A   1      38.136  29.581  27.673  1.00  0.00     0.010 A 
ATOM     43  C   UNL A   1      38.543  29.205  28.950  1.00  0.00    -0.014 A 
BRANCH  43  44
ATOM     44  C   UNL A   1      39.943  28.967  29.193  1.00  0.00     0.031 A 
ATOM     45  C   UNL A   1      40.280  28.785  30.613  1.00  0.00     0.074 A 
ATOM     46  C   UNL A   1      40.790  28.816  28.157  1.00  0.00     0.049 A 
ATOM     47  N   UNL A   1      41.088  29.481  31.339  1.00  0.00    -0.248 NA
ATOM     48  C   UNL A   1      39.497  27.782  31.354  1.00  0.00     0.031 C 
ATOM     49  C   UNL A   1      40.448  28.685  26.733  1.00  0.00     0.029 A 
ATOM     50  N   UNL A   1      42.127  28.594  28.177  1.00  0.00    -0.354 N 
ATOM     51  C   UNL A   1      41.066  28.871  32.587  1.00  0.00     0.074 A 
ATOM     52  C   UNL A   1      39.945  27.969  32.592  1.00  0.00     0.031 C 
ATOM     53  C   UNL A   1      41.505  28.156  26.077  1.00  0.00     0.029 A 
ATOM     54  C   UNL A   1      42.615  28.030  27.007  1.00  0.00     0.049 A 
ATOM     55  H   UNL A   1      42.698  28.811  28.949  1.00  0.00     0.167 HD
ATOM     56  C   UNL A   1      42.126  28.938  33.434  1.00  0.00     0.031 A 
ATOM     57  C   UNL A   1      43.803  27.394  26.862  1.00  0.00     0.031 A 
ATOM     58  C   UNL A   1      43.013  30.022  33.113  1.00  0.00     0.049 A 
ATOM     59  C   UNL A   1      44.660  27.790  28.008  1.00  0.00     0.074 A 
ATOM     60  C   UNL A   1      42.877  31.394  33.059  1.00  0.00     0.029 A 
ATOM     61  N   UNL A   1      44.156  29.716  32.412  1.00  0.00    -0.354 N 
ATOM     62  N   UNL A   1      45.096  29.005  28.203  1.00  0.00    -0.248 NA
ATOM     63  C   UNL A   1      44.685  26.933  29.184  1.00  0.00     0.031 C 
ATOM     64  C   UNL A   1      43.703  31.808  31.975  1.00  0.00     0.029 A 
ATOM     65  C   UNL A   1      44.323  30.676  31.443  1.00  0.00     0.049 A 
ATOM     66  H   UNL A   1      44.749  28.948  32.574  1.00  0.00     0.167 HD
ATOM     67  C   UNL A   1      45.065  29.188  29.579  1.00  0.00     0.074 A 
ATOM     68  C   UNL A   1      44.919  27.845  30.133  1.00  0.00     0.031 C 
ATOM     69  C   UNL A   1      44.880  30.426  30.126  1.00  0.00     0.031 A 
BRANCH  56  70
ATOM     70  C   UNL A   1      42.534  27.763  34.283  1.00  0.00    -0.014 A 
ATOM     71  C   UNL A   1      42.675  27.935  35.671  1.00  0.00     0.010 A 
ATOM     72  C   UNL A   1      43.048  26.568  33.728  1.00  0.00     0.010 A 
ATOM     73  C   UNL A   1      43.356  26.990  36.448  1.00  0.00     0.020 A 
ATOM     74  C   UNL A   1      43.680  25.597  34.500  1.00  0.00     0.020 A 
ATOM     75  C   UNL A   1      43.869  25.836  35.851  1.00  0.00     0.054 A 
BRANCH  75  76
ATOM     76  S   UNL A   1      44.871  24.693  36.828  1.00  0.00     0.124 S 
ATOM     77  O   UNL A   1      44.285  24.847  38.157  1.00  0.00    -0.237 OA
ATOM     78  O   UNL A   1      44.621  23.416  36.166  1.00  0.00    -0.237 OA
ATOM     79  O   UNL A   1      46.228  25.213  36.677  1.00  0.00    -0.744 OA
ENDBRANCH  75  76
ENDBRANCH  56  70
BRANCH  57  80
ATOM     80  C   UNL A   1      44.070  26.208  26.010  1.00  0.00    -0.014 A 
ATOM     81  C   UNL A   1      45.379  25.842  25.658  1.00  0.00     0.010 A 
ATOM     82  C   UNL A   1      43.036  25.283  25.738  1.00  0.00     0.010 A 
ATOM     83  C   UNL A   1      45.650  24.583  25.094  1.00  0.00     0.020 A 
ATOM     84  C   UNL A   1      43.295  24.036  25.164  1.00  0.00     0.020 A 
ATOM     85  C   UNL A   1      44.606  23.682  24.863  1.00  0.00     0.054 A 
BRANCH  85  86
ATOM     86  S   UNL A   1      44.979  22.005  24.275  1.00  0.00     0.124 S 
ATOM     87  O   UNL A   1      44.335  21.985  22.965  1.00  0.00    -0.237 OA
ATOM     88  O   UNL A   1      46.439  21.990  24.264  1.00  0.00    -0.237 OA
ATOM     89  O   UNL A   1      44.362  21.141  25.281  1.00  0.00    -0.744 OA
ENDBRANCH  85  86
ENDBRANCH  57  80
BRANCH  69  90
ATOM     90  C   UNL A   1      44.991  31.631  29.216  1.00  0.00    -0.014 A 
ATOM     91  C   UNL A   1      46.144  32.438  29.150  1.00  0.00     0.010 A 
ATOM     92  C   UNL A   1      43.974  31.842  28.269  1.00  0.00     0.010 A 
ATOM     93  C   UNL A   1      46.272  33.432  28.168  1.00  0.00     0.020 A 
ATOM     94  C   UNL A   1      44.101  32.820  27.278  1.00  0.00     0.020 A 
ATOM     95  C   UNL A   1      45.249  33.613  27.233  1.00  0.00     0.054 A 
BRANCH  95  96
ATOM     96  S   UNL A   1      45.461  34.837  25.910  1.00  0.00     0.124 S 
ATOM     97  O   UNL A   1      44.632  35.947  26.367  1.00  0.00    -0.237 OA
ATOM     98  O   UNL A   1      46.902  35.083  25.920  1.00  0.00    -0.237 OA
ATOM     99  O   UNL A   1      44.970  34.148  24.716  1.00  0.00    -0.744 OA
ENDBRANCH  95  96
ENDBRANCH  69  90
ENDBRANCH  43  44
ENDBRANCH  36  38
ENDBRANCH  35  36
ENDBRANCH  34  35
ENDBRANCH  33  34
ENDBRANCH  32  33
ENDBRANCH  31  32
ENDBRANCH   1  31
TORSDOF 28
ENDMDL
MODEL 3
REMARK VINA RESULT:      -7.7      5.665     11.587
REMARK SMILES COc1ccc(/C=C(\Sc2nc(C)n[nH]2)C(=O)OCCOCCOCCOCCOC(=O)c2ccc(-c3c4nc(c(-c5ccc(S(=O)(=O)[O-])cc5)c5ccc([nH]5)c(-c5ccc(S(=O)(=O)[O-])cc5)c5nc(c(-c6ccc(S(=O)(=O)[O-])cc6)c6ccc3[nH]6)C=C5)C=C4)cc2)c(OC)c1
REMARK SMILES IDX 25 1 24 2 23 3 22 4 21 5 20 6 19 7 18 8 16 9 17 10 8 11 7 12
REMARK SMILES IDX 6 13 3 14 4 15 96 16 5 17 93 18 2 19 1 20 94 21 95 22 9 23
REMARK SMILES IDX 10 24 11 25 15 26 12 27 14 28 13 30 26 31 27 32 28 33 29 34
REMARK SMILES IDX 30 35 31 36 32 37 33 38 34 39 92 40 35 41 91 42 36 43 37 44
REMARK SMILES IDX 38 45 85 46 39 47 90 48 84 49 86 50 40 51 89 52 83 53 82 54
REMARK SMILES IDX 41 56 71 57 52 58 70 59 53 60 56 61 69 62 87 63 54 64 55 65
REMARK SMILES IDX 68 67 88 68 57 69 42 70 43 71 51 72 44 73 50 74 45 75 46 76
REMARK SMILES IDX 47 77 48 78 49 79 72 80 73 81 81 82 74 83 80 84 75 85 76 86
REMARK SMILES IDX 77 87 78 88 79 89 58 90 59 91 67 92 60 93 66 94 61 95 62 96
REMARK SMILES IDX 63 97 64 98 65 99
REMARK H PARENT 15 29 86 55 56 66
REMARK Flexibility Score: inf
ROOT
ATOM      1  C   UNL A   1      39.875  28.042  27.732  1.00  0.00     0.188 C 
ENDROOT
BRANCH   1   2
ATOM      2  O   UNL A   1      41.174  28.122  28.314  1.00  0.00    -0.377 OA
BRANCH   2   3
ATOM      3  C   UNL A   1      41.386  29.250  29.145  1.00  0.00     0.188 C 
BRANCH   3   4
ATOM      4  C   UNL A   1      42.858  29.460  29.577  1.00  0.00     0.188 C 
BRANCH   4   5
ATOM      5  O   UNL A   1      43.913  28.611  29.129  1.00  0.00    -0.376 OA
BRANCH   5   6
ATOM      6  C   UNL A   1      44.658  28.928  27.963  1.00  0.00     0.202 C 
BRANCH   6   7
ATOM      7  C   UNL A   1      43.995  28.799  26.586  1.00  0.00     0.261 C 
BRANCH   7   8
ATOM      8  O   UNL A   1      44.254  27.565  25.910  1.00  0.00    -0.459 OA
BRANCH   8   9
ATOM      9  C   UNL A   1      43.190  26.765  25.651  1.00  0.00     0.345 C 
ATOM     10  O   UNL A   1      42.145  27.107  25.111  1.00  0.00    -0.246 OA
BRANCH   9  11
ATOM     11  C   UNL A   1      43.515  25.338  26.024  1.00  0.00     0.101 C 
ATOM     12  C   UNL A   1      43.459  24.497  24.966  1.00  0.00     0.035 C 
BRANCH  12  13
ATOM     13  C   UNL A   1      43.624  23.038  24.783  1.00  0.00     0.018 A 
ATOM     14  C   UNL A   1      44.330  20.366  25.143  1.00  0.00     0.122 A 
ATOM     15  C   UNL A   1      45.014  21.142  24.217  1.00  0.00     0.047 A 
ATOM     16  C   UNL A   1      43.156  20.836  25.708  1.00  0.00     0.093 A 
ATOM     17  C   UNL A   1      44.639  22.475  24.013  1.00  0.00     0.016 A 
ATOM     18  C   UNL A   1      42.759  22.151  25.459  1.00  0.00     0.129 A 
BRANCH  14  19
ATOM     19  O   UNL A   1      44.908  19.240  25.654  1.00  0.00    -0.497 OA
ATOM     20  C   UNL A   1      46.277  19.130  25.298  1.00  0.00     0.278 C 
ENDBRANCH  14  19
BRANCH  18  21
ATOM     21  O   UNL A   1      41.554  22.616  25.934  1.00  0.00    -0.496 OA
ATOM     22  C   UNL A   1      41.423  22.414  27.348  1.00  0.00     0.278 C 
ENDBRANCH  18  21
ENDBRANCH  12  13
BRANCH  11  23
ATOM     23  S   UNL A   1      43.956  25.179  27.688  1.00  0.00    -0.043 SA
BRANCH  23  24
ATOM     24  C   UNL A   1      45.656  25.073  27.760  1.00  0.00     0.188 A 
ATOM     25  N   UNL A   1      46.414  25.603  28.688  1.00  0.00    -0.206 NA
ATOM     26  N   UNL A   1      46.408  24.303  26.933  1.00  0.00    -0.254 N 
ATOM     27  C   UNL A   1      47.667  25.166  28.347  1.00  0.00     0.148 A 
ATOM     28  N   UNL A   1      47.707  24.337  27.292  1.00  0.00    -0.158 NA
ATOM     29  H   UNL A   1      46.052  23.788  26.173  1.00  0.00     0.192 HD
ATOM     30  C   UNL A   1      48.871  25.650  29.051  1.00  0.00     0.092 C 
ENDBRANCH  23  24
ENDBRANCH  11  23
ENDBRANCH   9  11
ENDBRANCH   8   9
ENDBRANCH   7   8
ENDBRANCH   6   7
ENDBRANCH   5   6
ENDBRANCH   4   5
ENDBRANCH   3   4
ENDBRANCH   2   3
ENDBRANCH   1   2
BRANCH   1  31
ATOM     31  C   UNL A   1      38.900  29.211  28.012  1.00  0.00     0.188 C 
BRANCH  31  32
ATOM     32  O   UNL A   1      37.812  28.874  28.873  1.00  0.00    -0.376 OA
BRANCH  32  33
ATOM     33  C   UNL A   1      37.232  29.879  29.692  1.00  0.00     0.202 C 
BRANCH  33  34
ATOM     34  C   UNL A   1      37.122  31.242  29.012  1.00  0.00     0.261 C 
BRANCH  34  35
ATOM     35  O   UNL A   1      37.273  32.323  29.921  1.00  0.00    -0.460 OA
BRANCH  35  36
ATOM     36  C   UNL A   1      36.142  32.865  30.381  1.00  0.00     0.338 C 
ATOM     37  O   UNL A   1      35.166  33.240  29.714  1.00  0.00    -0.246 OA
BRANCH  36  38
ATOM     38  C   UNL A   1      36.249  33.038  31.822  1.00  0.00     0.060 A 
ATOM     39  C   UNL A   1      36.713  34.280  32.258  1.00  0.00     0.016 A 
ATOM     40  C   UNL A   1      36.258  31.893  32.637  1.00  0.00     0.016 A 
ATOM     41  C   UNL A   1      37.502  34.299  33.376  1.00  0.00     0.010 A 
ATOM     42  C   UNL A   1      37.058  31.910  33.744  1.00  0.00     0.010 A 
ATOM     43  C   UNL A   1      37.761  33.082  34.009  1.00  0.00    -0.014 A 
BRANCH  43  44
ATOM     44  C   UNL A   1      38.888  33.031  34.905  1.00  0.00     0.031 A 
ATOM     45  C   UNL A   1      38.561  33.378  36.297  1.00  0.00     0.074 A 
ATOM     46  C   UNL A   1      40.078  32.582  34.465  1.00  0.00     0.049 A 
ATOM     47  N   UNL A   1      39.044  34.332  37.018  1.00  0.00    -0.248 NA
ATOM     48  C   UNL A   1      37.439  32.649  36.912  1.00  0.00     0.031 C 
ATOM     49  C   UNL A   1      40.372  31.941  33.174  1.00  0.00     0.029 A 
ATOM     50  N   UNL A   1      41.247  32.463  35.142  1.00  0.00    -0.354 N 
ATOM     51  C   UNL A   1      38.426  34.195  38.255  1.00  0.00     0.074 A 
ATOM     52  C   UNL A   1      37.326  33.283  38.075  1.00  0.00     0.031 C 
ATOM     53  C   UNL A   1      41.549  31.283  33.270  1.00  0.00     0.029 A 
ATOM     54  C   UNL A   1      42.132  31.559  34.573  1.00  0.00     0.049 A 
ATOM     55  H   UNL A   1      41.448  32.972  35.961  1.00  0.00     0.167 HD
ATOM     56  C   UNL A   1      39.017  34.618  39.401  1.00  0.00     0.031 A 
ATOM     57  C   UNL A   1      43.196  30.987  35.188  1.00  0.00     0.031 A 
ATOM     58  C   UNL A   1      40.061  35.575  39.154  1.00  0.00     0.049 A 
ATOM     59  C   UNL A   1      43.511  31.811  36.383  1.00  0.00     0.074 A 
ATOM     60  C   UNL A   1      40.101  36.831  38.584  1.00  0.00     0.029 A 
ATOM     61  N   UNL A   1      41.357  35.116  39.175  1.00  0.00    -0.354 N 
ATOM     62  N   UNL A   1      43.941  33.041  36.323  1.00  0.00    -0.248 NA
ATOM     63  C   UNL A   1      42.941  31.421  37.665  1.00  0.00     0.031 C 
ATOM     64  C   UNL A   1      41.351  36.892  37.902  1.00  0.00     0.029 A 
ATOM     65  C   UNL A   1      42.021  35.686  38.115  1.00  0.00     0.049 A 
ATOM     66  H   UNL A   1      41.742  34.492  39.830  1.00  0.00     0.167 HD
ATOM     67  C   UNL A   1      43.338  33.691  37.394  1.00  0.00     0.074 A 
ATOM     68  C   UNL A   1      42.834  32.619  38.247  1.00  0.00     0.031 C 
ATOM     69  C   UNL A   1      43.062  35.028  37.347  1.00  0.00     0.031 A 
BRANCH  56  70
ATOM     70  C   UNL A   1      38.899  33.841  40.686  1.00  0.00    -0.014 A 
ATOM     71  C   UNL A   1      39.416  32.535  40.748  1.00  0.00     0.010 A 
ATOM     72  C   UNL A   1      38.056  34.250  41.744  1.00  0.00     0.010 A 
ATOM     73  C   UNL A   1      39.051  31.665  41.783  1.00  0.00     0.020 A 
ATOM     74  C   UNL A   1      37.729  33.410  42.806  1.00  0.00     0.020 A 
ATOM     75  C   UNL A   1      38.195  32.107  42.794  1.00  0.00     0.054 A 
BRANCH  75  76
ATOM     76  S   UNL A   1      37.611  30.939  44.044  1.00  0.00     0.124 S 
ATOM     77  O   UNL A   1      38.168  29.680  43.556  1.00  0.00    -0.237 OA
ATOM     78  O   UNL A   1      38.208  31.468  45.267  1.00  0.00    -0.237 OA
ATOM     79  O   UNL A   1      36.157  31.053  43.966  1.00  0.00    -0.744 OA
ENDBRANCH  75  76
ENDBRANCH  56  70
BRANCH  57  80
ATOM     80  C   UNL A   1      43.681  29.598  34.999  1.00  0.00    -0.014 A 
ATOM     81  C   UNL A   1      42.975  28.501  35.520  1.00  0.00     0.010 A 
ATOM     82  C   UNL A   1      44.727  29.329  34.087  1.00  0.00     0.010 A 
ATOM     83  C   UNL A   1      43.276  27.189  35.113  1.00  0.00     0.020 A 
ATOM     84  C   UNL A   1      45.043  28.028  33.688  1.00  0.00     0.020 A 
ATOM     85  C   UNL A   1      44.301  26.962  34.188  1.00  0.00     0.054 A 
BRANCH  85  86
ATOM     86  S   UNL A   1      44.584  25.285  33.553  1.00  0.00     0.124 S 
ATOM     87  O   UNL A   1      43.491  24.533  34.163  1.00  0.00    -0.237 OA
ATOM     88  O   UNL A   1      44.495  25.474  32.108  1.00  0.00    -0.237 OA
ATOM     89  O   UNL A   1      45.918  24.949  34.048  1.00  0.00    -0.744 OA
ENDBRANCH  85  86
ENDBRANCH  57  80
BRANCH  69  90
ATOM     90  C   UNL A   1      43.675  35.844  36.230  1.00  0.00    -0.014 A 
ATOM     91  C   UNL A   1      44.891  36.543  36.368  1.00  0.00     0.010 A 
ATOM     92  C   UNL A   1      43.101  35.750  34.949  1.00  0.00     0.010 A 
ATOM     93  C   UNL A   1      45.511  37.136  35.258  1.00  0.00     0.020 A 
ATOM     94  C   UNL A   1      43.722  36.325  33.836  1.00  0.00     0.020 A 
ATOM     95  C   UNL A   1      44.923  37.018  33.995  1.00  0.00     0.054 A 
BRANCH  95  96
ATOM     96  S   UNL A   1      45.777  37.708  32.550  1.00  0.00     0.124 S 
ATOM     97  O   UNL A   1      45.969  39.104  32.930  1.00  0.00    -0.237 OA
ATOM     98  O   UNL A   1      46.995  36.904  32.475  1.00  0.00    -0.237 OA
ATOM     99  O   UNL A   1      44.835  37.489  31.452  1.00  0.00    -0.744 OA
ENDBRANCH  95  96
ENDBRANCH  69  90
ENDBRANCH  43  44
ENDBRANCH  36  38
ENDBRANCH  35  36
ENDBRANCH  34  35
ENDBRANCH  33  34
ENDBRANCH  32  33
ENDBRANCH  31  32
ENDBRANCH   1  31
TORSDOF 28
ENDMDL
