MODEL 1
REMARK VINA RESULT:     -10.7      0.000      0.000
REMARK SMILES COc1ccccc1[C@@H]1CN(C(=O)c2cnn3ccccc23)C[C@H]1C(=O)OCCOCCOCCOCCOC(=O)c1ccc(-c2c3nc(c(-c4ccc(S(=O)(=O)[O-])cc4)c4ccc([nH]4)c(-c4ccc(S(=O)(=O)[O-])cc4)c4nc(c(-c5ccc(S(=O)(=O)[O-])cc5)c5ccc2[nH]5)C=C4)C=C3)cc1
REMARK SMILES IDX 34 1 33 2 32 3 31 4 30 5 29 6 28 7 27 8 25 9 26 10 24 11
REMARK SMILES IDX 9 12 10 13 11 14 23 15 8 16 3 17 4 18 5 19 7 20 6 21 2 22
REMARK SMILES IDX 1 23 12 24 13 25 14 26 15 27 22 28 16 29 17 30 21 31 18 32
REMARK SMILES IDX 20 33 19 34 35 35 36 36 37 37 38 38 39 39 40 40 41 41 42 42
REMARK SMILES IDX 43 43 101 44 44 45 100 46 45 47 46 48 47 49 94 50 48 51
REMARK SMILES IDX 99 52 93 53 95 54 49 55 98 56 92 57 91 58 50 60 80 61 61 62
REMARK SMILES IDX 79 63 62 64 65 65 78 66 96 67 63 68 64 69 77 71 97 72 66 73
REMARK SMILES IDX 51 74 52 75 60 76 53 77 59 78 54 79 55 80 56 81 57 82 58 83
REMARK SMILES IDX 81 84 82 85 90 86 83 87 89 88 84 89 85 90 86 91 87 92 88 93
REMARK SMILES IDX 67 94 68 95 76 96 69 97 75 98 70 99 71 100 72 101 73 102
REMARK SMILES IDX 74 103
REMARK H PARENT 95 59 65 70
REMARK Flexibility Score: inf
ROOT
ATOM      1  C   UNL A   1      32.947  21.709  26.130  1.00  0.00     0.188 C 
ENDROOT
BRANCH   1   2
ATOM      2  O   UNL A   1      33.632  22.880  26.548  1.00  0.00    -0.377 OA
BRANCH   2   3
ATOM      3  C   UNL A   1      33.001  24.125  26.325  1.00  0.00     0.188 C 
BRANCH   3   4
ATOM      4  C   UNL A   1      33.776  25.185  25.519  1.00  0.00     0.188 C 
BRANCH   4   5
ATOM      5  O   UNL A   1      34.653  24.820  24.465  1.00  0.00    -0.376 OA
BRANCH   5   6
ATOM      6  C   UNL A   1      34.135  24.356  23.231  1.00  0.00     0.202 C 
BRANCH   6   7
ATOM      7  C   UNL A   1      33.750  25.352  22.120  1.00  0.00     0.261 C 
BRANCH   7   8
ATOM      8  O   UNL A   1      32.752  26.351  22.441  1.00  0.00    -0.463 OA
BRANCH   8   9
ATOM      9  C   UNL A   1      33.182  27.625  22.395  1.00  0.00     0.311 C 
ATOM     10  O   UNL A   1      34.156  27.990  21.736  1.00  0.00    -0.252 OA
BRANCH   9  11
ATOM     11  C   UNL A   1      32.458  28.636  23.267  1.00  0.00     0.128 C 
ATOM     12  C   UNL A   1      31.022  28.574  23.852  1.00  0.00     0.058 C 
ATOM     13  C   UNL A   1      31.154  29.207  25.242  1.00  0.00     0.129 C 
ATOM     14  N   UNL A   1      32.503  28.880  25.642  1.00  0.00    -0.337 N 
ATOM     15  C   UNL A   1      33.366  28.786  24.486  1.00  0.00     0.135 C 
BRANCH  12  16
ATOM     16  C   UNL A   1      29.782  29.193  23.183  1.00  0.00    -0.000 A 
ATOM     17  C   UNL A   1      28.451  28.743  23.096  1.00  0.00     0.122 A 
ATOM     18  C   UNL A   1      27.488  29.567  22.454  1.00  0.00     0.047 A 
ATOM     19  C   UNL A   1      27.802  30.768  21.832  1.00  0.00     0.004 A 
ATOM     20  C   UNL A   1      30.081  30.404  22.473  1.00  0.00     0.008 A 
ATOM     21  C   UNL A   1      29.119  31.173  21.810  1.00  0.00     0.001 A 
BRANCH  17  22
ATOM     22  O   UNL A   1      27.808  27.602  23.453  1.00  0.00    -0.496 OA
ATOM     23  C   UNL A   1      28.366  26.432  23.986  1.00  0.00     0.278 C 
ENDBRANCH  17  22
ENDBRANCH  12  16
BRANCH  14  24
ATOM     24  C   UNL A   1      33.048  28.846  26.910  1.00  0.00     0.257 C 
ATOM     25  O   UNL A   1      32.652  28.038  27.748  1.00  0.00    -0.269 OA
BRANCH  24  26
ATOM     26  C   UNL A   1      34.150  29.730  27.213  1.00  0.00     0.085 A 
ATOM     27  C   UNL A   1      35.494  29.333  27.349  1.00  0.00     0.150 A 
ATOM     28  C   UNL A   1      34.168  31.078  27.521  1.00  0.00     0.079 A 
ATOM     29  N   UNL A   1      36.320  30.340  27.623  1.00  0.00    -0.176 NA
ATOM     30  N   UNL A   1      35.511  31.427  27.723  1.00  0.00    -0.240 N 
ATOM     31  C   UNL A   1      33.192  32.114  27.664  1.00  0.00     0.029 A 
ATOM     32  C   UNL A   1      35.905  32.739  27.985  1.00  0.00     0.113 A 
ATOM     33  C   UNL A   1      33.589  33.379  27.898  1.00  0.00     0.004 A 
ATOM     34  C   UNL A   1      34.991  33.719  28.061  1.00  0.00     0.020 A 
ENDBRANCH  24  26
ENDBRANCH  14  24
ENDBRANCH   9  11
ENDBRANCH   8   9
ENDBRANCH   7   8
ENDBRANCH   6   7
ENDBRANCH   5   6
ENDBRANCH   4   5
ENDBRANCH   3   4
ENDBRANCH   2   3
ENDBRANCH   1   2
BRANCH   1  35
ATOM     35  C   UNL A   1      33.143  21.241  24.674  1.00  0.00     0.188 C 
BRANCH  35  36
ATOM     36  O   UNL A   1      34.307  20.455  24.456  1.00  0.00    -0.376 OA
BRANCH  36  37
ATOM     37  C   UNL A   1      35.455  20.604  25.273  1.00  0.00     0.202 C 
BRANCH  37  38
ATOM     38  C   UNL A   1      36.740  19.864  24.906  1.00  0.00     0.261 C 
BRANCH  38  39
ATOM     39  O   UNL A   1      37.844  20.675  24.553  1.00  0.00    -0.460 OA
BRANCH  39  40
ATOM     40  C   UNL A   1      37.642  21.993  24.690  1.00  0.00     0.338 C 
ATOM     41  O   UNL A   1      37.162  22.755  23.850  1.00  0.00    -0.246 OA
BRANCH  40  42
ATOM     42  C   UNL A   1      38.229  22.429  25.953  1.00  0.00     0.060 A 
ATOM     43  C   UNL A   1      37.760  23.636  26.463  1.00  0.00     0.016 A 
ATOM     44  C   UNL A   1      39.423  21.836  26.404  1.00  0.00     0.016 A 
ATOM     45  C   UNL A   1      38.618  24.377  27.235  1.00  0.00     0.010 A 
ATOM     46  C   UNL A   1      40.280  22.582  27.175  1.00  0.00     0.010 A 
ATOM     47  C   UNL A   1      39.903  23.880  27.496  1.00  0.00    -0.014 A 
BRANCH  47  48
ATOM     48  C   UNL A   1      40.798  24.733  28.243  1.00  0.00     0.031 A 
ATOM     49  C   UNL A   1      40.225  26.076  28.440  1.00  0.00     0.074 A 
ATOM     50  C   UNL A   1      41.993  24.339  28.719  1.00  0.00     0.049 A 
ATOM     51  N   UNL A   1      40.552  27.147  27.802  1.00  0.00    -0.248 NA
ATOM     52  C   UNL A   1      38.999  26.194  29.245  1.00  0.00     0.031 C 
ATOM     53  C   UNL A   1      42.559  22.991  28.772  1.00  0.00     0.029 A 
ATOM     54  N   UNL A   1      42.932  25.087  29.358  1.00  0.00    -0.354 N 
ATOM     55  C   UNL A   1      39.742  28.140  28.326  1.00  0.00     0.074 A 
ATOM     56  C   UNL A   1      38.672  27.468  29.020  1.00  0.00     0.031 C 
ATOM     57  C   UNL A   1      43.610  22.987  29.627  1.00  0.00     0.029 A 
ATOM     58  C   UNL A   1      43.867  24.349  30.071  1.00  0.00     0.049 A 
ATOM     59  H   UNL A   1      42.946  26.070  29.319  1.00  0.00     0.167 HD
ATOM     60  C   UNL A   1      40.197  29.417  28.426  1.00  0.00     0.031 A 
ATOM     61  C   UNL A   1      44.725  24.826  31.012  1.00  0.00     0.031 A 
ATOM     62  C   UNL A   1      41.342  29.648  27.580  1.00  0.00     0.049 A 
ATOM     63  C   UNL A   1      44.868  26.286  30.774  1.00  0.00     0.074 A 
ATOM     64  C   UNL A   1      41.589  29.494  26.229  1.00  0.00     0.029 A 
ATOM     65  N   UNL A   1      42.576  29.696  28.189  1.00  0.00    -0.354 N 
ATOM     66  N   UNL A   1      45.456  26.775  29.717  1.00  0.00    -0.248 NA
ATOM     67  C   UNL A   1      43.940  27.188  31.440  1.00  0.00     0.031 C 
ATOM     68  C   UNL A   1      42.915  28.977  26.154  1.00  0.00     0.029 A 
ATOM     69  C   UNL A   1      43.436  28.926  27.447  1.00  0.00     0.049 A 
ATOM     70  H   UNL A   1      42.801  30.195  29.008  1.00  0.00     0.167 HD
ATOM     71  C   UNL A   1      44.648  27.832  29.322  1.00  0.00     0.074 A 
ATOM     72  C   UNL A   1      43.782  28.098  30.472  1.00  0.00     0.031 C 
ATOM     73  C   UNL A   1      44.556  28.201  28.008  1.00  0.00     0.031 A 
BRANCH  60  74
ATOM     74  C   UNL A   1      39.894  30.269  29.630  1.00  0.00    -0.014 A 
ATOM     75  C   UNL A   1      40.613  30.046  30.818  1.00  0.00     0.010 A 
ATOM     76  C   UNL A   1      38.739  31.077  29.718  1.00  0.00     0.010 A 
ATOM     77  C   UNL A   1      40.159  30.554  32.040  1.00  0.00     0.020 A 
ATOM     78  C   UNL A   1      38.304  31.626  30.920  1.00  0.00     0.020 A 
ATOM     79  C   UNL A   1      39.001  31.334  32.082  1.00  0.00     0.054 A 
BRANCH  79  80
ATOM     80  S   UNL A   1      38.378  31.919  33.673  1.00  0.00     0.124 S 
ATOM     81  O   UNL A   1      36.944  31.998  33.419  1.00  0.00    -0.237 OA
ATOM     82  O   UNL A   1      38.808  30.857  34.577  1.00  0.00    -0.237 OA
ATOM     83  O   UNL A   1      39.057  33.200  33.854  1.00  0.00    -0.744 OA
ENDBRANCH  79  80
ENDBRANCH  60  74
BRANCH  61  84
ATOM     84  C   UNL A   1      45.133  24.174  32.285  1.00  0.00    -0.014 A 
ATOM     85  C   UNL A   1      46.313  24.554  32.957  1.00  0.00     0.010 A 
ATOM     86  C   UNL A   1      44.215  23.373  32.995  1.00  0.00     0.010 A 
ATOM     87  C   UNL A   1      46.526  24.208  34.305  1.00  0.00     0.020 A 
ATOM     88  C   UNL A   1      44.424  23.018  34.333  1.00  0.00     0.020 A 
ATOM     89  C   UNL A   1      45.567  23.461  34.992  1.00  0.00     0.054 A 
BRANCH  89  90
ATOM     90  S   UNL A   1      45.742  23.186  36.781  1.00  0.00     0.124 S 
ATOM     91  O   UNL A   1      45.680  21.730  36.879  1.00  0.00    -0.237 OA
ATOM     92  O   UNL A   1      47.040  23.786  37.071  1.00  0.00    -0.237 OA
ATOM     93  O   UNL A   1      44.596  23.895  37.351  1.00  0.00    -0.744 OA
ENDBRANCH  89  90
ENDBRANCH  61  84
BRANCH  73  94
ATOM     94  C   UNL A   1      45.568  27.652  27.028  1.00  0.00    -0.014 A 
ATOM     95  C   UNL A   1      45.946  26.296  26.945  1.00  0.00     0.010 A 
ATOM     96  C   UNL A   1      46.073  28.542  26.063  1.00  0.00     0.010 A 
ATOM     97  C   UNL A   1      46.845  25.859  25.959  1.00  0.00     0.020 A 
ATOM     98  C   UNL A   1      46.951  28.111  25.066  1.00  0.00     0.020 A 
ATOM     99  C   UNL A   1      47.348  26.776  25.029  1.00  0.00     0.054 A 
BRANCH  99 100
ATOM    100  S   UNL A   1      48.518  26.215  23.761  1.00  0.00     0.124 S 
ATOM    101  O   UNL A   1      49.777  26.147  24.497  1.00  0.00    -0.237 OA
ATOM    102  O   UNL A   1      47.959  24.928  23.350  1.00  0.00    -0.237 OA
ATOM    103  O   UNL A   1      48.454  27.261  22.741  1.00  0.00    -0.744 OA
ENDBRANCH  99 100
ENDBRANCH  73  94
ENDBRANCH  47  48
ENDBRANCH  40  42
ENDBRANCH  39  40
ENDBRANCH  38  39
ENDBRANCH  37  38
ENDBRANCH  36  37
ENDBRANCH  35  36
ENDBRANCH   1  35
TORSDOF 27
ENDMDL
MODEL 2
REMARK VINA RESULT:     -10.0      3.552      5.044
REMARK SMILES COc1ccccc1[C@@H]1CN(C(=O)c2cnn3ccccc23)C[C@H]1C(=O)OCCOCCOCCOCCOC(=O)c1ccc(-c2c3nc(c(-c4ccc(S(=O)(=O)[O-])cc4)c4ccc([nH]4)c(-c4ccc(S(=O)(=O)[O-])cc4)c4nc(c(-c5ccc(S(=O)(=O)[O-])cc5)c5ccc2[nH]5)C=C4)C=C3)cc1
REMARK SMILES IDX 34 1 33 2 32 3 31 4 30 5 29 6 28 7 27 8 25 9 26 10 24 11
REMARK SMILES IDX 9 12 10 13 11 14 23 15 8 16 3 17 4 18 5 19 7 20 6 21 2 22
REMARK SMILES IDX 1 23 12 24 13 25 14 26 15 27 22 28 16 29 17 30 21 31 18 32
REMARK SMILES IDX 20 33 19 34 35 35 36 36 37 37 38 38 39 39 40 40 41 41 42 42
REMARK SMILES IDX 43 43 101 44 44 45 100 46 45 47 46 48 47 49 94 50 48 51
REMARK SMILES IDX 99 52 93 53 95 54 49 55 98 56 92 57 91 58 50 60 80 61 61 62
REMARK SMILES IDX 79 63 62 64 65 65 78 66 96 67 63 68 64 69 77 71 97 72 66 73
REMARK SMILES IDX 51 74 52 75 60 76 53 77 59 78 54 79 55 80 56 81 57 82 58 83
REMARK SMILES IDX 81 84 82 85 90 86 83 87 89 88 84 89 85 90 86 91 87 92 88 93
REMARK SMILES IDX 67 94 68 95 76 96 69 97 75 98 70 99 71 100 72 101 73 102
REMARK SMILES IDX 74 103
REMARK H PARENT 95 59 65 70
REMARK Flexibility Score: inf
ROOT
ATOM      1  C   UNL A   1      34.211  21.277  26.347  1.00  0.00     0.188 C 
ENDROOT
BRANCH   1   2
ATOM      2  O   UNL A   1      33.555  22.313  27.062  1.00  0.00    -0.377 OA
BRANCH   2   3
ATOM      3  C   UNL A   1      32.657  23.138  26.347  1.00  0.00     0.188 C 
BRANCH   3   4
ATOM      4  C   UNL A   1      33.125  24.560  25.986  1.00  0.00     0.188 C 
BRANCH   4   5
ATOM      5  O   UNL A   1      33.267  24.975  24.636  1.00  0.00    -0.376 OA
BRANCH   5   6
ATOM      6  C   UNL A   1      32.819  24.142  23.582  1.00  0.00     0.202 C 
BRANCH   6   7
ATOM      7  C   UNL A   1      32.958  24.594  22.115  1.00  0.00     0.261 C 
BRANCH   7   8
ATOM      8  O   UNL A   1      32.261  25.802  21.725  1.00  0.00    -0.463 OA
BRANCH   8   9
ATOM      9  C   UNL A   1      32.914  26.949  21.989  1.00  0.00     0.311 C 
ATOM     10  O   UNL A   1      33.995  27.249  21.481  1.00  0.00    -0.252 OA
BRANCH   9  11
ATOM     11  C   UNL A   1      32.304  27.874  23.029  1.00  0.00     0.128 C 
ATOM     12  C   UNL A   1      31.130  27.607  24.008  1.00  0.00     0.058 C 
ATOM     13  C   UNL A   1      31.541  28.331  25.294  1.00  0.00     0.129 C 
ATOM     14  N   UNL A   1      32.983  28.256  25.285  1.00  0.00    -0.337 N 
ATOM     15  C   UNL A   1      33.482  28.242  23.929  1.00  0.00     0.135 C 
BRANCH  12  16
ATOM     16  C   UNL A   1      29.661  27.972  23.725  1.00  0.00    -0.000 A 
ATOM     17  C   UNL A   1      29.069  29.173  23.293  1.00  0.00     0.122 A 
ATOM     18  C   UNL A   1      27.669  29.202  23.055  1.00  0.00     0.047 A 
ATOM     19  C   UNL A   1      26.828  28.124  23.302  1.00  0.00     0.004 A 
ATOM     20  C   UNL A   1      28.755  26.902  24.032  1.00  0.00     0.008 A 
ATOM     21  C   UNL A   1      27.373  26.974  23.830  1.00  0.00     0.001 A 
BRANCH  17  22
ATOM     22  O   UNL A   1      29.524  30.434  23.076  1.00  0.00    -0.496 OA
ATOM     23  C   UNL A   1      29.066  31.625  23.658  1.00  0.00     0.278 C 
ENDBRANCH  17  22
ENDBRANCH  12  16
BRANCH  14  24
ATOM     24  C   UNL A   1      33.865  28.385  26.340  1.00  0.00     0.257 C 
ATOM     25  O   UNL A   1      34.523  27.425  26.737  1.00  0.00    -0.269 OA
BRANCH  24  26
ATOM     26  C   UNL A   1      34.059  29.693  26.923  1.00  0.00     0.085 A 
ATOM     27  C   UNL A   1      33.094  30.719  26.949  1.00  0.00     0.150 A 
ATOM     28  C   UNL A   1      35.181  30.277  27.481  1.00  0.00     0.079 A 
ATOM     29  N   UNL A   1      33.517  31.828  27.552  1.00  0.00    -0.176 NA
ATOM     30  N   UNL A   1      34.804  31.563  27.892  1.00  0.00    -0.240 N 
ATOM     31  C   UNL A   1      36.537  29.884  27.713  1.00  0.00     0.029 A 
ATOM     32  C   UNL A   1      35.681  32.413  28.566  1.00  0.00     0.113 A 
ATOM     33  C   UNL A   1      37.367  30.708  28.382  1.00  0.00     0.004 A 
ATOM     34  C   UNL A   1      36.936  32.018  28.834  1.00  0.00     0.020 A 
ENDBRANCH  24  26
ENDBRANCH  14  24
ENDBRANCH   9  11
ENDBRANCH   8   9
ENDBRANCH   7   8
ENDBRANCH   6   7
ENDBRANCH   5   6
ENDBRANCH   4   5
ENDBRANCH   3   4
ENDBRANCH   2   3
ENDBRANCH   1   2
BRANCH   1  35
ATOM     35  C   UNL A   1      35.469  21.646  25.537  1.00  0.00     0.188 C 
BRANCH  35  36
ATOM     36  O   UNL A   1      36.220  22.729  26.069  1.00  0.00    -0.376 OA
BRANCH  36  37
ATOM     37  C   UNL A   1      37.619  22.621  26.274  1.00  0.00     0.202 C 
BRANCH  37  38
ATOM     38  C   UNL A   1      38.525  23.795  25.909  1.00  0.00     0.261 C 
BRANCH  38  39
ATOM     39  O   UNL A   1      38.704  24.776  26.911  1.00  0.00    -0.460 OA
BRANCH  39  40
ATOM     40  C   UNL A   1      39.737  25.606  26.709  1.00  0.00     0.338 C 
ATOM     41  O   UNL A   1      40.674  25.438  25.928  1.00  0.00    -0.246 OA
BRANCH  40  42
ATOM     42  C   UNL A   1      39.666  26.691  27.682  1.00  0.00     0.060 A 
ATOM     43  C   UNL A   1      39.961  27.965  27.204  1.00  0.00     0.016 A 
ATOM     44  C   UNL A   1      39.649  26.389  29.057  1.00  0.00     0.016 A 
ATOM     45  C   UNL A   1      40.494  28.869  28.088  1.00  0.00     0.010 A 
ATOM     46  C   UNL A   1      40.186  27.296  29.937  1.00  0.00     0.010 A 
ATOM     47  C   UNL A   1      40.690  28.484  29.423  1.00  0.00    -0.014 A 
BRANCH  47  48
ATOM     48  C   UNL A   1      41.331  29.440  30.295  1.00  0.00     0.031 A 
ATOM     49  C   UNL A   1      40.343  30.263  31.013  1.00  0.00     0.074 A 
ATOM     50  C   UNL A   1      42.663  29.545  30.449  1.00  0.00     0.049 A 
ATOM     51  N   UNL A   1      40.025  31.483  30.745  1.00  0.00    -0.248 NA
ATOM     52  C   UNL A   1      39.439  29.591  31.961  1.00  0.00     0.031 C 
ATOM     53  C   UNL A   1      43.715  28.652  29.963  1.00  0.00     0.029 A 
ATOM     54  N   UNL A   1      43.356  30.459  31.179  1.00  0.00    -0.354 N 
ATOM     55  C   UNL A   1      39.059  31.819  31.677  1.00  0.00     0.074 A 
ATOM     56  C   UNL A   1      38.580  30.576  32.230  1.00  0.00     0.031 C 
ATOM     57  C   UNL A   1      44.867  28.927  30.621  1.00  0.00     0.029 A 
ATOM     58  C   UNL A   1      44.663  30.092  31.468  1.00  0.00     0.049 A 
ATOM     59  H   UNL A   1      42.962  31.311  31.478  1.00  0.00     0.167 HD
ATOM     60  C   UNL A   1      38.970  33.089  32.150  1.00  0.00     0.031 A 
ATOM     61  C   UNL A   1      45.475  30.665  32.396  1.00  0.00     0.031 A 
ATOM     62  C   UNL A   1      39.650  34.029  31.295  1.00  0.00     0.049 A 
ATOM     63  C   UNL A   1      44.949  32.030  32.658  1.00  0.00     0.074 A 
ATOM     64  C   UNL A   1      39.564  34.350  29.953  1.00  0.00     0.029 A 
ATOM     65  N   UNL A   1      40.875  34.496  31.718  1.00  0.00    -0.354 N 
ATOM     66  N   UNL A   1      44.981  32.982  31.767  1.00  0.00    -0.248 NA
ATOM     67  C   UNL A   1      43.953  32.197  33.707  1.00  0.00     0.031 C 
ATOM     68  C   UNL A   1      40.912  34.549  29.534  1.00  0.00     0.029 A 
ATOM     69  C   UNL A   1      41.737  34.428  30.654  1.00  0.00     0.049 A 
ATOM     70  H   UNL A   1      41.091  34.821  32.622  1.00  0.00     0.167 HD
ATOM     71  C   UNL A   1      43.743  33.600  31.866  1.00  0.00     0.074 A 
ATOM     72  C   UNL A   1      43.189  33.135  33.138  1.00  0.00     0.031 C 
ATOM     73  C   UNL A   1      43.160  34.196  30.782  1.00  0.00     0.031 A 
BRANCH  60  74
ATOM     74  C   UNL A   1      38.686  33.372  33.602  1.00  0.00    -0.014 A 
ATOM     75  C   UNL A   1      39.686  33.103  34.553  1.00  0.00     0.010 A 
ATOM     76  C   UNL A   1      37.383  33.617  34.088  1.00  0.00     0.010 A 
ATOM     77  C   UNL A   1      39.379  33.021  35.917  1.00  0.00     0.020 A 
ATOM     78  C   UNL A   1      37.076  33.585  35.444  1.00  0.00     0.020 A 
ATOM     79  C   UNL A   1      38.072  33.255  36.349  1.00  0.00     0.054 A 
BRANCH  79  80
ATOM     80  S   UNL A   1      37.667  33.069  38.100  1.00  0.00     0.124 S 
ATOM     81  O   UNL A   1      36.209  33.106  38.073  1.00  0.00    -0.237 OA
ATOM     82  O   UNL A   1      38.266  31.775  38.414  1.00  0.00    -0.237 OA
ATOM     83  O   UNL A   1      38.315  34.220  38.723  1.00  0.00    -0.744 OA
ENDBRANCH  79  80
ENDBRANCH  60  74
BRANCH  61  84
ATOM     84  C   UNL A   1      46.438  29.985  33.305  1.00  0.00    -0.014 A 
ATOM     85  C   UNL A   1      46.065  29.592  34.606  1.00  0.00     0.010 A 
ATOM     86  C   UNL A   1      47.644  29.464  32.793  1.00  0.00     0.010 A 
ATOM     87  C   UNL A   1      46.829  28.658  35.332  1.00  0.00     0.020 A 
ATOM     88  C   UNL A   1      48.414  28.542  33.513  1.00  0.00     0.020 A 
ATOM     89  C   UNL A   1      47.988  28.121  34.768  1.00  0.00     0.054 A 
BRANCH  89  90
ATOM     90  S   UNL A   1      48.865  26.771  35.614  1.00  0.00     0.124 S 
ATOM     91  O   UNL A   1      47.778  26.064  36.285  1.00  0.00    -0.237 OA
ATOM     92  O   UNL A   1      49.497  26.058  34.507  1.00  0.00    -0.237 OA
ATOM     93  O   UNL A   1      49.793  27.468  36.504  1.00  0.00    -0.744 OA
ENDBRANCH  89  90
ENDBRANCH  61  84
BRANCH  73  94
ATOM     94  C   UNL A   1      44.002  34.446  29.551  1.00  0.00    -0.014 A 
ATOM     95  C   UNL A   1      44.718  35.634  29.301  1.00  0.00     0.010 A 
ATOM     96  C   UNL A   1      44.166  33.371  28.658  1.00  0.00     0.010 A 
ATOM     97  C   UNL A   1      45.530  35.758  28.162  1.00  0.00     0.020 A 
ATOM     98  C   UNL A   1      44.989  33.479  27.535  1.00  0.00     0.020 A 
ATOM     99  C   UNL A   1      45.653  34.678  27.282  1.00  0.00     0.054 A 
BRANCH  99 100
ATOM    100  S   UNL A   1      46.695  34.840  25.805  1.00  0.00     0.124 S 
ATOM    101  O   UNL A   1      45.746  34.607  24.720  1.00  0.00    -0.237 OA
ATOM    102  O   UNL A   1      47.202  36.207  25.914  1.00  0.00    -0.237 OA
ATOM    103  O   UNL A   1      47.706  33.798  25.976  1.00  0.00    -0.744 OA
ENDBRANCH  99 100
ENDBRANCH  73  94
ENDBRANCH  47  48
ENDBRANCH  40  42
ENDBRANCH  39  40
ENDBRANCH  38  39
ENDBRANCH  37  38
ENDBRANCH  36  37
ENDBRANCH  35  36
ENDBRANCH   1  35
TORSDOF 27
ENDMDL
MODEL 3
REMARK VINA RESULT:      -9.7      3.093      8.040
REMARK SMILES COc1ccccc1[C@@H]1CN(C(=O)c2cnn3ccccc23)C[C@H]1C(=O)OCCOCCOCCOCCOC(=O)c1ccc(-c2c3nc(c(-c4ccc(S(=O)(=O)[O-])cc4)c4ccc([nH]4)c(-c4ccc(S(=O)(=O)[O-])cc4)c4nc(c(-c5ccc(S(=O)(=O)[O-])cc5)c5ccc2[nH]5)C=C4)C=C3)cc1
REMARK SMILES IDX 34 1 33 2 32 3 31 4 30 5 29 6 28 7 27 8 25 9 26 10 24 11
REMARK SMILES IDX 9 12 10 13 11 14 23 15 8 16 3 17 4 18 5 19 7 20 6 21 2 22
REMARK SMILES IDX 1 23 12 24 13 25 14 26 15 27 22 28 16 29 17 30 21 31 18 32
REMARK SMILES IDX 20 33 19 34 35 35 36 36 37 37 38 38 39 39 40 40 41 41 42 42
REMARK SMILES IDX 43 43 101 44 44 45 100 46 45 47 46 48 47 49 94 50 48 51
REMARK SMILES IDX 99 52 93 53 95 54 49 55 98 56 92 57 91 58 50 60 80 61 61 62
REMARK SMILES IDX 79 63 62 64 65 65 78 66 96 67 63 68 64 69 77 71 97 72 66 73
REMARK SMILES IDX 51 74 52 75 60 76 53 77 59 78 54 79 55 80 56 81 57 82 58 83
REMARK SMILES IDX 81 84 82 85 90 86 83 87 89 88 84 89 85 90 86 91 87 92 88 93
REMARK SMILES IDX 67 94 68 95 76 96 69 97 75 98 70 99 71 100 72 101 73 102
REMARK SMILES IDX 74 103
REMARK H PARENT 95 59 65 70
REMARK Flexibility Score: inf
ROOT
ATOM      1  C   UNL A   1      33.183  21.928  26.455  1.00  0.00     0.188 C 
ENDROOT
BRANCH   1   2
ATOM      2  O   UNL A   1      33.482  23.219  26.963  1.00  0.00    -0.377 OA
BRANCH   2   3
ATOM      3  C   UNL A   1      33.062  24.337  26.205  1.00  0.00     0.188 C 
BRANCH   3   4
ATOM      4  C   UNL A   1      34.150  25.282  25.662  1.00  0.00     0.188 C 
BRANCH   4   5
ATOM      5  O   UNL A   1      34.232  25.605  24.282  1.00  0.00    -0.376 OA
BRANCH   5   6
ATOM      6  C   UNL A   1      33.277  25.092  23.370  1.00  0.00     0.202 C 
BRANCH   6   7
ATOM      7  C   UNL A   1      33.024  25.797  22.023  1.00  0.00     0.261 C 
BRANCH   7   8
ATOM      8  O   UNL A   1      32.326  27.065  22.061  1.00  0.00    -0.463 OA
BRANCH   8   9
ATOM      9  C   UNL A   1      33.075  28.121  22.428  1.00  0.00     0.311 C 
ATOM     10  O   UNL A   1      34.221  28.316  22.020  1.00  0.00    -0.252 OA
BRANCH   9  11
ATOM     11  C   UNL A   1      32.485  29.068  23.459  1.00  0.00     0.128 C 
ATOM     12  C   UNL A   1      31.146  28.959  24.235  1.00  0.00     0.058 C 
ATOM     13  C   UNL A   1      31.475  29.499  25.631  1.00  0.00     0.129 C 
ATOM     14  N   UNL A   1      32.865  29.154  25.814  1.00  0.00    -0.337 N 
ATOM     15  C   UNL A   1      33.556  29.142  24.545  1.00  0.00     0.135 C 
BRANCH  12  16
ATOM     16  C   UNL A   1      29.826  29.614  23.789  1.00  0.00    -0.000 A 
ATOM     17  C   UNL A   1      28.627  29.055  23.310  1.00  0.00     0.122 A 
ATOM     18  C   UNL A   1      27.532  29.916  23.026  1.00  0.00     0.047 A 
ATOM     19  C   UNL A   1      27.603  31.300  23.122  1.00  0.00     0.004 A 
ATOM     20  C   UNL A   1      29.883  31.049  23.812  1.00  0.00     0.008 A 
ATOM     21  C   UNL A   1      28.802  31.873  23.484  1.00  0.00     0.001 A 
BRANCH  17  22
ATOM     22  O   UNL A   1      28.231  27.802  22.970  1.00  0.00    -0.496 OA
ATOM     23  C   UNL A   1      27.712  26.807  23.810  1.00  0.00     0.278 C 
ENDBRANCH  17  22
ENDBRANCH  12  16
BRANCH  14  24
ATOM     24  C   UNL A   1      33.583  29.039  26.988  1.00  0.00     0.257 C 
ATOM     25  O   UNL A   1      33.469  28.047  27.706  1.00  0.00    -0.269 OA
BRANCH  24  26
ATOM     26  C   UNL A   1      34.533  30.076  27.322  1.00  0.00     0.085 A 
ATOM     27  C   UNL A   1      35.911  29.875  27.536  1.00  0.00     0.150 A 
ATOM     28  C   UNL A   1      34.346  31.419  27.595  1.00  0.00     0.079 A 
ATOM     29  N   UNL A   1      36.571  30.994  27.824  1.00  0.00    -0.176 NA
ATOM     30  N   UNL A   1      35.614  31.957  27.854  1.00  0.00    -0.240 N 
ATOM     31  C   UNL A   1      33.228  32.308  27.662  1.00  0.00     0.029 A 
ATOM     32  C   UNL A   1      35.806  33.316  28.101  1.00  0.00     0.113 A 
ATOM     33  C   UNL A   1      33.430  33.622  27.881  1.00  0.00     0.004 A 
ATOM     34  C   UNL A   1      34.760  34.159  28.105  1.00  0.00     0.020 A 
ENDBRANCH  24  26
ENDBRANCH  14  24
ENDBRANCH   9  11
ENDBRANCH   8   9
ENDBRANCH   7   8
ENDBRANCH   6   7
ENDBRANCH   5   6
ENDBRANCH   4   5
ENDBRANCH   3   4
ENDBRANCH   2   3
ENDBRANCH   1   2
BRANCH   1  35
ATOM     35  C   UNL A   1      34.355  21.062  25.953  1.00  0.00     0.188 C 
BRANCH  35  36
ATOM     36  O   UNL A   1      35.484  21.797  25.501  1.00  0.00    -0.376 OA
BRANCH  36  37
ATOM     37  C   UNL A   1      36.801  21.307  25.690  1.00  0.00     0.202 C 
BRANCH  37  38
ATOM     38  C   UNL A   1      37.991  22.169  25.274  1.00  0.00     0.261 C 
BRANCH  38  39
ATOM     39  O   UNL A   1      38.907  22.500  26.299  1.00  0.00    -0.460 OA
BRANCH  39  40
ATOM     40  C   UNL A   1      38.864  23.778  26.701  1.00  0.00     0.338 C 
ATOM     41  O   UNL A   1      37.853  24.449  26.914  1.00  0.00    -0.246 OA
BRANCH  40  42
ATOM     42  C   UNL A   1      40.220  24.317  26.701  1.00  0.00     0.060 A 
ATOM     43  C   UNL A   1      40.983  24.060  27.837  1.00  0.00     0.016 A 
ATOM     44  C   UNL A   1      40.571  25.313  25.770  1.00  0.00     0.016 A 
ATOM     45  C   UNL A   1      41.949  24.973  28.176  1.00  0.00     0.010 A 
ATOM     46  C   UNL A   1      41.537  26.226  26.115  1.00  0.00     0.010 A 
ATOM     47  C   UNL A   1      42.143  26.096  27.358  1.00  0.00    -0.014 A 
BRANCH  47  48
ATOM     48  C   UNL A   1      43.113  27.070  27.800  1.00  0.00     0.031 A 
ATOM     49  C   UNL A   1      44.489  26.627  27.519  1.00  0.00     0.074 A 
ATOM     50  C   UNL A   1      42.794  28.246  28.372  1.00  0.00     0.049 A 
ATOM     51  N   UNL A   1      45.329  26.153  28.375  1.00  0.00    -0.248 NA
ATOM     52  C   UNL A   1      44.890  26.460  26.113  1.00  0.00     0.031 C 
ATOM     53  C   UNL A   1      41.480  28.876  28.499  1.00  0.00     0.029 A 
ATOM     54  N   UNL A   1      43.631  29.183  28.889  1.00  0.00    -0.354 N 
ATOM     55  C   UNL A   1      46.471  25.875  27.644  1.00  0.00     0.074 A 
ATOM     56  C   UNL A   1      46.072  25.860  26.258  1.00  0.00     0.031 C 
ATOM     57  C   UNL A   1      41.646  30.182  28.819  1.00  0.00     0.029 A 
ATOM     58  C   UNL A   1      43.060  30.439  29.047  1.00  0.00     0.049 A 
ATOM     59  H   UNL A   1      44.565  28.988  29.131  1.00  0.00     0.167 HD
ATOM     60  C   UNL A   1      47.699  26.007  28.210  1.00  0.00     0.031 A 
ATOM     61  C   UNL A   1      43.724  31.605  29.267  1.00  0.00     0.031 A 
ATOM     62  C   UNL A   1      47.628  26.031  29.650  1.00  0.00     0.049 A 
ATOM     63  C   UNL A   1      45.055  31.254  29.827  1.00  0.00     0.074 A 
ATOM     64  C   UNL A   1      47.102  25.179  30.603  1.00  0.00     0.029 A 
ATOM     65  N   UNL A   1      47.768  27.252  30.269  1.00  0.00    -0.354 N 
ATOM     66  N   UNL A   1      45.207  30.724  31.009  1.00  0.00    -0.248 NA
ATOM     67  C   UNL A   1      46.155  31.027  28.900  1.00  0.00     0.031 C 
ATOM     68  C   UNL A   1      46.508  26.035  31.575  1.00  0.00     0.029 A 
ATOM     69  C   UNL A   1      46.779  27.356  31.213  1.00  0.00     0.049 A 
ATOM     70  H   UNL A   1      48.455  27.929  30.069  1.00  0.00     0.167 HD
ATOM     71  C   UNL A   1      46.162  29.734  30.832  1.00  0.00     0.074 A 
ATOM     72  C   UNL A   1      46.777  30.028  29.536  1.00  0.00     0.031 C 
ATOM     73  C   UNL A   1      46.168  28.608  31.608  1.00  0.00     0.031 A 
BRANCH  60  74
ATOM     74  C   UNL A   1      48.860  26.588  27.447  1.00  0.00    -0.014 A 
ATOM     75  C   UNL A   1      48.737  27.878  26.902  1.00  0.00     0.010 A 
ATOM     76  C   UNL A   1      49.947  25.803  27.004  1.00  0.00     0.010 A 
ATOM     77  C   UNL A   1      49.622  28.332  25.917  1.00  0.00     0.020 A 
ATOM     78  C   UNL A   1      50.861  26.260  26.060  1.00  0.00     0.020 A 
ATOM     79  C   UNL A   1      50.673  27.513  25.498  1.00  0.00     0.054 A 
BRANCH  79  80
ATOM     80  S   UNL A   1      51.763  28.073  24.171  1.00  0.00     0.124 S 
ATOM     81  O   UNL A   1      52.839  28.712  24.919  1.00  0.00    -0.237 OA
ATOM     82  O   UNL A   1      52.104  26.818  23.508  1.00  0.00    -0.237 OA
ATOM     83  O   UNL A   1      50.915  28.974  23.392  1.00  0.00    -0.744 OA
ENDBRANCH  79  80
ENDBRANCH  60  74
BRANCH  61  84
ATOM     84  C   UNL A   1      43.416  32.947  28.703  1.00  0.00    -0.014 A 
ATOM     85  C   UNL A   1      42.703  33.909  29.446  1.00  0.00     0.010 A 
ATOM     86  C   UNL A   1      44.073  33.390  27.535  1.00  0.00     0.010 A 
ATOM     87  C   UNL A   1      42.711  35.267  29.077  1.00  0.00     0.020 A 
ATOM     88  C   UNL A   1      44.077  34.737  27.157  1.00  0.00     0.020 A 
ATOM     89  C   UNL A   1      43.420  35.676  27.945  1.00  0.00     0.054 A 
BRANCH  89  90
ATOM     90  S   UNL A   1      43.600  37.448  27.579  1.00  0.00     0.124 S 
ATOM     91  O   UNL A   1      43.561  38.047  28.910  1.00  0.00    -0.237 OA
ATOM     92  O   UNL A   1      44.888  37.504  26.895  1.00  0.00    -0.237 OA
ATOM     93  O   UNL A   1      42.443  37.744  26.734  1.00  0.00    -0.744 OA
ENDBRANCH  89  90
ENDBRANCH  61  84
BRANCH  73  94
ATOM     94  C   UNL A   1      45.318  28.584  32.858  1.00  0.00    -0.014 A 
ATOM     95  C   UNL A   1      45.616  29.292  34.040  1.00  0.00     0.010 A 
ATOM     96  C   UNL A   1      44.092  27.898  32.787  1.00  0.00     0.010 A 
ATOM     97  C   UNL A   1      44.737  29.268  35.135  1.00  0.00     0.020 A 
ATOM     98  C   UNL A   1      43.202  27.887  33.863  1.00  0.00     0.020 A 
ATOM     99  C   UNL A   1      43.537  28.556  35.039  1.00  0.00     0.054 A 
BRANCH  99 100
ATOM    100  S   UNL A   1      42.404  28.515  36.456  1.00  0.00     0.124 S 
ATOM    101  O   UNL A   1      43.135  27.702  37.424  1.00  0.00    -0.237 OA
ATOM    102  O   UNL A   1      42.263  29.929  36.800  1.00  0.00    -0.237 OA
ATOM    103  O   UNL A   1      41.194  27.895  35.916  1.00  0.00    -0.744 OA
ENDBRANCH  99 100
ENDBRANCH  73  94
ENDBRANCH  47  48
ENDBRANCH  40  42
ENDBRANCH  39  40
ENDBRANCH  38  39
ENDBRANCH  37  38
ENDBRANCH  36  37
ENDBRANCH  35  36
ENDBRANCH   1  35
TORSDOF 27
ENDMDL
