MODEL 1
REMARK VINA RESULT:      -6.9      0.000      0.000
REMARK SMILES CC[C@@H](C)SCc1cc(F)cc(/C=C/C(=O)OCCOCCOCCOCCOC(=O)c2ccc(-c3c4nc(c(-c5ccc(S(=O)(=O)[O-])cc5)c5ccc([nH]5)c(-c5ccc(S(=O)(=O)[O-])cc5)c5nc(c(-c6ccc(S(=O)(=O)[O-])cc6)c6ccc3[nH]6)C=C5)C=C4)cc2)c1
REMARK SMILES IDX 22 1 21 2 20 3 19 4 18 5 17 6 15 7 16 8 14 9 13 10 12 11
REMARK SMILES IDX 7 12 8 13 92 14 9 15 10 16 11 17 6 18 5 19 3 20 4 21 2 22
REMARK SMILES IDX 1 23 23 24 24 25 25 26 26 27 27 28 28 29 29 30 30 31 31 32
REMARK SMILES IDX 32 33 33 34 91 35 34 36 90 37 35 38 36 39 37 40 84 41 38 42
REMARK SMILES IDX 89 43 83 44 85 45 39 46 88 47 82 48 81 49 40 51 70 52 51 53
REMARK SMILES IDX 69 54 52 55 55 56 68 57 86 58 53 59 54 60 67 62 87 63 56 64
REMARK SMILES IDX 41 65 42 66 50 67 43 68 49 69 44 70 45 71 46 72 47 73 48 74
REMARK SMILES IDX 71 75 72 76 80 77 73 78 79 79 74 80 75 81 76 82 77 83 78 84
REMARK SMILES IDX 57 85 58 86 66 87 59 88 65 89 60 90 61 91 62 92 63 93 64 94
REMARK H PARENT 85 50 55 61
REMARK Flexibility Score: inf
ROOT
ATOM      1  C   UNL A   1      42.443  22.112  27.742  1.00  0.00     0.188 C 
ENDROOT
BRANCH   1   2
ATOM      2  C   UNL A   1      41.562  22.633  26.591  1.00  0.00     0.188 C 
BRANCH   2   3
ATOM      3  O   UNL A   1      42.289  23.012  25.439  1.00  0.00    -0.376 OA
BRANCH   3   4
ATOM      4  C   UNL A   1      43.378  23.916  25.521  1.00  0.00     0.202 C 
BRANCH   4   5
ATOM      5  C   UNL A   1      43.297  25.397  25.110  1.00  0.00     0.261 C 
BRANCH   5   6
ATOM      6  O   UNL A   1      42.061  26.074  25.340  1.00  0.00    -0.460 OA
BRANCH   6   7
ATOM      7  C   UNL A   1      42.109  27.414  25.431  1.00  0.00     0.330 C 
ATOM      8  O   UNL A   1      42.474  28.190  24.560  1.00  0.00    -0.247 OA
BRANCH   7   9
ATOM      9  C   UNL A   1      41.502  27.880  26.697  1.00  0.00     0.094 C 
ATOM     10  C   UNL A   1      40.280  27.556  27.157  1.00  0.00     0.016 C 
BRANCH  10  11
ATOM     11  C   UNL A   1      39.757  28.085  28.427  1.00  0.00    -0.022 A 
ATOM     12  C   UNL A   1      38.957  29.989  29.746  1.00  0.00    -0.035 A 
ATOM     13  C   UNL A   1      38.523  29.096  30.733  1.00  0.00     0.043 A 
ATOM     14  C   UNL A   1      39.573  29.468  28.590  1.00  0.00     0.013 A 
ATOM     15  C   UNL A   1      38.801  27.743  30.617  1.00  0.00     0.124 A 
ATOM     16  F   UNL A   1      38.454  26.913  31.610  1.00  0.00    -0.207 F 
ATOM     17  C   UNL A   1      39.430  27.236  29.491  1.00  0.00     0.047 A 
BRANCH  12  18
ATOM     18  C   UNL A   1      38.754  31.470  29.921  1.00  0.00     0.105 C 
BRANCH  18  19
ATOM     19  S   UNL A   1      37.337  32.157  29.006  1.00  0.00    -0.154 SA
BRANCH  19  20
ATOM     20  C   UNL A   1      36.446  33.204  30.239  1.00  0.00     0.043 C 
ATOM     21  C   UNL A   1      36.557  32.635  31.653  1.00  0.00     0.019 C 
BRANCH  20  22
ATOM     22  C   UNL A   1      35.019  33.576  29.808  1.00  0.00     0.011 C 
ATOM     23  C   UNL A   1      34.289  34.460  30.814  1.00  0.00     0.005 C 
ENDBRANCH  20  22
ENDBRANCH  19  20
ENDBRANCH  18  19
ENDBRANCH  12  18
ENDBRANCH  10  11
ENDBRANCH   7   9
ENDBRANCH   6   7
ENDBRANCH   5   6
ENDBRANCH   4   5
ENDBRANCH   3   4
ENDBRANCH   2   3
ENDBRANCH   1   2
BRANCH   1  24
ATOM     24  O   UNL A   1      43.345  23.056  28.291  1.00  0.00    -0.377 OA
BRANCH  24  25
ATOM     25  C   UNL A   1      43.091  23.598  29.589  1.00  0.00     0.188 C 
BRANCH  25  26
ATOM     26  C   UNL A   1      44.023  23.366  30.805  1.00  0.00     0.188 C 
BRANCH  26  27
ATOM     27  O   UNL A   1      44.257  24.509  31.612  1.00  0.00    -0.376 OA
BRANCH  27  28
ATOM     28  C   UNL A   1      44.936  24.325  32.842  1.00  0.00     0.202 C 
BRANCH  28  29
ATOM     29  C   UNL A   1      44.259  24.926  34.080  1.00  0.00     0.261 C 
BRANCH  29  30
ATOM     30  O   UNL A   1      43.452  24.020  34.847  1.00  0.00    -0.460 OA
BRANCH  30  31
ATOM     31  C   UNL A   1      42.307  24.520  35.355  1.00  0.00     0.338 C 
ATOM     32  O   UNL A   1      41.436  23.898  35.949  1.00  0.00    -0.246 OA
BRANCH  31  33
ATOM     33  C   UNL A   1      42.349  25.990  35.248  1.00  0.00     0.060 A 
ATOM     34  C   UNL A   1      41.386  26.633  34.461  1.00  0.00     0.016 A 
ATOM     35  C   UNL A   1      43.348  26.726  35.891  1.00  0.00     0.016 A 
ATOM     36  C   UNL A   1      41.468  28.006  34.246  1.00  0.00     0.010 A 
ATOM     37  C   UNL A   1      43.438  28.102  35.664  1.00  0.00     0.010 A 
ATOM     38  C   UNL A   1      42.533  28.735  34.791  1.00  0.00    -0.014 A 
BRANCH  38  39
ATOM     39  C   UNL A   1      42.844  30.072  34.226  1.00  0.00     0.031 A 
ATOM     40  C   UNL A   1      43.497  30.128  32.867  1.00  0.00     0.074 A 
ATOM     41  C   UNL A   1      42.491  31.207  34.856  1.00  0.00     0.049 A 
ATOM     42  N   UNL A   1      43.831  31.167  32.148  1.00  0.00    -0.248 NA
ATOM     43  C   UNL A   1      43.812  28.834  32.236  1.00  0.00     0.031 C 
ATOM     44  C   UNL A   1      41.810  31.285  36.147  1.00  0.00     0.029 A 
ATOM     45  N   UNL A   1      42.653  32.517  34.480  1.00  0.00    -0.354 N 
ATOM     46  C   UNL A   1      44.401  30.653  30.987  1.00  0.00     0.074 A 
ATOM     47  C   UNL A   1      44.403  29.214  31.114  1.00  0.00     0.031 C 
ATOM     48  C   UNL A   1      41.609  32.579  36.455  1.00  0.00     0.029 A 
ATOM     49  C   UNL A   1      42.172  33.420  35.398  1.00  0.00     0.049 A 
ATOM     50  H   UNL A   1      43.075  32.785  33.632  1.00  0.00     0.167 HD
ATOM     51  C   UNL A   1      44.868  31.317  29.904  1.00  0.00     0.031 A 
ATOM     52  C   UNL A   1      42.192  34.768  35.389  1.00  0.00     0.031 A 
ATOM     53  C   UNL A   1      44.875  32.751  29.783  1.00  0.00     0.049 A 
ATOM     54  C   UNL A   1      42.782  35.488  34.203  1.00  0.00     0.074 A 
ATOM     55  C   UNL A   1      45.321  33.522  28.726  1.00  0.00     0.029 A 
ATOM     56  N   UNL A   1      44.418  33.628  30.755  1.00  0.00    -0.354 N 
ATOM     57  N   UNL A   1      43.302  34.989  33.105  1.00  0.00    -0.248 NA
ATOM     58  C   UNL A   1      42.771  36.957  34.246  1.00  0.00     0.031 C 
ATOM     59  C   UNL A   1      45.194  34.868  29.084  1.00  0.00     0.029 A 
ATOM     60  C   UNL A   1      44.593  34.934  30.332  1.00  0.00     0.049 A 
ATOM     61  H   UNL A   1      44.028  33.361  31.619  1.00  0.00     0.167 HD
ATOM     62  C   UNL A   1      43.637  36.082  32.311  1.00  0.00     0.074 A 
ATOM     63  C   UNL A   1      43.253  37.266  33.051  1.00  0.00     0.031 C 
ATOM     64  C   UNL A   1      44.204  36.105  31.077  1.00  0.00     0.031 A 
BRANCH  51  65
ATOM     65  C   UNL A   1      45.447  30.496  28.781  1.00  0.00    -0.014 A 
ATOM     66  C   UNL A   1      46.809  30.141  28.758  1.00  0.00     0.010 A 
ATOM     67  C   UNL A   1      44.608  30.050  27.744  1.00  0.00     0.010 A 
ATOM     68  C   UNL A   1      47.326  29.389  27.699  1.00  0.00     0.020 A 
ATOM     69  C   UNL A   1      45.115  29.271  26.700  1.00  0.00     0.020 A 
ATOM     70  C   UNL A   1      46.476  28.960  26.677  1.00  0.00     0.054 A 
BRANCH  70  71
ATOM     71  S   UNL A   1      47.169  27.964  25.328  1.00  0.00     0.124 S 
ATOM     72  O   UNL A   1      47.153  26.622  25.905  1.00  0.00    -0.237 OA
ATOM     73  O   UNL A   1      46.219  28.193  24.242  1.00  0.00    -0.237 OA
ATOM     74  O   UNL A   1      48.497  28.537  25.120  1.00  0.00    -0.744 OA
ENDBRANCH  70  71
ENDBRANCH  51  65
BRANCH  52  75
ATOM     75  C   UNL A   1      41.642  35.531  36.545  1.00  0.00    -0.014 A 
ATOM     76  C   UNL A   1      40.256  35.725  36.691  1.00  0.00     0.010 A 
ATOM     77  C   UNL A   1      42.510  36.083  37.505  1.00  0.00     0.010 A 
ATOM     78  C   UNL A   1      39.753  36.474  37.760  1.00  0.00     0.020 A 
ATOM     79  C   UNL A   1      42.009  36.804  38.592  1.00  0.00     0.020 A 
ATOM     80  C   UNL A   1      40.634  37.006  38.706  1.00  0.00     0.054 A 
BRANCH  80  81
ATOM     81  S   UNL A   1      39.954  37.934  40.109  1.00  0.00     0.124 S 
ATOM     82  O   UNL A   1      39.914  36.918  41.156  1.00  0.00    -0.237 OA
ATOM     83  O   UNL A   1      40.943  38.995  40.292  1.00  0.00    -0.237 OA
ATOM     84  O   UNL A   1      38.652  38.385  39.623  1.00  0.00    -0.744 OA
ENDBRANCH  80  81
ENDBRANCH  52  75
BRANCH  64  85
ATOM     85  C   UNL A   1      44.384  37.449  30.416  1.00  0.00    -0.014 A 
ATOM     86  C   UNL A   1      43.587  37.855  29.331  1.00  0.00     0.010 A 
ATOM     87  C   UNL A   1      45.352  38.337  30.923  1.00  0.00     0.010 A 
ATOM     88  C   UNL A   1      43.791  39.103  28.733  1.00  0.00     0.020 A 
ATOM     89  C   UNL A   1      45.534  39.599  30.352  1.00  0.00     0.020 A 
ATOM     90  C   UNL A   1      44.767  39.964  29.245  1.00  0.00     0.054 A 
BRANCH  90  91
ATOM     91  S   UNL A   1      45.003  41.582  28.461  1.00  0.00     0.124 S 
ATOM     92  O   UNL A   1      44.742  42.497  29.569  1.00  0.00    -0.237 OA
ATOM     93  O   UNL A   1      46.391  41.520  28.010  1.00  0.00    -0.237 OA
ATOM     94  O   UNL A   1      44.007  41.599  27.392  1.00  0.00    -0.744 OA
ENDBRANCH  90  91
ENDBRANCH  64  85
ENDBRANCH  38  39
ENDBRANCH  31  33
ENDBRANCH  30  31
ENDBRANCH  29  30
ENDBRANCH  28  29
ENDBRANCH  27  28
ENDBRANCH  26  27
ENDBRANCH  25  26
ENDBRANCH  24  25
ENDBRANCH   1  24
TORSDOF 28
ENDMDL
MODEL 2
REMARK VINA RESULT:      -6.3      7.808     16.530
REMARK SMILES CC[C@@H](C)SCc1cc(F)cc(/C=C/C(=O)OCCOCCOCCOCCOC(=O)c2ccc(-c3c4nc(c(-c5ccc(S(=O)(=O)[O-])cc5)c5ccc([nH]5)c(-c5ccc(S(=O)(=O)[O-])cc5)c5nc(c(-c6ccc(S(=O)(=O)[O-])cc6)c6ccc3[nH]6)C=C5)C=C4)cc2)c1
REMARK SMILES IDX 22 1 21 2 20 3 19 4 18 5 17 6 15 7 16 8 14 9 13 10 12 11
REMARK SMILES IDX 7 12 8 13 92 14 9 15 10 16 11 17 6 18 5 19 3 20 4 21 2 22
REMARK SMILES IDX 1 23 23 24 24 25 25 26 26 27 27 28 28 29 29 30 30 31 31 32
REMARK SMILES IDX 32 33 33 34 91 35 34 36 90 37 35 38 36 39 37 40 84 41 38 42
REMARK SMILES IDX 89 43 83 44 85 45 39 46 88 47 82 48 81 49 40 51 70 52 51 53
REMARK SMILES IDX 69 54 52 55 55 56 68 57 86 58 53 59 54 60 67 62 87 63 56 64
REMARK SMILES IDX 41 65 42 66 50 67 43 68 49 69 44 70 45 71 46 72 47 73 48 74
REMARK SMILES IDX 71 75 72 76 80 77 73 78 79 79 74 80 75 81 76 82 77 83 78 84
REMARK SMILES IDX 57 85 58 86 66 87 59 88 65 89 60 90 61 91 62 92 63 93 64 94
REMARK H PARENT 85 50 55 61
REMARK Flexibility Score: inf
ROOT
ATOM      1  C   UNL A   1      45.558  45.245  23.451  1.00  0.00     0.188 C 
ENDROOT
BRANCH   1   2
ATOM      2  C   UNL A   1      46.175  45.346  22.044  1.00  0.00     0.188 C 
BRANCH   2   3
ATOM      3  O   UNL A   1      45.867  46.550  21.368  1.00  0.00    -0.376 OA
BRANCH   3   4
ATOM      4  C   UNL A   1      46.889  47.417  20.909  1.00  0.00     0.202 C 
BRANCH   4   5
ATOM      5  C   UNL A   1      47.101  47.786  19.430  1.00  0.00     0.261 C 
BRANCH   5   6
ATOM      6  O   UNL A   1      47.579  49.101  19.144  1.00  0.00    -0.460 OA
BRANCH   6   7
ATOM      7  C   UNL A   1      46.980  49.762  18.139  1.00  0.00     0.330 C 
ATOM      8  O   UNL A   1      47.364  50.800  17.620  1.00  0.00    -0.247 OA
BRANCH   7   9
ATOM      9  C   UNL A   1      45.840  48.988  17.601  1.00  0.00     0.094 C 
ATOM     10  C   UNL A   1      44.600  49.457  17.376  1.00  0.00     0.016 C 
BRANCH  10  11
ATOM     11  C   UNL A   1      43.524  48.601  16.851  1.00  0.00    -0.022 A 
ATOM     12  C   UNL A   1      42.445  46.404  16.739  1.00  0.00    -0.035 A 
ATOM     13  C   UNL A   1      41.357  46.994  16.085  1.00  0.00     0.043 A 
ATOM     14  C   UNL A   1      43.526  47.223  17.122  1.00  0.00     0.013 A 
ATOM     15  C   UNL A   1      41.405  48.332  15.726  1.00  0.00     0.124 A 
ATOM     16  F   UNL A   1      40.392  48.861  15.026  1.00  0.00    -0.207 F 
ATOM     17  C   UNL A   1      42.481  49.130  16.082  1.00  0.00     0.047 A 
BRANCH  12  18
ATOM     18  C   UNL A   1      42.443  44.927  17.033  1.00  0.00     0.105 C 
BRANCH  18  19
ATOM     19  S   UNL A   1      43.633  44.403  18.308  1.00  0.00    -0.154 SA
BRANCH  19  20
ATOM     20  C   UNL A   1      42.654  43.334  19.452  1.00  0.00     0.043 C 
ATOM     21  C   UNL A   1      41.159  43.392  19.142  1.00  0.00     0.019 C 
BRANCH  20  22
ATOM     22  C   UNL A   1      43.010  43.535  20.933  1.00  0.00     0.011 C 
ATOM     23  C   UNL A   1      41.930  43.046  21.891  1.00  0.00     0.005 C 
ENDBRANCH  20  22
ENDBRANCH  19  20
ENDBRANCH  18  19
ENDBRANCH  12  18
ENDBRANCH  10  11
ENDBRANCH   7   9
ENDBRANCH   6   7
ENDBRANCH   5   6
ENDBRANCH   4   5
ENDBRANCH   3   4
ENDBRANCH   2   3
ENDBRANCH   1   2
BRANCH   1  24
ATOM     24  O   UNL A   1      46.230  44.380  24.350  1.00  0.00    -0.377 OA
BRANCH  24  25
ATOM     25  C   UNL A   1      45.872  44.389  25.733  1.00  0.00     0.188 C 
BRANCH  25  26
ATOM     26  C   UNL A   1      46.591  43.528  26.802  1.00  0.00     0.188 C 
BRANCH  26  27
ATOM     27  O   UNL A   1      46.564  42.129  26.567  1.00  0.00    -0.376 OA
BRANCH  27  28
ATOM     28  C   UNL A   1      46.363  41.273  27.679  1.00  0.00     0.202 C 
BRANCH  28  29
ATOM     29  C   UNL A   1      46.452  41.936  29.060  1.00  0.00     0.261 C 
BRANCH  29  30
ATOM     30  O   UNL A   1      45.921  41.168  30.151  1.00  0.00    -0.460 OA
BRANCH  30  31
ATOM     31  C   UNL A   1      46.715  40.194  30.640  1.00  0.00     0.338 C 
ATOM     32  O   UNL A   1      47.937  40.149  30.588  1.00  0.00    -0.246 OA
BRANCH  31  33
ATOM     33  C   UNL A   1      45.883  39.263  31.425  1.00  0.00     0.060 A 
ATOM     34  C   UNL A   1      44.537  39.583  31.640  1.00  0.00     0.016 A 
ATOM     35  C   UNL A   1      46.433  38.100  31.972  1.00  0.00     0.016 A 
ATOM     36  C   UNL A   1      43.758  38.784  32.472  1.00  0.00     0.010 A 
ATOM     37  C   UNL A   1      45.654  37.307  32.819  1.00  0.00     0.010 A 
ATOM     38  C   UNL A   1      44.331  37.682  33.119  1.00  0.00    -0.014 A 
BRANCH  38  39
ATOM     39  C   UNL A   1      43.637  37.107  34.298  1.00  0.00     0.031 A 
ATOM     40  C   UNL A   1      43.844  37.776  35.634  1.00  0.00     0.074 A 
ATOM     41  C   UNL A   1      42.784  36.073  34.183  1.00  0.00     0.049 A 
ATOM     42  N   UNL A   1      43.323  37.488  36.798  1.00  0.00    -0.248 NA
ATOM     43  C   UNL A   1      44.766  38.925  35.657  1.00  0.00     0.031 C 
ATOM     44  C   UNL A   1      42.458  35.375  32.940  1.00  0.00     0.029 A 
ATOM     45  N   UNL A   1      42.027  35.437  35.135  1.00  0.00    -0.354 N 
ATOM     46  C   UNL A   1      43.856  38.414  37.688  1.00  0.00     0.074 A 
ATOM     47  C   UNL A   1      44.771  39.245  36.942  1.00  0.00     0.031 C 
ATOM     48  C   UNL A   1      41.563  34.407  33.207  1.00  0.00     0.029 A 
ATOM     49  C   UNL A   1      41.275  34.398  34.641  1.00  0.00     0.049 A 
ATOM     50  H   UNL A   1      42.024  35.700  36.084  1.00  0.00     0.167 HD
ATOM     51  C   UNL A   1      43.599  38.570  39.008  1.00  0.00     0.031 A 
ATOM     52  C   UNL A   1      40.455  33.536  35.276  1.00  0.00     0.031 A 
ATOM     53  C   UNL A   1      42.696  37.734  39.753  1.00  0.00     0.049 A 
ATOM     54  C   UNL A   1      40.238  33.684  36.761  1.00  0.00     0.074 A 
ATOM     55  C   UNL A   1      42.361  37.811  41.093  1.00  0.00     0.029 A 
ATOM     56  N   UNL A   1      41.988  36.666  39.223  1.00  0.00    -0.354 N 
ATOM     57  N   UNL A   1      40.736  34.575  37.587  1.00  0.00    -0.248 NA
ATOM     58  C   UNL A   1      39.329  32.719  37.397  1.00  0.00     0.031 C 
ATOM     59  C   UNL A   1      41.499  36.749  41.388  1.00  0.00     0.029 A 
ATOM     60  C   UNL A   1      41.234  36.061  40.215  1.00  0.00     0.049 A 
ATOM     61  H   UNL A   1      42.017  36.381  38.282  1.00  0.00     0.167 HD
ATOM     62  C   UNL A   1      40.167  34.303  38.829  1.00  0.00     0.074 A 
ATOM     63  C   UNL A   1      39.282  33.173  38.642  1.00  0.00     0.031 C 
ATOM     64  C   UNL A   1      40.354  34.937  40.015  1.00  0.00     0.031 A 
BRANCH  51  65
ATOM     65  C   UNL A   1      44.337  39.663  39.737  1.00  0.00    -0.014 A 
ATOM     66  C   UNL A   1      43.852  40.984  39.766  1.00  0.00     0.010 A 
ATOM     67  C   UNL A   1      45.525  39.357  40.425  1.00  0.00     0.010 A 
ATOM     68  C   UNL A   1      44.562  41.984  40.438  1.00  0.00     0.020 A 
ATOM     69  C   UNL A   1      46.220  40.347  41.126  1.00  0.00     0.020 A 
ATOM     70  C   UNL A   1      45.741  41.659  41.112  1.00  0.00     0.054 A 
BRANCH  70  71
ATOM     71  S   UNL A   1      46.628  42.971  41.997  1.00  0.00     0.124 S 
ATOM     72  O   UNL A   1      47.855  43.088  41.211  1.00  0.00    -0.237 OA
ATOM     73  O   UNL A   1      45.708  44.101  41.897  1.00  0.00    -0.237 OA
ATOM     74  O   UNL A   1      46.800  42.428  43.342  1.00  0.00    -0.744 OA
ENDBRANCH  70  71
ENDBRANCH  51  65
BRANCH  52  75
ATOM     75  C   UNL A   1      39.781  32.447  34.514  1.00  0.00    -0.014 A 
ATOM     76  C   UNL A   1      40.474  31.278  34.154  1.00  0.00     0.010 A 
ATOM     77  C   UNL A   1      38.433  32.584  34.130  1.00  0.00     0.010 A 
ATOM     78  C   UNL A   1      39.842  30.278  33.407  1.00  0.00     0.020 A 
ATOM     79  C   UNL A   1      37.789  31.573  33.412  1.00  0.00     0.020 A 
ATOM     80  C   UNL A   1      38.501  30.432  33.044  1.00  0.00     0.054 A 
BRANCH  80  81
ATOM     81  S   UNL A   1      37.688  29.101  32.116  1.00  0.00     0.124 S 
ATOM     82  O   UNL A   1      38.726  28.713  31.166  1.00  0.00    -0.237 OA
ATOM     83  O   UNL A   1      37.389  28.126  33.163  1.00  0.00    -0.237 OA
ATOM     84  O   UNL A   1      36.518  29.755  31.533  1.00  0.00    -0.744 OA
ENDBRANCH  80  81
ENDBRANCH  52  75
BRANCH  64  85
ATOM     85  C   UNL A   1      39.537  34.469  41.193  1.00  0.00    -0.014 A 
ATOM     86  C   UNL A   1      40.001  33.472  42.069  1.00  0.00     0.010 A 
ATOM     87  C   UNL A   1      38.291  35.074  41.446  1.00  0.00     0.010 A 
ATOM     88  C   UNL A   1      39.211  33.053  43.144  1.00  0.00     0.020 A 
ATOM     89  C   UNL A   1      37.515  34.682  42.540  1.00  0.00     0.020 A 
ATOM     90  C   UNL A   1      37.971  33.658  43.369  1.00  0.00     0.054 A 
BRANCH  90  91
ATOM     91  S   UNL A   1      36.971  33.105  44.777  1.00  0.00     0.124 S 
ATOM     92  O   UNL A   1      35.640  33.010  44.185  1.00  0.00    -0.237 OA
ATOM     93  O   UNL A   1      37.594  31.833  45.135  1.00  0.00    -0.237 OA
ATOM     94  O   UNL A   1      37.138  34.172  45.762  1.00  0.00    -0.744 OA
ENDBRANCH  90  91
ENDBRANCH  64  85
ENDBRANCH  38  39
ENDBRANCH  31  33
ENDBRANCH  30  31
ENDBRANCH  29  30
ENDBRANCH  28  29
ENDBRANCH  27  28
ENDBRANCH  26  27
ENDBRANCH  25  26
ENDBRANCH  24  25
ENDBRANCH   1  24
TORSDOF 28
ENDMDL
MODEL 3
REMARK VINA RESULT:      -6.3      4.950     14.016
REMARK SMILES CC[C@@H](C)SCc1cc(F)cc(/C=C/C(=O)OCCOCCOCCOCCOC(=O)c2ccc(-c3c4nc(c(-c5ccc(S(=O)(=O)[O-])cc5)c5ccc([nH]5)c(-c5ccc(S(=O)(=O)[O-])cc5)c5nc(c(-c6ccc(S(=O)(=O)[O-])cc6)c6ccc3[nH]6)C=C5)C=C4)cc2)c1
REMARK SMILES IDX 22 1 21 2 20 3 19 4 18 5 17 6 15 7 16 8 14 9 13 10 12 11
REMARK SMILES IDX 7 12 8 13 92 14 9 15 10 16 11 17 6 18 5 19 3 20 4 21 2 22
REMARK SMILES IDX 1 23 23 24 24 25 25 26 26 27 27 28 28 29 29 30 30 31 31 32
REMARK SMILES IDX 32 33 33 34 91 35 34 36 90 37 35 38 36 39 37 40 84 41 38 42
REMARK SMILES IDX 89 43 83 44 85 45 39 46 88 47 82 48 81 49 40 51 70 52 51 53
REMARK SMILES IDX 69 54 52 55 55 56 68 57 86 58 53 59 54 60 67 62 87 63 56 64
REMARK SMILES IDX 41 65 42 66 50 67 43 68 49 69 44 70 45 71 46 72 47 73 48 74
REMARK SMILES IDX 71 75 72 76 80 77 73 78 79 79 74 80 75 81 76 82 77 83 78 84
REMARK SMILES IDX 57 85 58 86 66 87 59 88 65 89 60 90 61 91 62 92 63 93 64 94
REMARK H PARENT 85 50 55 61
REMARK Flexibility Score: inf
ROOT
ATOM      1  C   UNL A   1      43.596  37.314  35.304  1.00  0.00     0.188 C 
ENDROOT
BRANCH   1   2
ATOM      2  C   UNL A   1      43.672  38.190  34.040  1.00  0.00     0.188 C 
BRANCH   2   3
ATOM      3  O   UNL A   1      42.889  39.366  34.110  1.00  0.00    -0.376 OA
BRANCH   3   4
ATOM      4  C   UNL A   1      43.384  40.608  33.639  1.00  0.00     0.202 C 
BRANCH   4   5
ATOM      5  C   UNL A   1      43.891  40.842  32.205  1.00  0.00     0.261 C 
BRANCH   5   6
ATOM      6  O   UNL A   1      44.684  42.007  31.972  1.00  0.00    -0.460 OA
BRANCH   6   7
ATOM      7  C   UNL A   1      45.803  41.846  31.246  1.00  0.00     0.330 C 
ATOM      8  O   UNL A   1      46.687  41.026  31.443  1.00  0.00    -0.247 OA
BRANCH   7   9
ATOM      9  C   UNL A   1      45.779  42.703  30.040  1.00  0.00     0.094 C 
ATOM     10  C   UNL A   1      45.874  42.281  28.766  1.00  0.00     0.016 C 
BRANCH  10  11
ATOM     11  C   UNL A   1      45.855  43.217  27.630  1.00  0.00    -0.022 A 
ATOM     12  C   UNL A   1      46.973  44.954  26.312  1.00  0.00    -0.035 A 
ATOM     13  C   UNL A   1      45.975  44.828  25.338  1.00  0.00     0.043 A 
ATOM     14  C   UNL A   1      46.903  44.136  27.458  1.00  0.00     0.013 A 
ATOM     15  C   UNL A   1      44.888  43.998  25.560  1.00  0.00     0.124 A 
ATOM     16  F   UNL A   1      43.899  43.953  24.657  1.00  0.00    -0.207 F 
ATOM     17  C   UNL A   1      44.808  43.213  26.700  1.00  0.00     0.047 A 
BRANCH  12  18
ATOM     18  C   UNL A   1      48.098  45.936  26.123  1.00  0.00     0.105 C 
BRANCH  18  19
ATOM     19  S   UNL A   1      49.228  46.081  27.544  1.00  0.00    -0.154 SA
BRANCH  19  20
ATOM     20  C   UNL A   1      49.559  47.891  27.697  1.00  0.00     0.043 C 
ATOM     21  C   UNL A   1      48.571  48.571  28.644  1.00  0.00     0.019 C 
BRANCH  20  22
ATOM     22  C   UNL A   1      49.738  48.597  26.344  1.00  0.00     0.011 C 
ATOM     23  C   UNL A   1      51.197  48.774  25.937  1.00  0.00     0.005 C 
ENDBRANCH  20  22
ENDBRANCH  19  20
ENDBRANCH  18  19
ENDBRANCH  12  18
ENDBRANCH  10  11
ENDBRANCH   7   9
ENDBRANCH   6   7
ENDBRANCH   5   6
ENDBRANCH   4   5
ENDBRANCH   3   4
ENDBRANCH   2   3
ENDBRANCH   1   2
BRANCH   1  24
ATOM     24  O   UNL A   1      42.521  36.392  35.342  1.00  0.00    -0.377 OA
BRANCH  24  25
ATOM     25  C   UNL A   1      41.741  36.173  34.165  1.00  0.00     0.188 C 
BRANCH  25  26
ATOM     26  C   UNL A   1      41.708  34.821  33.408  1.00  0.00     0.188 C 
BRANCH  26  27
ATOM     27  O   UNL A   1      40.686  34.703  32.431  1.00  0.00    -0.376 OA
BRANCH  27  28
ATOM     28  C   UNL A   1      39.537  33.943  32.762  1.00  0.00     0.202 C 
BRANCH  28  29
ATOM     29  C   UNL A   1      38.281  34.227  31.926  1.00  0.00     0.261 C 
BRANCH  29  30
ATOM     30  O   UNL A   1      37.478  33.081  31.605  1.00  0.00    -0.460 OA
BRANCH  30  31
ATOM     31  C   UNL A   1      37.754  31.947  32.280  1.00  0.00     0.338 C 
ATOM     32  O   UNL A   1      37.234  31.570  33.322  1.00  0.00    -0.246 OA
BRANCH  31  33
ATOM     33  C   UNL A   1      38.662  31.123  31.461  1.00  0.00     0.060 A 
ATOM     34  C   UNL A   1      39.435  30.143  32.095  1.00  0.00     0.016 A 
ATOM     35  C   UNL A   1      38.774  31.335  30.084  1.00  0.00     0.016 A 
ATOM     36  C   UNL A   1      40.384  29.428  31.369  1.00  0.00     0.010 A 
ATOM     37  C   UNL A   1      39.737  30.627  29.359  1.00  0.00     0.010 A 
ATOM     38  C   UNL A   1      40.586  29.716  30.013  1.00  0.00    -0.014 A 
BRANCH  38  39
ATOM     39  C   UNL A   1      41.847  29.270  29.371  1.00  0.00     0.031 A 
ATOM     40  C   UNL A   1      42.982  30.260  29.283  1.00  0.00     0.074 A 
ATOM     41  C   UNL A   1      42.018  28.005  28.947  1.00  0.00     0.049 A 
ATOM     42  N   UNL A   1      44.189  30.102  28.806  1.00  0.00    -0.248 NA
ATOM     43  C   UNL A   1      42.716  31.612  29.808  1.00  0.00     0.031 C 
ATOM     44  C   UNL A   1      41.018  26.941  29.024  1.00  0.00     0.029 A 
ATOM     45  N   UNL A   1      43.109  27.401  28.374  1.00  0.00    -0.354 N 
ATOM     46  C   UNL A   1      44.821  31.331  28.966  1.00  0.00     0.074 A 
ATOM     47  C   UNL A   1      43.855  32.235  29.546  1.00  0.00     0.031 C 
ATOM     48  C   UNL A   1      41.545  25.811  28.518  1.00  0.00     0.029 A 
ATOM     49  C   UNL A   1      42.907  26.079  28.057  1.00  0.00     0.049 A 
ATOM     50  H   UNL A   1      43.958  27.871  28.206  1.00  0.00     0.167 HD
ATOM     51  C   UNL A   1      46.096  31.676  28.670  1.00  0.00     0.031 A 
ATOM     52  C   UNL A   1      43.725  25.191  27.455  1.00  0.00     0.031 A 
ATOM     53  C   UNL A   1      47.053  30.778  28.081  1.00  0.00     0.049 A 
ATOM     54  C   UNL A   1      45.119  25.618  27.069  1.00  0.00     0.074 A 
ATOM     55  C   UNL A   1      48.372  31.027  27.747  1.00  0.00     0.029 A 
ATOM     56  N   UNL A   1      46.793  29.461  27.736  1.00  0.00    -0.354 N 
ATOM     57  N   UNL A   1      45.708  26.778  27.242  1.00  0.00    -0.248 NA
ATOM     58  C   UNL A   1      45.966  24.606  26.422  1.00  0.00     0.031 C 
ATOM     59  C   UNL A   1      48.891  29.879  27.139  1.00  0.00     0.029 A 
ATOM     60  C   UNL A   1      47.921  28.890  27.170  1.00  0.00     0.049 A 
ATOM     61  H   UNL A   1      45.934  29.000  27.872  1.00  0.00     0.167 HD
ATOM     62  C   UNL A   1      47.007  26.621  26.766  1.00  0.00     0.074 A 
ATOM     63  C   UNL A   1      47.118  25.252  26.308  1.00  0.00     0.031 C 
ATOM     64  C   UNL A   1      48.019  27.524  26.721  1.00  0.00     0.031 A 
BRANCH  51  65
ATOM     65  C   UNL A   1      46.513  33.098  28.942  1.00  0.00    -0.014 A 
ATOM     66  C   UNL A   1      46.368  34.105  27.970  1.00  0.00     0.010 A 
ATOM     67  C   UNL A   1      47.035  33.438  30.203  1.00  0.00     0.010 A 
ATOM     68  C   UNL A   1      46.775  35.415  28.241  1.00  0.00     0.020 A 
ATOM     69  C   UNL A   1      47.411  34.753  30.490  1.00  0.00     0.020 A 
ATOM     70  C   UNL A   1      47.294  35.730  29.499  1.00  0.00     0.054 A 
BRANCH  70  71
ATOM     71  S   UNL A   1      47.789  37.443  29.833  1.00  0.00     0.124 S 
ATOM     72  O   UNL A   1      48.779  37.680  28.784  1.00  0.00    -0.237 OA
ATOM     73  O   UNL A   1      46.532  38.172  29.686  1.00  0.00    -0.237 OA
ATOM     74  O   UNL A   1      48.322  37.393  31.192  1.00  0.00    -0.744 OA
ENDBRANCH  70  71
ENDBRANCH  51  65
BRANCH  52  75
ATOM     75  C   UNL A   1      43.247  23.807  27.172  1.00  0.00    -0.014 A 
ATOM     76  C   UNL A   1      43.198  22.837  28.189  1.00  0.00     0.010 A 
ATOM     77  C   UNL A   1      42.850  23.450  25.871  1.00  0.00     0.010 A 
ATOM     78  C   UNL A   1      42.783  21.532  27.904  1.00  0.00     0.020 A 
ATOM     79  C   UNL A   1      42.403  22.156  25.590  1.00  0.00     0.020 A 
ATOM     80  C   UNL A   1      42.385  21.201  26.606  1.00  0.00     0.054 A 
BRANCH  80  81
ATOM     81  S   UNL A   1      41.805  19.515  26.271  1.00  0.00     0.124 S 
ATOM     82  O   UNL A   1      42.517  19.186  25.040  1.00  0.00    -0.237 OA
ATOM     83  O   UNL A   1      42.236  18.792  27.466  1.00  0.00    -0.237 OA
ATOM     84  O   UNL A   1      40.358  19.670  26.136  1.00  0.00    -0.744 OA
ENDBRANCH  80  81
ENDBRANCH  52  75
BRANCH  64  85
ATOM     85  C   UNL A   1      49.359  27.047  26.217  1.00  0.00    -0.014 A 
ATOM     86  C   UNL A   1      50.296  26.433  27.068  1.00  0.00     0.010 A 
ATOM     87  C   UNL A   1      49.666  27.186  24.850  1.00  0.00     0.010 A 
ATOM     88  C   UNL A   1      51.534  26.016  26.570  1.00  0.00     0.020 A 
ATOM     89  C   UNL A   1      50.888  26.737  24.342  1.00  0.00     0.020 A 
ATOM     90  C   UNL A   1      51.823  26.175  25.211  1.00  0.00     0.054 A 
BRANCH  90  91
ATOM     91  S   UNL A   1      53.430  25.613  24.587  1.00  0.00     0.124 S 
ATOM     92  O   UNL A   1      53.318  25.899  23.159  1.00  0.00    -0.237 OA
ATOM     93  O   UNL A   1      54.372  26.451  25.325  1.00  0.00    -0.237 OA
ATOM     94  O   UNL A   1      53.462  24.194  24.936  1.00  0.00    -0.744 OA
ENDBRANCH  90  91
ENDBRANCH  64  85
ENDBRANCH  38  39
ENDBRANCH  31  33
ENDBRANCH  30  31
ENDBRANCH  29  30
ENDBRANCH  28  29
ENDBRANCH  27  28
ENDBRANCH  26  27
ENDBRANCH  25  26
ENDBRANCH  24  25
ENDBRANCH   1  24
TORSDOF 28
ENDMDL
