MODEL 1
REMARK VINA RESULT:     -11.1      0.000      0.000
REMARK SMILES CC1(C)O[C@@H]2C[C@@H]3[C@H]4CCC5=CC(=O)C=C[C@@]5(C)[C@]4(F)[C@H](O)C[C@]3(C)[C@]2(C(=O)OCCOCCOCCOCCOC(=O)c2ccc(-c3c4nc(c(-c5ccc(S(=O)(=O)[O-])cc5)c5ccc([nH]5)c(-c5ccc(S(=O)(=O)[O-])cc5)c5nc(c(-c6ccc(S(=O)(=O)[O-])cc6)c6ccc3[nH]6)C=C5)C=C4)cc2)O1
REMARK SMILES IDX 36 1 35 2 34 3 33 4 32 5 31 6 30 7 29 8 27 9 28 10 26 11
REMARK SMILES IDX 1 12 2 13 4 14 104 15 3 16 5 17 6 18 24 19 7 20 23 21 25 22
REMARK SMILES IDX 8 23 21 24 9 25 19 26 10 27 17 28 20 29 11 30 16 31 18 32
REMARK SMILES IDX 12 33 15 34 13 35 14 36 22 37 37 39 38 40 39 41 40 42 41 43
REMARK SMILES IDX 42 44 43 45 44 46 45 47 103 48 46 49 102 50 47 51 48 52
REMARK SMILES IDX 49 53 96 54 50 55 101 56 95 57 97 58 51 59 100 60 94 61
REMARK SMILES IDX 93 62 52 64 82 65 63 66 81 67 64 68 67 69 80 70 98 71 65 72
REMARK SMILES IDX 66 73 79 75 99 76 68 77 53 78 54 79 62 80 55 81 61 82 56 83
REMARK SMILES IDX 57 84 58 85 59 86 60 87 83 88 84 89 92 90 85 91 91 92 86 93
REMARK SMILES IDX 87 94 88 95 89 96 90 97 69 98 70 99 78 100 71 101 77 102
REMARK SMILES IDX 72 103 73 104 74 105 75 106 76 107
REMARK H PARENT 22 38 97 63 67 74
REMARK Flexibility Score: inf
ROOT
ATOM      1  C   UNL A   1      33.710  34.798  30.324  1.00  0.00     0.188 C 
ENDROOT
BRANCH   1   2
ATOM      2  O   UNL A   1      33.944  33.972  29.201  1.00  0.00    -0.377 OA
BRANCH   2   3
ATOM      3  C   UNL A   1      35.240  33.439  29.028  1.00  0.00     0.188 C 
BRANCH   3   4
ATOM      4  C   UNL A   1      35.508  32.249  28.086  1.00  0.00     0.188 C 
BRANCH   4   5
ATOM      5  O   UNL A   1      34.449  31.962  27.193  1.00  0.00    -0.376 OA
BRANCH   5   6
ATOM      6  C   UNL A   1      33.850  30.679  27.254  1.00  0.00     0.202 C 
BRANCH   6   7
ATOM      7  C   UNL A   1      32.360  30.538  26.862  1.00  0.00     0.261 C 
BRANCH   7   8
ATOM      8  O   UNL A   1      32.029  29.871  25.624  1.00  0.00    -0.461 OA
BRANCH   8   9
ATOM      9  C   UNL A   1      31.724  28.570  25.742  1.00  0.00     0.341 C 
ATOM     10  O   UNL A   1      31.481  28.024  26.820  1.00  0.00    -0.249 OA
BRANCH   9  11
ATOM     11  C   UNL A   1      31.775  27.736  24.475  1.00  0.00     0.200 C 
ATOM     12  C   UNL A   1      28.430  27.422  23.720  1.00  0.00     0.075 C 
ATOM     13  C   UNL A   1      29.815  26.810  23.474  1.00  0.00     0.165 C 
ATOM     14  O   UNL A   1      30.427  27.605  22.462  1.00  0.00    -0.344 OA
ATOM     15  O   UNL A   1      30.680  26.759  24.635  1.00  0.00    -0.329 OA
ATOM     16  C   UNL A   1      29.479  25.391  22.976  1.00  0.00     0.075 C 
ATOM     17  C   UNL A   1      31.664  28.139  22.978  1.00  0.00     0.166 C 
ATOM     18  C   UNL A   1      32.810  27.307  22.215  1.00  0.00     0.040 C 
ATOM     19  C   UNL A   1      33.253  27.157  24.529  1.00  0.00     0.016 C 
ATOM     20  C   UNL A   1      33.166  26.232  23.293  1.00  0.00     0.008 C 
ATOM     21  C   UNL A   1      33.856  26.464  25.769  1.00  0.00     0.046 C 
ATOM     22  C   UNL A   1      34.261  28.368  24.340  1.00  0.00     0.015 C 
ATOM     23  C   UNL A   1      32.931  24.713  23.647  1.00  0.00     0.035 C 
ATOM     24  C   UNL A   1      33.311  25.110  26.135  1.00  0.00     0.154 C 
ATOM     25  C   UNL A   1      33.128  23.787  22.449  1.00  0.00     0.012 C 
ATOM     26  C   UNL A   1      33.487  24.123  24.951  1.00  0.00     0.152 C 
ATOM     27  C   UNL A   1      32.391  22.468  22.684  1.00  0.00     0.032 C 
ATOM     28  C   UNL A   1      32.828  22.705  25.242  1.00  0.00     0.044 C 
ATOM     29  F   UNL A   1      34.835  23.952  24.753  1.00  0.00    -0.239 F 
ATOM     30  C   UNL A   1      32.719  21.815  24.000  1.00  0.00    -0.053 C 
ATOM     31  C   UNL A   1      33.628  21.968  26.308  1.00  0.00    -0.009 C 
ATOM     32  C   UNL A   1      31.359  22.800  25.795  1.00  0.00     0.024 C 
ATOM     33  C   UNL A   1      32.752  20.473  24.120  1.00  0.00     0.052 C 
ATOM     34  C   UNL A   1      33.401  20.672  26.564  1.00  0.00     0.048 C 
ATOM     35  C   UNL A   1      32.872  19.835  25.462  1.00  0.00     0.178 C 
ATOM     36  O   UNL A   1      32.647  18.643  25.623  1.00  0.00    -0.290 OA
BRANCH  24  37
ATOM     37  O   UNL A   1      31.990  25.230  26.638  1.00  0.00    -0.390 OA
ATOM     38  H   UNL A   1      32.000  25.773  27.442  1.00  0.00     0.211 HD
ENDBRANCH  24  37
ENDBRANCH   9  11
ENDBRANCH   8   9
ENDBRANCH   7   8
ENDBRANCH   6   7
ENDBRANCH   5   6
ENDBRANCH   4   5
ENDBRANCH   3   4
ENDBRANCH   2   3
ENDBRANCH   1   2
BRANCH   1  39
ATOM     39  C   UNL A   1      34.612  34.655  31.571  1.00  0.00     0.188 C 
BRANCH  39  40
ATOM     40  O   UNL A   1      34.546  33.403  32.239  1.00  0.00    -0.376 OA
BRANCH  40  41
ATOM     41  C   UNL A   1      35.613  33.040  33.099  1.00  0.00     0.202 C 
BRANCH  41  42
ATOM     42  C   UNL A   1      36.250  31.660  32.882  1.00  0.00     0.261 C 
BRANCH  42  43
ATOM     43  O   UNL A   1      36.869  31.451  31.608  1.00  0.00    -0.460 OA
BRANCH  43  44
ATOM     44  C   UNL A   1      37.048  30.176  31.205  1.00  0.00     0.338 C 
ATOM     45  O   UNL A   1      36.201  29.301  31.118  1.00  0.00    -0.246 OA
BRANCH  44  46
ATOM     46  C   UNL A   1      38.420  30.083  30.677  1.00  0.00     0.060 A 
ATOM     47  C   UNL A   1      38.632  30.227  29.298  1.00  0.00     0.016 A 
ATOM     48  C   UNL A   1      39.498  29.934  31.553  1.00  0.00     0.016 A 
ATOM     49  C   UNL A   1      39.929  30.226  28.791  1.00  0.00     0.010 A 
ATOM     50  C   UNL A   1      40.792  29.883  31.040  1.00  0.00     0.010 A 
ATOM     51  C   UNL A   1      41.008  30.004  29.656  1.00  0.00    -0.014 A 
BRANCH  51  52
ATOM     52  C   UNL A   1      42.318  29.627  29.087  1.00  0.00     0.031 A 
ATOM     53  C   UNL A   1      42.474  28.213  28.601  1.00  0.00     0.074 A 
ATOM     54  C   UNL A   1      43.331  30.506  28.986  1.00  0.00     0.049 A 
ATOM     55  N   UNL A   1      43.519  27.624  28.088  1.00  0.00    -0.248 NA
ATOM     56  C   UNL A   1      41.285  27.349  28.711  1.00  0.00     0.031 C 
ATOM     57  C   UNL A   1      43.279  31.914  29.380  1.00  0.00     0.029 A 
ATOM     58  N   UNL A   1      44.609  30.331  28.521  1.00  0.00    -0.354 N 
ATOM     59  C   UNL A   1      43.115  26.321  27.817  1.00  0.00     0.074 A 
ATOM     60  C   UNL A   1      41.742  26.198  28.247  1.00  0.00     0.031 C 
ATOM     61  C   UNL A   1      44.480  32.472  29.148  1.00  0.00     0.029 A 
ATOM     62  C   UNL A   1      45.391  31.456  28.621  1.00  0.00     0.049 A 
ATOM     63  H   UNL A   1      44.935  29.480  28.149  1.00  0.00     0.167 HD
ATOM     64  C   UNL A   1      43.826  25.317  27.257  1.00  0.00     0.031 A 
ATOM     65  C   UNL A   1      46.698  31.632  28.340  1.00  0.00     0.031 A 
ATOM     66  C   UNL A   1      45.202  25.436  26.861  1.00  0.00     0.049 A 
ATOM     67  C   UNL A   1      47.496  30.473  27.797  1.00  0.00     0.074 A 
ATOM     68  C   UNL A   1      46.014  24.480  26.280  1.00  0.00     0.029 A 
ATOM     69  N   UNL A   1      45.971  26.579  27.017  1.00  0.00    -0.354 N 
ATOM     70  N   UNL A   1      47.096  29.253  27.518  1.00  0.00    -0.248 NA
ATOM     71  C   UNL A   1      48.920  30.714  27.527  1.00  0.00     0.031 C 
ATOM     72  C   UNL A   1      47.294  25.026  26.144  1.00  0.00     0.029 A 
ATOM     73  C   UNL A   1      47.260  26.343  26.573  1.00  0.00     0.049 A 
ATOM     74  H   UNL A   1      45.649  27.431  27.390  1.00  0.00     0.167 HD
ATOM     75  C   UNL A   1      48.211  28.594  27.011  1.00  0.00     0.074 A 
ATOM     76  C   UNL A   1      49.298  29.551  27.009  1.00  0.00     0.031 C 
ATOM     77  C   UNL A   1      48.328  27.311  26.580  1.00  0.00     0.031 A 
BRANCH  64  78
ATOM     78  C   UNL A   1      43.133  23.993  27.088  1.00  0.00    -0.014 A 
ATOM     79  C   UNL A   1      42.538  23.631  25.865  1.00  0.00     0.010 A 
ATOM     80  C   UNL A   1      43.093  23.090  28.165  1.00  0.00     0.010 A 
ATOM     81  C   UNL A   1      41.884  22.404  25.735  1.00  0.00     0.020 A 
ATOM     82  C   UNL A   1      42.464  21.849  28.030  1.00  0.00     0.020 A 
ATOM     83  C   UNL A   1      41.851  21.522  26.819  1.00  0.00     0.054 A 
BRANCH  83  84
ATOM     84  S   UNL A   1      41.018  19.924  26.614  1.00  0.00     0.124 S 
ATOM     85  O   UNL A   1      41.909  19.237  25.683  1.00  0.00    -0.237 OA
ATOM     86  O   UNL A   1      41.003  19.395  27.976  1.00  0.00    -0.237 OA
ATOM     87  O   UNL A   1      39.708  20.281  26.074  1.00  0.00    -0.744 OA
ENDBRANCH  83  84
ENDBRANCH  64  78
BRANCH  65  88
ATOM     88  C   UNL A   1      47.345  32.951  28.587  1.00  0.00    -0.014 A 
ATOM     89  C   UNL A   1      48.164  33.153  29.713  1.00  0.00     0.010 A 
ATOM     90  C   UNL A   1      47.135  34.020  27.697  1.00  0.00     0.010 A 
ATOM     91  C   UNL A   1      48.748  34.403  29.950  1.00  0.00     0.020 A 
ATOM     92  C   UNL A   1      47.740  35.261  27.915  1.00  0.00     0.020 A 
ATOM     93  C   UNL A   1      48.535  35.448  29.047  1.00  0.00     0.054 A 
BRANCH  93  94
ATOM     94  S   UNL A   1      49.350  37.042  29.344  1.00  0.00     0.124 S 
ATOM     95  O   UNL A   1      48.580  37.941  28.491  1.00  0.00    -0.237 OA
ATOM     96  O   UNL A   1      49.170  37.222  30.782  1.00  0.00    -0.237 OA
ATOM     97  O   UNL A   1      50.729  36.803  28.921  1.00  0.00    -0.744 OA
ENDBRANCH  93  94
ENDBRANCH  65  88
BRANCH  77  98
ATOM     98  C   UNL A   1      49.663  26.875  26.035  1.00  0.00    -0.014 A 
ATOM     99  C   UNL A   1      50.050  27.180  24.718  1.00  0.00     0.010 A 
ATOM    100  C   UNL A   1      50.570  26.211  26.881  1.00  0.00     0.010 A 
ATOM    101  C   UNL A   1      51.311  26.798  24.249  1.00  0.00     0.020 A 
ATOM    102  C   UNL A   1      51.842  25.856  26.424  1.00  0.00     0.020 A 
ATOM    103  C   UNL A   1      52.198  26.139  25.106  1.00  0.00     0.054 A 
BRANCH 103 104
ATOM    104  S   UNL A   1      53.843  25.696  24.485  1.00  0.00     0.124 S 
ATOM    105  O   UNL A   1      54.721  26.374  25.435  1.00  0.00    -0.237 OA
ATOM    106  O   UNL A   1      53.834  24.237  24.567  1.00  0.00    -0.237 OA
ATOM    107  O   UNL A   1      53.860  26.237  23.127  1.00  0.00    -0.744 OA
ENDBRANCH 103 104
ENDBRANCH  77  98
ENDBRANCH  51  52
ENDBRANCH  44  46
ENDBRANCH  43  44
ENDBRANCH  42  43
ENDBRANCH  41  42
ENDBRANCH  40  41
ENDBRANCH  39  40
ENDBRANCH   1  39
TORSDOF 24
ENDMDL
MODEL 2
REMARK VINA RESULT:     -10.3      5.451     11.635
REMARK SMILES CC1(C)O[C@@H]2C[C@@H]3[C@H]4CCC5=CC(=O)C=C[C@@]5(C)[C@]4(F)[C@H](O)C[C@]3(C)[C@]2(C(=O)OCCOCCOCCOCCOC(=O)c2ccc(-c3c4nc(c(-c5ccc(S(=O)(=O)[O-])cc5)c5ccc([nH]5)c(-c5ccc(S(=O)(=O)[O-])cc5)c5nc(c(-c6ccc(S(=O)(=O)[O-])cc6)c6ccc3[nH]6)C=C5)C=C4)cc2)O1
REMARK SMILES IDX 36 1 35 2 34 3 33 4 32 5 31 6 30 7 29 8 27 9 28 10 26 11
REMARK SMILES IDX 1 12 2 13 4 14 104 15 3 16 5 17 6 18 24 19 7 20 23 21 25 22
REMARK SMILES IDX 8 23 21 24 9 25 19 26 10 27 17 28 20 29 11 30 16 31 18 32
REMARK SMILES IDX 12 33 15 34 13 35 14 36 22 37 37 39 38 40 39 41 40 42 41 43
REMARK SMILES IDX 42 44 43 45 44 46 45 47 103 48 46 49 102 50 47 51 48 52
REMARK SMILES IDX 49 53 96 54 50 55 101 56 95 57 97 58 51 59 100 60 94 61
REMARK SMILES IDX 93 62 52 64 82 65 63 66 81 67 64 68 67 69 80 70 98 71 65 72
REMARK SMILES IDX 66 73 79 75 99 76 68 77 53 78 54 79 62 80 55 81 61 82 56 83
REMARK SMILES IDX 57 84 58 85 59 86 60 87 83 88 84 89 92 90 85 91 91 92 86 93
REMARK SMILES IDX 87 94 88 95 89 96 90 97 69 98 70 99 78 100 71 101 77 102
REMARK SMILES IDX 72 103 73 104 74 105 75 106 76 107
REMARK H PARENT 22 38 97 63 67 74
REMARK Flexibility Score: inf
ROOT
ATOM      1  C   UNL A   1      41.468  20.816  26.432  1.00  0.00     0.188 C 
ENDROOT
BRANCH   1   2
ATOM      2  O   UNL A   1      40.452  21.565  25.796  1.00  0.00    -0.377 OA
BRANCH   2   3
ATOM      3  C   UNL A   1      39.111  21.172  26.000  1.00  0.00     0.188 C 
BRANCH   3   4
ATOM      4  C   UNL A   1      37.954  21.785  25.186  1.00  0.00     0.188 C 
BRANCH   4   5
ATOM      5  O   UNL A   1      36.667  21.370  25.600  1.00  0.00    -0.376 OA
BRANCH   5   6
ATOM      6  C   UNL A   1      36.145  20.168  25.064  1.00  0.00     0.202 C 
BRANCH   6   7
ATOM      7  C   UNL A   1      34.635  20.096  24.735  1.00  0.00     0.261 C 
BRANCH   7   8
ATOM      8  O   UNL A   1      33.685  20.497  25.748  1.00  0.00    -0.461 OA
BRANCH   8   9
ATOM      9  C   UNL A   1      33.552  21.821  25.912  1.00  0.00     0.341 C 
ATOM     10  O   UNL A   1      33.872  22.412  26.946  1.00  0.00    -0.249 OA
BRANCH   9  11
ATOM     11  C   UNL A   1      32.889  22.590  24.784  1.00  0.00     0.200 C 
ATOM     12  C   UNL A   1      35.546  23.122  22.659  1.00  0.00     0.075 C 
ATOM     13  C   UNL A   1      34.142  23.615  23.028  1.00  0.00     0.165 C 
ATOM     14  O   UNL A   1      33.228  22.730  22.386  1.00  0.00    -0.344 OA
ATOM     15  O   UNL A   1      33.857  23.653  24.448  1.00  0.00    -0.329 OA
ATOM     16  C   UNL A   1      34.105  25.031  22.422  1.00  0.00     0.075 C 
ATOM     17  C   UNL A   1      32.384  22.128  23.388  1.00  0.00     0.166 C 
ATOM     18  C   UNL A   1      30.953  22.834  23.187  1.00  0.00     0.040 C 
ATOM     19  C   UNL A   1      31.532  23.056  25.464  1.00  0.00     0.016 C 
ATOM     20  C   UNL A   1      31.000  23.928  24.303  1.00  0.00     0.008 C 
ATOM     21  C   UNL A   1      31.460  23.758  26.837  1.00  0.00     0.046 C 
ATOM     22  C   UNL A   1      30.652  21.765  25.738  1.00  0.00     0.015 C 
ATOM     23  C   UNL A   1      31.229  25.475  24.508  1.00  0.00     0.035 C 
ATOM     24  C   UNL A   1      31.987  25.164  26.920  1.00  0.00     0.154 C 
ATOM     25  C   UNL A   1      30.456  26.327  23.504  1.00  0.00     0.012 C 
ATOM     26  C   UNL A   1      31.235  26.080  25.919  1.00  0.00     0.152 C 
ATOM     27  C   UNL A   1      31.104  27.708  23.387  1.00  0.00     0.032 C 
ATOM     28  C   UNL A   1      31.827  27.555  25.885  1.00  0.00     0.044 C 
ATOM     29  F   UNL A   1      29.922  26.139  26.320  1.00  0.00    -0.239 F 
ATOM     30  C   UNL A   1      31.314  28.394  24.710  1.00  0.00    -0.053 C 
ATOM     31  C   UNL A   1      31.499  28.278  27.186  1.00  0.00    -0.009 C 
ATOM     32  C   UNL A   1      33.393  27.598  25.753  1.00  0.00     0.024 C 
ATOM     33  C   UNL A   1      31.218  29.733  24.821  1.00  0.00     0.052 C 
ATOM     34  C   UNL A   1      31.698  29.598  27.307  1.00  0.00     0.048 C 
ATOM     35  C   UNL A   1      31.628  30.421  26.079  1.00  0.00     0.178 C 
ATOM     36  O   UNL A   1      31.794  31.633  26.116  1.00  0.00    -0.290 OA
BRANCH  24  37
ATOM     37  O   UNL A   1      33.401  25.169  26.807  1.00  0.00    -0.390 OA
ATOM     38  H   UNL A   1      33.655  24.841  25.930  1.00  0.00     0.211 HD
ENDBRANCH  24  37
ENDBRANCH   9  11
ENDBRANCH   8   9
ENDBRANCH   7   8
ENDBRANCH   6   7
ENDBRANCH   5   6
ENDBRANCH   4   5
ENDBRANCH   3   4
ENDBRANCH   2   3
ENDBRANCH   1   2
BRANCH   1  39
ATOM     39  C   UNL A   1      42.949  21.157  26.151  1.00  0.00     0.188 C 
BRANCH  39  40
ATOM     40  O   UNL A   1      43.284  22.537  26.206  1.00  0.00    -0.376 OA
BRANCH  40  41
ATOM     41  C   UNL A   1      43.116  23.318  25.034  1.00  0.00     0.202 C 
BRANCH  41  42
ATOM     42  C   UNL A   1      43.364  24.829  25.158  1.00  0.00     0.261 C 
BRANCH  42  43
ATOM     43  O   UNL A   1      42.318  25.584  25.779  1.00  0.00    -0.460 OA
BRANCH  43  44
ATOM     44  C   UNL A   1      42.360  26.926  25.652  1.00  0.00     0.338 C 
ATOM     45  O   UNL A   1      42.271  27.575  24.622  1.00  0.00    -0.246 OA
BRANCH  44  46
ATOM     46  C   UNL A   1      42.316  27.486  27.014  1.00  0.00     0.060 A 
ATOM     47  C   UNL A   1      41.616  26.796  28.013  1.00  0.00     0.016 A 
ATOM     48  C   UNL A   1      43.031  28.648  27.315  1.00  0.00     0.016 A 
ATOM     49  C   UNL A   1      41.634  27.266  29.324  1.00  0.00     0.010 A 
ATOM     50  C   UNL A   1      43.007  29.145  28.617  1.00  0.00     0.010 A 
ATOM     51  C   UNL A   1      42.288  28.469  29.617  1.00  0.00    -0.014 A 
BRANCH  51  52
ATOM     52  C   UNL A   1      41.993  29.154  30.892  1.00  0.00     0.031 A 
ATOM     53  C   UNL A   1      40.788  30.053  30.925  1.00  0.00     0.074 A 
ATOM     54  C   UNL A   1      42.750  28.977  31.988  1.00  0.00     0.049 A 
ATOM     55  N   UNL A   1      40.327  30.786  31.902  1.00  0.00    -0.248 NA
ATOM     56  C   UNL A   1      39.999  30.134  29.683  1.00  0.00     0.031 C 
ATOM     57  C   UNL A   1      43.912  28.094  32.087  1.00  0.00     0.029 A 
ATOM     58  N   UNL A   1      42.650  29.545  33.233  1.00  0.00    -0.354 N 
ATOM     59  C   UNL A   1      39.197  31.415  31.393  1.00  0.00     0.074 A 
ATOM     60  C   UNL A   1      39.058  31.003  30.015  1.00  0.00     0.031 C 
ATOM     61  C   UNL A   1      44.424  28.190  33.327  1.00  0.00     0.029 A 
ATOM     62  C   UNL A   1      43.647  29.161  34.097  1.00  0.00     0.049 A 
ATOM     63  H   UNL A   1      41.930  30.168  33.484  1.00  0.00     0.167 HD
ATOM     64  C   UNL A   1      38.349  32.261  32.019  1.00  0.00     0.031 A 
ATOM     65  C   UNL A   1      43.909  29.568  35.355  1.00  0.00     0.031 A 
ATOM     66  C   UNL A   1      38.511  32.693  33.379  1.00  0.00     0.049 A 
ATOM     67  C   UNL A   1      42.999  30.580  36.005  1.00  0.00     0.074 A 
ATOM     68  C   UNL A   1      37.705  33.547  34.110  1.00  0.00     0.029 A 
ATOM     69  N   UNL A   1      39.556  32.315  34.208  1.00  0.00    -0.354 N 
ATOM     70  N   UNL A   1      41.916  31.147  35.524  1.00  0.00    -0.248 NA
ATOM     71  C   UNL A   1      43.342  31.004  37.370  1.00  0.00     0.031 C 
ATOM     72  C   UNL A   1      38.299  33.734  35.363  1.00  0.00     0.029 A 
ATOM     73  C   UNL A   1      39.435  32.942  35.435  1.00  0.00     0.049 A 
ATOM     74  H   UNL A   1      40.278  31.693  33.960  1.00  0.00     0.167 HD
ATOM     75  C   UNL A   1      41.434  31.969  36.538  1.00  0.00     0.074 A 
ATOM     76  C   UNL A   1      42.334  31.816  37.662  1.00  0.00     0.031 C 
ATOM     77  C   UNL A   1      40.342  32.776  36.542  1.00  0.00     0.031 A 
BRANCH  64  78
ATOM     78  C   UNL A   1      37.201  32.806  31.214  1.00  0.00    -0.014 A 
ATOM     79  C   UNL A   1      35.895  32.308  31.376  1.00  0.00     0.010 A 
ATOM     80  C   UNL A   1      37.431  33.845  30.295  1.00  0.00     0.010 A 
ATOM     81  C   UNL A   1      34.846  32.816  30.607  1.00  0.00     0.020 A 
ATOM     82  C   UNL A   1      36.379  34.375  29.544  1.00  0.00     0.020 A 
ATOM     83  C   UNL A   1      35.095  33.846  29.695  1.00  0.00     0.054 A 
BRANCH  83  84
ATOM     84  S   UNL A   1      33.710  34.504  28.728  1.00  0.00     0.124 S 
ATOM     85  O   UNL A   1      33.431  33.402  27.811  1.00  0.00    -0.237 OA
ATOM     86  O   UNL A   1      32.694  34.745  29.749  1.00  0.00    -0.237 OA
ATOM     87  O   UNL A   1      34.260  35.706  28.105  1.00  0.00    -0.744 OA
ENDBRANCH  83  84
ENDBRANCH  64  78
BRANCH  65  88
ATOM     88  C   UNL A   1      45.098  29.038  36.080  1.00  0.00    -0.014 A 
ATOM     89  C   UNL A   1      45.026  27.832  36.799  1.00  0.00     0.010 A 
ATOM     90  C   UNL A   1      46.313  29.749  36.061  1.00  0.00     0.010 A 
ATOM     91  C   UNL A   1      46.142  27.354  37.497  1.00  0.00     0.020 A 
ATOM     92  C   UNL A   1      47.437  29.261  36.732  1.00  0.00     0.020 A 
ATOM     93  C   UNL A   1      47.342  28.070  37.455  1.00  0.00     0.054 A 
BRANCH  93  94
ATOM     94  S   UNL A   1      48.790  27.402  38.319  1.00  0.00     0.124 S 
ATOM     95  O   UNL A   1      49.795  27.385  37.262  1.00  0.00    -0.237 OA
ATOM     96  O   UNL A   1      49.002  28.382  39.381  1.00  0.00    -0.237 OA
ATOM     97  O   UNL A   1      48.338  26.089  38.776  1.00  0.00    -0.744 OA
ENDBRANCH  93  94
ENDBRANCH  65  88
BRANCH  77  98
ATOM     98  C   UNL A   1      40.034  33.528  37.810  1.00  0.00    -0.014 A 
ATOM     99  C   UNL A   1      40.525  34.828  38.028  1.00  0.00     0.010 A 
ATOM    100  C   UNL A   1      39.180  32.948  38.766  1.00  0.00     0.010 A 
ATOM    101  C   UNL A   1      40.192  35.520  39.197  1.00  0.00     0.020 A 
ATOM    102  C   UNL A   1      38.821  33.649  39.920  1.00  0.00     0.020 A 
ATOM    103  C   UNL A   1      39.341  34.926  40.134  1.00  0.00     0.054 A 
BRANCH 103 104
ATOM    104  S   UNL A   1      38.889  35.863  41.619  1.00  0.00     0.124 S 
ATOM    105  O   UNL A   1      38.988  37.243  41.150  1.00  0.00    -0.237 OA
ATOM    106  O   UNL A   1      37.536  35.389  41.898  1.00  0.00    -0.237 OA
ATOM    107  O   UNL A   1      39.897  35.467  42.601  1.00  0.00    -0.744 OA
ENDBRANCH 103 104
ENDBRANCH  77  98
ENDBRANCH  51  52
ENDBRANCH  44  46
ENDBRANCH  43  44
ENDBRANCH  42  43
ENDBRANCH  41  42
ENDBRANCH  40  41
ENDBRANCH  39  40
ENDBRANCH   1  39
TORSDOF 24
ENDMDL
MODEL 3
REMARK VINA RESULT:     -10.3      4.868     11.953
REMARK SMILES CC1(C)O[C@@H]2C[C@@H]3[C@H]4CCC5=CC(=O)C=C[C@@]5(C)[C@]4(F)[C@H](O)C[C@]3(C)[C@]2(C(=O)OCCOCCOCCOCCOC(=O)c2ccc(-c3c4nc(c(-c5ccc(S(=O)(=O)[O-])cc5)c5ccc([nH]5)c(-c5ccc(S(=O)(=O)[O-])cc5)c5nc(c(-c6ccc(S(=O)(=O)[O-])cc6)c6ccc3[nH]6)C=C5)C=C4)cc2)O1
REMARK SMILES IDX 36 1 35 2 34 3 33 4 32 5 31 6 30 7 29 8 27 9 28 10 26 11
REMARK SMILES IDX 1 12 2 13 4 14 104 15 3 16 5 17 6 18 24 19 7 20 23 21 25 22
REMARK SMILES IDX 8 23 21 24 9 25 19 26 10 27 17 28 20 29 11 30 16 31 18 32
REMARK SMILES IDX 12 33 15 34 13 35 14 36 22 37 37 39 38 40 39 41 40 42 41 43
REMARK SMILES IDX 42 44 43 45 44 46 45 47 103 48 46 49 102 50 47 51 48 52
REMARK SMILES IDX 49 53 96 54 50 55 101 56 95 57 97 58 51 59 100 60 94 61
REMARK SMILES IDX 93 62 52 64 82 65 63 66 81 67 64 68 67 69 80 70 98 71 65 72
REMARK SMILES IDX 66 73 79 75 99 76 68 77 53 78 54 79 62 80 55 81 61 82 56 83
REMARK SMILES IDX 57 84 58 85 59 86 60 87 83 88 84 89 92 90 85 91 91 92 86 93
REMARK SMILES IDX 87 94 88 95 89 96 90 97 69 98 70 99 78 100 71 101 77 102
REMARK SMILES IDX 72 103 73 104 74 105 75 106 76 107
REMARK H PARENT 22 38 97 63 67 74
REMARK Flexibility Score: inf
ROOT
ATOM      1  C   UNL A   1      38.471  34.462  30.933  1.00  0.00     0.188 C 
ENDROOT
BRANCH   1   2
ATOM      2  O   UNL A   1      39.094  33.743  31.978  1.00  0.00    -0.377 OA
BRANCH   2   3
ATOM      3  C   UNL A   1      39.282  34.397  33.215  1.00  0.00     0.188 C 
BRANCH   3   4
ATOM      4  C   UNL A   1      39.071  33.670  34.558  1.00  0.00     0.188 C 
BRANCH   4   5
ATOM      5  O   UNL A   1      40.179  33.732  35.435  1.00  0.00    -0.376 OA
BRANCH   5   6
ATOM      6  C   UNL A   1      41.072  32.633  35.467  1.00  0.00     0.202 C 
BRANCH   6   7
ATOM      7  C   UNL A   1      40.900  31.570  36.578  1.00  0.00     0.261 C 
BRANCH   7   8
ATOM      8  O   UNL A   1      40.766  30.183  36.198  1.00  0.00    -0.461 OA
BRANCH   8   9
ATOM      9  C   UNL A   1      41.901  29.469  36.237  1.00  0.00     0.341 C 
ATOM     10  O   UNL A   1      42.840  29.728  36.992  1.00  0.00    -0.249 OA
BRANCH   9  11
ATOM     11  C   UNL A   1      42.039  28.345  35.227  1.00  0.00     0.200 C 
ATOM     12  C   UNL A   1      40.799  25.667  36.999  1.00  0.00     0.075 C 
ATOM     13  C   UNL A   1      41.674  26.057  35.802  1.00  0.00     0.165 C 
ATOM     14  O   UNL A   1      40.779  26.333  34.728  1.00  0.00    -0.344 OA
ATOM     15  O   UNL A   1      42.535  27.201  36.017  1.00  0.00    -0.329 OA
ATOM     16  C   UNL A   1      42.504  24.783  35.555  1.00  0.00     0.075 C 
ATOM     17  C   UNL A   1      40.998  27.686  34.279  1.00  0.00     0.166 C 
ATOM     18  C   UNL A   1      41.741  27.523  32.861  1.00  0.00     0.040 C 
ATOM     19  C   UNL A   1      43.054  28.976  34.180  1.00  0.00     0.016 C 
ATOM     20  C   UNL A   1      43.233  27.731  33.280  1.00  0.00     0.008 C 
ATOM     21  C   UNL A   1      44.389  29.640  34.576  1.00  0.00     0.046 C 
ATOM     22  C   UNL A   1      42.320  30.180  33.451  1.00  0.00     0.015 C 
ATOM     23  C   UNL A   1      44.561  26.928  33.557  1.00  0.00     0.035 C 
ATOM     24  C   UNL A   1      45.479  28.742  35.093  1.00  0.00     0.154 C 
ATOM     25  C   UNL A   1      44.858  25.881  32.486  1.00  0.00     0.012 C 
ATOM     26  C   UNL A   1      45.824  27.656  34.041  1.00  0.00     0.152 C 
ATOM     27  C   UNL A   1      45.794  24.811  33.048  1.00  0.00     0.032 C 
ATOM     28  C   UNL A   1      46.893  26.609  34.579  1.00  0.00     0.044 C 
ATOM     29  F   UNL A   1      46.345  28.296  32.943  1.00  0.00    -0.239 F 
ATOM     30  C   UNL A   1      47.035  25.367  33.693  1.00  0.00    -0.053 C 
ATOM     31  C   UNL A   1      48.257  27.278  34.710  1.00  0.00    -0.009 C 
ATOM     32  C   UNL A   1      46.553  26.045  36.006  1.00  0.00     0.024 C 
ATOM     33  C   UNL A   1      48.206  24.703  33.634  1.00  0.00     0.052 C 
ATOM     34  C   UNL A   1      49.360  26.551  34.932  1.00  0.00     0.048 C 
ATOM     35  C   UNL A   1      49.373  25.153  34.445  1.00  0.00     0.178 C 
ATOM     36  O   UNL A   1      50.349  24.433  34.608  1.00  0.00    -0.290 OA
BRANCH  24  37
ATOM     37  O   UNL A   1      45.147  28.257  36.384  1.00  0.00    -0.390 OA
ATOM     38  H   UNL A   1      44.261  28.569  36.628  1.00  0.00     0.211 HD
ENDBRANCH  24  37
ENDBRANCH   9  11
ENDBRANCH   8   9
ENDBRANCH   7   8
ENDBRANCH   6   7
ENDBRANCH   5   6
ENDBRANCH   4   5
ENDBRANCH   3   4
ENDBRANCH   2   3
ENDBRANCH   1   2
BRANCH   1  39
ATOM     39  C   UNL A   1      37.213  33.875  30.255  1.00  0.00     0.188 C 
BRANCH  39  40
ATOM     40  O   UNL A   1      35.987  34.094  30.938  1.00  0.00    -0.376 OA
BRANCH  40  41
ATOM     41  C   UNL A   1      34.839  34.427  30.175  1.00  0.00     0.202 C 
BRANCH  41  42
ATOM     42  C   UNL A   1      34.115  33.278  29.459  1.00  0.00     0.261 C 
BRANCH  42  43
ATOM     43  O   UNL A   1      34.650  31.969  29.682  1.00  0.00    -0.460 OA
BRANCH  43  44
ATOM     44  C   UNL A   1      34.760  31.152  28.614  1.00  0.00     0.338 C 
ATOM     45  O   UNL A   1      34.003  31.076  27.659  1.00  0.00    -0.246 OA
BRANCH  44  46
ATOM     46  C   UNL A   1      36.086  30.513  28.699  1.00  0.00     0.060 A 
ATOM     47  C   UNL A   1      36.584  30.140  29.955  1.00  0.00     0.016 A 
ATOM     48  C   UNL A   1      36.794  30.216  27.533  1.00  0.00     0.016 A 
ATOM     49  C   UNL A   1      37.795  29.460  30.048  1.00  0.00     0.010 A 
ATOM     50  C   UNL A   1      38.031  29.581  27.629  1.00  0.00     0.010 A 
ATOM     51  C   UNL A   1      38.544  29.225  28.888  1.00  0.00    -0.014 A 
BRANCH  51  52
ATOM     52  C   UNL A   1      39.970  28.859  29.017  1.00  0.00     0.031 A 
ATOM     53  C   UNL A   1      40.911  29.927  29.504  1.00  0.00     0.074 A 
ATOM     54  C   UNL A   1      40.418  27.625  28.731  1.00  0.00     0.049 A 
ATOM     55  N   UNL A   1      42.203  29.875  29.679  1.00  0.00    -0.248 NA
ATOM     56  C   UNL A   1      40.305  31.228  29.839  1.00  0.00     0.031 C 
ATOM     57  C   UNL A   1      39.592  26.498  28.297  1.00  0.00     0.029 A 
ATOM     58  N   UNL A   1      41.692  27.118  28.760  1.00  0.00    -0.354 N 
ATOM     59  C   UNL A   1      42.565  31.135  30.140  1.00  0.00     0.074 A 
ATOM     60  C   UNL A   1      41.365  31.937  30.192  1.00  0.00     0.031 C 
ATOM     61  C   UNL A   1      40.386  25.433  28.089  1.00  0.00     0.029 A 
ATOM     62  C   UNL A   1      41.776  25.811  28.345  1.00  0.00     0.049 A 
ATOM     63  H   UNL A   1      42.473  27.641  29.052  1.00  0.00     0.167 HD
ATOM     64  C   UNL A   1      43.791  31.584  30.492  1.00  0.00     0.031 A 
ATOM     65  C   UNL A   1      42.857  25.023  28.172  1.00  0.00     0.031 A 
ATOM     66  C   UNL A   1      44.986  30.792  30.408  1.00  0.00     0.049 A 
ATOM     67  C   UNL A   1      44.225  25.573  28.488  1.00  0.00     0.074 A 
ATOM     68  C   UNL A   1      46.279  31.150  30.744  1.00  0.00     0.029 A 
ATOM     69  N   UNL A   1      45.036  29.486  29.944  1.00  0.00    -0.354 N 
ATOM     70  N   UNL A   1      44.553  26.757  28.952  1.00  0.00    -0.248 NA
ATOM     71  C   UNL A   1      45.370  24.679  28.263  1.00  0.00     0.031 C 
ATOM     72  C   UNL A   1      47.121  30.081  30.422  1.00  0.00     0.029 A 
ATOM     73  C   UNL A   1      46.344  29.033  29.954  1.00  0.00     0.049 A 
ATOM     74  H   UNL A   1      44.258  28.961  29.650  1.00  0.00     0.167 HD
ATOM     75  C   UNL A   1      45.936  26.738  29.102  1.00  0.00     0.074 A 
ATOM     76  C   UNL A   1      46.382  25.422  28.693  1.00  0.00     0.031 C 
ATOM     77  C   UNL A   1      46.766  27.718  29.542  1.00  0.00     0.031 A 
BRANCH  64  78
ATOM     78  C   UNL A   1      43.896  33.012  30.953  1.00  0.00    -0.014 A 
ATOM     79  C   UNL A   1      44.098  34.061  30.038  1.00  0.00     0.010 A 
ATOM     80  C   UNL A   1      43.772  33.309  32.322  1.00  0.00     0.010 A 
ATOM     81  C   UNL A   1      44.210  35.379  30.488  1.00  0.00     0.020 A 
ATOM     82  C   UNL A   1      43.855  34.629  32.774  1.00  0.00     0.020 A 
ATOM     83  C   UNL A   1      44.089  35.653  31.854  1.00  0.00     0.054 A 
BRANCH  83  84
ATOM     84  S   UNL A   1      44.212  37.375  32.408  1.00  0.00     0.124 S 
ATOM     85  O   UNL A   1      43.894  38.109  31.186  1.00  0.00    -0.237 OA
ATOM     86  O   UNL A   1      43.203  37.444  33.462  1.00  0.00    -0.237 OA
ATOM     87  O   UNL A   1      45.594  37.496  32.865  1.00  0.00    -0.744 OA
ENDBRANCH  83  84
ENDBRANCH  64  78
BRANCH  65  88
ATOM     88  C   UNL A   1      42.695  23.636  27.653  1.00  0.00    -0.014 A 
ATOM     89  C   UNL A   1      42.827  23.361  26.280  1.00  0.00     0.010 A 
ATOM     90  C   UNL A   1      42.398  22.580  28.534  1.00  0.00     0.010 A 
ATOM     91  C   UNL A   1      42.649  22.059  25.797  1.00  0.00     0.020 A 
ATOM     92  C   UNL A   1      42.249  21.275  28.060  1.00  0.00     0.020 A 
ATOM     93  C   UNL A   1      42.366  21.023  26.691  1.00  0.00     0.054 A 
BRANCH  93  94
ATOM     94  S   UNL A   1      42.198  19.334  26.050  1.00  0.00     0.124 S 
ATOM     95  O   UNL A   1      42.659  18.533  27.178  1.00  0.00    -0.237 OA
ATOM     96  O   UNL A   1      40.770  19.251  25.755  1.00  0.00    -0.237 OA
ATOM     97  O   UNL A   1      43.070  19.327  24.877  1.00  0.00    -0.744 OA
ENDBRANCH  93  94
ENDBRANCH  65  88
BRANCH  77  98
ATOM     98  C   UNL A   1      48.234  27.398  29.644  1.00  0.00    -0.014 A 
ATOM     99  C   UNL A   1      49.103  27.594  28.555  1.00  0.00     0.010 A 
ATOM    100  C   UNL A   1      48.763  26.962  30.872  1.00  0.00     0.010 A 
ATOM    101  C   UNL A   1      50.469  27.326  28.686  1.00  0.00     0.020 A 
ATOM    102  C   UNL A   1      50.132  26.724  31.016  1.00  0.00     0.020 A 
ATOM    103  C   UNL A   1      50.974  26.894  29.917  1.00  0.00     0.054 A 
BRANCH 103 104
ATOM    104  S   UNL A   1      52.756  26.598  30.072  1.00  0.00     0.124 S 
ATOM    105  O   UNL A   1      53.260  27.932  30.389  1.00  0.00    -0.237 OA
ATOM    106  O   UNL A   1      52.826  25.625  31.159  1.00  0.00    -0.237 OA
ATOM    107  O   UNL A   1      53.139  26.084  28.759  1.00  0.00    -0.744 OA
ENDBRANCH 103 104
ENDBRANCH  77  98
ENDBRANCH  51  52
ENDBRANCH  44  46
ENDBRANCH  43  44
ENDBRANCH  42  43
ENDBRANCH  41  42
ENDBRANCH  40  41
ENDBRANCH  39  40
ENDBRANCH   1  39
TORSDOF 24
ENDMDL
