MODEL 1
REMARK VINA RESULT:     -10.4      0.000      0.000
REMARK SMILES Cc1cc(Br)cc2c1O[C@H](C(F)(F)F)C(C(=O)OCCOCCOCCOCCOC(=O)c1ccc(-c3c4nc(c(-c5ccc(S(=O)(=O)[O-])cc5)c5ccc([nH]5)c(-c5ccc(S(=O)(=O)[O-])cc5)c5nc(c(-c6ccc(S(=O)(=O)[O-])cc6)c6ccc3[nH]6)C=C5)C=C4)cc1)=C2
REMARK SMILES IDX 25 1 24 2 23 3 22 4 21 5 20 6 19 7 18 8 16 9 17 10 15 11
REMARK SMILES IDX 1 12 2 13 3 14 8 15 4 16 7 17 9 18 5 19 6 20 93 21 10 22
REMARK SMILES IDX 11 23 12 24 13 25 14 26 26 27 27 28 28 29 29 30 30 31 31 32
REMARK SMILES IDX 32 33 33 34 34 35 92 36 35 37 91 38 36 39 37 40 38 41 85 42
REMARK SMILES IDX 39 43 90 44 84 45 86 46 40 47 89 48 83 49 82 50 41 52 71 53
REMARK SMILES IDX 52 54 70 55 53 56 56 57 69 58 87 59 54 60 55 61 68 63 88 64
REMARK SMILES IDX 57 65 42 66 43 67 51 68 44 69 50 70 45 71 46 72 47 73 48 74
REMARK SMILES IDX 49 75 72 76 73 77 81 78 74 79 80 80 75 81 76 82 77 83 78 84
REMARK SMILES IDX 79 85 58 86 59 87 67 88 60 89 66 90 61 91 62 92 63 93 64 94
REMARK SMILES IDX 65 95
REMARK H PARENT 86 51 56 62
REMARK Flexibility Score: inf
ROOT
ATOM      1  C   UNL A   1      34.428  34.083  28.718  1.00  0.00     0.188 C 
ENDROOT
BRANCH   1   2
ATOM      2  O   UNL A   1      33.519  33.668  27.700  1.00  0.00    -0.377 OA
BRANCH   2   3
ATOM      3  C   UNL A   1      32.811  32.462  27.921  1.00  0.00     0.188 C 
BRANCH   3   4
ATOM      4  C   UNL A   1      33.534  31.220  27.367  1.00  0.00     0.188 C 
BRANCH   4   5
ATOM      5  O   UNL A   1      32.842  30.359  26.484  1.00  0.00    -0.376 OA
BRANCH   5   6
ATOM      6  C   UNL A   1      33.461  29.658  25.415  1.00  0.00     0.202 C 
BRANCH   6   7
ATOM      7  C   UNL A   1      33.683  28.137  25.303  1.00  0.00     0.261 C 
BRANCH   7   8
ATOM      8  O   UNL A   1      33.564  27.539  24.017  1.00  0.00    -0.460 OA
BRANCH   8   9
ATOM      9  C   UNL A   1      32.775  26.454  23.934  1.00  0.00     0.338 C 
ATOM     10  O   UNL A   1      33.080  25.299  24.174  1.00  0.00    -0.246 OA
BRANCH   9  11
ATOM     11  C   UNL A   1      31.397  26.921  23.677  1.00  0.00     0.087 C 
ATOM     12  C   UNL A   1      26.365  27.835  23.822  1.00  0.00     0.048 C 
ATOM     13  C   UNL A   1      27.561  28.474  23.173  1.00  0.00    -0.007 A 
ATOM     14  C   UNL A   1      27.403  29.675  22.463  1.00  0.00     0.023 A 
ATOM     15  C   UNL A   1      28.835  27.891  23.254  1.00  0.00     0.130 A 
ATOM     16  C   UNL A   1      28.501  30.282  21.857  1.00  0.00     0.019 A 
ATOM     17  C   UNL A   1      29.940  28.538  22.692  1.00  0.00     0.019 A 
ATOM     18  O   UNL A   1      28.925  26.693  23.905  1.00  0.00    -0.475 OA
ATOM     19  Br  UNL A   1      28.277  31.907  20.917  1.00  0.00    -0.051 Br
ATOM     20  C   UNL A   1      29.768  29.720  21.966  1.00  0.00     0.027 A 
ATOM     21  C   UNL A   1      31.275  28.028  22.934  1.00  0.00     0.027 C 
ATOM     22  C   UNL A   1      30.230  26.120  24.190  1.00  0.00     0.316 C 
BRANCH  22  23
ATOM     23  C   UNL A   1      30.319  25.870  25.701  1.00  0.00     0.430 C 
ATOM     24  F   UNL A   1      29.093  25.662  26.237  1.00  0.00    -0.167 F 
ATOM     25  F   UNL A   1      31.068  24.784  25.993  1.00  0.00    -0.167 F 
ATOM     26  F   UNL A   1      30.868  26.927  26.345  1.00  0.00    -0.167 F 
ENDBRANCH  22  23
ENDBRANCH   9  11
ENDBRANCH   8   9
ENDBRANCH   7   8
ENDBRANCH   6   7
ENDBRANCH   5   6
ENDBRANCH   4   5
ENDBRANCH   3   4
ENDBRANCH   2   3
ENDBRANCH   1   2
BRANCH   1  27
ATOM     27  C   UNL A   1      33.913  34.334  30.154  1.00  0.00     0.188 C 
BRANCH  27  28
ATOM     28  O   UNL A   1      34.197  33.281  31.067  1.00  0.00    -0.376 OA
BRANCH  28  29
ATOM     29  C   UNL A   1      35.352  33.371  31.885  1.00  0.00     0.202 C 
BRANCH  29  30
ATOM     30  C   UNL A   1      36.658  32.821  31.298  1.00  0.00     0.261 C 
BRANCH  30  31
ATOM     31  O   UNL A   1      36.790  31.394  31.298  1.00  0.00    -0.460 OA
BRANCH  31  32
ATOM     32  C   UNL A   1      36.555  30.756  30.132  1.00  0.00     0.338 C 
ATOM     33  O   UNL A   1      35.567  30.860  29.423  1.00  0.00    -0.246 OA
BRANCH  32  34
ATOM     34  C   UNL A   1      37.789  30.042  29.755  1.00  0.00     0.060 A 
ATOM     35  C   UNL A   1      38.622  29.539  30.762  1.00  0.00     0.016 A 
ATOM     36  C   UNL A   1      38.117  29.874  28.407  1.00  0.00     0.016 A 
ATOM     37  C   UNL A   1      39.817  28.904  30.423  1.00  0.00     0.010 A 
ATOM     38  C   UNL A   1      39.323  29.261  28.071  1.00  0.00     0.010 A 
ATOM     39  C   UNL A   1      40.194  28.808  29.078  1.00  0.00    -0.014 A 
BRANCH  39  40
ATOM     40  C   UNL A   1      41.576  28.421  28.715  1.00  0.00     0.031 A 
ATOM     41  C   UNL A   1      42.632  29.493  28.709  1.00  0.00     0.074 A 
ATOM     42  C   UNL A   1      41.885  27.154  28.395  1.00  0.00     0.049 A 
ATOM     43  N   UNL A   1      43.875  29.428  28.314  1.00  0.00    -0.248 NA
ATOM     44  C   UNL A   1      42.227  30.817  29.214  1.00  0.00     0.031 C 
ATOM     45  C   UNL A   1      40.965  26.019  28.440  1.00  0.00     0.029 A 
ATOM     46  N   UNL A   1      43.068  26.615  27.955  1.00  0.00    -0.354 N 
ATOM     47  C   UNL A   1      44.400  30.700  28.516  1.00  0.00     0.074 A 
ATOM     48  C   UNL A   1      43.334  31.522  29.043  1.00  0.00     0.031 C 
ATOM     49  C   UNL A   1      41.617  24.916  28.033  1.00  0.00     0.029 A 
ATOM     50  C   UNL A   1      42.981  25.278  27.653  1.00  0.00     0.049 A 
ATOM     51  H   UNL A   1      43.898  27.136  27.866  1.00  0.00     0.167 HD
ATOM     52  C   UNL A   1      45.658  31.139  28.283  1.00  0.00     0.031 A 
ATOM     53  C   UNL A   1      43.894  24.450  27.105  1.00  0.00     0.031 A 
ATOM     54  C   UNL A   1      46.704  30.319  27.733  1.00  0.00     0.049 A 
ATOM     55  C   UNL A   1      45.257  24.989  26.754  1.00  0.00     0.074 A 
ATOM     56  C   UNL A   1      48.010  30.672  27.440  1.00  0.00     0.029 A 
ATOM     57  N   UNL A   1      46.565  28.982  27.391  1.00  0.00    -0.354 N 
ATOM     58  N   UNL A   1      45.735  26.200  26.920  1.00  0.00    -0.248 NA
ATOM     59  C   UNL A   1      46.206  24.045  26.148  1.00  0.00     0.031 C 
ATOM     60  C   UNL A   1      48.641  29.565  26.864  1.00  0.00     0.029 A 
ATOM     61  C   UNL A   1      47.754  28.500  26.871  1.00  0.00     0.049 A 
ATOM     62  H   UNL A   1      45.741  28.455  27.501  1.00  0.00     0.167 HD
ATOM     63  C   UNL A   1      47.053  26.153  26.476  1.00  0.00     0.074 A 
ATOM     64  C   UNL A   1      47.297  24.792  26.043  1.00  0.00     0.031 C 
ATOM     65  C   UNL A   1      47.980  27.143  26.440  1.00  0.00     0.031 A 
BRANCH  52  66
ATOM     66  C   UNL A   1      45.965  32.582  28.592  1.00  0.00    -0.014 A 
ATOM     67  C   UNL A   1      45.749  33.594  27.638  1.00  0.00     0.010 A 
ATOM     68  C   UNL A   1      46.423  32.938  29.874  1.00  0.00     0.010 A 
ATOM     69  C   UNL A   1      46.008  34.930  27.955  1.00  0.00     0.020 A 
ATOM     70  C   UNL A   1      46.653  34.275  30.203  1.00  0.00     0.020 A 
ATOM     71  C   UNL A   1      46.454  35.263  29.237  1.00  0.00     0.054 A 
BRANCH  71  72
ATOM     72  S   UNL A   1      46.737  37.011  29.630  1.00  0.00     0.124 S 
ATOM     73  O   UNL A   1      48.016  37.265  28.972  1.00  0.00    -0.237 OA
ATOM     74  O   UNL A   1      45.579  37.663  29.025  1.00  0.00    -0.237 OA
ATOM     75  O   UNL A   1      46.774  37.038  31.090  1.00  0.00    -0.744 OA
ENDBRANCH  71  72
ENDBRANCH  52  66
BRANCH  53  76
ATOM     76  C   UNL A   1      43.544  23.025  26.849  1.00  0.00    -0.014 A 
ATOM     77  C   UNL A   1      43.950  22.393  25.661  1.00  0.00     0.010 A 
ATOM     78  C   UNL A   1      42.820  22.284  27.803  1.00  0.00     0.010 A 
ATOM     79  C   UNL A   1      43.632  21.052  25.427  1.00  0.00     0.020 A 
ATOM     80  C   UNL A   1      42.528  20.934  27.586  1.00  0.00     0.020 A 
ATOM     81  C   UNL A   1      42.931  20.328  26.396  1.00  0.00     0.054 A 
BRANCH  81  82
ATOM     82  S   UNL A   1      42.592  18.571  26.094  1.00  0.00     0.124 S 
ATOM     83  O   UNL A   1      43.493  18.273  24.986  1.00  0.00    -0.237 OA
ATOM     84  O   UNL A   1      42.940  17.964  27.376  1.00  0.00    -0.237 OA
ATOM     85  O   UNL A   1      41.168  18.549  25.766  1.00  0.00    -0.744 OA
ENDBRANCH  81  82
ENDBRANCH  53  76
BRANCH  65  86
ATOM     86  C   UNL A   1      49.365  26.783  25.965  1.00  0.00    -0.014 A 
ATOM     87  C   UNL A   1      50.264  26.070  26.777  1.00  0.00     0.010 A 
ATOM     88  C   UNL A   1      49.756  27.133  24.658  1.00  0.00     0.010 A 
ATOM     89  C   UNL A   1      51.544  25.759  26.310  1.00  0.00     0.020 A 
ATOM     90  C   UNL A   1      51.021  26.792  24.175  1.00  0.00     0.020 A 
ATOM     91  C   UNL A   1      51.915  26.125  25.012  1.00  0.00     0.054 A 
BRANCH  91  92
ATOM     92  S   UNL A   1      53.580  25.701  24.429  1.00  0.00     0.124 S 
ATOM     93  O   UNL A   1      54.405  26.683  25.127  1.00  0.00    -0.237 OA
ATOM     94  O   UNL A   1      53.731  24.319  24.878  1.00  0.00    -0.237 OA
ATOM     95  O   UNL A   1      53.496  25.875  22.981  1.00  0.00    -0.744 OA
ENDBRANCH  91  92
ENDBRANCH  65  86
ENDBRANCH  39  40
ENDBRANCH  32  34
ENDBRANCH  31  32
ENDBRANCH  30  31
ENDBRANCH  29  30
ENDBRANCH  28  29
ENDBRANCH  27  28
ENDBRANCH   1  27
TORSDOF 24
ENDMDL
MODEL 2
REMARK VINA RESULT:     -10.2      2.644      8.728
REMARK SMILES Cc1cc(Br)cc2c1O[C@H](C(F)(F)F)C(C(=O)OCCOCCOCCOCCOC(=O)c1ccc(-c3c4nc(c(-c5ccc(S(=O)(=O)[O-])cc5)c5ccc([nH]5)c(-c5ccc(S(=O)(=O)[O-])cc5)c5nc(c(-c6ccc(S(=O)(=O)[O-])cc6)c6ccc3[nH]6)C=C5)C=C4)cc1)=C2
REMARK SMILES IDX 25 1 24 2 23 3 22 4 21 5 20 6 19 7 18 8 16 9 17 10 15 11
REMARK SMILES IDX 1 12 2 13 3 14 8 15 4 16 7 17 9 18 5 19 6 20 93 21 10 22
REMARK SMILES IDX 11 23 12 24 13 25 14 26 26 27 27 28 28 29 29 30 30 31 31 32
REMARK SMILES IDX 32 33 33 34 34 35 92 36 35 37 91 38 36 39 37 40 38 41 85 42
REMARK SMILES IDX 39 43 90 44 84 45 86 46 40 47 89 48 83 49 82 50 41 52 71 53
REMARK SMILES IDX 52 54 70 55 53 56 56 57 69 58 87 59 54 60 55 61 68 63 88 64
REMARK SMILES IDX 57 65 42 66 43 67 51 68 44 69 50 70 45 71 46 72 47 73 48 74
REMARK SMILES IDX 49 75 72 76 73 77 81 78 74 79 80 80 75 81 76 82 77 83 78 84
REMARK SMILES IDX 79 85 58 86 59 87 67 88 60 89 66 90 61 91 62 92 63 93 64 94
REMARK SMILES IDX 65 95
REMARK H PARENT 86 51 56 62
REMARK Flexibility Score: inf
ROOT
ATOM      1  C   UNL A   1      33.848  32.258  27.633  1.00  0.00     0.188 C 
ENDROOT
BRANCH   1   2
ATOM      2  O   UNL A   1      33.601  30.863  27.467  1.00  0.00    -0.377 OA
BRANCH   2   3
ATOM      3  C   UNL A   1      32.349  30.490  26.922  1.00  0.00     0.188 C 
BRANCH   3   4
ATOM      4  C   UNL A   1      32.447  29.348  25.893  1.00  0.00     0.188 C 
BRANCH   4   5
ATOM      5  O   UNL A   1      31.441  29.222  24.908  1.00  0.00    -0.376 OA
BRANCH   5   6
ATOM      6  C   UNL A   1      30.793  27.999  24.590  1.00  0.00     0.202 C 
BRANCH   6   7
ATOM      7  C   UNL A   1      30.828  27.248  23.244  1.00  0.00     0.261 C 
BRANCH   7   8
ATOM      8  O   UNL A   1      30.734  25.828  23.270  1.00  0.00    -0.460 OA
BRANCH   8   9
ATOM      9  C   UNL A   1      30.804  25.247  24.480  1.00  0.00     0.338 C 
ATOM     10  O   UNL A   1      30.042  25.402  25.418  1.00  0.00    -0.246 OA
BRANCH   9  11
ATOM     11  C   UNL A   1      31.871  24.226  24.425  1.00  0.00     0.087 C 
ATOM     12  C   UNL A   1      36.318  21.698  24.471  1.00  0.00     0.048 C 
ATOM     13  C   UNL A   1      34.865  21.331  24.595  1.00  0.00    -0.007 A 
ATOM     14  C   UNL A   1      34.509  20.001  24.873  1.00  0.00     0.023 A 
ATOM     15  C   UNL A   1      33.853  22.289  24.430  1.00  0.00     0.130 A 
ATOM     16  C   UNL A   1      33.167  19.645  24.993  1.00  0.00     0.019 A 
ATOM     17  C   UNL A   1      32.513  21.933  24.610  1.00  0.00     0.019 A 
ATOM     18  O   UNL A   1      34.250  23.555  24.103  1.00  0.00    -0.475 OA
ATOM     19  Br  UNL A   1      32.702  17.854  25.383  1.00  0.00    -0.051 Br
ATOM     20  C   UNL A   1      32.167  20.602  24.862  1.00  0.00     0.027 A 
ATOM     21  C   UNL A   1      31.488  22.958  24.620  1.00  0.00     0.027 C 
ATOM     22  C   UNL A   1      33.281  24.639  24.097  1.00  0.00     0.316 C 
BRANCH  22  23
ATOM     23  C   UNL A   1      33.795  25.740  25.033  1.00  0.00     0.430 C 
ATOM     24  F   UNL A   1      34.043  26.885  24.355  1.00  0.00    -0.167 F 
ATOM     25  F   UNL A   1      32.902  26.039  26.003  1.00  0.00    -0.167 F 
ATOM     26  F   UNL A   1      34.947  25.372  25.642  1.00  0.00    -0.167 F 
ENDBRANCH  22  23
ENDBRANCH   9  11
ENDBRANCH   8   9
ENDBRANCH   7   8
ENDBRANCH   6   7
ENDBRANCH   5   6
ENDBRANCH   4   5
ENDBRANCH   3   4
ENDBRANCH   2   3
ENDBRANCH   1   2
BRANCH   1  27
ATOM     27  C   UNL A   1      35.228  32.741  28.136  1.00  0.00     0.188 C 
BRANCH  27  28
ATOM     28  O   UNL A   1      35.193  33.387  29.403  1.00  0.00    -0.376 OA
BRANCH  28  29
ATOM     29  C   UNL A   1      34.699  32.676  30.525  1.00  0.00     0.202 C 
BRANCH  29  30
ATOM     30  C   UNL A   1      35.696  31.772  31.264  1.00  0.00     0.261 C 
BRANCH  30  31
ATOM     31  O   UNL A   1      36.369  30.797  30.459  1.00  0.00    -0.460 OA
BRANCH  31  32
ATOM     32  C   UNL A   1      37.123  29.883  31.105  1.00  0.00     0.338 C 
ATOM     33  O   UNL A   1      36.742  29.065  31.927  1.00  0.00    -0.246 OA
BRANCH  32  34
ATOM     34  C   UNL A   1      38.471  29.911  30.509  1.00  0.00     0.060 A 
ATOM     35  C   UNL A   1      38.601  29.923  29.114  1.00  0.00     0.016 A 
ATOM     36  C   UNL A   1      39.600  29.922  31.331  1.00  0.00     0.016 A 
ATOM     37  C   UNL A   1      39.869  29.900  28.534  1.00  0.00     0.010 A 
ATOM     38  C   UNL A   1      40.867  29.875  30.749  1.00  0.00     0.010 A 
ATOM     39  C   UNL A   1      41.004  29.825  29.351  1.00  0.00    -0.014 A 
BRANCH  39  40
ATOM     40  C   UNL A   1      42.324  29.494  28.767  1.00  0.00     0.031 A 
ATOM     41  C   UNL A   1      42.573  28.073  28.342  1.00  0.00     0.074 A 
ATOM     42  C   UNL A   1      43.278  30.428  28.624  1.00  0.00     0.049 A 
ATOM     43  N   UNL A   1      43.677  27.516  27.921  1.00  0.00    -0.248 NA
ATOM     44  C   UNL A   1      41.420  27.157  28.404  1.00  0.00     0.031 C 
ATOM     45  C   UNL A   1      43.126  31.849  28.929  1.00  0.00     0.029 A 
ATOM     46  N   UNL A   1      44.574  30.311  28.192  1.00  0.00    -0.354 N 
ATOM     47  C   UNL A   1      43.355  26.186  27.673  1.00  0.00     0.074 A 
ATOM     48  C   UNL A   1      41.962  26.013  28.017  1.00  0.00     0.031 C 
ATOM     49  C   UNL A   1      44.292  32.473  28.683  1.00  0.00     0.029 A 
ATOM     50  C   UNL A   1      45.281  31.487  28.252  1.00  0.00     0.049 A 
ATOM     51  H   UNL A   1      44.961  29.465  27.869  1.00  0.00     0.167 HD
ATOM     52  C   UNL A   1      44.152  25.199  27.201  1.00  0.00     0.031 A 
ATOM     53  C   UNL A   1      46.585  31.731  28.014  1.00  0.00     0.031 A 
ATOM     54  C   UNL A   1      45.545  25.376  26.888  1.00  0.00     0.049 A 
ATOM     55  C   UNL A   1      47.480  30.594  27.592  1.00  0.00     0.074 A 
ATOM     56  C   UNL A   1      46.448  24.437  26.422  1.00  0.00     0.029 A 
ATOM     57  N   UNL A   1      46.239  26.571  27.011  1.00  0.00    -0.354 N 
ATOM     58  N   UNL A   1      47.174  29.333  27.390  1.00  0.00    -0.248 NA
ATOM     59  C   UNL A   1      48.894  30.915  27.358  1.00  0.00     0.031 C 
ATOM     60  C   UNL A   1      47.701  25.049  26.321  1.00  0.00     0.029 A 
ATOM     61  C   UNL A   1      47.562  26.389  26.649  1.00  0.00     0.049 A 
ATOM     62  H   UNL A   1      45.847  27.422  27.313  1.00  0.00     0.167 HD
ATOM     63  C   UNL A   1      48.350  28.720  26.967  1.00  0.00     0.074 A 
ATOM     64  C   UNL A   1      49.367  29.751  26.935  1.00  0.00     0.031 C 
ATOM     65  C   UNL A   1      48.565  27.425  26.626  1.00  0.00     0.031 A 
BRANCH  52  66
ATOM     66  C   UNL A   1      43.545  23.831  27.026  1.00  0.00    -0.014 A 
ATOM     67  C   UNL A   1      43.043  23.110  28.124  1.00  0.00     0.010 A 
ATOM     68  C   UNL A   1      43.425  23.283  25.735  1.00  0.00     0.010 A 
ATOM     69  C   UNL A   1      42.452  21.857  27.936  1.00  0.00     0.020 A 
ATOM     70  C   UNL A   1      42.809  22.045  25.541  1.00  0.00     0.020 A 
ATOM     71  C   UNL A   1      42.335  21.334  26.645  1.00  0.00     0.054 A 
BRANCH  71  72
ATOM     72  S   UNL A   1      41.524  19.726  26.431  1.00  0.00     0.124 S 
ATOM     73  O   UNL A   1      40.132  20.117  26.218  1.00  0.00    -0.237 OA
ATOM     74  O   UNL A   1      42.208  19.179  25.263  1.00  0.00    -0.237 OA
ATOM     75  O   UNL A   1      41.788  19.032  27.689  1.00  0.00    -0.744 OA
ENDBRANCH  71  72
ENDBRANCH  52  66
BRANCH  53  76
ATOM     76  C   UNL A   1      47.125  33.110  28.176  1.00  0.00    -0.014 A 
ATOM     77  C   UNL A   1      47.058  34.031  27.115  1.00  0.00     0.010 A 
ATOM     78  C   UNL A   1      47.691  33.518  29.398  1.00  0.00     0.010 A 
ATOM     79  C   UNL A   1      47.553  35.329  27.271  1.00  0.00     0.020 A 
ATOM     80  C   UNL A   1      48.158  34.825  29.568  1.00  0.00     0.020 A 
ATOM     81  C   UNL A   1      48.092  35.721  28.500  1.00  0.00     0.054 A 
BRANCH  81  82
ATOM     82  S   UNL A   1      48.666  37.431  28.694  1.00  0.00     0.124 S 
ATOM     83  O   UNL A   1      47.544  38.051  29.393  1.00  0.00    -0.237 OA
ATOM     84  O   UNL A   1      49.886  37.262  29.478  1.00  0.00    -0.237 OA
ATOM     85  O   UNL A   1      48.872  37.880  27.319  1.00  0.00    -0.744 OA
ENDBRANCH  81  82
ENDBRANCH  53  76
BRANCH  65  86
ATOM     86  C   UNL A   1      49.941  27.053  26.135  1.00  0.00    -0.014 A 
ATOM     87  C   UNL A   1      50.317  27.220  24.791  1.00  0.00     0.010 A 
ATOM     88  C   UNL A   1      50.891  26.565  27.054  1.00  0.00     0.010 A 
ATOM     89  C   UNL A   1      51.599  26.858  24.366  1.00  0.00     0.020 A 
ATOM     90  C   UNL A   1      52.184  26.237  26.640  1.00  0.00     0.020 A 
ATOM     91  C   UNL A   1      52.523  26.366  25.294  1.00  0.00     0.054 A 
BRANCH  91  92
ATOM     92  S   UNL A   1      54.181  25.912  24.716  1.00  0.00     0.124 S 
ATOM     93  O   UNL A   1      54.105  26.231  23.293  1.00  0.00    -0.237 OA
ATOM     94  O   UNL A   1      55.044  26.783  25.510  1.00  0.00    -0.237 OA
ATOM     95  O   UNL A   1      54.281  24.489  25.030  1.00  0.00    -0.744 OA
ENDBRANCH  91  92
ENDBRANCH  65  86
ENDBRANCH  39  40
ENDBRANCH  32  34
ENDBRANCH  31  32
ENDBRANCH  30  31
ENDBRANCH  29  30
ENDBRANCH  28  29
ENDBRANCH  27  28
ENDBRANCH   1  27
TORSDOF 24
ENDMDL
MODEL 3
REMARK VINA RESULT:     -10.0      2.423      8.524
REMARK SMILES Cc1cc(Br)cc2c1O[C@H](C(F)(F)F)C(C(=O)OCCOCCOCCOCCOC(=O)c1ccc(-c3c4nc(c(-c5ccc(S(=O)(=O)[O-])cc5)c5ccc([nH]5)c(-c5ccc(S(=O)(=O)[O-])cc5)c5nc(c(-c6ccc(S(=O)(=O)[O-])cc6)c6ccc3[nH]6)C=C5)C=C4)cc1)=C2
REMARK SMILES IDX 25 1 24 2 23 3 22 4 21 5 20 6 19 7 18 8 16 9 17 10 15 11
REMARK SMILES IDX 1 12 2 13 3 14 8 15 4 16 7 17 9 18 5 19 6 20 93 21 10 22
REMARK SMILES IDX 11 23 12 24 13 25 14 26 26 27 27 28 28 29 29 30 30 31 31 32
REMARK SMILES IDX 32 33 33 34 34 35 92 36 35 37 91 38 36 39 37 40 38 41 85 42
REMARK SMILES IDX 39 43 90 44 84 45 86 46 40 47 89 48 83 49 82 50 41 52 71 53
REMARK SMILES IDX 52 54 70 55 53 56 56 57 69 58 87 59 54 60 55 61 68 63 88 64
REMARK SMILES IDX 57 65 42 66 43 67 51 68 44 69 50 70 45 71 46 72 47 73 48 74
REMARK SMILES IDX 49 75 72 76 73 77 81 78 74 79 80 80 75 81 76 82 77 83 78 84
REMARK SMILES IDX 79 85 58 86 59 87 67 88 60 89 66 90 61 91 62 92 63 93 64 94
REMARK SMILES IDX 65 95
REMARK H PARENT 86 51 56 62
REMARK Flexibility Score: inf
ROOT
ATOM      1  C   UNL A   1      33.862  34.881  28.348  1.00  0.00     0.188 C 
ENDROOT
BRANCH   1   2
ATOM      2  O   UNL A   1      32.745  34.015  28.162  1.00  0.00    -0.377 OA
BRANCH   2   3
ATOM      3  C   UNL A   1      32.919  32.918  27.285  1.00  0.00     0.188 C 
BRANCH   3   4
ATOM      4  C   UNL A   1      31.590  32.312  26.794  1.00  0.00     0.188 C 
BRANCH   4   5
ATOM      5  O   UNL A   1      31.457  30.905  26.735  1.00  0.00    -0.376 OA
BRANCH   5   6
ATOM      6  C   UNL A   1      32.030  30.098  25.717  1.00  0.00     0.202 C 
BRANCH   6   7
ATOM      7  C   UNL A   1      32.390  28.602  25.806  1.00  0.00     0.261 C 
BRANCH   7   8
ATOM      8  O   UNL A   1      33.488  28.134  25.031  1.00  0.00    -0.460 OA
BRANCH   8   9
ATOM      9  C   UNL A   1      33.183  27.468  23.903  1.00  0.00     0.338 C 
ATOM     10  O   UNL A   1      33.059  27.932  22.784  1.00  0.00    -0.246 OA
BRANCH   9  11
ATOM     11  C   UNL A   1      33.205  26.024  24.216  1.00  0.00     0.087 C 
ATOM     12  C   UNL A   1      32.092  21.069  24.830  1.00  0.00     0.048 C 
ATOM     13  C   UNL A   1      33.346  21.898  24.787  1.00  0.00    -0.007 A 
ATOM     14  C   UNL A   1      34.597  21.262  24.841  1.00  0.00     0.023 A 
ATOM     15  C   UNL A   1      33.294  23.297  24.703  1.00  0.00     0.130 A 
ATOM     16  C   UNL A   1      35.769  22.015  24.801  1.00  0.00     0.019 A 
ATOM     17  C   UNL A   1      34.475  24.039  24.605  1.00  0.00     0.019 A 
ATOM     18  O   UNL A   1      32.053  23.870  24.712  1.00  0.00    -0.475 OA
ATOM     19  Br  UNL A   1      37.447  21.146  24.859  1.00  0.00    -0.051 Br
ATOM     20  C   UNL A   1      35.716  23.399  24.685  1.00  0.00     0.027 A 
ATOM     21  C   UNL A   1      34.414  25.462  24.335  1.00  0.00     0.027 C 
ATOM     22  C   UNL A   1      31.910  25.292  24.444  1.00  0.00     0.316 C 
BRANCH  22  23
ATOM     23  C   UNL A   1      30.936  25.457  23.271  1.00  0.00     0.430 C 
ATOM     24  F   UNL A   1      31.588  25.436  22.085  1.00  0.00    -0.167 F 
ATOM     25  F   UNL A   1      30.014  24.469  23.234  1.00  0.00    -0.167 F 
ATOM     26  F   UNL A   1      30.268  26.632  23.346  1.00  0.00    -0.167 F 
ENDBRANCH  22  23
ENDBRANCH   9  11
ENDBRANCH   8   9
ENDBRANCH   7   8
ENDBRANCH   6   7
ENDBRANCH   5   6
ENDBRANCH   4   5
ENDBRANCH   3   4
ENDBRANCH   2   3
ENDBRANCH   1   2
BRANCH   1  27
ATOM     27  C   UNL A   1      35.007  34.468  29.301  1.00  0.00     0.188 C 
BRANCH  27  28
ATOM     28  O   UNL A   1      34.568  33.872  30.516  1.00  0.00    -0.376 OA
BRANCH  28  29
ATOM     29  C   UNL A   1      34.645  32.464  30.659  1.00  0.00     0.202 C 
BRANCH  29  30
ATOM     30  C   UNL A   1      35.639  31.930  31.700  1.00  0.00     0.261 C 
BRANCH  30  31
ATOM     31  O   UNL A   1      37.011  31.890  31.289  1.00  0.00    -0.460 OA
BRANCH  31  32
ATOM     32  C   UNL A   1      37.909  31.442  32.192  1.00  0.00     0.338 C 
ATOM     33  O   UNL A   1      37.777  31.406  33.405  1.00  0.00    -0.246 OA
BRANCH  32  34
ATOM     34  C   UNL A   1      39.020  30.821  31.449  1.00  0.00     0.060 A 
ATOM     35  C   UNL A   1      40.055  30.199  32.159  1.00  0.00     0.016 A 
ATOM     36  C   UNL A   1      39.037  30.859  30.052  1.00  0.00     0.016 A 
ATOM     37  C   UNL A   1      41.138  29.650  31.474  1.00  0.00     0.010 A 
ATOM     38  C   UNL A   1      40.132  30.331  29.369  1.00  0.00     0.010 A 
ATOM     39  C   UNL A   1      41.203  29.759  30.079  1.00  0.00    -0.014 A 
BRANCH  39  40
ATOM     40  C   UNL A   1      42.466  29.464  29.365  1.00  0.00     0.031 A 
ATOM     41  C   UNL A   1      42.669  28.073  28.832  1.00  0.00     0.074 A 
ATOM     42  C   UNL A   1      43.410  30.406  29.200  1.00  0.00     0.049 A 
ATOM     43  N   UNL A   1      43.729  27.543  28.283  1.00  0.00    -0.248 NA
ATOM     44  C   UNL A   1      41.520  27.156  28.935  1.00  0.00     0.031 C 
ATOM     45  C   UNL A   1      43.293  31.805  29.605  1.00  0.00     0.029 A 
ATOM     46  N   UNL A   1      44.664  30.315  28.651  1.00  0.00    -0.354 N 
ATOM     47  C   UNL A   1      43.380  26.232  27.981  1.00  0.00     0.074 A 
ATOM     48  C   UNL A   1      42.020  26.038  28.431  1.00  0.00     0.031 C 
ATOM     49  C   UNL A   1      44.437  32.442  29.300  1.00  0.00     0.029 A 
ATOM     50  C   UNL A   1      45.380  31.485  28.725  1.00  0.00     0.049 A 
ATOM     51  H   UNL A   1      45.016  29.492  28.244  1.00  0.00     0.167 HD
ATOM     52  C   UNL A   1      44.128  25.277  27.381  1.00  0.00     0.031 A 
ATOM     53  C   UNL A   1      46.661  31.743  28.392  1.00  0.00     0.031 A 
ATOM     54  C   UNL A   1      45.490  25.472  26.961  1.00  0.00     0.049 A 
ATOM     55  C   UNL A   1      47.509  30.634  27.823  1.00  0.00     0.074 A 
ATOM     56  C   UNL A   1      46.344  24.564  26.361  1.00  0.00     0.029 A 
ATOM     57  N   UNL A   1      46.199  26.656  27.099  1.00  0.00    -0.354 N 
ATOM     58  N   UNL A   1      47.180  29.389  27.570  1.00  0.00    -0.248 NA
ATOM     59  C   UNL A   1      48.900  30.969  27.490  1.00  0.00     0.031 C 
ATOM     60  C   UNL A   1      47.587  25.180  26.192  1.00  0.00     0.029 A 
ATOM     61  C   UNL A   1      47.485  26.497  26.614  1.00  0.00     0.049 A 
ATOM     62  H   UNL A   1      45.840  27.487  27.486  1.00  0.00     0.167 HD
ATOM     63  C   UNL A   1      48.311  28.803  27.010  1.00  0.00     0.074 A 
ATOM     64  C   UNL A   1      49.328  29.833  26.956  1.00  0.00     0.031 C 
ATOM     65  C   UNL A   1      48.488  27.532  26.571  1.00  0.00     0.031 A 
BRANCH  52  66
ATOM     66  C   UNL A   1      43.500  23.923  27.172  1.00  0.00    -0.014 A 
ATOM     67  C   UNL A   1      43.002  23.535  25.915  1.00  0.00     0.010 A 
ATOM     68  C   UNL A   1      43.457  23.004  28.237  1.00  0.00     0.010 A 
ATOM     69  C   UNL A   1      42.453  22.262  25.734  1.00  0.00     0.020 A 
ATOM     70  C   UNL A   1      42.938  21.721  28.052  1.00  0.00     0.020 A 
ATOM     71  C   UNL A   1      42.429  21.362  26.802  1.00  0.00     0.054 A 
BRANCH  71  72
ATOM     72  S   UNL A   1      41.752  19.703  26.523  1.00  0.00     0.124 S 
ATOM     73  O   UNL A   1      42.316  18.953  27.643  1.00  0.00    -0.237 OA
ATOM     74  O   UNL A   1      40.311  19.933  26.585  1.00  0.00    -0.237 OA
ATOM     75  O   UNL A   1      42.267  19.333  25.207  1.00  0.00    -0.744 OA
ENDBRANCH  71  72
ENDBRANCH  52  66
BRANCH  53  76
ATOM     76  C   UNL A   1      47.220  33.109  28.593  1.00  0.00    -0.014 A 
ATOM     77  C   UNL A   1      46.940  34.136  27.675  1.00  0.00     0.010 A 
ATOM     78  C   UNL A   1      48.020  33.396  29.715  1.00  0.00     0.010 A 
ATOM     79  C   UNL A   1      47.455  35.421  27.870  1.00  0.00     0.020 A 
ATOM     80  C   UNL A   1      48.511  34.687  29.930  1.00  0.00     0.020 A 
ATOM     81  C   UNL A   1      48.231  35.691  29.003  1.00  0.00     0.054 A 
BRANCH  81  82
ATOM     82  S   UNL A   1      48.829  37.383  29.265  1.00  0.00     0.124 S 
ATOM     83  O   UNL A   1      50.217  37.287  28.823  1.00  0.00    -0.237 OA
ATOM     84  O   UNL A   1      47.943  38.162  28.405  1.00  0.00    -0.237 OA
ATOM     85  O   UNL A   1      48.641  37.594  30.698  1.00  0.00    -0.744 OA
ENDBRANCH  81  82
ENDBRANCH  53  76
BRANCH  65  86
ATOM     86  C   UNL A   1      49.816  27.191  25.941  1.00  0.00    -0.014 A 
ATOM     87  C   UNL A   1      50.882  26.675  26.697  1.00  0.00     0.010 A 
ATOM     88  C   UNL A   1      49.980  27.356  24.552  1.00  0.00     0.010 A 
ATOM     89  C   UNL A   1      52.103  26.377  26.085  1.00  0.00     0.020 A 
ATOM     90  C   UNL A   1      51.186  27.025  23.930  1.00  0.00     0.020 A 
ATOM     91  C   UNL A   1      52.248  26.557  24.705  1.00  0.00     0.054 A 
BRANCH  91  92
ATOM     92  S   UNL A   1      53.840  26.155  23.935  1.00  0.00     0.124 S 
ATOM     93  O   UNL A   1      53.458  25.934  22.543  1.00  0.00    -0.237 OA
ATOM     94  O   UNL A   1      54.628  27.359  24.187  1.00  0.00    -0.237 OA
ATOM     95  O   UNL A   1      54.284  24.965  24.656  1.00  0.00    -0.744 OA
ENDBRANCH  91  92
ENDBRANCH  65  86
ENDBRANCH  39  40
ENDBRANCH  32  34
ENDBRANCH  31  32
ENDBRANCH  30  31
ENDBRANCH  29  30
ENDBRANCH  28  29
ENDBRANCH  27  28
ENDBRANCH   1  27
TORSDOF 24
ENDMDL
