MODEL 1
REMARK VINA RESULT:      -9.4      0.000      0.000
REMARK SMILES CC(C)N(CCCC(=O)OCCOCCOCCOCCOC(=O)c1ccc(-c2c3nc(c(-c4ccc(S(=O)(=O)[O-])cc4)c4ccc([nH]4)c(-c4ccc(S(=O)(=O)[O-])cc4)c4nc(c(-c5ccc(S(=O)(=O)[O-])cc5)c5ccc2[nH]5)C=C4)C=C3)cc1)c1cc(Cl)c(Cl)cc1[N+](=O)[O-]
REMARK SMILES IDX 15 1 14 2 13 3 12 4 11 5 10 6 8 7 9 8 7 9 6 10 5 11 4 12
REMARK SMILES IDX 2 13 1 14 3 15 85 16 86 17 92 18 87 19 91 20 88 21 89 22
REMARK SMILES IDX 90 23 93 24 94 25 95 26 16 27 17 28 18 29 19 30 20 31 21 32
REMARK SMILES IDX 22 33 23 34 24 35 25 36 26 37 84 38 27 39 83 40 28 41 29 42
REMARK SMILES IDX 30 43 77 44 31 45 82 46 76 47 78 48 32 49 81 50 75 51 74 52
REMARK SMILES IDX 33 54 63 55 44 56 62 57 45 58 48 59 61 60 79 61 46 62 47 63
REMARK SMILES IDX 60 65 80 66 49 67 34 68 35 69 43 70 36 71 42 72 37 73 38 74
REMARK SMILES IDX 39 75 40 76 41 77 64 78 65 79 73 80 66 81 72 82 67 83 68 84
REMARK SMILES IDX 69 85 70 86 71 87 50 88 51 89 59 90 52 91 58 92 53 93 54 94
REMARK SMILES IDX 55 95 56 96 57 97
REMARK H PARENT 78 53 48 64
REMARK Flexibility Score: inf
ROOT
ATOM      1  C   UNL A   1      45.115  19.122  24.751  1.00  0.00     0.188 C 
ENDROOT
BRANCH   1   2
ATOM      2  C   UNL A   1      43.996  18.789  25.754  1.00  0.00     0.188 C 
BRANCH   2   3
ATOM      3  O   UNL A   1      42.712  19.257  25.403  1.00  0.00    -0.376 OA
BRANCH   3   4
ATOM      4  C   UNL A   1      41.798  19.734  26.379  1.00  0.00     0.202 C 
BRANCH   4   5
ATOM      5  C   UNL A   1      40.998  21.044  26.272  1.00  0.00     0.261 C 
BRANCH   5   6
ATOM      6  O   UNL A   1      39.599  20.900  26.030  1.00  0.00    -0.463 OA
BRANCH   6   7
ATOM      7  C   UNL A   1      38.837  22.012  26.039  1.00  0.00     0.305 C 
ATOM      8  O   UNL A   1      39.052  22.996  26.737  1.00  0.00    -0.252 OA
BRANCH   7   9
ATOM      9  C   UNL A   1      37.778  21.999  24.952  1.00  0.00     0.124 C 
BRANCH   9  10
ATOM     10  C   UNL A   1      37.005  23.277  24.577  1.00  0.00     0.033 C 
BRANCH  10  11
ATOM     11  C   UNL A   1      35.587  23.181  24.003  1.00  0.00     0.117 C 
BRANCH  11  12
ATOM     12  N   UNL A   1      34.619  22.700  25.001  1.00  0.00    -0.364 N 
BRANCH  12  13
ATOM     13  C   UNL A   1      34.453  23.497  26.232  1.00  0.00     0.076 C 
ATOM     14  C   UNL A   1      33.771  24.833  25.974  1.00  0.00     0.030 C 
ATOM     15  C   UNL A   1      33.761  22.701  27.332  1.00  0.00     0.030 C 
ENDBRANCH  12  13
BRANCH  12  16
ATOM     16  C   UNL A   1      33.925  21.541  24.699  1.00  0.00     0.117 A 
ATOM     17  C   UNL A   1      34.568  20.308  24.901  1.00  0.00     0.055 A 
ATOM     18  C   UNL A   1      32.687  21.481  24.037  1.00  0.00     0.294 A 
ATOM     19  C   UNL A   1      34.092  19.115  24.339  1.00  0.00     0.062 A 
ATOM     20  C   UNL A   1      32.159  20.290  23.514  1.00  0.00     0.110 A 
ATOM     21  Cl  UNL A   1      35.093  17.711  24.486  1.00  0.00    -0.083 Cl
ATOM     22  C   UNL A   1      32.891  19.111  23.627  1.00  0.00     0.066 A 
ATOM     23  Cl  UNL A   1      32.279  17.696  22.849  1.00  0.00    -0.082 Cl
BRANCH  18  24
ATOM     24  N   UNL A   1      31.877  22.665  23.863  1.00  0.00     0.065 N 
ATOM     25  O   UNL A   1      31.043  22.889  24.749  1.00  0.00    -0.258 OA
ATOM     26  O   UNL A   1      32.036  23.321  22.824  1.00  0.00    -0.258 OA
ENDBRANCH  18  24
ENDBRANCH  12  16
ENDBRANCH  11  12
ENDBRANCH  10  11
ENDBRANCH   9  10
ENDBRANCH   7   9
ENDBRANCH   6   7
ENDBRANCH   5   6
ENDBRANCH   4   5
ENDBRANCH   3   4
ENDBRANCH   2   3
ENDBRANCH   1   2
BRANCH   1  27
ATOM     27  O   UNL A   1      45.686  20.417  24.777  1.00  0.00    -0.377 OA
BRANCH  27  28
ATOM     28  C   UNL A   1      44.895  21.536  24.379  1.00  0.00     0.188 C 
BRANCH  28  29
ATOM     29  C   UNL A   1      45.365  22.989  24.631  1.00  0.00     0.188 C 
BRANCH  29  30
ATOM     30  O   UNL A   1      45.274  23.447  25.969  1.00  0.00    -0.376 OA
BRANCH  30  31
ATOM     31  C   UNL A   1      44.337  24.470  26.272  1.00  0.00     0.202 C 
BRANCH  31  32
ATOM     32  C   UNL A   1      42.880  24.267  25.822  1.00  0.00     0.261 C 
BRANCH  32  33
ATOM     33  O   UNL A   1      41.911  25.144  26.412  1.00  0.00    -0.460 OA
BRANCH  33  34
ATOM     34  C   UNL A   1      41.908  26.430  25.989  1.00  0.00     0.338 C 
ATOM     35  O   UNL A   1      42.083  26.834  24.861  1.00  0.00    -0.246 OA
BRANCH  34  36
ATOM     36  C   UNL A   1      41.454  27.262  27.122  1.00  0.00     0.060 A 
ATOM     37  C   UNL A   1      41.735  28.635  27.108  1.00  0.00     0.016 A 
ATOM     38  C   UNL A   1      40.765  26.686  28.189  1.00  0.00     0.016 A 
ATOM     39  C   UNL A   1      41.357  29.432  28.186  1.00  0.00     0.010 A 
ATOM     40  C   UNL A   1      40.412  27.480  29.281  1.00  0.00     0.010 A 
ATOM     41  C   UNL A   1      40.742  28.847  29.299  1.00  0.00    -0.014 A 
BRANCH  41  42
ATOM     42  C   UNL A   1      40.651  29.610  30.564  1.00  0.00     0.031 A 
ATOM     43  C   UNL A   1      41.678  29.338  31.629  1.00  0.00     0.074 A 
ATOM     44  C   UNL A   1      39.702  30.544  30.753  1.00  0.00     0.049 A 
ATOM     45  N   UNL A   1      41.779  29.837  32.832  1.00  0.00    -0.248 NA
ATOM     46  C   UNL A   1      42.734  28.367  31.289  1.00  0.00     0.031 C 
ATOM     47  C   UNL A   1      38.692  30.938  29.772  1.00  0.00     0.029 A 
ATOM     48  N   UNL A   1      39.435  31.327  31.848  1.00  0.00    -0.354 N 
ATOM     49  C   UNL A   1      42.899  29.236  33.395  1.00  0.00     0.074 A 
ATOM     50  C   UNL A   1      43.426  28.312  32.416  1.00  0.00     0.031 C 
ATOM     51  C   UNL A   1      37.908  31.885  30.315  1.00  0.00     0.029 A 
ATOM     52  C   UNL A   1      38.335  32.134  31.691  1.00  0.00     0.049 A 
ATOM     53  H   UNL A   1      39.981  31.313  32.667  1.00  0.00     0.167 HD
ATOM     54  C   UNL A   1      43.444  29.441  34.617  1.00  0.00     0.031 A 
ATOM     55  C   UNL A   1      37.728  32.959  32.568  1.00  0.00     0.031 A 
ATOM     56  C   UNL A   1      42.902  30.346  35.594  1.00  0.00     0.049 A 
ATOM     57  C   UNL A   1      38.299  33.103  33.957  1.00  0.00     0.074 A 
ATOM     58  C   UNL A   1      43.377  30.626  36.864  1.00  0.00     0.029 A 
ATOM     59  N   UNL A   1      41.760  31.112  35.415  1.00  0.00    -0.354 N 
ATOM     60  N   UNL A   1      39.364  32.536  34.476  1.00  0.00    -0.248 NA
ATOM     61  C   UNL A   1      37.590  34.004  34.877  1.00  0.00     0.031 C 
ATOM     62  C   UNL A   1      42.485  31.511  37.475  1.00  0.00     0.029 A 
ATOM     63  C   UNL A   1      41.498  31.845  36.561  1.00  0.00     0.049 A 
ATOM     64  H   UNL A   1      41.217  31.133  34.594  1.00  0.00     0.167 HD
ATOM     65  C   UNL A   1      39.470  33.037  35.771  1.00  0.00     0.074 A 
ATOM     66  C   UNL A   1      38.369  33.962  35.951  1.00  0.00     0.031 C 
ATOM     67  C   UNL A   1      40.396  32.761  36.724  1.00  0.00     0.031 A 
BRANCH  54  68
ATOM     68  C   UNL A   1      44.667  28.637  34.976  1.00  0.00    -0.014 A 
ATOM     69  C   UNL A   1      45.963  29.126  34.732  1.00  0.00     0.010 A 
ATOM     70  C   UNL A   1      44.516  27.383  35.595  1.00  0.00     0.010 A 
ATOM     71  C   UNL A   1      47.084  28.360  35.065  1.00  0.00     0.020 A 
ATOM     72  C   UNL A   1      45.634  26.627  35.959  1.00  0.00     0.020 A 
ATOM     73  C   UNL A   1      46.912  27.116  35.677  1.00  0.00     0.054 A 
BRANCH  73  74
ATOM     74  S   UNL A   1      48.385  26.155  36.121  1.00  0.00     0.124 S 
ATOM     75  O   UNL A   1      48.177  25.927  37.550  1.00  0.00    -0.237 OA
ATOM     76  O   UNL A   1      48.260  24.971  35.273  1.00  0.00    -0.237 OA
ATOM     77  O   UNL A   1      49.495  27.044  35.788  1.00  0.00    -0.744 OA
ENDBRANCH  73  74
ENDBRANCH  54  68
BRANCH  55  78
ATOM     78  C   UNL A   1      36.500  33.701  32.166  1.00  0.00    -0.014 A 
ATOM     79  C   UNL A   1      35.682  33.229  31.126  1.00  0.00     0.010 A 
ATOM     80  C   UNL A   1      36.140  34.890  32.829  1.00  0.00     0.010 A 
ATOM     81  C   UNL A   1      34.536  33.935  30.748  1.00  0.00     0.020 A 
ATOM     82  C   UNL A   1      34.977  35.581  32.476  1.00  0.00     0.020 A 
ATOM     83  C   UNL A   1      34.187  35.105  31.430  1.00  0.00     0.054 A 
BRANCH  83  84
ATOM     84  S   UNL A   1      32.667  35.972  30.950  1.00  0.00     0.124 S 
ATOM     85  O   UNL A   1      32.389  35.397  29.638  1.00  0.00    -0.237 OA
ATOM     86  O   UNL A   1      31.742  35.594  32.016  1.00  0.00    -0.237 OA
ATOM     87  O   UNL A   1      33.060  37.379  30.945  1.00  0.00    -0.744 OA
ENDBRANCH  83  84
ENDBRANCH  55  78
BRANCH  67  88
ATOM     88  C   UNL A   1      40.291  33.495  38.037  1.00  0.00    -0.014 A 
ATOM     89  C   UNL A   1      40.914  34.739  38.236  1.00  0.00     0.010 A 
ATOM     90  C   UNL A   1      39.496  32.956  39.066  1.00  0.00     0.010 A 
ATOM     91  C   UNL A   1      40.773  35.414  39.454  1.00  0.00     0.020 A 
ATOM     92  C   UNL A   1      39.324  33.643  40.271  1.00  0.00     0.020 A 
ATOM     93  C   UNL A   1      39.976  34.862  40.462  1.00  0.00     0.054 A 
BRANCH  93  94
ATOM     94  S   UNL A   1      39.773  35.780  42.012  1.00  0.00     0.124 S 
ATOM     95  O   UNL A   1      38.880  36.865  41.611  1.00  0.00    -0.237 OA
ATOM     96  O   UNL A   1      39.187  34.780  42.902  1.00  0.00    -0.237 OA
ATOM     97  O   UNL A   1      41.134  36.190  42.355  1.00  0.00    -0.744 OA
ENDBRANCH  93  94
ENDBRANCH  67  88
ENDBRANCH  41  42
ENDBRANCH  34  36
ENDBRANCH  33  34
ENDBRANCH  32  33
ENDBRANCH  31  32
ENDBRANCH  30  31
ENDBRANCH  29  30
ENDBRANCH  28  29
ENDBRANCH  27  28
ENDBRANCH   1  27
TORSDOF 29
ENDMDL
MODEL 2
REMARK VINA RESULT:      -9.2      1.090      7.879
REMARK SMILES CC(C)N(CCCC(=O)OCCOCCOCCOCCOC(=O)c1ccc(-c2c3nc(c(-c4ccc(S(=O)(=O)[O-])cc4)c4ccc([nH]4)c(-c4ccc(S(=O)(=O)[O-])cc4)c4nc(c(-c5ccc(S(=O)(=O)[O-])cc5)c5ccc2[nH]5)C=C4)C=C3)cc1)c1cc(Cl)c(Cl)cc1[N+](=O)[O-]
REMARK SMILES IDX 15 1 14 2 13 3 12 4 11 5 10 6 8 7 9 8 7 9 6 10 5 11 4 12
REMARK SMILES IDX 2 13 1 14 3 15 85 16 86 17 92 18 87 19 91 20 88 21 89 22
REMARK SMILES IDX 90 23 93 24 94 25 95 26 16 27 17 28 18 29 19 30 20 31 21 32
REMARK SMILES IDX 22 33 23 34 24 35 25 36 26 37 84 38 27 39 83 40 28 41 29 42
REMARK SMILES IDX 30 43 77 44 31 45 82 46 76 47 78 48 32 49 81 50 75 51 74 52
REMARK SMILES IDX 33 54 63 55 44 56 62 57 45 58 48 59 61 60 79 61 46 62 47 63
REMARK SMILES IDX 60 65 80 66 49 67 34 68 35 69 43 70 36 71 42 72 37 73 38 74
REMARK SMILES IDX 39 75 40 76 41 77 64 78 65 79 73 80 66 81 72 82 67 83 68 84
REMARK SMILES IDX 69 85 70 86 71 87 50 88 51 89 59 90 52 91 58 92 53 93 54 94
REMARK SMILES IDX 55 95 56 96 57 97
REMARK H PARENT 78 53 48 64
REMARK Flexibility Score: inf
ROOT
ATOM      1  C   UNL A   1      44.063  19.142  24.952  1.00  0.00     0.188 C 
ENDROOT
BRANCH   1   2
ATOM      2  C   UNL A   1      42.964  18.653  25.913  1.00  0.00     0.188 C 
BRANCH   2   3
ATOM      3  O   UNL A   1      41.701  19.257  25.743  1.00  0.00    -0.376 OA
BRANCH   3   4
ATOM      4  C   UNL A   1      41.038  19.917  26.809  1.00  0.00     0.202 C 
BRANCH   4   5
ATOM      5  C   UNL A   1      40.200  21.201  26.668  1.00  0.00     0.261 C 
BRANCH   5   6
ATOM      6  O   UNL A   1      38.889  21.030  26.132  1.00  0.00    -0.463 OA
BRANCH   6   7
ATOM      7  C   UNL A   1      38.203  22.133  25.770  1.00  0.00     0.305 C 
ATOM      8  O   UNL A   1      38.645  23.274  25.826  1.00  0.00    -0.252 OA
BRANCH   7   9
ATOM      9  C   UNL A   1      36.881  21.802  25.103  1.00  0.00     0.124 C 
BRANCH   9  10
ATOM     10  C   UNL A   1      35.588  22.546  25.485  1.00  0.00     0.033 C 
BRANCH  10  11
ATOM     11  C   UNL A   1      34.670  21.988  26.579  1.00  0.00     0.117 C 
BRANCH  11  12
ATOM     12  N   UNL A   1      33.250  22.077  26.205  1.00  0.00    -0.364 N 
BRANCH  12  13
ATOM     13  C   UNL A   1      32.441  23.135  26.838  1.00  0.00     0.076 C 
ATOM     14  C   UNL A   1      32.774  24.522  26.304  1.00  0.00     0.030 C 
ATOM     15  C   UNL A   1      30.949  22.832  26.758  1.00  0.00     0.030 C 
ENDBRANCH  12  13
BRANCH  12  16
ATOM     16  C   UNL A   1      32.786  21.165  25.271  1.00  0.00     0.117 A 
ATOM     17  C   UNL A   1      32.711  19.812  25.643  1.00  0.00     0.055 A 
ATOM     18  C   UNL A   1      32.545  21.439  23.915  1.00  0.00     0.294 A 
ATOM     19  C   UNL A   1      32.567  18.784  24.700  1.00  0.00     0.062 A 
ATOM     20  C   UNL A   1      32.341  20.431  22.958  1.00  0.00     0.110 A 
ATOM     21  Cl  UNL A   1      32.705  17.156  25.269  1.00  0.00    -0.083 Cl
ATOM     22  C   UNL A   1      32.400  19.097  23.349  1.00  0.00     0.066 A 
ATOM     23  Cl  UNL A   1      32.287  17.885  22.125  1.00  0.00    -0.082 Cl
BRANCH  18  24
ATOM     24  N   UNL A   1      32.487  22.799  23.428  1.00  0.00     0.065 N 
ATOM     25  O   UNL A   1      33.560  23.290  23.058  1.00  0.00    -0.258 OA
ATOM     26  O   UNL A   1      31.394  23.379  23.477  1.00  0.00    -0.258 OA
ENDBRANCH  18  24
ENDBRANCH  12  16
ENDBRANCH  11  12
ENDBRANCH  10  11
ENDBRANCH   9  10
ENDBRANCH   7   9
ENDBRANCH   6   7
ENDBRANCH   5   6
ENDBRANCH   4   5
ENDBRANCH   3   4
ENDBRANCH   2   3
ENDBRANCH   1   2
BRANCH   1  27
ATOM     27  O   UNL A   1      44.667  20.399  25.195  1.00  0.00    -0.377 OA
BRANCH  27  28
ATOM     28  C   UNL A   1      43.854  21.572  25.205  1.00  0.00     0.188 C 
BRANCH  28  29
ATOM     29  C   UNL A   1      44.466  22.978  25.415  1.00  0.00     0.188 C 
BRANCH  29  30
ATOM     30  O   UNL A   1      44.273  23.552  26.697  1.00  0.00    -0.376 OA
BRANCH  30  31
ATOM     31  C   UNL A   1      43.439  24.696  26.808  1.00  0.00     0.202 C 
BRANCH  31  32
ATOM     32  C   UNL A   1      42.076  24.663  26.094  1.00  0.00     0.261 C 
BRANCH  32  33
ATOM     33  O   UNL A   1      41.087  25.579  26.585  1.00  0.00    -0.460 OA
BRANCH  33  34
ATOM     34  C   UNL A   1      41.287  26.893  26.331  1.00  0.00     0.338 C 
ATOM     35  O   UNL A   1      41.502  27.411  25.257  1.00  0.00    -0.246 OA
BRANCH  34  36
ATOM     36  C   UNL A   1      41.002  27.629  27.579  1.00  0.00     0.060 A 
ATOM     37  C   UNL A   1      41.505  28.929  27.729  1.00  0.00     0.016 A 
ATOM     38  C   UNL A   1      40.252  27.033  28.593  1.00  0.00     0.016 A 
ATOM     39  C   UNL A   1      41.288  29.624  28.915  1.00  0.00     0.010 A 
ATOM     40  C   UNL A   1      40.060  27.721  29.793  1.00  0.00     0.010 A 
ATOM     41  C   UNL A   1      40.610  29.002  29.971  1.00  0.00    -0.014 A 
BRANCH  41  42
ATOM     42  C   UNL A   1      40.675  29.595  31.326  1.00  0.00     0.031 A 
ATOM     43  C   UNL A   1      39.598  30.568  31.724  1.00  0.00     0.074 A 
ATOM     44  C   UNL A   1      41.645  29.258  32.193  1.00  0.00     0.049 A 
ATOM     45  N   UNL A   1      39.465  31.253  32.828  1.00  0.00    -0.248 NA
ATOM     46  C   UNL A   1      38.526  30.798  30.738  1.00  0.00     0.031 C 
ATOM     47  C   UNL A   1      42.705  28.283  31.943  1.00  0.00     0.029 A 
ATOM     48  N   UNL A   1      41.893  29.709  33.465  1.00  0.00    -0.354 N 
ATOM     49  C   UNL A   1      38.304  32.001  32.668  1.00  0.00     0.074 A 
ATOM     50  C   UNL A   1      37.788  31.712  31.349  1.00  0.00     0.031 C 
ATOM     51  C   UNL A   1      43.498  28.217  33.027  1.00  0.00     0.029 A 
ATOM     52  C   UNL A   1      43.024  29.171  34.029  1.00  0.00     0.049 A 
ATOM     53  H   UNL A   1      41.315  30.357  33.930  1.00  0.00     0.167 HD
ATOM     54  C   UNL A   1      37.717  32.849  33.544  1.00  0.00     0.031 A 
ATOM     55  C   UNL A   1      43.621  29.439  35.207  1.00  0.00     0.031 A 
ATOM     56  C   UNL A   1      38.249  33.149  34.847  1.00  0.00     0.049 A 
ATOM     57  C   UNL A   1      43.000  30.458  36.131  1.00  0.00     0.074 A 
ATOM     58  C   UNL A   1      37.733  33.996  35.812  1.00  0.00     0.029 A 
ATOM     59  N   UNL A   1      39.421  32.618  35.364  1.00  0.00    -0.354 N 
ATOM     60  N   UNL A   1      41.898  31.153  35.973  1.00  0.00    -0.248 NA
ATOM     61  C   UNL A   1      43.701  30.721  37.396  1.00  0.00     0.031 C 
ATOM     62  C   UNL A   1      38.628  34.027  36.885  1.00  0.00     0.029 A 
ATOM     63  C   UNL A   1      39.661  33.141  36.624  1.00  0.00     0.049 A 
ATOM     64  H   UNL A   1      39.997  31.966  34.904  1.00  0.00     0.167 HD
ATOM     65  C   UNL A   1      41.756  31.912  37.132  1.00  0.00     0.074 A 
ATOM     66  C   UNL A   1      42.878  31.580  37.986  1.00  0.00     0.031 C 
ATOM     67  C   UNL A   1      40.784  32.800  37.462  1.00  0.00     0.031 A 
BRANCH  54  68
ATOM     68  C   UNL A   1      36.456  33.544  33.101  1.00  0.00    -0.014 A 
ATOM     69  C   UNL A   1      36.424  34.933  32.882  1.00  0.00     0.010 A 
ATOM     70  C   UNL A   1      35.291  32.790  32.872  1.00  0.00     0.010 A 
ATOM     71  C   UNL A   1      35.241  35.559  32.479  1.00  0.00     0.020 A 
ATOM     72  C   UNL A   1      34.115  33.407  32.438  1.00  0.00     0.020 A 
ATOM     73  C   UNL A   1      34.094  34.792  32.259  1.00  0.00     0.054 A 
BRANCH  73  74
ATOM     74  S   UNL A   1      32.580  35.627  31.713  1.00  0.00     0.124 S 
ATOM     75  O   UNL A   1      32.943  37.035  31.858  1.00  0.00    -0.237 OA
ATOM     76  O   UNL A   1      32.435  35.156  30.337  1.00  0.00    -0.237 OA
ATOM     77  O   UNL A   1      31.562  35.148  32.644  1.00  0.00    -0.744 OA
ENDBRANCH  73  74
ENDBRANCH  54  68
BRANCH  55  78
ATOM     78  C   UNL A   1      44.888  28.745  35.575  1.00  0.00    -0.014 A 
ATOM     79  C   UNL A   1      44.869  27.579  36.358  1.00  0.00     0.010 A 
ATOM     80  C   UNL A   1      46.127  29.250  35.136  1.00  0.00     0.010 A 
ATOM     81  C   UNL A   1      46.062  26.938  36.706  1.00  0.00     0.020 A 
ATOM     82  C   UNL A   1      47.320  28.594  35.454  1.00  0.00     0.020 A 
ATOM     83  C   UNL A   1      47.281  27.447  36.247  1.00  0.00     0.054 A 
BRANCH  83  84
ATOM     84  S   UNL A   1      48.808  26.565  36.673  1.00  0.00     0.124 S 
ATOM     85  O   UNL A   1      49.780  27.653  36.735  1.00  0.00    -0.237 OA
ATOM     86  O   UNL A   1      48.467  25.949  37.953  1.00  0.00    -0.237 OA
ATOM     87  O   UNL A   1      48.987  25.630  35.566  1.00  0.00    -0.744 OA
ENDBRANCH  83  84
ENDBRANCH  55  78
BRANCH  67  88
ATOM     88  C   UNL A   1      40.860  33.449  38.821  1.00  0.00    -0.014 A 
ATOM     89  C   UNL A   1      40.296  32.845  39.958  1.00  0.00     0.010 A 
ATOM     90  C   UNL A   1      41.570  34.656  38.969  1.00  0.00     0.010 A 
ATOM     91  C   UNL A   1      40.410  33.454  41.212  1.00  0.00     0.020 A 
ATOM     92  C   UNL A   1      41.715  35.251  40.226  1.00  0.00     0.020 A 
ATOM     93  C   UNL A   1      41.122  34.651  41.338  1.00  0.00     0.054 A 
BRANCH  93  94
ATOM     94  S   UNL A   1      41.293  35.395  42.983  1.00  0.00     0.124 S 
ATOM     95  O   UNL A   1      39.934  35.858  43.252  1.00  0.00    -0.237 OA
ATOM     96  O   UNL A   1      41.747  34.269  43.797  1.00  0.00    -0.237 OA
ATOM     97  O   UNL A   1      42.283  36.453  42.785  1.00  0.00    -0.744 OA
ENDBRANCH  93  94
ENDBRANCH  67  88
ENDBRANCH  41  42
ENDBRANCH  34  36
ENDBRANCH  33  34
ENDBRANCH  32  33
ENDBRANCH  31  32
ENDBRANCH  30  31
ENDBRANCH  29  30
ENDBRANCH  28  29
ENDBRANCH  27  28
ENDBRANCH   1  27
TORSDOF 29
ENDMDL
MODEL 3
REMARK VINA RESULT:      -9.1      2.259      8.191
REMARK SMILES CC(C)N(CCCC(=O)OCCOCCOCCOCCOC(=O)c1ccc(-c2c3nc(c(-c4ccc(S(=O)(=O)[O-])cc4)c4ccc([nH]4)c(-c4ccc(S(=O)(=O)[O-])cc4)c4nc(c(-c5ccc(S(=O)(=O)[O-])cc5)c5ccc2[nH]5)C=C4)C=C3)cc1)c1cc(Cl)c(Cl)cc1[N+](=O)[O-]
REMARK SMILES IDX 15 1 14 2 13 3 12 4 11 5 10 6 8 7 9 8 7 9 6 10 5 11 4 12
REMARK SMILES IDX 2 13 1 14 3 15 85 16 86 17 92 18 87 19 91 20 88 21 89 22
REMARK SMILES IDX 90 23 93 24 94 25 95 26 16 27 17 28 18 29 19 30 20 31 21 32
REMARK SMILES IDX 22 33 23 34 24 35 25 36 26 37 84 38 27 39 83 40 28 41 29 42
REMARK SMILES IDX 30 43 77 44 31 45 82 46 76 47 78 48 32 49 81 50 75 51 74 52
REMARK SMILES IDX 33 54 63 55 44 56 62 57 45 58 48 59 61 60 79 61 46 62 47 63
REMARK SMILES IDX 60 65 80 66 49 67 34 68 35 69 43 70 36 71 42 72 37 73 38 74
REMARK SMILES IDX 39 75 40 76 41 77 64 78 65 79 73 80 66 81 72 82 67 83 68 84
REMARK SMILES IDX 69 85 70 86 71 87 50 88 51 89 59 90 52 91 58 92 53 93 54 94
REMARK SMILES IDX 55 95 56 96 57 97
REMARK H PARENT 78 53 48 64
REMARK Flexibility Score: inf
ROOT
ATOM      1  C   UNL A   1      43.584  18.540  25.161  1.00  0.00     0.188 C 
ENDROOT
BRANCH   1   2
ATOM      2  C   UNL A   1      42.778  18.640  26.469  1.00  0.00     0.188 C 
BRANCH   2   3
ATOM      3  O   UNL A   1      41.554  19.335  26.372  1.00  0.00    -0.376 OA
BRANCH   3   4
ATOM      4  C   UNL A   1      41.094  20.186  27.410  1.00  0.00     0.202 C 
BRANCH   4   5
ATOM      5  C   UNL A   1      40.531  21.604  27.204  1.00  0.00     0.261 C 
BRANCH   5   6
ATOM      6  O   UNL A   1      39.364  21.697  26.389  1.00  0.00    -0.463 OA
BRANCH   6   7
ATOM      7  C   UNL A   1      38.804  22.912  26.219  1.00  0.00     0.305 C 
ATOM      8  O   UNL A   1      39.284  23.961  26.632  1.00  0.00    -0.252 OA
BRANCH   7   9
ATOM      9  C   UNL A   1      37.601  22.873  25.296  1.00  0.00     0.124 C 
BRANCH   9  10
ATOM     10  C   UNL A   1      36.245  23.462  25.730  1.00  0.00     0.033 C 
BRANCH  10  11
ATOM     11  C   UNL A   1      34.968  22.622  25.618  1.00  0.00     0.117 C 
BRANCH  11  12
ATOM     12  N   UNL A   1      33.757  23.458  25.609  1.00  0.00    -0.364 N 
BRANCH  12  13
ATOM     13  C   UNL A   1      32.598  22.991  26.393  1.00  0.00     0.076 C 
ATOM     14  C   UNL A   1      31.834  21.874  25.694  1.00  0.00     0.030 C 
ATOM     15  C   UNL A   1      32.990  22.616  27.816  1.00  0.00     0.030 C 
ENDBRANCH  12  13
BRANCH  12  16
ATOM     16  C   UNL A   1      33.807  24.631  24.876  1.00  0.00     0.117 A 
ATOM     17  C   UNL A   1      33.996  25.840  25.568  1.00  0.00     0.055 A 
ATOM     18  C   UNL A   1      33.510  24.752  23.508  1.00  0.00     0.294 A 
ATOM     19  C   UNL A   1      33.745  27.087  24.977  1.00  0.00     0.062 A 
ATOM     20  C   UNL A   1      33.310  25.991  22.878  1.00  0.00     0.110 A 
ATOM     21  Cl  UNL A   1      33.809  28.481  26.001  1.00  0.00    -0.083 Cl
ATOM     22  C   UNL A   1      33.382  27.159  23.631  1.00  0.00     0.066 A 
ATOM     23  Cl  UNL A   1      32.992  28.651  22.855  1.00  0.00    -0.082 Cl
BRANCH  18  24
ATOM     24  N   UNL A   1      33.400  23.584  22.665  1.00  0.00     0.065 N 
ATOM     25  O   UNL A   1      34.346  23.377  21.895  1.00  0.00    -0.258 OA
ATOM     26  O   UNL A   1      32.353  22.925  22.732  1.00  0.00    -0.258 OA
ENDBRANCH  18  24
ENDBRANCH  12  16
ENDBRANCH  11  12
ENDBRANCH  10  11
ENDBRANCH   9  10
ENDBRANCH   7   9
ENDBRANCH   6   7
ENDBRANCH   5   6
ENDBRANCH   4   5
ENDBRANCH   3   4
ENDBRANCH   2   3
ENDBRANCH   1   2
BRANCH   1  27
ATOM     27  O   UNL A   1      44.989  18.385  25.241  1.00  0.00    -0.377 OA
BRANCH  27  28
ATOM     28  C   UNL A   1      45.830  19.497  24.934  1.00  0.00     0.188 C 
BRANCH  28  29
ATOM     29  C   UNL A   1      45.362  20.954  25.167  1.00  0.00     0.188 C 
BRANCH  29  30
ATOM     30  O   UNL A   1      44.453  21.473  24.211  1.00  0.00    -0.376 OA
BRANCH  30  31
ATOM     31  C   UNL A   1      44.304  22.882  24.115  1.00  0.00     0.202 C 
BRANCH  31  32
ATOM     32  C   UNL A   1      43.191  23.545  24.944  1.00  0.00     0.261 C 
BRANCH  32  33
ATOM     33  O   UNL A   1      43.617  24.254  26.116  1.00  0.00    -0.460 OA
BRANCH  33  34
ATOM     34  C   UNL A   1      44.000  25.541  25.950  1.00  0.00     0.338 C 
ATOM     35  O   UNL A   1      44.609  26.013  25.016  1.00  0.00    -0.246 OA
BRANCH  34  36
ATOM     36  C   UNL A   1      43.373  26.329  27.031  1.00  0.00     0.060 A 
ATOM     37  C   UNL A   1      43.703  27.684  27.160  1.00  0.00     0.016 A 
ATOM     38  C   UNL A   1      42.474  25.726  27.911  1.00  0.00     0.016 A 
ATOM     39  C   UNL A   1      43.159  28.435  28.199  1.00  0.00     0.010 A 
ATOM     40  C   UNL A   1      41.952  26.473  28.968  1.00  0.00     0.010 A 
ATOM     41  C   UNL A   1      42.323  27.818  29.137  1.00  0.00    -0.014 A 
BRANCH  41  42
ATOM     42  C   UNL A   1      42.024  28.511  30.411  1.00  0.00     0.031 A 
ATOM     43  C   UNL A   1      40.830  29.426  30.454  1.00  0.00     0.074 A 
ATOM     44  C   UNL A   1      42.773  28.313  31.510  1.00  0.00     0.049 A 
ATOM     45  N   UNL A   1      40.395  30.177  31.430  1.00  0.00    -0.248 NA
ATOM     46  C   UNL A   1      40.017  29.501  29.226  1.00  0.00     0.031 C 
ATOM     47  C   UNL A   1      43.915  27.406  31.606  1.00  0.00     0.029 A 
ATOM     48  N   UNL A   1      42.679  28.873  32.759  1.00  0.00    -0.354 N 
ATOM     49  C   UNL A   1      39.267  30.822  30.934  1.00  0.00     0.074 A 
ATOM     50  C   UNL A   1      39.103  30.398  29.561  1.00  0.00     0.031 C 
ATOM     51  C   UNL A   1      44.424  27.480  32.848  1.00  0.00     0.029 A 
ATOM     52  C   UNL A   1      43.668  28.466  33.620  1.00  0.00     0.049 A 
ATOM     53  H   UNL A   1      41.970  29.508  33.014  1.00  0.00     0.167 HD
ATOM     54  C   UNL A   1      38.439  31.685  31.567  1.00  0.00     0.031 A 
ATOM     55  C   UNL A   1      43.946  28.863  34.878  1.00  0.00     0.031 A 
ATOM     56  C   UNL A   1      38.621  32.118  32.927  1.00  0.00     0.049 A 
ATOM     57  C   UNL A   1      43.064  29.896  35.534  1.00  0.00     0.074 A 
ATOM     58  C   UNL A   1      37.840  32.991  33.662  1.00  0.00     0.029 A 
ATOM     59  N   UNL A   1      39.661  31.716  33.751  1.00  0.00    -0.354 N 
ATOM     60  N   UNL A   1      41.995  30.493  35.058  1.00  0.00    -0.248 NA
ATOM     61  C   UNL A   1      43.420  30.304  36.900  1.00  0.00     0.031 C 
ATOM     62  C   UNL A   1      38.445  33.169  34.910  1.00  0.00     0.029 A 
ATOM     63  C   UNL A   1      39.559  32.347  34.981  1.00  0.00     0.049 A 
ATOM     64  H   UNL A   1      40.367  31.078  33.501  1.00  0.00     0.167 HD
ATOM     65  C   UNL A   1      41.534  31.321  36.078  1.00  0.00     0.074 A 
ATOM     66  C   UNL A   1      42.433  31.138  37.200  1.00  0.00     0.031 C 
ATOM     67  C   UNL A   1      40.463  32.154  36.087  1.00  0.00     0.031 A 
BRANCH  54  68
ATOM     68  C   UNL A   1      37.286  32.247  30.777  1.00  0.00    -0.014 A 
ATOM     69  C   UNL A   1      35.961  31.848  31.031  1.00  0.00     0.010 A 
ATOM     70  C   UNL A   1      37.530  33.214  29.785  1.00  0.00     0.010 A 
ATOM     71  C   UNL A   1      34.906  32.376  30.281  1.00  0.00     0.020 A 
ATOM     72  C   UNL A   1      36.475  33.768  29.054  1.00  0.00     0.020 A 
ATOM     73  C   UNL A   1      35.171  33.334  29.297  1.00  0.00     0.054 A 
BRANCH  73  74
ATOM     74  S   UNL A   1      33.780  34.020  28.357  1.00  0.00     0.124 S 
ATOM     75  O   UNL A   1      34.409  35.143  27.665  1.00  0.00    -0.237 OA
ATOM     76  O   UNL A   1      33.388  32.900  27.505  1.00  0.00    -0.237 OA
ATOM     77  O   UNL A   1      32.810  34.387  29.386  1.00  0.00    -0.744 OA
ENDBRANCH  73  74
ENDBRANCH  54  68
BRANCH  55  78
ATOM     78  C   UNL A   1      45.123  28.296  35.596  1.00  0.00    -0.014 A 
ATOM     79  C   UNL A   1      44.967  27.252  36.523  1.00  0.00     0.010 A 
ATOM     80  C   UNL A   1      46.415  28.799  35.349  1.00  0.00     0.010 A 
ATOM     81  C   UNL A   1      46.074  26.731  37.198  1.00  0.00     0.020 A 
ATOM     82  C   UNL A   1      47.529  28.259  35.998  1.00  0.00     0.020 A 
ATOM     83  C   UNL A   1      47.350  27.234  36.927  1.00  0.00     0.054 A 
BRANCH  83  84
ATOM     84  S   UNL A   1      48.774  26.504  37.782  1.00  0.00     0.124 S 
ATOM     85  O   UNL A   1      49.724  26.318  36.690  1.00  0.00    -0.237 OA
ATOM     86  O   UNL A   1      49.121  27.541  38.752  1.00  0.00    -0.237 OA
ATOM     87  O   UNL A   1      48.237  25.275  38.359  1.00  0.00    -0.744 OA
ENDBRANCH  83  84
ENDBRANCH  55  78
BRANCH  67  88
ATOM     88  C   UNL A   1      40.171  32.905  37.363  1.00  0.00    -0.014 A 
ATOM     89  C   UNL A   1      41.125  33.750  37.954  1.00  0.00     0.010 A 
ATOM     90  C   UNL A   1      38.891  32.809  37.941  1.00  0.00     0.010 A 
ATOM     91  C   UNL A   1      40.816  34.460  39.120  1.00  0.00     0.020 A 
ATOM     92  C   UNL A   1      38.566  33.542  39.086  1.00  0.00     0.020 A 
ATOM     93  C   UNL A   1      39.537  34.353  39.676  1.00  0.00     0.054 A 
BRANCH  93  94
ATOM     94  S   UNL A   1      39.149  35.319  41.161  1.00  0.00     0.124 S 
ATOM     95  O   UNL A   1      40.479  35.695  41.636  1.00  0.00    -0.237 OA
ATOM     96  O   UNL A   1      38.340  36.412  40.628  1.00  0.00    -0.237 OA
ATOM     97  O   UNL A   1      38.429  34.374  42.012  1.00  0.00    -0.744 OA
ENDBRANCH  93  94
ENDBRANCH  67  88
ENDBRANCH  41  42
ENDBRANCH  34  36
ENDBRANCH  33  34
ENDBRANCH  32  33
ENDBRANCH  31  32
ENDBRANCH  30  31
ENDBRANCH  29  30
ENDBRANCH  28  29
ENDBRANCH  27  28
ENDBRANCH   1  27
TORSDOF 29
ENDMDL
