MODEL 1
REMARK VINA RESULT:     -11.3      0.000      0.000
REMARK SMILES O=C1C[C@H](c2cn[nH]c2C(=O)OCCOCCOCCOCCOC(=O)c2ccc(-c3c4nc(c(-c5ccc(S(=O)(=O)[O-])cc5)c5ccc([nH]5)c(-c5ccc(S(=O)(=O)[O-])cc5)c5nc(c(-c6ccc(S(=O)(=O)[O-])cc6)c6ccc3[nH]6)C=C5)C=C4)cc2)c2c(-c3cccs3)n[nH]c2N1
REMARK SMILES IDX 19 1 18 2 17 3 16 4 15 5 14 6 13 7 12 8 10 9 11 10 9 11 5 12
REMARK SMILES IDX 6 13 7 14 8 15 4 17 1 18 2 19 3 20 97 21 96 22 87 24 95 25
REMARK SMILES IDX 88 26 94 27 89 29 90 30 93 31 91 32 92 33 20 34 21 35 22 36
REMARK SMILES IDX 23 37 24 38 25 39 26 40 27 41 28 42 86 43 29 44 85 45 30 46
REMARK SMILES IDX 31 47 32 48 79 49 33 50 84 51 78 52 80 53 34 54 83 55 77 56
REMARK SMILES IDX 76 57 35 59 65 60 46 61 64 62 47 63 50 64 63 65 81 66 48 67
REMARK SMILES IDX 49 68 62 70 82 71 51 72 36 73 37 74 45 75 38 76 44 77 39 78
REMARK SMILES IDX 40 79 41 80 42 81 43 82 66 83 67 84 75 85 68 86 74 87 69 88
REMARK SMILES IDX 70 89 71 90 72 91 73 92 52 93 53 94 61 95 54 96 60 97 55 98
REMARK SMILES IDX 56 99 57 100 58 101 59 102
REMARK H PARENT 8 16 97 23 95 28 80 58 50 69
REMARK Flexibility Score: inf
ROOT
ATOM      1  C   UNL A   1      43.542  18.839  25.573  1.00  0.00     0.188 C 
ENDROOT
BRANCH   1   2
ATOM      2  O   UNL A   1      42.244  19.340  25.355  1.00  0.00    -0.377 OA
BRANCH   2   3
ATOM      3  C   UNL A   1      41.328  19.124  26.409  1.00  0.00     0.188 C 
BRANCH   3   4
ATOM      4  C   UNL A   1      41.244  20.177  27.539  1.00  0.00     0.188 C 
BRANCH   4   5
ATOM      5  O   UNL A   1      40.458  21.335  27.351  1.00  0.00    -0.376 OA
BRANCH   5   6
ATOM      6  C   UNL A   1      39.865  21.723  26.129  1.00  0.00     0.202 C 
BRANCH   6   7
ATOM      7  C   UNL A   1      38.467  22.328  25.991  1.00  0.00     0.261 C 
BRANCH   7   8
ATOM      8  O   UNL A   1      37.372  21.425  26.138  1.00  0.00    -0.459 OA
BRANCH   8   9
ATOM      9  C   UNL A   1      36.897  20.875  24.997  1.00  0.00     0.356 C 
ATOM     10  O   UNL A   1      36.909  19.667  24.755  1.00  0.00    -0.244 OA
BRANCH   9  11
ATOM     11  C   UNL A   1      36.171  21.824  24.192  1.00  0.00     0.147 A 
ATOM     12  C   UNL A   1      34.842  22.144  23.884  1.00  0.00     0.013 A 
ATOM     13  C   UNL A   1      34.983  23.269  23.010  1.00  0.00     0.140 A 
ATOM     14  N   UNL A   1      36.244  23.587  22.747  1.00  0.00    -0.183 NA
ATOM     15  N   UNL A   1      36.936  22.715  23.476  1.00  0.00    -0.271 N 
ATOM     16  H   UNL A   1      37.920  22.708  23.501  1.00  0.00     0.190 HD
BRANCH  12  17
ATOM     17  C   UNL A   1      33.463  21.662  24.337  1.00  0.00     0.069 C 
ATOM     18  O   UNL A   1      33.482  18.043  25.324  1.00  0.00    -0.275 OA
ATOM     19  C   UNL A   1      33.309  19.258  25.406  1.00  0.00     0.226 C 
ATOM     20  C   UNL A   1      33.268  20.133  24.155  1.00  0.00     0.114 C 
ATOM     21  N   UNL A   1      33.023  19.828  26.621  1.00  0.00    -0.311 N 
ATOM     22  C   UNL A   1      32.860  21.179  26.710  1.00  0.00     0.132 A 
ATOM     23  H   UNL A   1      32.937  19.264  27.423  1.00  0.00     0.171 HD
ATOM     24  C   UNL A   1      33.020  22.077  25.690  1.00  0.00     0.031 A 
ATOM     25  N   UNL A   1      32.563  21.894  27.828  1.00  0.00    -0.262 N 
ATOM     26  C   UNL A   1      32.750  23.338  26.281  1.00  0.00     0.108 A 
ATOM     27  N   UNL A   1      32.554  23.226  27.606  1.00  0.00    -0.173 NA
ATOM     28  H   UNL A   1      32.375  21.485  28.703  1.00  0.00     0.192 HD
BRANCH  26  29
ATOM     29  C   UNL A   1      32.871  24.656  25.582  1.00  0.00     0.055 A 
ATOM     30  C   UNL A   1      33.897  25.548  25.810  1.00  0.00     0.022 A 
ATOM     31  S   UNL A   1      31.840  25.179  24.327  1.00  0.00    -0.142 S 
ATOM     32  C   UNL A   1      33.921  26.587  24.831  1.00  0.00     0.012 A 
ATOM     33  C   UNL A   1      32.825  26.535  24.000  1.00  0.00     0.065 A 
ENDBRANCH  26  29
ENDBRANCH  12  17
ENDBRANCH   9  11
ENDBRANCH   8   9
ENDBRANCH   7   8
ENDBRANCH   6   7
ENDBRANCH   5   6
ENDBRANCH   4   5
ENDBRANCH   3   4
ENDBRANCH   2   3
ENDBRANCH   1   2
BRANCH   1  34
ATOM     34  C   UNL A   1      44.546  19.212  24.467  1.00  0.00     0.188 C 
BRANCH  34  35
ATOM     35  O   UNL A   1      44.718  20.539  23.976  1.00  0.00    -0.376 OA
BRANCH  35  36
ATOM     36  C   UNL A   1      44.691  21.717  24.772  1.00  0.00     0.202 C 
BRANCH  36  37
ATOM     37  C   UNL A   1      43.946  22.990  24.373  1.00  0.00     0.261 C 
BRANCH  37  38
ATOM     38  O   UNL A   1      42.859  23.294  25.211  1.00  0.00    -0.460 OA
BRANCH  38  39
ATOM     39  C   UNL A   1      42.721  24.611  25.432  1.00  0.00     0.338 C 
ATOM     40  O   UNL A   1      43.425  25.511  25.006  1.00  0.00    -0.246 OA
BRANCH  39  41
ATOM     41  C   UNL A   1      41.591  24.805  26.358  1.00  0.00     0.060 A 
ATOM     42  C   UNL A   1      40.738  25.820  25.936  1.00  0.00     0.016 A 
ATOM     43  C   UNL A   1      41.823  24.516  27.710  1.00  0.00     0.016 A 
ATOM     44  C   UNL A   1      40.560  26.848  26.818  1.00  0.00     0.010 A 
ATOM     45  C   UNL A   1      41.649  25.543  28.591  1.00  0.00     0.010 A 
ATOM     46  C   UNL A   1      41.153  26.737  28.081  1.00  0.00    -0.014 A 
BRANCH  46  47
ATOM     47  C   UNL A   1      41.219  27.933  28.876  1.00  0.00     0.031 A 
ATOM     48  C   UNL A   1      42.324  28.799  28.441  1.00  0.00     0.074 A 
ATOM     49  C   UNL A   1      40.322  28.206  29.839  1.00  0.00     0.049 A 
ATOM     50  N   UNL A   1      43.459  28.976  29.025  1.00  0.00    -0.248 NA
ATOM     51  C   UNL A   1      42.255  29.314  27.064  1.00  0.00     0.031 C 
ATOM     52  C   UNL A   1      39.040  27.556  30.125  1.00  0.00     0.029 A 
ATOM     53  N   UNL A   1      40.334  29.240  30.711  1.00  0.00    -0.354 N 
ATOM     54  C   UNL A   1      44.168  29.814  28.178  1.00  0.00     0.074 A 
ATOM     55  C   UNL A   1      43.492  29.777  26.907  1.00  0.00     0.031 C 
ATOM     56  C   UNL A   1      38.297  28.378  30.907  1.00  0.00     0.029 A 
ATOM     57  C   UNL A   1      39.104  29.530  31.278  1.00  0.00     0.049 A 
ATOM     58  H   UNL A   1      41.152  29.746  30.925  1.00  0.00     0.167 HD
ATOM     59  C   UNL A   1      45.081  30.701  28.656  1.00  0.00     0.031 A 
ATOM     60  C   UNL A   1      38.778  30.693  31.899  1.00  0.00     0.031 A 
ATOM     61  C   UNL A   1      45.446  30.407  30.017  1.00  0.00     0.049 A 
ATOM     62  C   UNL A   1      40.059  31.378  32.238  1.00  0.00     0.074 A 
ATOM     63  C   UNL A   1      46.063  29.342  30.642  1.00  0.00     0.029 A 
ATOM     64  N   UNL A   1      44.787  31.106  31.004  1.00  0.00    -0.354 N 
ATOM     65  N   UNL A   1      40.921  30.904  33.097  1.00  0.00    -0.248 NA
ATOM     66  C   UNL A   1      40.612  32.308  31.262  1.00  0.00     0.031 C 
ATOM     67  C   UNL A   1      45.378  29.196  31.882  1.00  0.00     0.029 A 
ATOM     68  C   UNL A   1      44.425  30.213  31.980  1.00  0.00     0.049 A 
ATOM     69  H   UNL A   1      44.607  32.074  31.007  1.00  0.00     0.167 HD
ATOM     70  C   UNL A   1      42.170  31.139  32.532  1.00  0.00     0.074 A 
ATOM     71  C   UNL A   1      41.917  32.077  31.438  1.00  0.00     0.031 C 
ATOM     72  C   UNL A   1      43.242  30.339  32.810  1.00  0.00     0.031 A 
BRANCH  59  73
ATOM     73  C   UNL A   1      45.301  32.052  28.031  1.00  0.00    -0.014 A 
ATOM     74  C   UNL A   1      46.596  32.393  27.602  1.00  0.00     0.010 A 
ATOM     75  C   UNL A   1      44.349  33.091  28.091  1.00  0.00     0.010 A 
ATOM     76  C   UNL A   1      46.933  33.722  27.316  1.00  0.00     0.020 A 
ATOM     77  C   UNL A   1      44.660  34.408  27.763  1.00  0.00     0.020 A 
ATOM     78  C   UNL A   1      45.964  34.721  27.414  1.00  0.00     0.054 A 
BRANCH  78  79
ATOM     79  S   UNL A   1      46.433  36.446  27.160  1.00  0.00     0.124 S 
ATOM     80  O   UNL A   1      47.206  36.725  28.366  1.00  0.00    -0.237 OA
ATOM     81  O   UNL A   1      47.193  36.378  25.916  1.00  0.00    -0.237 OA
ATOM     82  O   UNL A   1      45.150  37.140  27.063  1.00  0.00    -0.744 OA
ENDBRANCH  78  79
ENDBRANCH  59  73
BRANCH  60  83
ATOM     83  C   UNL A   1      37.473  31.403  31.829  1.00  0.00    -0.014 A 
ATOM     84  C   UNL A   1      36.666  31.582  32.968  1.00  0.00     0.010 A 
ATOM     85  C   UNL A   1      37.136  32.139  30.672  1.00  0.00     0.010 A 
ATOM     86  C   UNL A   1      35.588  32.489  32.959  1.00  0.00     0.020 A 
ATOM     87  C   UNL A   1      36.064  33.039  30.654  1.00  0.00     0.020 A 
ATOM     88  C   UNL A   1      35.302  33.223  31.804  1.00  0.00     0.054 A 
BRANCH  88  89
ATOM     89  S   UNL A   1      34.003  34.496  31.841  1.00  0.00     0.124 S 
ATOM     90  O   UNL A   1      33.534  34.504  30.459  1.00  0.00    -0.237 OA
ATOM     91  O   UNL A   1      33.064  33.964  32.824  1.00  0.00    -0.237 OA
ATOM     92  O   UNL A   1      34.714  35.703  32.261  1.00  0.00    -0.744 OA
ENDBRANCH  88  89
ENDBRANCH  60  83
BRANCH  72  93
ATOM     93  C   UNL A   1      43.123  29.336  33.936  1.00  0.00    -0.014 A 
ATOM     94  C   UNL A   1      43.136  29.684  35.302  1.00  0.00     0.010 A 
ATOM     95  C   UNL A   1      42.782  28.018  33.584  1.00  0.00     0.010 A 
ATOM     96  C   UNL A   1      42.822  28.733  36.287  1.00  0.00     0.020 A 
ATOM     97  C   UNL A   1      42.452  27.073  34.558  1.00  0.00     0.020 A 
ATOM     98  C   UNL A   1      42.478  27.432  35.906  1.00  0.00     0.054 A 
BRANCH  98  99
ATOM     99  S   UNL A   1      41.997  26.219  37.171  1.00  0.00     0.124 S 
ATOM    100  O   UNL A   1      43.047  26.376  38.173  1.00  0.00    -0.237 OA
ATOM    101  O   UNL A   1      40.669  26.675  37.572  1.00  0.00    -0.237 OA
ATOM    102  O   UNL A   1      42.013  24.944  36.454  1.00  0.00    -0.744 OA
ENDBRANCH  98  99
ENDBRANCH  72  93
ENDBRANCH  46  47
ENDBRANCH  39  41
ENDBRANCH  38  39
ENDBRANCH  37  38
ENDBRANCH  36  37
ENDBRANCH  35  36
ENDBRANCH  34  35
ENDBRANCH   1  34
TORSDOF 25
ENDMDL
MODEL 2
REMARK VINA RESULT:     -11.1      2.730      4.226
REMARK SMILES O=C1C[C@H](c2cn[nH]c2C(=O)OCCOCCOCCOCCOC(=O)c2ccc(-c3c4nc(c(-c5ccc(S(=O)(=O)[O-])cc5)c5ccc([nH]5)c(-c5ccc(S(=O)(=O)[O-])cc5)c5nc(c(-c6ccc(S(=O)(=O)[O-])cc6)c6ccc3[nH]6)C=C5)C=C4)cc2)c2c(-c3cccs3)n[nH]c2N1
REMARK SMILES IDX 19 1 18 2 17 3 16 4 15 5 14 6 13 7 12 8 10 9 11 10 9 11 5 12
REMARK SMILES IDX 6 13 7 14 8 15 4 17 1 18 2 19 3 20 97 21 96 22 87 24 95 25
REMARK SMILES IDX 88 26 94 27 89 29 90 30 93 31 91 32 92 33 20 34 21 35 22 36
REMARK SMILES IDX 23 37 24 38 25 39 26 40 27 41 28 42 86 43 29 44 85 45 30 46
REMARK SMILES IDX 31 47 32 48 79 49 33 50 84 51 78 52 80 53 34 54 83 55 77 56
REMARK SMILES IDX 76 57 35 59 65 60 46 61 64 62 47 63 50 64 63 65 81 66 48 67
REMARK SMILES IDX 49 68 62 70 82 71 51 72 36 73 37 74 45 75 38 76 44 77 39 78
REMARK SMILES IDX 40 79 41 80 42 81 43 82 66 83 67 84 75 85 68 86 74 87 69 88
REMARK SMILES IDX 70 89 71 90 72 91 73 92 52 93 53 94 61 95 54 96 60 97 55 98
REMARK SMILES IDX 56 99 57 100 58 101 59 102
REMARK H PARENT 8 16 97 23 95 28 80 58 50 69
REMARK Flexibility Score: inf
ROOT
ATOM      1  C   UNL A   1      41.184  21.084  26.927  1.00  0.00     0.188 C 
ENDROOT
BRANCH   1   2
ATOM      2  O   UNL A   1      40.477  21.956  26.076  1.00  0.00    -0.377 OA
BRANCH   2   3
ATOM      3  C   UNL A   1      39.241  22.422  26.578  1.00  0.00     0.188 C 
BRANCH   3   4
ATOM      4  C   UNL A   1      38.136  22.811  25.570  1.00  0.00     0.188 C 
BRANCH   4   5
ATOM      5  O   UNL A   1      37.322  21.802  25.008  1.00  0.00    -0.376 OA
BRANCH   5   6
ATOM      6  C   UNL A   1      35.942  21.933  24.734  1.00  0.00     0.202 C 
BRANCH   6   7
ATOM      7  C   UNL A   1      35.299  23.137  24.043  1.00  0.00     0.261 C 
BRANCH   7   8
ATOM      8  O   UNL A   1      35.463  24.397  24.694  1.00  0.00    -0.459 OA
BRANCH   8   9
ATOM      9  C   UNL A   1      34.369  25.194  24.729  1.00  0.00     0.356 C 
ATOM     10  O   UNL A   1      34.113  25.975  25.646  1.00  0.00    -0.244 OA
BRANCH   9  11
ATOM     11  C   UNL A   1      33.655  25.199  23.478  1.00  0.00     0.147 A 
ATOM     12  C   UNL A   1      32.516  24.608  22.913  1.00  0.00     0.013 A 
ATOM     13  C   UNL A   1      32.482  25.181  21.602  1.00  0.00     0.140 A 
ATOM     14  N   UNL A   1      33.502  25.989  21.344  1.00  0.00    -0.183 NA
ATOM     15  N   UNL A   1      34.183  25.993  22.487  1.00  0.00    -0.271 N 
ATOM     16  H   UNL A   1      35.003  26.522  22.613  1.00  0.00     0.190 HD
BRANCH  12  17
ATOM     17  C   UNL A   1      31.397  23.690  23.405  1.00  0.00     0.069 C 
ATOM     18  O   UNL A   1      32.660  20.272  24.298  1.00  0.00    -0.275 OA
ATOM     19  C   UNL A   1      32.097  21.359  24.418  1.00  0.00     0.226 C 
ATOM     20  C   UNL A   1      31.713  22.185  23.192  1.00  0.00     0.114 C 
ATOM     21  N   UNL A   1      31.692  21.787  25.656  1.00  0.00    -0.311 N 
ATOM     22  C   UNL A   1      31.094  23.006  25.786  1.00  0.00     0.132 A 
ATOM     23  H   UNL A   1      31.834  21.217  26.447  1.00  0.00     0.171 HD
ATOM     24  C   UNL A   1      30.901  23.918  24.784  1.00  0.00     0.031 A 
ATOM     25  N   UNL A   1      30.626  23.568  26.933  1.00  0.00    -0.262 N 
ATOM     26  C   UNL A   1      30.255  25.010  25.416  1.00  0.00     0.108 A 
ATOM     27  N   UNL A   1      30.166  24.824  26.745  1.00  0.00    -0.173 NA
ATOM     28  H   UNL A   1      30.623  23.110  27.803  1.00  0.00     0.192 HD
BRANCH  26  29
ATOM     29  C   UNL A   1      29.900  26.301  24.748  1.00  0.00     0.055 A 
ATOM     30  C   UNL A   1      30.747  27.388  24.691  1.00  0.00     0.022 A 
ATOM     31  S   UNL A   1      28.467  26.564  23.859  1.00  0.00    -0.142 S 
ATOM     32  C   UNL A   1      30.276  28.377  23.776  1.00  0.00     0.012 A 
ATOM     33  C   UNL A   1      29.021  28.078  23.297  1.00  0.00     0.065 A 
ENDBRANCH  26  29
ENDBRANCH  12  17
ENDBRANCH   9  11
ENDBRANCH   8   9
ENDBRANCH   7   8
ENDBRANCH   6   7
ENDBRANCH   5   6
ENDBRANCH   4   5
ENDBRANCH   3   4
ENDBRANCH   2   3
ENDBRANCH   1   2
BRANCH   1  34
ATOM     34  C   UNL A   1      40.911  19.594  26.658  1.00  0.00     0.188 C 
BRANCH  34  35
ATOM     35  O   UNL A   1      41.689  18.802  25.765  1.00  0.00    -0.376 OA
BRANCH  35  36
ATOM     36  C   UNL A   1      43.055  18.454  25.955  1.00  0.00     0.202 C 
BRANCH  36  37
ATOM     37  C   UNL A   1      44.190  18.973  25.074  1.00  0.00     0.261 C 
BRANCH  37  38
ATOM     38  O   UNL A   1      44.081  20.339  24.759  1.00  0.00    -0.460 OA
BRANCH  38  39
ATOM     39  C   UNL A   1      45.228  21.013  24.944  1.00  0.00     0.338 C 
ATOM     40  O   UNL A   1      46.221  20.632  25.542  1.00  0.00    -0.246 OA
BRANCH  39  41
ATOM     41  C   UNL A   1      45.073  22.354  24.356  1.00  0.00     0.060 A 
ATOM     42  C   UNL A   1      46.170  23.169  24.616  1.00  0.00     0.016 A 
ATOM     43  C   UNL A   1      43.765  22.848  24.241  1.00  0.00     0.016 A 
ATOM     44  C   UNL A   1      45.898  24.334  25.276  1.00  0.00     0.010 A 
ATOM     45  C   UNL A   1      43.492  24.010  24.903  1.00  0.00     0.010 A 
ATOM     46  C   UNL A   1      44.557  24.646  25.529  1.00  0.00    -0.014 A 
BRANCH  46  47
ATOM     47  C   UNL A   1      44.302  25.698  26.475  1.00  0.00     0.031 A 
ATOM     48  C   UNL A   1      45.335  26.740  26.401  1.00  0.00     0.074 A 
ATOM     49  C   UNL A   1      43.211  25.709  27.260  1.00  0.00     0.049 A 
ATOM     50  N   UNL A   1      46.304  26.945  27.226  1.00  0.00    -0.248 NA
ATOM     51  C   UNL A   1      45.454  27.461  25.123  1.00  0.00     0.031 C 
ATOM     52  C   UNL A   1      42.003  24.883  27.183  1.00  0.00     0.029 A 
ATOM     53  N   UNL A   1      42.913  26.584  28.249  1.00  0.00    -0.354 N 
ATOM     54  C   UNL A   1      47.034  27.983  26.668  1.00  0.00     0.074 A 
ATOM     55  C   UNL A   1      46.621  28.077  25.291  1.00  0.00     0.031 C 
ATOM     56  C   UNL A   1      41.018  25.480  27.898  1.00  0.00     0.029 A 
ATOM     57  C   UNL A   1      41.569  26.639  28.582  1.00  0.00     0.049 A 
ATOM     58  H   UNL A   1      43.595  27.136  28.694  1.00  0.00     0.167 HD
ATOM     59  C   UNL A   1      47.706  28.877  27.441  1.00  0.00     0.031 A 
ATOM     60  C   UNL A   1      40.971  27.643  29.275  1.00  0.00     0.031 A 
ATOM     61  C   UNL A   1      47.846  28.408  28.794  1.00  0.00     0.049 A 
ATOM     62  C   UNL A   1      42.055  28.401  29.962  1.00  0.00     0.074 A 
ATOM     63  C   UNL A   1      48.479  27.332  29.382  1.00  0.00     0.029 A 
ATOM     64  N   UNL A   1      46.921  28.861  29.709  1.00  0.00    -0.354 N 
ATOM     65  N   UNL A   1      42.799  27.894  30.909  1.00  0.00    -0.248 NA
ATOM     66  C   UNL A   1      42.645  29.534  29.258  1.00  0.00     0.031 C 
ATOM     67  C   UNL A   1      47.601  26.912  30.422  1.00  0.00     0.029 A 
ATOM     68  C   UNL A   1      46.512  27.788  30.458  1.00  0.00     0.049 A 
ATOM     69  H   UNL A   1      46.609  29.790  29.807  1.00  0.00     0.167 HD
ATOM     70  C   UNL A   1      44.086  28.355  30.652  1.00  0.00     0.074 A 
ATOM     71  C   UNL A   1      43.913  29.424  29.667  1.00  0.00     0.031 C 
ATOM     72  C   UNL A   1      45.189  27.645  31.034  1.00  0.00     0.031 A 
BRANCH  59  73
ATOM     73  C   UNL A   1      47.847  30.327  27.065  1.00  0.00    -0.014 A 
ATOM     74  C   UNL A   1      49.107  30.936  27.188  1.00  0.00     0.010 A 
ATOM     75  C   UNL A   1      46.740  31.177  26.851  1.00  0.00     0.010 A 
ATOM     76  C   UNL A   1      49.239  32.330  27.168  1.00  0.00     0.020 A 
ATOM     77  C   UNL A   1      46.865  32.561  26.781  1.00  0.00     0.020 A 
ATOM     78  C   UNL A   1      48.112  33.132  26.978  1.00  0.00     0.054 A 
BRANCH  78  79
ATOM     79  S   UNL A   1      48.270  34.928  27.072  1.00  0.00     0.124 S 
ATOM     80  O   UNL A   1      47.587  35.352  25.854  1.00  0.00    -0.237 OA
ATOM     81  O   UNL A   1      47.587  35.231  28.326  1.00  0.00    -0.237 OA
ATOM     82  O   UNL A   1      49.716  35.145  27.088  1.00  0.00    -0.744 OA
ENDBRANCH  78  79
ENDBRANCH  59  73
BRANCH  60  83
ATOM     83  C   UNL A   1      39.615  28.205  29.033  1.00  0.00    -0.014 A 
ATOM     84  C   UNL A   1      38.627  28.209  30.036  1.00  0.00     0.010 A 
ATOM     85  C   UNL A   1      39.373  28.981  27.879  1.00  0.00     0.010 A 
ATOM     86  C   UNL A   1      37.460  28.987  29.901  1.00  0.00     0.020 A 
ATOM     87  C   UNL A   1      38.215  29.753  27.736  1.00  0.00     0.020 A 
ATOM     88  C   UNL A   1      37.269  29.766  28.757  1.00  0.00     0.054 A 
BRANCH  88  89
ATOM     89  S   UNL A   1      35.833  30.880  28.653  1.00  0.00     0.124 S 
ATOM     90  O   UNL A   1      36.328  31.945  27.784  1.00  0.00    -0.237 OA
ATOM     91  O   UNL A   1      34.804  30.020  28.075  1.00  0.00    -0.237 OA
ATOM     92  O   UNL A   1      35.598  31.272  30.041  1.00  0.00    -0.744 OA
ENDBRANCH  88  89
ENDBRANCH  60  83
BRANCH  72  93
ATOM     93  C   UNL A   1      45.003  26.465  31.964  1.00  0.00    -0.014 A 
ATOM     94  C   UNL A   1      44.742  25.152  31.523  1.00  0.00     0.010 A 
ATOM     95  C   UNL A   1      45.306  26.668  33.321  1.00  0.00     0.010 A 
ATOM     96  C   UNL A   1      44.779  24.074  32.422  1.00  0.00     0.020 A 
ATOM     97  C   UNL A   1      45.360  25.598  34.217  1.00  0.00     0.020 A 
ATOM     98  C   UNL A   1      45.092  24.306  33.766  1.00  0.00     0.054 A 
BRANCH  98  99
ATOM     99  S   UNL A   1      45.214  22.906  34.917  1.00  0.00     0.124 S 
ATOM    100  O   UNL A   1      44.196  21.990  34.411  1.00  0.00    -0.237 OA
ATOM    101  O   UNL A   1      46.597  22.465  34.750  1.00  0.00    -0.237 OA
ATOM    102  O   UNL A   1      44.918  23.500  36.221  1.00  0.00    -0.744 OA
ENDBRANCH  98  99
ENDBRANCH  72  93
ENDBRANCH  46  47
ENDBRANCH  39  41
ENDBRANCH  38  39
ENDBRANCH  37  38
ENDBRANCH  36  37
ENDBRANCH  35  36
ENDBRANCH  34  35
ENDBRANCH   1  34
TORSDOF 25
ENDMDL
MODEL 3
REMARK VINA RESULT:     -10.9      3.030      4.976
REMARK SMILES O=C1C[C@H](c2cn[nH]c2C(=O)OCCOCCOCCOCCOC(=O)c2ccc(-c3c4nc(c(-c5ccc(S(=O)(=O)[O-])cc5)c5ccc([nH]5)c(-c5ccc(S(=O)(=O)[O-])cc5)c5nc(c(-c6ccc(S(=O)(=O)[O-])cc6)c6ccc3[nH]6)C=C5)C=C4)cc2)c2c(-c3cccs3)n[nH]c2N1
REMARK SMILES IDX 19 1 18 2 17 3 16 4 15 5 14 6 13 7 12 8 10 9 11 10 9 11 5 12
REMARK SMILES IDX 6 13 7 14 8 15 4 17 1 18 2 19 3 20 97 21 96 22 87 24 95 25
REMARK SMILES IDX 88 26 94 27 89 29 90 30 93 31 91 32 92 33 20 34 21 35 22 36
REMARK SMILES IDX 23 37 24 38 25 39 26 40 27 41 28 42 86 43 29 44 85 45 30 46
REMARK SMILES IDX 31 47 32 48 79 49 33 50 84 51 78 52 80 53 34 54 83 55 77 56
REMARK SMILES IDX 76 57 35 59 65 60 46 61 64 62 47 63 50 64 63 65 81 66 48 67
REMARK SMILES IDX 49 68 62 70 82 71 51 72 36 73 37 74 45 75 38 76 44 77 39 78
REMARK SMILES IDX 40 79 41 80 42 81 43 82 66 83 67 84 75 85 68 86 74 87 69 88
REMARK SMILES IDX 70 89 71 90 72 91 73 92 52 93 53 94 61 95 54 96 60 97 55 98
REMARK SMILES IDX 56 99 57 100 58 101 59 102
REMARK H PARENT 8 16 97 23 95 28 80 58 50 69
REMARK Flexibility Score: inf
ROOT
ATOM      1  C   UNL A   1      39.685  22.515  26.695  1.00  0.00     0.188 C 
ENDROOT
BRANCH   1   2
ATOM      2  O   UNL A   1      38.720  21.723  26.043  1.00  0.00    -0.377 OA
BRANCH   2   3
ATOM      3  C   UNL A   1      37.743  22.438  25.315  1.00  0.00     0.188 C 
BRANCH   3   4
ATOM      4  C   UNL A   1      36.873  21.665  24.296  1.00  0.00     0.188 C 
BRANCH   4   5
ATOM      5  O   UNL A   1      35.559  21.287  24.650  1.00  0.00    -0.376 OA
BRANCH   5   6
ATOM      6  C   UNL A   1      35.009  21.390  25.948  1.00  0.00     0.202 C 
BRANCH   6   7
ATOM      7  C   UNL A   1      33.565  21.038  26.314  1.00  0.00     0.261 C 
BRANCH   7   8
ATOM      8  O   UNL A   1      32.574  22.002  25.962  1.00  0.00    -0.459 OA
BRANCH   8   9
ATOM      9  C   UNL A   1      32.271  22.917  26.911  1.00  0.00     0.356 C 
ATOM     10  O   UNL A   1      32.627  22.836  28.088  1.00  0.00    -0.244 OA
BRANCH   9  11
ATOM     11  C   UNL A   1      31.683  24.109  26.356  1.00  0.00     0.147 A 
ATOM     12  C   UNL A   1      32.021  25.130  25.456  1.00  0.00     0.013 A 
ATOM     13  C   UNL A   1      30.836  25.932  25.431  1.00  0.00     0.140 A 
ATOM     14  N   UNL A   1      29.886  25.511  26.255  1.00  0.00    -0.183 NA
ATOM     15  N   UNL A   1      30.413  24.411  26.788  1.00  0.00    -0.271 N 
ATOM     16  H   UNL A   1      29.930  23.856  27.442  1.00  0.00     0.190 HD
BRANCH  12  17
ATOM     17  C   UNL A   1      33.203  25.435  24.536  1.00  0.00     0.069 C 
ATOM     18  O   UNL A   1      33.342  23.117  21.589  1.00  0.00    -0.275 OA
ATOM     19  C   UNL A   1      33.303  24.169  22.227  1.00  0.00     0.226 C 
ATOM     20  C   UNL A   1      33.661  24.202  23.711  1.00  0.00     0.114 C 
ATOM     21  N   UNL A   1      33.060  25.353  21.578  1.00  0.00    -0.311 N 
ATOM     22  C   UNL A   1      32.992  26.511  22.294  1.00  0.00     0.132 A 
ATOM     23  H   UNL A   1      32.935  25.365  20.602  1.00  0.00     0.171 HD
ATOM     24  C   UNL A   1      33.078  26.622  23.656  1.00  0.00     0.031 A 
ATOM     25  N   UNL A   1      32.772  27.762  21.806  1.00  0.00    -0.262 N 
ATOM     26  C   UNL A   1      32.944  28.011  23.909  1.00  0.00     0.108 A 
ATOM     27  N   UNL A   1      32.673  28.691  22.782  1.00  0.00    -0.173 NA
ATOM     28  H   UNL A   1      32.695  27.967  20.847  1.00  0.00     0.192 HD
BRANCH  26  29
ATOM     29  C   UNL A   1      32.895  28.634  25.269  1.00  0.00     0.055 A 
ATOM     30  C   UNL A   1      31.845  29.409  25.716  1.00  0.00     0.022 A 
ATOM     31  S   UNL A   1      34.056  28.370  26.492  1.00  0.00    -0.142 S 
ATOM     32  C   UNL A   1      31.925  29.648  27.120  1.00  0.00     0.012 A 
ATOM     33  C   UNL A   1      33.107  29.185  27.654  1.00  0.00     0.065 A 
ENDBRANCH  26  29
ENDBRANCH  12  17
ENDBRANCH   9  11
ENDBRANCH   8   9
ENDBRANCH   7   8
ENDBRANCH   6   7
ENDBRANCH   5   6
ENDBRANCH   4   5
ENDBRANCH   3   4
ENDBRANCH   2   3
ENDBRANCH   1   2
BRANCH   1  34
ATOM     34  C   UNL A   1      40.658  21.711  27.576  1.00  0.00     0.188 C 
BRANCH  34  35
ATOM     35  O   UNL A   1      40.772  20.292  27.527  1.00  0.00    -0.376 OA
BRANCH  35  36
ATOM     36  C   UNL A   1      41.949  19.575  27.177  1.00  0.00     0.202 C 
BRANCH  36  37
ATOM     37  C   UNL A   1      42.541  19.559  25.768  1.00  0.00     0.261 C 
BRANCH  37  38
ATOM     38  O   UNL A   1      43.101  20.787  25.376  1.00  0.00    -0.460 OA
BRANCH  38  39
ATOM     39  C   UNL A   1      44.417  20.707  25.126  1.00  0.00     0.338 C 
ATOM     40  O   UNL A   1      45.150  19.751  25.321  1.00  0.00    -0.246 OA
BRANCH  39  41
ATOM     41  C   UNL A   1      44.871  22.017  24.628  1.00  0.00     0.060 A 
ATOM     42  C   UNL A   1      46.069  22.413  25.213  1.00  0.00     0.016 A 
ATOM     43  C   UNL A   1      43.876  22.925  24.236  1.00  0.00     0.016 A 
ATOM     44  C   UNL A   1      46.037  23.604  25.878  1.00  0.00     0.010 A 
ATOM     45  C   UNL A   1      43.842  24.115  24.903  1.00  0.00     0.010 A 
ATOM     46  C   UNL A   1      44.857  24.356  25.821  1.00  0.00    -0.014 A 
BRANCH  46  47
ATOM     47  C   UNL A   1      44.729  25.439  26.758  1.00  0.00     0.031 A 
ATOM     48  C   UNL A   1      45.831  26.400  26.611  1.00  0.00     0.074 A 
ATOM     49  C   UNL A   1      43.684  25.544  27.596  1.00  0.00     0.049 A 
ATOM     50  N   UNL A   1      46.854  26.546  27.382  1.00  0.00    -0.248 NA
ATOM     51  C   UNL A   1      45.936  27.090  25.315  1.00  0.00     0.031 C 
ATOM     52  C   UNL A   1      42.417  24.808  27.596  1.00  0.00     0.029 A 
ATOM     53  N   UNL A   1      43.503  26.453  28.581  1.00  0.00    -0.354 N 
ATOM     54  C   UNL A   1      47.627  27.518  26.767  1.00  0.00     0.074 A 
ATOM     55  C   UNL A   1      47.152  27.621  25.412  1.00  0.00     0.031 C 
ATOM     56  C   UNL A   1      41.516  25.488  28.348  1.00  0.00     0.029 A 
ATOM     57  C   UNL A   1      42.186  26.613  28.981  1.00  0.00     0.049 A 
ATOM     58  H   UNL A   1      44.246  26.960  28.981  1.00  0.00     0.167 HD
ATOM     59  C   UNL A   1      48.403  28.371  27.487  1.00  0.00     0.031 A 
ATOM     60  C   UNL A   1      41.700  27.670  29.684  1.00  0.00     0.031 A 
ATOM     61  C   UNL A   1      48.578  27.915  28.841  1.00  0.00     0.049 A 
ATOM     62  C   UNL A   1      42.871  28.356  30.300  1.00  0.00     0.074 A 
ATOM     63  C   UNL A   1      49.160  26.805  29.417  1.00  0.00     0.029 A 
ATOM     64  N   UNL A   1      47.738  28.450  29.793  1.00  0.00    -0.354 N 
ATOM     65  N   UNL A   1      43.624  27.810  31.217  1.00  0.00    -0.248 NA
ATOM     66  C   UNL A   1      43.505  29.431  29.545  1.00  0.00     0.031 C 
ATOM     67  C   UNL A   1      48.308  26.467  30.508  1.00  0.00     0.029 A 
ATOM     68  C   UNL A   1      47.290  27.422  30.582  1.00  0.00     0.049 A 
ATOM     69  H   UNL A   1      47.500  29.401  29.888  1.00  0.00     0.167 HD
ATOM     70  C   UNL A   1      44.925  28.171  30.887  1.00  0.00     0.074 A 
ATOM     71  C   UNL A   1      44.781  29.233  29.892  1.00  0.00     0.031 C 
ATOM     72  C   UNL A   1      45.992  27.387  31.227  1.00  0.00     0.031 A 
BRANCH  59  73
ATOM     73  C   UNL A   1      48.629  29.801  27.077  1.00  0.00    -0.014 A 
ATOM     74  C   UNL A   1      49.949  30.282  27.009  1.00  0.00     0.010 A 
ATOM     75  C   UNL A   1      47.593  30.757  27.012  1.00  0.00     0.010 A 
ATOM     76  C   UNL A   1      50.213  31.656  26.952  1.00  0.00     0.020 A 
ATOM     77  C   UNL A   1      47.842  32.122  26.907  1.00  0.00     0.020 A 
ATOM     78  C   UNL A   1      49.155  32.566  26.916  1.00  0.00     0.054 A 
BRANCH  78  79
ATOM     79  S   UNL A   1      49.500  34.338  26.963  1.00  0.00     0.124 S 
ATOM     80  O   UNL A   1      48.802  34.746  28.178  1.00  0.00    -0.237 OA
ATOM     81  O   UNL A   1      50.959  34.364  27.026  1.00  0.00    -0.237 OA
ATOM     82  O   UNL A   1      48.926  34.832  25.713  1.00  0.00    -0.744 OA
ENDBRANCH  78  79
ENDBRANCH  59  73
BRANCH  60  83
ATOM     83  C   UNL A   1      40.378  28.327  29.499  1.00  0.00    -0.014 A 
ATOM     84  C   UNL A   1      39.657  28.854  30.587  1.00  0.00     0.010 A 
ATOM     85  C   UNL A   1      39.939  28.668  28.202  1.00  0.00     0.010 A 
ATOM     86  C   UNL A   1      38.562  29.717  30.382  1.00  0.00     0.020 A 
ATOM     87  C   UNL A   1      38.849  29.521  27.990  1.00  0.00     0.020 A 
ATOM     88  C   UNL A   1      38.174  30.056  29.083  1.00  0.00     0.054 A 
BRANCH  88  89
ATOM     89  S   UNL A   1      36.855  31.283  28.825  1.00  0.00     0.124 S 
ATOM     90  O   UNL A   1      36.293  30.871  27.542  1.00  0.00    -0.237 OA
ATOM     91  O   UNL A   1      35.995  31.074  29.987  1.00  0.00    -0.237 OA
ATOM     92  O   UNL A   1      37.568  32.559  28.809  1.00  0.00    -0.744 OA
ENDBRANCH  88  89
ENDBRANCH  60  83
BRANCH  72  93
ATOM     93  C   UNL A   1      45.768  26.239  32.187  1.00  0.00    -0.014 A 
ATOM     94  C   UNL A   1      46.207  26.240  33.527  1.00  0.00     0.010 A 
ATOM     95  C   UNL A   1      44.906  25.212  31.766  1.00  0.00     0.010 A 
ATOM     96  C   UNL A   1      45.794  25.234  34.417  1.00  0.00     0.020 A 
ATOM     97  C   UNL A   1      44.478  24.219  32.650  1.00  0.00     0.020 A 
ATOM     98  C   UNL A   1      44.928  24.231  33.971  1.00  0.00     0.054 A 
BRANCH  98  99
ATOM     99  S   UNL A   1      44.332  22.971  35.136  1.00  0.00     0.124 S 
ATOM    100  O   UNL A   1      42.882  23.102  35.029  1.00  0.00    -0.237 OA
ATOM    101  O   UNL A   1      44.895  21.735  34.598  1.00  0.00    -0.237 OA
ATOM    102  O   UNL A   1      44.897  23.390  36.420  1.00  0.00    -0.744 OA
ENDBRANCH  98  99
ENDBRANCH  72  93
ENDBRANCH  46  47
ENDBRANCH  39  41
ENDBRANCH  38  39
ENDBRANCH  37  38
ENDBRANCH  36  37
ENDBRANCH  35  36
ENDBRANCH  34  35
ENDBRANCH   1  34
TORSDOF 25
ENDMDL
