MODEL 1
REMARK VINA RESULT:     -10.5      0.000      0.000
REMARK SMILES COc1ccc(/C=C2/C(=O)N(c3ccccc3)C(=O)N=C2OCCOCCOCCOCCOC(=O)c2ccc(-c3c4nc(c(-c5ccc(S(=O)(=O)[O-])cc5)c5ccc([nH]5)c(-c5ccc(S(=O)(=O)[O-])cc5)c5nc(c(-c6ccc(S(=O)(=O)[O-])cc6)c6ccc3[nH]6)C=C5)C=C4)cc2)cc1C(=O)[O-]
REMARK SMILES IDX 29 1 28 2 27 3 26 4 25 5 24 6 23 7 22 8 21 9 7 10 8 11 9 12
REMARK SMILES IDX 10 13 11 14 20 15 18 16 19 17 6 18 3 19 4 20 98 21 5 22
REMARK SMILES IDX 97 23 2 24 1 25 99 26 100 27 101 28 12 29 13 30 17 31 14 32
REMARK SMILES IDX 16 33 15 34 30 35 31 36 32 37 33 38 34 39 35 40 36 41 37 42
REMARK SMILES IDX 38 43 96 44 39 45 95 46 40 47 41 48 42 49 89 50 43 51 94 52
REMARK SMILES IDX 88 53 90 54 44 55 93 56 87 57 86 58 45 60 75 61 56 62 74 63
REMARK SMILES IDX 57 64 60 65 73 66 91 67 58 68 59 69 72 71 92 72 61 73 46 74
REMARK SMILES IDX 47 75 55 76 48 77 54 78 49 79 50 80 51 81 52 82 53 83 76 84
REMARK SMILES IDX 77 85 85 86 78 87 84 88 79 89 80 90 81 91 82 92 83 93 62 94
REMARK SMILES IDX 63 95 71 96 64 97 70 98 65 99 66 100 67 101 68 102 69 103
REMARK H PARENT 90 59 60 70
REMARK Flexibility Score: inf
ROOT
ATOM      1  C   UNL A   1      37.987  22.060  25.611  1.00  0.00     0.188 C 
ENDROOT
BRANCH   1   2
ATOM      2  O   UNL A   1      36.716  21.436  25.627  1.00  0.00    -0.377 OA
BRANCH   2   3
ATOM      3  C   UNL A   1      35.878  21.782  24.541  1.00  0.00     0.188 C 
BRANCH   3   4
ATOM      4  C   UNL A   1      36.010  23.167  23.878  1.00  0.00     0.188 C 
BRANCH   4   5
ATOM      5  O   UNL A   1      34.982  24.150  23.850  1.00  0.00    -0.376 OA
BRANCH   5   6
ATOM      6  C   UNL A   1      34.186  24.502  22.734  1.00  0.00     0.201 C 
BRANCH   6   7
ATOM      7  C   UNL A   1      33.348  23.470  21.979  1.00  0.00     0.260 C 
BRANCH   7   8
ATOM      8  O   UNL A   1      32.124  23.121  22.640  1.00  0.00    -0.475 OA
BRANCH   8   9
ATOM      9  C   UNL A   1      32.056  21.923  23.232  1.00  0.00     0.231 C 
ATOM     10  C   UNL A   1      32.100  23.019  25.570  1.00  0.00     0.027 C 
ATOM     11  C   UNL A   1      32.139  21.969  24.703  1.00  0.00     0.103 C 
ATOM     12  C   UNL A   1      32.443  20.606  25.302  1.00  0.00     0.272 C 
ATOM     13  O   UNL A   1      32.507  20.446  26.521  1.00  0.00    -0.268 OA
ATOM     14  N   UNL A   1      32.700  19.601  24.369  1.00  0.00    -0.226 N 
ATOM     15  N   UNL A   1      32.050  20.877  22.496  1.00  0.00    -0.156 NA
ATOM     16  C   UNL A   1      32.306  19.660  23.032  1.00  0.00     0.358 C 
ATOM     17  O   UNL A   1      32.219  18.662  22.319  1.00  0.00    -0.245 OA
BRANCH  10  18
ATOM     18  C   UNL A   1      32.009  24.522  25.514  1.00  0.00    -0.024 A 
ATOM     19  C   UNL A   1      31.518  27.352  25.451  1.00  0.00     0.127 A 
ATOM     20  C   UNL A   1      32.592  26.822  26.153  1.00  0.00     0.048 A 
ATOM     21  C   UNL A   1      30.752  26.491  24.667  1.00  0.00     0.040 A 
ATOM     22  C   UNL A   1      32.855  25.441  26.139  1.00  0.00     0.012 A 
ATOM     23  C   UNL A   1      30.964  25.090  24.750  1.00  0.00     0.022 A 
BRANCH  19  24
ATOM     24  O   UNL A   1      31.381  28.711  25.516  1.00  0.00    -0.496 OA
ATOM     25  C   UNL A   1      32.442  29.412  24.865  1.00  0.00     0.278 C 
ENDBRANCH  19  24
BRANCH  21  26
ATOM     26  C   UNL A   1      29.768  26.967  23.670  1.00  0.00     0.075 C 
ATOM     27  O   UNL A   1      28.556  26.936  23.800  1.00  0.00    -0.545 OA
ATOM     28  O   UNL A   1      30.349  27.337  22.518  1.00  0.00    -0.545 OA
ENDBRANCH  21  26
ENDBRANCH  10  18
BRANCH  14  29
ATOM     29  C   UNL A   1      33.277  18.368  24.785  1.00  0.00     0.054 A 
ATOM     30  C   UNL A   1      34.622  18.105  24.472  1.00  0.00     0.027 A 
ATOM     31  C   UNL A   1      32.489  17.367  25.352  1.00  0.00     0.027 A 
ATOM     32  C   UNL A   1      35.172  16.850  24.732  1.00  0.00     0.002 A 
ATOM     33  C   UNL A   1      33.036  16.102  25.579  1.00  0.00     0.002 A 
ATOM     34  C   UNL A   1      34.374  15.844  25.272  1.00  0.00     0.000 A 
ENDBRANCH  14  29
ENDBRANCH   8   9
ENDBRANCH   7   8
ENDBRANCH   6   7
ENDBRANCH   5   6
ENDBRANCH   4   5
ENDBRANCH   3   4
ENDBRANCH   2   3
ENDBRANCH   1   2
BRANCH   1  35
ATOM     35  C   UNL A   1      39.119  21.035  25.765  1.00  0.00     0.188 C 
BRANCH  35  36
ATOM     36  O   UNL A   1      39.962  21.314  26.876  1.00  0.00    -0.376 OA
BRANCH  36  37
ATOM     37  C   UNL A   1      41.334  20.949  26.780  1.00  0.00     0.202 C 
BRANCH  37  38
ATOM     38  C   UNL A   1      42.346  21.937  26.171  1.00  0.00     0.261 C 
BRANCH  38  39
ATOM     39  O   UNL A   1      41.850  23.236  25.807  1.00  0.00    -0.460 OA
BRANCH  39  40
ATOM     40  C   UNL A   1      42.729  24.257  25.732  1.00  0.00     0.338 C 
ATOM     41  O   UNL A   1      43.622  24.402  24.919  1.00  0.00    -0.246 OA
BRANCH  40  42
ATOM     42  C   UNL A   1      42.276  25.290  26.687  1.00  0.00     0.060 A 
ATOM     43  C   UNL A   1      42.912  26.540  26.683  1.00  0.00     0.016 A 
ATOM     44  C   UNL A   1      41.207  25.043  27.551  1.00  0.00     0.016 A 
ATOM     45  C   UNL A   1      42.500  27.534  27.568  1.00  0.00     0.010 A 
ATOM     46  C   UNL A   1      40.815  26.029  28.458  1.00  0.00     0.010 A 
ATOM     47  C   UNL A   1      41.484  27.264  28.493  1.00  0.00    -0.014 A 
BRANCH  47  48
ATOM     48  C   UNL A   1      41.291  28.168  29.651  1.00  0.00     0.031 A 
ATOM     49  C   UNL A   1      42.206  27.991  30.833  1.00  0.00     0.074 A 
ATOM     50  C   UNL A   1      40.356  29.134  29.648  1.00  0.00     0.049 A 
ATOM     51  N   UNL A   1      42.211  28.618  31.979  1.00  0.00    -0.248 NA
ATOM     52  C   UNL A   1      43.264  26.973  30.697  1.00  0.00     0.031 C 
ATOM     53  C   UNL A   1      39.463  29.452  28.537  1.00  0.00     0.029 A 
ATOM     54  N   UNL A   1      40.000  30.024  30.631  1.00  0.00    -0.354 N 
ATOM     55  C   UNL A   1      43.278  28.084  32.692  1.00  0.00     0.074 A 
ATOM     56  C   UNL A   1      43.869  27.052  31.872  1.00  0.00     0.031 C 
ATOM     57  C   UNL A   1      38.639  30.448  28.910  1.00  0.00     0.029 A 
ATOM     58  C   UNL A   1      38.933  30.822  30.292  1.00  0.00     0.049 A 
ATOM     59  H   UNL A   1      40.464  30.085  31.497  1.00  0.00     0.167 HD
ATOM     60  C   UNL A   1      43.737  28.432  33.916  1.00  0.00     0.031 A 
ATOM     61  C   UNL A   1      38.260  31.731  31.026  1.00  0.00     0.031 A 
ATOM     62  C   UNL A   1      43.127  29.435  34.745  1.00  0.00     0.049 A 
ATOM     63  C   UNL A   1      38.709  32.009  32.441  1.00  0.00     0.074 A 
ATOM     64  C   UNL A   1      43.498  29.845  36.013  1.00  0.00     0.029 A 
ATOM     65  N   UNL A   1      42.017  30.182  34.387  1.00  0.00    -0.354 N 
ATOM     66  N   UNL A   1      39.722  31.498  33.102  1.00  0.00    -0.248 NA
ATOM     67  C   UNL A   1      37.931  32.996  33.204  1.00  0.00     0.031 C 
ATOM     68  C   UNL A   1      42.579  30.809  36.442  1.00  0.00     0.029 A 
ATOM     69  C   UNL A   1      41.676  31.042  35.416  1.00  0.00     0.049 A 
ATOM     70  H   UNL A   1      41.541  30.112  33.528  1.00  0.00     0.167 HD
ATOM     71  C   UNL A   1      39.730  32.139  34.338  1.00  0.00     0.074 A 
ATOM     72  C   UNL A   1      38.622  33.073  34.332  1.00  0.00     0.031 C 
ATOM     73  C   UNL A   1      40.580  31.976  35.383  1.00  0.00     0.031 A 
BRANCH  60  74
ATOM     74  C   UNL A   1      44.947  27.703  34.433  1.00  0.00    -0.014 A 
ATOM     75  C   UNL A   1      46.242  28.201  34.199  1.00  0.00     0.010 A 
ATOM     76  C   UNL A   1      44.791  26.525  35.185  1.00  0.00     0.010 A 
ATOM     77  C   UNL A   1      47.360  27.517  34.682  1.00  0.00     0.020 A 
ATOM     78  C   UNL A   1      45.905  25.852  35.691  1.00  0.00     0.020 A 
ATOM     79  C   UNL A   1      47.184  26.346  35.425  1.00  0.00     0.054 A 
BRANCH  79  80
ATOM     80  S   UNL A   1      48.653  25.496  36.065  1.00  0.00     0.124 S 
ATOM     81  O   UNL A   1      48.154  24.933  37.317  1.00  0.00    -0.237 OA
ATOM     82  O   UNL A   1      48.948  24.527  35.013  1.00  0.00    -0.237 OA
ATOM     83  O   UNL A   1      49.635  26.568  36.214  1.00  0.00    -0.744 OA
ENDBRANCH  79  80
ENDBRANCH  60  74
BRANCH  61  84
ATOM     84  C   UNL A   1      37.077  32.437  30.459  1.00  0.00    -0.014 A 
ATOM     85  C   UNL A   1      37.241  33.561  29.630  1.00  0.00     0.010 A 
ATOM     86  C   UNL A   1      35.775  32.013  30.783  1.00  0.00     0.010 A 
ATOM     87  C   UNL A   1      36.127  34.271  29.169  1.00  0.00     0.020 A 
ATOM     88  C   UNL A   1      34.658  32.702  30.299  1.00  0.00     0.020 A 
ATOM     89  C   UNL A   1      34.842  33.838  29.510  1.00  0.00     0.054 A 
BRANCH  89  90
ATOM     90  S   UNL A   1      33.413  34.772  28.896  1.00  0.00     0.124 S 
ATOM     91  O   UNL A   1      34.045  35.964  28.339  1.00  0.00    -0.237 OA
ATOM     92  O   UNL A   1      32.830  33.850  27.923  1.00  0.00    -0.237 OA
ATOM     93  O   UNL A   1      32.606  34.994  30.094  1.00  0.00    -0.744 OA
ENDBRANCH  89  90
ENDBRANCH  61  84
BRANCH  73  94
ATOM     94  C   UNL A   1      40.393  32.870  36.580  1.00  0.00    -0.014 A 
ATOM     95  C   UNL A   1      41.312  33.890  36.886  1.00  0.00     0.010 A 
ATOM     96  C   UNL A   1      39.242  32.722  37.376  1.00  0.00     0.010 A 
ATOM     97  C   UNL A   1      41.097  34.724  37.987  1.00  0.00     0.020 A 
ATOM     98  C   UNL A   1      39.010  33.572  38.459  1.00  0.00     0.020 A 
ATOM     99  C   UNL A   1      39.947  34.559  38.767  1.00  0.00     0.054 A 
BRANCH  99 100
ATOM    100  S   UNL A   1      39.670  35.683  40.163  1.00  0.00     0.124 S 
ATOM    101  O   UNL A   1      38.900  36.756  39.542  1.00  0.00    -0.237 OA
ATOM    102  O   UNL A   1      38.934  34.845  41.107  1.00  0.00    -0.237 OA
ATOM    103  O   UNL A   1      41.020  36.049  40.586  1.00  0.00    -0.744 OA
ENDBRANCH  99 100
ENDBRANCH  73  94
ENDBRANCH  47  48
ENDBRANCH  40  42
ENDBRANCH  39  40
ENDBRANCH  38  39
ENDBRANCH  37  38
ENDBRANCH  36  37
ENDBRANCH  35  36
ENDBRANCH   1  35
TORSDOF 26
ENDMDL
MODEL 2
REMARK VINA RESULT:      -9.5      8.130     14.634
REMARK SMILES COc1ccc(/C=C2/C(=O)N(c3ccccc3)C(=O)N=C2OCCOCCOCCOCCOC(=O)c2ccc(-c3c4nc(c(-c5ccc(S(=O)(=O)[O-])cc5)c5ccc([nH]5)c(-c5ccc(S(=O)(=O)[O-])cc5)c5nc(c(-c6ccc(S(=O)(=O)[O-])cc6)c6ccc3[nH]6)C=C5)C=C4)cc2)cc1C(=O)[O-]
REMARK SMILES IDX 29 1 28 2 27 3 26 4 25 5 24 6 23 7 22 8 21 9 7 10 8 11 9 12
REMARK SMILES IDX 10 13 11 14 20 15 18 16 19 17 6 18 3 19 4 20 98 21 5 22
REMARK SMILES IDX 97 23 2 24 1 25 99 26 100 27 101 28 12 29 13 30 17 31 14 32
REMARK SMILES IDX 16 33 15 34 30 35 31 36 32 37 33 38 34 39 35 40 36 41 37 42
REMARK SMILES IDX 38 43 96 44 39 45 95 46 40 47 41 48 42 49 89 50 43 51 94 52
REMARK SMILES IDX 88 53 90 54 44 55 93 56 87 57 86 58 45 60 75 61 56 62 74 63
REMARK SMILES IDX 57 64 60 65 73 66 91 67 58 68 59 69 72 71 92 72 61 73 46 74
REMARK SMILES IDX 47 75 55 76 48 77 54 78 49 79 50 80 51 81 52 82 53 83 76 84
REMARK SMILES IDX 77 85 85 86 78 87 84 88 79 89 80 90 81 91 82 92 83 93 62 94
REMARK SMILES IDX 63 95 71 96 64 97 70 98 65 99 66 100 67 101 68 102 69 103
REMARK H PARENT 90 59 60 70
REMARK Flexibility Score: inf
ROOT
ATOM      1  C   UNL A   1      33.916  37.284  32.914  1.00  0.00     0.188 C 
ENDROOT
BRANCH   1   2
ATOM      2  O   UNL A   1      34.421  36.454  33.943  1.00  0.00    -0.377 OA
BRANCH   2   3
ATOM      3  C   UNL A   1      34.890  35.193  33.504  1.00  0.00     0.188 C 
BRANCH   3   4
ATOM      4  C   UNL A   1      35.442  34.180  34.526  1.00  0.00     0.188 C 
BRANCH   4   5
ATOM      5  O   UNL A   1      36.775  33.681  34.528  1.00  0.00    -0.376 OA
BRANCH   5   6
ATOM      6  C   UNL A   1      37.162  32.320  34.519  1.00  0.00     0.201 C 
BRANCH   6   7
ATOM      7  C   UNL A   1      38.017  31.715  35.633  1.00  0.00     0.260 C 
BRANCH   7   8
ATOM      8  O   UNL A   1      38.456  32.668  36.610  1.00  0.00    -0.475 OA
BRANCH   8   9
ATOM      9  C   UNL A   1      37.929  32.590  37.837  1.00  0.00     0.231 C 
ATOM     10  C   UNL A   1      39.534  34.420  38.700  1.00  0.00     0.027 C 
ATOM     11  C   UNL A   1      38.594  33.443  38.839  1.00  0.00     0.103 C 
ATOM     12  C   UNL A   1      38.231  33.047  40.260  1.00  0.00     0.272 C 
ATOM     13  O   UNL A   1      38.662  33.678  41.225  1.00  0.00    -0.268 OA
ATOM     14  N   UNL A   1      37.445  31.900  40.365  1.00  0.00    -0.226 N 
ATOM     15  N   UNL A   1      37.012  31.725  38.054  1.00  0.00    -0.156 NA
ATOM     16  C   UNL A   1      36.678  31.383  39.321  1.00  0.00     0.358 C 
ATOM     17  O   UNL A   1      35.742  30.607  39.504  1.00  0.00    -0.245 OA
BRANCH  10  18
ATOM     18  C   UNL A   1      40.343  35.055  37.600  1.00  0.00    -0.024 A 
ATOM     19  C   UNL A   1      41.963  35.967  35.409  1.00  0.00     0.127 A 
ATOM     20  C   UNL A   1      40.725  36.537  35.676  1.00  0.00     0.048 A 
ATOM     21  C   UNL A   1      42.464  35.026  36.306  1.00  0.00     0.040 A 
ATOM     22  C   UNL A   1      39.960  36.119  36.779  1.00  0.00     0.012 A 
ATOM     23  C   UNL A   1      41.635  34.539  37.350  1.00  0.00     0.022 A 
BRANCH  19  24
ATOM     24  O   UNL A   1      42.627  36.476  34.327  1.00  0.00    -0.496 OA
ATOM     25  C   UNL A   1      43.096  37.809  34.534  1.00  0.00     0.278 C 
ENDBRANCH  19  24
BRANCH  21  26
ATOM     26  C   UNL A   1      43.868  34.558  36.285  1.00  0.00     0.075 C 
ATOM     27  O   UNL A   1      44.827  35.174  36.718  1.00  0.00    -0.545 OA
ATOM     28  O   UNL A   1      44.010  33.404  35.614  1.00  0.00    -0.545 OA
ENDBRANCH  21  26
ENDBRANCH  10  18
BRANCH  14  29
ATOM     29  C   UNL A   1      37.280  31.258  41.625  1.00  0.00     0.054 A 
ATOM     30  C   UNL A   1      36.317  31.753  42.522  1.00  0.00     0.027 A 
ATOM     31  C   UNL A   1      38.159  30.257  42.036  1.00  0.00     0.027 A 
ATOM     32  C   UNL A   1      36.234  31.243  43.817  1.00  0.00     0.002 A 
ATOM     33  C   UNL A   1      38.094  29.773  43.345  1.00  0.00     0.002 A 
ATOM     34  C   UNL A   1      37.133  30.263  44.233  1.00  0.00     0.000 A 
ENDBRANCH  14  29
ENDBRANCH   8   9
ENDBRANCH   7   8
ENDBRANCH   6   7
ENDBRANCH   5   6
ENDBRANCH   4   5
ENDBRANCH   3   4
ENDBRANCH   2   3
ENDBRANCH   1   2
BRANCH   1  35
ATOM     35  C   UNL A   1      32.589  36.748  32.358  1.00  0.00     0.188 C 
BRANCH  35  36
ATOM     36  O   UNL A   1      32.520  36.827  30.940  1.00  0.00    -0.376 OA
BRANCH  36  37
ATOM     37  C   UNL A   1      32.818  35.653  30.192  1.00  0.00     0.202 C 
BRANCH  37  38
ATOM     38  C   UNL A   1      33.264  35.777  28.723  1.00  0.00     0.261 C 
BRANCH  38  39
ATOM     39  O   UNL A   1      34.506  35.149  28.364  1.00  0.00    -0.460 OA
BRANCH  39  40
ATOM     40  C   UNL A   1      34.590  33.805  28.448  1.00  0.00     0.338 C 
ATOM     41  O   UNL A   1      33.830  32.987  27.964  1.00  0.00    -0.246 OA
BRANCH  40  42
ATOM     42  C   UNL A   1      35.900  33.489  29.055  1.00  0.00     0.060 A 
ATOM     43  C   UNL A   1      36.223  34.053  30.298  1.00  0.00     0.016 A 
ATOM     44  C   UNL A   1      36.784  32.611  28.424  1.00  0.00     0.016 A 
ATOM     45  C   UNL A   1      37.450  33.765  30.895  1.00  0.00     0.010 A 
ATOM     46  C   UNL A   1      38.024  32.347  29.009  1.00  0.00     0.010 A 
ATOM     47  C   UNL A   1      38.374  32.952  30.229  1.00  0.00    -0.014 A 
BRANCH  47  48
ATOM     48  C   UNL A   1      39.787  32.933  30.675  1.00  0.00     0.031 A 
ATOM     49  C   UNL A   1      40.699  34.006  30.143  1.00  0.00     0.074 A 
ATOM     50  C   UNL A   1      40.243  32.016  31.546  1.00  0.00     0.049 A 
ATOM     51  N   UNL A   1      41.979  34.179  30.342  1.00  0.00    -0.248 NA
ATOM     52  C   UNL A   1      40.079  35.023  29.276  1.00  0.00     0.031 C 
ATOM     53  C   UNL A   1      39.441  30.977  32.187  1.00  0.00     0.029 A 
ATOM     54  N   UNL A   1      41.511  31.811  32.033  1.00  0.00    -0.354 N 
ATOM     55  C   UNL A   1      42.312  35.331  29.639  1.00  0.00     0.074 A 
ATOM     56  C   UNL A   1      41.115  35.791  28.973  1.00  0.00     0.031 C 
ATOM     57  C   UNL A   1      40.242  30.224  32.963  1.00  0.00     0.029 A 
ATOM     58  C   UNL A   1      41.615  30.715  32.855  1.00  0.00     0.049 A 
ATOM     59  H   UNL A   1      42.272  32.395  31.814  1.00  0.00     0.167 HD
ATOM     60  C   UNL A   1      43.507  35.963  29.567  1.00  0.00     0.031 A 
ATOM     61  C   UNL A   1      42.701  30.162  33.431  1.00  0.00     0.031 A 
ATOM     62  C   UNL A   1      44.704  35.486  30.203  1.00  0.00     0.049 A 
ATOM     63  C   UNL A   1      44.050  30.809  33.228  1.00  0.00     0.074 A 
ATOM     64  C   UNL A   1      45.973  36.037  30.171  1.00  0.00     0.029 A 
ATOM     65  N   UNL A   1      44.780  34.344  30.982  1.00  0.00    -0.354 N 
ATOM     66  N   UNL A   1      44.350  31.901  32.564  1.00  0.00    -0.248 NA
ATOM     67  C   UNL A   1      45.203  30.157  33.864  1.00  0.00     0.031 C 
ATOM     68  C   UNL A   1      46.827  35.198  30.894  1.00  0.00     0.029 A 
ATOM     69  C   UNL A   1      46.077  34.160  31.425  1.00  0.00     0.049 A 
ATOM     70  H   UNL A   1      44.022  33.749  31.190  1.00  0.00     0.167 HD
ATOM     71  C   UNL A   1      45.717  32.091  32.745  1.00  0.00     0.074 A 
ATOM     72  C   UNL A   1      46.184  31.002  33.580  1.00  0.00     0.031 C 
ATOM     73  C   UNL A   1      46.517  33.079  32.270  1.00  0.00     0.031 A 
BRANCH  60  74
ATOM     74  C   UNL A   1      43.572  37.228  28.756  1.00  0.00    -0.014 A 
ATOM     75  C   UNL A   1      43.220  38.466  29.322  1.00  0.00     0.010 A 
ATOM     76  C   UNL A   1      44.016  37.185  27.422  1.00  0.00     0.010 A 
ATOM     77  C   UNL A   1      43.282  39.635  28.560  1.00  0.00     0.020 A 
ATOM     78  C   UNL A   1      44.104  38.355  26.665  1.00  0.00     0.020 A 
ATOM     79  C   UNL A   1      43.724  39.571  27.235  1.00  0.00     0.054 A 
BRANCH  79  80
ATOM     80  S   UNL A   1      43.824  41.110  26.280  1.00  0.00     0.124 S 
ATOM     81  O   UNL A   1      44.408  42.030  27.253  1.00  0.00    -0.237 OA
ATOM     82  O   UNL A   1      44.690  40.740  25.165  1.00  0.00    -0.237 OA
ATOM     83  O   UNL A   1      42.434  41.386  25.922  1.00  0.00    -0.744 OA
ENDBRANCH  79  80
ENDBRANCH  60  74
BRANCH  61  84
ATOM     84  C   UNL A   1      42.577  28.917  34.240  1.00  0.00    -0.014 A 
ATOM     85  C   UNL A   1      42.863  27.661  33.676  1.00  0.00     0.010 A 
ATOM     86  C   UNL A   1      42.128  28.978  35.572  1.00  0.00     0.010 A 
ATOM     87  C   UNL A   1      42.664  26.489  34.413  1.00  0.00     0.020 A 
ATOM     88  C   UNL A   1      41.957  27.811  36.324  1.00  0.00     0.020 A 
ATOM     89  C   UNL A   1      42.208  26.572  35.732  1.00  0.00     0.054 A 
BRANCH  89  90
ATOM     90  S   UNL A   1      41.963  25.039  36.671  1.00  0.00     0.124 S 
ATOM     91  O   UNL A   1      40.951  25.437  37.645  1.00  0.00    -0.237 OA
ATOM     92  O   UNL A   1      41.516  24.106  35.637  1.00  0.00    -0.237 OA
ATOM     93  O   UNL A   1      43.286  24.758  37.223  1.00  0.00    -0.744 OA
ENDBRANCH  89  90
ENDBRANCH  61  84
BRANCH  73  94
ATOM     94  C   UNL A   1      47.961  33.073  32.694  1.00  0.00    -0.014 A 
ATOM     95  C   UNL A   1      48.950  32.437  31.923  1.00  0.00     0.010 A 
ATOM     96  C   UNL A   1      48.340  33.772  33.855  1.00  0.00     0.010 A 
ATOM     97  C   UNL A   1      50.289  32.473  32.326  1.00  0.00     0.020 A 
ATOM     98  C   UNL A   1      49.680  33.835  34.245  1.00  0.00     0.020 A 
ATOM     99  C   UNL A   1      50.644  33.172  33.484  1.00  0.00     0.054 A 
BRANCH  99 100
ATOM    100  S   UNL A   1      52.393  33.241  33.961  1.00  0.00     0.124 S 
ATOM    101  O   UNL A   1      52.939  32.069  33.283  1.00  0.00    -0.237 OA
ATOM    102  O   UNL A   1      52.820  34.532  33.427  1.00  0.00    -0.237 OA
ATOM    103  O   UNL A   1      52.359  33.157  35.419  1.00  0.00    -0.744 OA
ENDBRANCH  99 100
ENDBRANCH  73  94
ENDBRANCH  47  48
ENDBRANCH  40  42
ENDBRANCH  39  40
ENDBRANCH  38  39
ENDBRANCH  37  38
ENDBRANCH  36  37
ENDBRANCH  35  36
ENDBRANCH   1  35
TORSDOF 26
ENDMDL
MODEL 3
REMARK VINA RESULT:      -9.5      5.200      7.010
REMARK SMILES COc1ccc(/C=C2/C(=O)N(c3ccccc3)C(=O)N=C2OCCOCCOCCOCCOC(=O)c2ccc(-c3c4nc(c(-c5ccc(S(=O)(=O)[O-])cc5)c5ccc([nH]5)c(-c5ccc(S(=O)(=O)[O-])cc5)c5nc(c(-c6ccc(S(=O)(=O)[O-])cc6)c6ccc3[nH]6)C=C5)C=C4)cc2)cc1C(=O)[O-]
REMARK SMILES IDX 29 1 28 2 27 3 26 4 25 5 24 6 23 7 22 8 21 9 7 10 8 11 9 12
REMARK SMILES IDX 10 13 11 14 20 15 18 16 19 17 6 18 3 19 4 20 98 21 5 22
REMARK SMILES IDX 97 23 2 24 1 25 99 26 100 27 101 28 12 29 13 30 17 31 14 32
REMARK SMILES IDX 16 33 15 34 30 35 31 36 32 37 33 38 34 39 35 40 36 41 37 42
REMARK SMILES IDX 38 43 96 44 39 45 95 46 40 47 41 48 42 49 89 50 43 51 94 52
REMARK SMILES IDX 88 53 90 54 44 55 93 56 87 57 86 58 45 60 75 61 56 62 74 63
REMARK SMILES IDX 57 64 60 65 73 66 91 67 58 68 59 69 72 71 92 72 61 73 46 74
REMARK SMILES IDX 47 75 55 76 48 77 54 78 49 79 50 80 51 81 52 82 53 83 76 84
REMARK SMILES IDX 77 85 85 86 78 87 84 88 79 89 80 90 81 91 82 92 83 93 62 94
REMARK SMILES IDX 63 95 71 96 64 97 70 98 65 99 66 100 67 101 68 102 69 103
REMARK H PARENT 90 59 60 70
REMARK Flexibility Score: inf
ROOT
ATOM      1  C   UNL A   1      36.426  23.430  23.759  1.00  0.00     0.188 C 
ENDROOT
BRANCH   1   2
ATOM      2  O   UNL A   1      35.255  24.028  24.283  1.00  0.00    -0.377 OA
BRANCH   2   3
ATOM      3  C   UNL A   1      34.558  24.856  23.371  1.00  0.00     0.188 C 
BRANCH   3   4
ATOM      4  C   UNL A   1      34.384  26.357  23.674  1.00  0.00     0.188 C 
BRANCH   4   5
ATOM      5  O   UNL A   1      33.777  26.878  24.851  1.00  0.00    -0.376 OA
BRANCH   5   6
ATOM      6  C   UNL A   1      33.483  26.159  26.034  1.00  0.00     0.201 C 
BRANCH   6   7
ATOM      7  C   UNL A   1      32.076  26.126  26.632  1.00  0.00     0.260 C 
BRANCH   7   8
ATOM      8  O   UNL A   1      31.490  24.818  26.661  1.00  0.00    -0.475 OA
BRANCH   8   9
ATOM      9  C   UNL A   1      32.207  23.803  26.166  1.00  0.00     0.231 C 
ATOM     10  C   UNL A   1      31.174  24.146  23.824  1.00  0.00     0.027 C 
ATOM     11  C   UNL A   1      31.916  23.484  24.757  1.00  0.00     0.103 C 
ATOM     12  C   UNL A   1      32.449  22.119  24.357  1.00  0.00     0.272 C 
ATOM     13  O   UNL A   1      32.333  21.704  23.204  1.00  0.00    -0.268 OA
ATOM     14  N   UNL A   1      33.003  21.378  25.400  1.00  0.00    -0.226 N 
ATOM     15  N   UNL A   1      32.963  23.144  26.961  1.00  0.00    -0.156 NA
ATOM     16  C   UNL A   1      33.451  21.935  26.599  1.00  0.00     0.358 C 
ATOM     17  O   UNL A   1      34.236  21.357  27.348  1.00  0.00    -0.245 OA
BRANCH  10  18
ATOM     18  C   UNL A   1      30.317  25.381  23.738  1.00  0.00    -0.024 A 
ATOM     19  C   UNL A   1      28.796  27.774  23.274  1.00  0.00     0.127 A 
ATOM     20  C   UNL A   1      28.228  26.668  23.891  1.00  0.00     0.048 A 
ATOM     21  C   UNL A   1      30.162  27.748  22.998  1.00  0.00     0.040 A 
ATOM     22  C   UNL A   1      28.991  25.518  24.159  1.00  0.00     0.012 A 
ATOM     23  C   UNL A   1      30.892  26.543  23.176  1.00  0.00     0.022 A 
BRANCH  19  24
ATOM     24  O   UNL A   1      27.963  28.843  23.093  1.00  0.00    -0.496 OA
ATOM     25  C   UNL A   1      26.589  28.527  23.320  1.00  0.00     0.278 C 
ENDBRANCH  19  24
BRANCH  21  26
ATOM     26  C   UNL A   1      30.930  28.950  22.604  1.00  0.00     0.075 C 
ATOM     27  O   UNL A   1      31.941  29.356  23.152  1.00  0.00    -0.545 OA
ATOM     28  O   UNL A   1      30.323  29.646  21.630  1.00  0.00    -0.545 OA
ENDBRANCH  21  26
ENDBRANCH  10  18
BRANCH  14  29
ATOM     29  C   UNL A   1      33.269  19.990  25.231  1.00  0.00     0.054 A 
ATOM     30  C   UNL A   1      34.528  19.589  24.752  1.00  0.00     0.027 A 
ATOM     31  C   UNL A   1      32.253  19.046  25.383  1.00  0.00     0.027 A 
ATOM     32  C   UNL A   1      34.767  18.253  24.433  1.00  0.00     0.002 A 
ATOM     33  C   UNL A   1      32.488  17.715  25.031  1.00  0.00     0.002 A 
ATOM     34  C   UNL A   1      33.742  17.318  24.560  1.00  0.00     0.000 A 
ENDBRANCH  14  29
ENDBRANCH   8   9
ENDBRANCH   7   8
ENDBRANCH   6   7
ENDBRANCH   5   6
ENDBRANCH   4   5
ENDBRANCH   3   4
ENDBRANCH   2   3
ENDBRANCH   1   2
BRANCH   1  35
ATOM     35  C   UNL A   1      37.327  22.883  24.875  1.00  0.00     0.188 C 
BRANCH  35  36
ATOM     36  O   UNL A   1      37.642  21.508  24.697  1.00  0.00    -0.376 OA
BRANCH  36  37
ATOM     37  C   UNL A   1      38.277  20.825  25.773  1.00  0.00     0.202 C 
BRANCH  37  38
ATOM     38  C   UNL A   1      39.433  19.850  25.481  1.00  0.00     0.261 C 
BRANCH  38  39
ATOM     39  O   UNL A   1      40.407  19.665  26.521  1.00  0.00    -0.460 OA
BRANCH  39  40
ATOM     40  C   UNL A   1      41.700  19.515  26.165  1.00  0.00     0.338 C 
ATOM     41  O   UNL A   1      42.204  18.561  25.602  1.00  0.00    -0.246 OA
BRANCH  40  42
ATOM     42  C   UNL A   1      42.366  20.816  26.387  1.00  0.00     0.060 A 
ATOM     43  C   UNL A   1      42.448  21.320  27.693  1.00  0.00     0.016 A 
ATOM     44  C   UNL A   1      42.940  21.513  25.321  1.00  0.00     0.016 A 
ATOM     45  C   UNL A   1      43.077  22.541  27.930  1.00  0.00     0.010 A 
ATOM     46  C   UNL A   1      43.543  22.750  25.556  1.00  0.00     0.010 A 
ATOM     47  C   UNL A   1      43.581  23.283  26.856  1.00  0.00    -0.014 A 
BRANCH  47  48
ATOM     48  C   UNL A   1      43.918  24.713  27.050  1.00  0.00     0.031 A 
ATOM     49  C   UNL A   1      45.365  25.111  26.923  1.00  0.00     0.074 A 
ATOM     50  C   UNL A   1      42.974  25.636  27.303  1.00  0.00     0.049 A 
ATOM     51  N   UNL A   1      45.920  26.281  27.093  1.00  0.00    -0.248 NA
ATOM     52  C   UNL A   1      46.307  24.044  26.543  1.00  0.00     0.031 C 
ATOM     53  C   UNL A   1      41.536  25.387  27.375  1.00  0.00     0.029 A 
ATOM     54  N   UNL A   1      43.096  26.980  27.557  1.00  0.00    -0.354 N 
ATOM     55  C   UNL A   1      47.272  26.094  26.826  1.00  0.00     0.074 A 
ATOM     56  C   UNL A   1      47.462  24.693  26.528  1.00  0.00     0.031 C 
ATOM     57  C   UNL A   1      40.909  26.536  27.684  1.00  0.00     0.029 A 
ATOM     58  C   UNL A   1      41.903  27.595  27.852  1.00  0.00     0.049 A 
ATOM     59  H   UNL A   1      43.955  27.458  27.530  1.00  0.00     0.167 HD
ATOM     60  C   UNL A   1      48.267  27.011  26.814  1.00  0.00     0.031 A 
ATOM     61  C   UNL A   1      41.651  28.862  28.237  1.00  0.00     0.031 A 
ATOM     62  C   UNL A   1      48.083  28.397  27.144  1.00  0.00     0.049 A 
ATOM     63  C   UNL A   1      42.798  29.838  28.346  1.00  0.00     0.074 A 
ATOM     64  C   UNL A   1      49.031  29.404  27.189  1.00  0.00     0.029 A 
ATOM     65  N   UNL A   1      46.870  28.969  27.490  1.00  0.00    -0.354 N 
ATOM     66  N   UNL A   1      44.071  29.649  28.088  1.00  0.00    -0.248 NA
ATOM     67  C   UNL A   1      42.471  31.202  28.787  1.00  0.00     0.031 C 
ATOM     68  C   UNL A   1      48.396  30.577  27.610  1.00  0.00     0.029 A 
ATOM     69  C   UNL A   1      47.043  30.313  27.766  1.00  0.00     0.049 A 
ATOM     70  H   UNL A   1      46.010  28.490  27.533  1.00  0.00     0.167 HD
ATOM     71  C   UNL A   1      44.686  30.881  28.287  1.00  0.00     0.074 A 
ATOM     72  C   UNL A   1      43.646  31.808  28.687  1.00  0.00     0.031 C 
ATOM     73  C   UNL A   1      45.992  31.222  28.145  1.00  0.00     0.031 A 
BRANCH  60  74
ATOM     74  C   UNL A   1      49.645  26.530  26.449  1.00  0.00    -0.014 A 
ATOM     75  C   UNL A   1      50.434  25.829  27.379  1.00  0.00     0.010 A 
ATOM     76  C   UNL A   1      50.147  26.755  25.155  1.00  0.00     0.010 A 
ATOM     77  C   UNL A   1      51.713  25.388  27.031  1.00  0.00     0.020 A 
ATOM     78  C   UNL A   1      51.415  26.293  24.795  1.00  0.00     0.020 A 
ATOM     79  C   UNL A   1      52.195  25.624  25.740  1.00  0.00     0.054 A 
BRANCH  79  80
ATOM     80  S   UNL A   1      53.847  25.012  25.308  1.00  0.00     0.124 S 
ATOM     81  O   UNL A   1      53.901  25.279  23.873  1.00  0.00    -0.237 OA
ATOM     82  O   UNL A   1      54.722  25.838  26.135  1.00  0.00    -0.237 OA
ATOM     83  O   UNL A   1      53.800  23.598  25.676  1.00  0.00    -0.744 OA
ENDBRANCH  79  80
ENDBRANCH  60  74
BRANCH  61  84
ATOM     84  C   UNL A   1      40.263  29.291  28.571  1.00  0.00    -0.014 A 
ATOM     85  C   UNL A   1      39.306  29.479  27.559  1.00  0.00     0.010 A 
ATOM     86  C   UNL A   1      39.905  29.556  29.906  1.00  0.00     0.010 A 
ATOM     87  C   UNL A   1      38.031  29.963  27.869  1.00  0.00     0.020 A 
ATOM     88  C   UNL A   1      38.621  30.011  30.224  1.00  0.00     0.020 A 
ATOM     89  C   UNL A   1      37.698  30.230  29.200  1.00  0.00     0.054 A 
BRANCH  89  90
ATOM     90  S   UNL A   1      36.035  30.851  29.579  1.00  0.00     0.124 S 
ATOM     91  O   UNL A   1      35.949  30.630  31.019  1.00  0.00    -0.237 OA
ATOM     92  O   UNL A   1      36.119  32.248  29.156  1.00  0.00    -0.237 OA
ATOM     93  O   UNL A   1      35.160  30.012  28.763  1.00  0.00    -0.744 OA
ENDBRANCH  89  90
ENDBRANCH  61  84
BRANCH  73  94
ATOM     94  C   UNL A   1      46.364  32.665  28.356  1.00  0.00    -0.014 A 
ATOM     95  C   UNL A   1      46.288  33.603  27.312  1.00  0.00     0.010 A 
ATOM     96  C   UNL A   1      46.736  33.098  29.642  1.00  0.00     0.010 A 
ATOM     97  C   UNL A   1      46.612  34.944  27.544  1.00  0.00     0.020 A 
ATOM     98  C   UNL A   1      47.032  34.442  29.885  1.00  0.00     0.020 A 
ATOM     99  C   UNL A   1      46.981  35.354  28.829  1.00  0.00     0.054 A 
BRANCH  99 100
ATOM    100  S   UNL A   1      47.353  37.106  29.114  1.00  0.00     0.124 S 
ATOM    101  O   UNL A   1      48.723  37.049  29.614  1.00  0.00    -0.237 OA
ATOM    102  O   UNL A   1      47.192  37.688  27.784  1.00  0.00    -0.237 OA
ATOM    103  O   UNL A   1      46.350  37.518  30.093  1.00  0.00    -0.744 OA
ENDBRANCH  99 100
ENDBRANCH  73  94
ENDBRANCH  47  48
ENDBRANCH  40  42
ENDBRANCH  39  40
ENDBRANCH  38  39
ENDBRANCH  37  38
ENDBRANCH  36  37
ENDBRANCH  35  36
ENDBRANCH   1  35
TORSDOF 26
ENDMDL
