MODEL 1
REMARK VINA RESULT:      -9.5      0.000      0.000
REMARK SMILES COc1ccc2cc([C@H](C)C(=O)OCCOCCOCCOCCOC(=O)c3ccc(-c4c5nc(c(-c6ccc(S(=O)(=O)[O-])cc6)c6ccc([nH]6)c(-c6ccc(S(=O)(=O)[O-])cc6)c6nc(c(-c7ccc(S(=O)(=O)[O-])cc7)c7ccc4[nH]7)C=C6)C=C5)cc3)ccc2c1
REMARK SMILES IDX 20 1 19 2 18 3 17 4 16 5 15 6 14 7 13 8 11 9 12 10 9 11
REMARK SMILES IDX 10 12 8 13 3 14 4 15 91 16 5 17 90 18 6 19 89 20 7 21 88 22
REMARK SMILES IDX 2 23 1 24 21 25 22 26 23 27 24 28 25 29 26 30 27 31 28 32
REMARK SMILES IDX 29 33 87 34 30 35 86 36 31 37 32 38 33 39 80 40 34 41 85 42
REMARK SMILES IDX 79 43 81 44 35 45 84 46 78 47 77 48 36 50 66 51 47 52 65 53
REMARK SMILES IDX 48 54 51 55 64 56 82 57 49 58 50 59 63 61 83 62 52 63 37 64
REMARK SMILES IDX 38 65 46 66 39 67 45 68 40 69 41 70 42 71 43 72 44 73 67 74
REMARK SMILES IDX 68 75 76 76 69 77 75 78 70 79 71 80 72 81 73 82 74 83 53 84
REMARK SMILES IDX 54 85 62 86 55 87 61 88 56 89 57 90 58 91 59 92 60 93
REMARK H PARENT 81 49 51 60
REMARK Flexibility Score: inf
ROOT
ATOM      1  C   UNL A   1      32.689  30.629  27.213  1.00  0.00     0.188 C 
ENDROOT
BRANCH   1   2
ATOM      2  O   UNL A   1      31.605  30.842  26.321  1.00  0.00    -0.377 OA
BRANCH   2   3
ATOM      3  C   UNL A   1      31.577  30.076  25.139  1.00  0.00     0.188 C 
BRANCH   3   4
ATOM      4  C   UNL A   1      32.878  29.342  24.782  1.00  0.00     0.188 C 
BRANCH   4   5
ATOM      5  O   UNL A   1      33.002  28.533  23.623  1.00  0.00    -0.376 OA
BRANCH   5   6
ATOM      6  C   UNL A   1      31.940  28.355  22.697  1.00  0.00     0.202 C 
BRANCH   6   7
ATOM      7  C   UNL A   1      31.415  26.962  22.315  1.00  0.00     0.261 C 
BRANCH   7   8
ATOM      8  O   UNL A   1      31.845  25.862  23.135  1.00  0.00    -0.463 OA
BRANCH   8   9
ATOM      9  C   UNL A   1      32.714  25.005  22.551  1.00  0.00     0.313 C 
ATOM     10  O   UNL A   1      33.267  25.209  21.472  1.00  0.00    -0.252 OA
BRANCH   9  11
ATOM     11  C   UNL A   1      32.891  23.680  23.309  1.00  0.00     0.126 C 
ATOM     12  C   UNL A   1      32.691  22.338  22.598  1.00  0.00     0.025 C 
BRANCH  11  13
ATOM     13  C   UNL A   1      34.243  23.755  23.967  1.00  0.00    -0.033 A 
ATOM     14  C   UNL A   1      38.582  22.372  26.066  1.00  0.00     0.119 A 
ATOM     15  C   UNL A   1      38.275  21.379  25.136  1.00  0.00     0.047 A 
ATOM     16  C   UNL A   1      37.742  23.470  26.235  1.00  0.00     0.055 A 
ATOM     17  C   UNL A   1      37.140  21.501  24.342  1.00  0.00     0.012 A 
ATOM     18  C   UNL A   1      36.594  23.603  25.454  1.00  0.00    -0.015 A 
ATOM     19  C   UNL A   1      36.299  22.605  24.496  1.00  0.00    -0.018 A 
ATOM     20  C   UNL A   1      35.719  24.679  25.638  1.00  0.00     0.009 A 
ATOM     21  C   UNL A   1      35.135  22.701  23.747  1.00  0.00     0.013 A 
ATOM     22  C   UNL A   1      34.539  24.745  24.911  1.00  0.00     0.005 A 
BRANCH  14  23
ATOM     23  O   UNL A   1      39.661  22.315  26.905  1.00  0.00    -0.497 OA
ATOM     24  C   UNL A   1      40.387  21.098  26.795  1.00  0.00     0.278 C 
ENDBRANCH  14  23
ENDBRANCH  11  13
ENDBRANCH   9  11
ENDBRANCH   8   9
ENDBRANCH   7   8
ENDBRANCH   6   7
ENDBRANCH   5   6
ENDBRANCH   4   5
ENDBRANCH   3   4
ENDBRANCH   2   3
ENDBRANCH   1   2
BRANCH   1  25
ATOM     25  C   UNL A   1      33.235  31.848  27.980  1.00  0.00     0.188 C 
BRANCH  25  26
ATOM     26  O   UNL A   1      34.464  32.349  27.470  1.00  0.00    -0.376 OA
BRANCH  26  27
ATOM     27  C   UNL A   1      35.649  31.587  27.642  1.00  0.00     0.202 C 
BRANCH  27  28
ATOM     28  C   UNL A   1      36.058  31.158  29.064  1.00  0.00     0.261 C 
BRANCH  28  29
ATOM     29  O   UNL A   1      36.081  29.751  29.348  1.00  0.00    -0.460 OA
BRANCH  29  30
ATOM     30  C   UNL A   1      36.858  29.317  30.364  1.00  0.00     0.338 C 
ATOM     31  O   UNL A   1      36.536  29.181  31.524  1.00  0.00    -0.246 OA
BRANCH  30  32
ATOM     32  C   UNL A   1      38.130  28.829  29.780  1.00  0.00     0.060 A 
ATOM     33  C   UNL A   1      39.062  28.203  30.619  1.00  0.00     0.016 A 
ATOM     34  C   UNL A   1      38.405  28.998  28.421  1.00  0.00     0.016 A 
ATOM     35  C   UNL A   1      40.298  27.801  30.114  1.00  0.00     0.010 A 
ATOM     36  C   UNL A   1      39.653  28.615  27.921  1.00  0.00     0.010 A 
ATOM     37  C   UNL A   1      40.621  28.061  28.778  1.00  0.00    -0.014 A 
BRANCH  37  38
ATOM     38  C   UNL A   1      42.037  27.984  28.341  1.00  0.00     0.031 A 
ATOM     39  C   UNL A   1      42.907  29.197  28.547  1.00  0.00     0.074 A 
ATOM     40  C   UNL A   1      42.553  26.867  27.802  1.00  0.00     0.049 A 
ATOM     41  N   UNL A   1      44.158  29.389  28.220  1.00  0.00    -0.248 NA
ATOM     42  C   UNL A   1      42.272  30.352  29.206  1.00  0.00     0.031 C 
ATOM     43  C   UNL A   1      41.831  25.613  27.597  1.00  0.00     0.029 A 
ATOM     44  N   UNL A   1      43.813  26.614  27.322  1.00  0.00    -0.354 N 
ATOM     45  C   UNL A   1      44.454  30.688  28.617  1.00  0.00     0.074 A 
ATOM     46  C   UNL A   1      43.245  31.248  29.178  1.00  0.00     0.031 C 
ATOM     47  C   UNL A   1      42.659  24.724  27.022  1.00  0.00     0.029 A 
ATOM     48  C   UNL A   1      43.957  25.358  26.786  1.00  0.00     0.049 A 
ATOM     49  H   UNL A   1      44.545  27.271  27.358  1.00  0.00     0.167 HD
ATOM     50  C   UNL A   1      45.629  31.356  28.528  1.00  0.00     0.031 A 
ATOM     51  C   UNL A   1      45.007  24.791  26.157  1.00  0.00     0.031 A 
ATOM     52  C   UNL A   1      46.824  30.802  27.950  1.00  0.00     0.049 A 
ATOM     53  C   UNL A   1      46.285  25.574  26.001  1.00  0.00     0.074 A 
ATOM     54  C   UNL A   1      48.071  31.388  27.825  1.00  0.00     0.029 A 
ATOM     55  N   UNL A   1      46.918  29.537  27.389  1.00  0.00    -0.354 N 
ATOM     56  N   UNL A   1      46.561  26.793  26.403  1.00  0.00    -0.248 NA
ATOM     57  C   UNL A   1      47.398  24.900  25.318  1.00  0.00     0.031 C 
ATOM     58  C   UNL A   1      48.900  30.504  27.125  1.00  0.00     0.029 A 
ATOM     59  C   UNL A   1      48.193  29.336  26.887  1.00  0.00     0.049 A 
ATOM     60  H   UNL A   1      46.187  28.878  27.352  1.00  0.00     0.167 HD
ATOM     61  C   UNL A   1      47.890  27.019  26.051  1.00  0.00     0.074 A 
ATOM     62  C   UNL A   1      48.362  25.806  25.415  1.00  0.00     0.031 C 
ATOM     63  C   UNL A   1      48.651  28.126  26.248  1.00  0.00     0.031 A 
BRANCH  50  64
ATOM     64  C   UNL A   1      45.654  32.781  29.019  1.00  0.00    -0.014 A 
ATOM     65  C   UNL A   1      45.158  33.840  28.236  1.00  0.00     0.010 A 
ATOM     66  C   UNL A   1      46.185  33.064  30.291  1.00  0.00     0.010 A 
ATOM     67  C   UNL A   1      45.247  35.159  28.692  1.00  0.00     0.020 A 
ATOM     68  C   UNL A   1      46.243  34.378  30.766  1.00  0.00     0.020 A 
ATOM     69  C   UNL A   1      45.794  35.419  29.952  1.00  0.00     0.054 A 
BRANCH  69  70
ATOM     70  S   UNL A   1      45.900  37.140  30.516  1.00  0.00     0.124 S 
ATOM     71  O   UNL A   1      46.125  36.972  31.951  1.00  0.00    -0.237 OA
ATOM     72  O   UNL A   1      47.038  37.654  29.759  1.00  0.00    -0.237 OA
ATOM     73  O   UNL A   1      44.604  37.706  30.151  1.00  0.00    -0.744 OA
ENDBRANCH  69  70
ENDBRANCH  50  64
BRANCH  51  74
ATOM     74  C   UNL A   1      44.884  23.408  25.618  1.00  0.00    -0.014 A 
ATOM     75  C   UNL A   1      44.976  23.161  24.237  1.00  0.00     0.010 A 
ATOM     76  C   UNL A   1      44.697  22.323  26.495  1.00  0.00     0.010 A 
ATOM     77  C   UNL A   1      44.884  21.856  23.744  1.00  0.00     0.020 A 
ATOM     78  C   UNL A   1      44.634  21.014  26.008  1.00  0.00     0.020 A 
ATOM     79  C   UNL A   1      44.723  20.789  24.634  1.00  0.00     0.054 A 
BRANCH  79  80
ATOM     80  S   UNL A   1      44.690  19.099  23.975  1.00  0.00     0.124 S 
ATOM     81  O   UNL A   1      44.374  19.327  22.568  1.00  0.00    -0.237 OA
ATOM     82  O   UNL A   1      46.044  18.629  24.252  1.00  0.00    -0.237 OA
ATOM     83  O   UNL A   1      43.639  18.448  24.755  1.00  0.00    -0.744 OA
ENDBRANCH  79  80
ENDBRANCH  51  74
BRANCH  63  84
ATOM     84  C   UNL A   1      50.094  28.069  25.813  1.00  0.00    -0.014 A 
ATOM     85  C   UNL A   1      51.150  28.146  26.738  1.00  0.00     0.010 A 
ATOM     86  C   UNL A   1      50.394  27.875  24.451  1.00  0.00     0.010 A 
ATOM     87  C   UNL A   1      52.477  28.067  26.305  1.00  0.00     0.020 A 
ATOM     88  C   UNL A   1      51.717  27.763  24.018  1.00  0.00     0.020 A 
ATOM     89  C   UNL A   1      52.753  27.876  24.947  1.00  0.00     0.054 A 
BRANCH  89  90
ATOM     90  S   UNL A   1      54.481  27.743  24.415  1.00  0.00     0.124 S 
ATOM     91  O   UNL A   1      54.503  28.599  23.233  1.00  0.00    -0.237 OA
ATOM     92  O   UNL A   1      55.211  28.251  25.574  1.00  0.00    -0.237 OA
ATOM     93  O   UNL A   1      54.656  26.316  24.153  1.00  0.00    -0.744 OA
ENDBRANCH  89  90
ENDBRANCH  63  84
ENDBRANCH  37  38
ENDBRANCH  30  32
ENDBRANCH  29  30
ENDBRANCH  28  29
ENDBRANCH  27  28
ENDBRANCH  26  27
ENDBRANCH  25  26
ENDBRANCH   1  25
TORSDOF 25
ENDMDL
MODEL 2
REMARK VINA RESULT:      -9.2      1.373      2.098
REMARK SMILES COc1ccc2cc([C@H](C)C(=O)OCCOCCOCCOCCOC(=O)c3ccc(-c4c5nc(c(-c6ccc(S(=O)(=O)[O-])cc6)c6ccc([nH]6)c(-c6ccc(S(=O)(=O)[O-])cc6)c6nc(c(-c7ccc(S(=O)(=O)[O-])cc7)c7ccc4[nH]7)C=C6)C=C5)cc3)ccc2c1
REMARK SMILES IDX 20 1 19 2 18 3 17 4 16 5 15 6 14 7 13 8 11 9 12 10 9 11
REMARK SMILES IDX 10 12 8 13 3 14 4 15 91 16 5 17 90 18 6 19 89 20 7 21 88 22
REMARK SMILES IDX 2 23 1 24 21 25 22 26 23 27 24 28 25 29 26 30 27 31 28 32
REMARK SMILES IDX 29 33 87 34 30 35 86 36 31 37 32 38 33 39 80 40 34 41 85 42
REMARK SMILES IDX 79 43 81 44 35 45 84 46 78 47 77 48 36 50 66 51 47 52 65 53
REMARK SMILES IDX 48 54 51 55 64 56 82 57 49 58 50 59 63 61 83 62 52 63 37 64
REMARK SMILES IDX 38 65 46 66 39 67 45 68 40 69 41 70 42 71 43 72 44 73 67 74
REMARK SMILES IDX 68 75 76 76 69 77 75 78 70 79 71 80 72 81 73 82 74 83 53 84
REMARK SMILES IDX 54 85 62 86 55 87 61 88 56 89 57 90 58 91 59 92 60 93
REMARK H PARENT 81 49 51 60
REMARK Flexibility Score: inf
ROOT
ATOM      1  C   UNL A   1      32.795  30.387  27.231  1.00  0.00     0.188 C 
ENDROOT
BRANCH   1   2
ATOM      2  O   UNL A   1      32.499  30.242  25.849  1.00  0.00    -0.377 OA
BRANCH   2   3
ATOM      3  C   UNL A   1      32.424  28.932  25.335  1.00  0.00     0.188 C 
BRANCH   3   4
ATOM      4  C   UNL A   1      33.708  28.388  24.690  1.00  0.00     0.188 C 
BRANCH   4   5
ATOM      5  O   UNL A   1      33.922  28.411  23.288  1.00  0.00    -0.376 OA
BRANCH   5   6
ATOM      6  C   UNL A   1      33.084  27.720  22.374  1.00  0.00     0.202 C 
BRANCH   6   7
ATOM      7  C   UNL A   1      33.455  26.338  21.811  1.00  0.00     0.261 C 
BRANCH   7   8
ATOM      8  O   UNL A   1      33.987  25.382  22.743  1.00  0.00    -0.463 OA
BRANCH   8   9
ATOM      9  C   UNL A   1      33.068  24.672  23.438  1.00  0.00     0.313 C 
ATOM     10  O   UNL A   1      32.103  24.106  22.928  1.00  0.00    -0.252 OA
BRANCH   9  11
ATOM     11  C   UNL A   1      33.270  24.705  24.961  1.00  0.00     0.126 C 
ATOM     12  C   UNL A   1      32.091  24.484  25.913  1.00  0.00     0.025 C 
BRANCH  11  13
ATOM     13  C   UNL A   1      34.397  23.749  25.251  1.00  0.00    -0.033 A 
ATOM     14  C   UNL A   1      39.018  21.938  25.967  1.00  0.00     0.119 A 
ATOM     15  C   UNL A   1      39.061  23.269  26.383  1.00  0.00     0.047 A 
ATOM     16  C   UNL A   1      37.833  21.382  25.488  1.00  0.00     0.055 A 
ATOM     17  C   UNL A   1      37.905  24.041  26.356  1.00  0.00     0.012 A 
ATOM     18  C   UNL A   1      36.667  22.146  25.445  1.00  0.00    -0.015 A 
ATOM     19  C   UNL A   1      36.710  23.488  25.890  1.00  0.00    -0.018 A 
ATOM     20  C   UNL A   1      35.478  21.615  24.932  1.00  0.00     0.009 A 
ATOM     21  C   UNL A   1      35.568  24.272  25.807  1.00  0.00     0.013 A 
ATOM     22  C   UNL A   1      34.353  22.419  24.817  1.00  0.00     0.005 A 
BRANCH  14  23
ATOM     23  O   UNL A   1      40.113  21.119  25.934  1.00  0.00    -0.497 OA
ATOM     24  C   UNL A   1      41.023  21.365  26.998  1.00  0.00     0.278 C 
ENDBRANCH  14  23
ENDBRANCH  11  13
ENDBRANCH   9  11
ENDBRANCH   8   9
ENDBRANCH   7   8
ENDBRANCH   6   7
ENDBRANCH   5   6
ENDBRANCH   4   5
ENDBRANCH   3   4
ENDBRANCH   2   3
ENDBRANCH   1   2
BRANCH   1  25
ATOM     25  C   UNL A   1      33.661  31.588  27.655  1.00  0.00     0.188 C 
BRANCH  25  26
ATOM     26  O   UNL A   1      35.059  31.326  27.643  1.00  0.00    -0.376 OA
BRANCH  26  27
ATOM     27  C   UNL A   1      35.937  32.209  28.323  1.00  0.00     0.202 C 
BRANCH  27  28
ATOM     28  C   UNL A   1      37.267  31.659  28.871  1.00  0.00     0.261 C 
BRANCH  28  29
ATOM     29  O   UNL A   1      37.259  30.329  29.412  1.00  0.00    -0.460 OA
BRANCH  29  30
ATOM     30  C   UNL A   1      37.577  29.304  28.592  1.00  0.00     0.338 C 
ATOM     31  O   UNL A   1      36.810  28.546  28.038  1.00  0.00    -0.246 OA
BRANCH  30  32
ATOM     32  C   UNL A   1      39.030  29.388  28.311  1.00  0.00     0.060 A 
ATOM     33  C   UNL A   1      39.463  29.339  26.978  1.00  0.00     0.016 A 
ATOM     34  C   UNL A   1      39.955  29.502  29.351  1.00  0.00     0.016 A 
ATOM     35  C   UNL A   1      40.826  29.340  26.686  1.00  0.00     0.010 A 
ATOM     36  C   UNL A   1      41.321  29.481  29.058  1.00  0.00     0.010 A 
ATOM     37  C   UNL A   1      41.761  29.349  27.728  1.00  0.00    -0.014 A 
BRANCH  37  38
ATOM     38  C   UNL A   1      43.169  28.976  27.448  1.00  0.00     0.031 A 
ATOM     39  C   UNL A   1      44.228  30.035  27.619  1.00  0.00     0.074 A 
ATOM     40  C   UNL A   1      43.513  27.731  27.079  1.00  0.00     0.049 A 
ATOM     41  N   UNL A   1      45.515  29.965  27.405  1.00  0.00    -0.248 NA
ATOM     42  C   UNL A   1      43.765  31.351  28.091  1.00  0.00     0.031 C 
ATOM     43  C   UNL A   1      42.591  26.607  26.927  1.00  0.00     0.029 A 
ATOM     44  N   UNL A   1      44.740  27.207  26.757  1.00  0.00    -0.354 N 
ATOM     45  C   UNL A   1      46.013  31.230  27.698  1.00  0.00     0.074 A 
ATOM     46  C   UNL A   1      44.885  32.054  28.074  1.00  0.00     0.031 C 
ATOM     47  C   UNL A   1      43.286  25.526  26.530  1.00  0.00     0.029 A 
ATOM     48  C   UNL A   1      44.692  25.892  26.366  1.00  0.00     0.049 A 
ATOM     49  H   UNL A   1      45.575  27.727  26.802  1.00  0.00     0.167 HD
ATOM     50  C   UNL A   1      47.294  31.668  27.663  1.00  0.00     0.031 A 
ATOM     51  C   UNL A   1      45.668  25.082  25.907  1.00  0.00     0.031 A 
ATOM     52  C   UNL A   1      48.410  30.850  27.268  1.00  0.00     0.049 A 
ATOM     53  C   UNL A   1      47.078  25.606  25.805  1.00  0.00     0.074 A 
ATOM     54  C   UNL A   1      49.750  31.191  27.213  1.00  0.00     0.029 A 
ATOM     55  N   UNL A   1      48.315  29.532  26.848  1.00  0.00    -0.354 N 
ATOM     56  N   UNL A   1      47.539  26.797  26.109  1.00  0.00    -0.248 NA
ATOM     57  C   UNL A   1      48.099  24.673  25.310  1.00  0.00     0.031 C 
ATOM     58  C   UNL A   1      50.455  30.101  26.692  1.00  0.00     0.029 A 
ATOM     59  C   UNL A   1      49.568  29.054  26.501  1.00  0.00     0.049 A 
ATOM     60  H   UNL A   1      47.480  29.011  26.803  1.00  0.00     0.167 HD
ATOM     61  C   UNL A   1      48.912  26.744  25.875  1.00  0.00     0.074 A 
ATOM     62  C   UNL A   1      49.203  25.402  25.413  1.00  0.00     0.031 C 
ATOM     63  C   UNL A   1      49.845  27.717  26.037  1.00  0.00     0.031 A 
BRANCH  50  64
ATOM     64  C   UNL A   1      47.541  33.115  28.010  1.00  0.00    -0.014 A 
ATOM     65  C   UNL A   1      47.804  33.522  29.331  1.00  0.00     0.010 A 
ATOM     66  C   UNL A   1      47.506  34.084  26.991  1.00  0.00     0.010 A 
ATOM     67  C   UNL A   1      47.971  34.877  29.634  1.00  0.00     0.020 A 
ATOM     68  C   UNL A   1      47.708  35.436  27.284  1.00  0.00     0.020 A 
ATOM     69  C   UNL A   1      47.916  35.825  28.608  1.00  0.00     0.054 A 
BRANCH  69  70
ATOM     70  S   UNL A   1      48.131  37.576  29.030  1.00  0.00     0.124 S 
ATOM     71  O   UNL A   1      46.924  38.173  28.462  1.00  0.00    -0.237 OA
ATOM     72  O   UNL A   1      48.190  37.548  30.489  1.00  0.00    -0.237 OA
ATOM     73  O   UNL A   1      49.379  37.943  28.364  1.00  0.00    -0.744 OA
ENDBRANCH  69  70
ENDBRANCH  50  64
BRANCH  51  74
ATOM     74  C   UNL A   1      45.337  23.688  25.499  1.00  0.00    -0.014 A 
ATOM     75  C   UNL A   1      44.963  23.393  24.176  1.00  0.00     0.010 A 
ATOM     76  C   UNL A   1      45.419  22.640  26.435  1.00  0.00     0.010 A 
ATOM     77  C   UNL A   1      44.677  22.078  23.798  1.00  0.00     0.020 A 
ATOM     78  C   UNL A   1      45.162  21.320  26.053  1.00  0.00     0.020 A 
ATOM     79  C   UNL A   1      44.789  21.048  24.737  1.00  0.00     0.054 A 
BRANCH  79  80
ATOM     80  S   UNL A   1      44.494  19.340  24.199  1.00  0.00     0.124 S 
ATOM     81  O   UNL A   1      45.637  18.638  24.775  1.00  0.00    -0.237 OA
ATOM     82  O   UNL A   1      43.198  19.042  24.803  1.00  0.00    -0.237 OA
ATOM     83  O   UNL A   1      44.488  19.436  22.741  1.00  0.00    -0.744 OA
ENDBRANCH  79  80
ENDBRANCH  51  74
BRANCH  63  84
ATOM     84  C   UNL A   1      51.284  27.359  25.759  1.00  0.00    -0.014 A 
ATOM     85  C   UNL A   1      51.864  27.555  24.494  1.00  0.00     0.010 A 
ATOM     86  C   UNL A   1      52.085  26.869  26.808  1.00  0.00     0.010 A 
ATOM     87  C   UNL A   1      53.208  27.233  24.274  1.00  0.00     0.020 A 
ATOM     88  C   UNL A   1      53.436  26.578  26.602  1.00  0.00     0.020 A 
ATOM     89  C   UNL A   1      53.985  26.747  25.330  1.00  0.00     0.054 A 
BRANCH  89  90
ATOM     90  S   UNL A   1      55.733  26.371  25.029  1.00  0.00     0.124 S 
ATOM     91  O   UNL A   1      55.891  26.757  23.630  1.00  0.00    -0.237 OA
ATOM     92  O   UNL A   1      56.415  27.226  25.998  1.00  0.00    -0.237 OA
ATOM     93  O   UNL A   1      55.832  24.937  25.294  1.00  0.00    -0.744 OA
ENDBRANCH  89  90
ENDBRANCH  63  84
ENDBRANCH  37  38
ENDBRANCH  30  32
ENDBRANCH  29  30
ENDBRANCH  28  29
ENDBRANCH  27  28
ENDBRANCH  26  27
ENDBRANCH  25  26
ENDBRANCH   1  25
TORSDOF 25
ENDMDL
MODEL 3
REMARK VINA RESULT:      -8.9      4.185      6.621
REMARK SMILES COc1ccc2cc([C@H](C)C(=O)OCCOCCOCCOCCOC(=O)c3ccc(-c4c5nc(c(-c6ccc(S(=O)(=O)[O-])cc6)c6ccc([nH]6)c(-c6ccc(S(=O)(=O)[O-])cc6)c6nc(c(-c7ccc(S(=O)(=O)[O-])cc7)c7ccc4[nH]7)C=C6)C=C5)cc3)ccc2c1
REMARK SMILES IDX 20 1 19 2 18 3 17 4 16 5 15 6 14 7 13 8 11 9 12 10 9 11
REMARK SMILES IDX 10 12 8 13 3 14 4 15 91 16 5 17 90 18 6 19 89 20 7 21 88 22
REMARK SMILES IDX 2 23 1 24 21 25 22 26 23 27 24 28 25 29 26 30 27 31 28 32
REMARK SMILES IDX 29 33 87 34 30 35 86 36 31 37 32 38 33 39 80 40 34 41 85 42
REMARK SMILES IDX 79 43 81 44 35 45 84 46 78 47 77 48 36 50 66 51 47 52 65 53
REMARK SMILES IDX 48 54 51 55 64 56 82 57 49 58 50 59 63 61 83 62 52 63 37 64
REMARK SMILES IDX 38 65 46 66 39 67 45 68 40 69 41 70 42 71 43 72 44 73 67 74
REMARK SMILES IDX 68 75 76 76 69 77 75 78 70 79 71 80 72 81 73 82 74 83 53 84
REMARK SMILES IDX 54 85 62 86 55 87 61 88 56 89 57 90 58 91 59 92 60 93
REMARK H PARENT 81 49 51 60
REMARK Flexibility Score: inf
ROOT
ATOM      1  C   UNL A   1      34.564  34.732  28.516  1.00  0.00     0.188 C 
ENDROOT
BRANCH   1   2
ATOM      2  O   UNL A   1      34.754  33.483  27.868  1.00  0.00    -0.377 OA
BRANCH   2   3
ATOM      3  C   UNL A   1      34.054  32.372  28.380  1.00  0.00     0.188 C 
BRANCH   3   4
ATOM      4  C   UNL A   1      34.209  31.060  27.597  1.00  0.00     0.188 C 
BRANCH   4   5
ATOM      5  O   UNL A   1      35.478  30.509  27.281  1.00  0.00    -0.376 OA
BRANCH   5   6
ATOM      6  C   UNL A   1      36.578  30.560  28.177  1.00  0.00     0.202 C 
BRANCH   6   7
ATOM      7  C   UNL A   1      37.852  29.727  27.954  1.00  0.00     0.261 C 
BRANCH   7   8
ATOM      8  O   UNL A   1      38.988  30.053  28.772  1.00  0.00    -0.463 OA
BRANCH   8   9
ATOM      9  C   UNL A   1      39.620  28.998  29.337  1.00  0.00     0.313 C 
ATOM     10  O   UNL A   1      39.257  28.448  30.374  1.00  0.00    -0.252 OA
BRANCH   9  11
ATOM     11  C   UNL A   1      40.916  28.588  28.619  1.00  0.00     0.126 C 
ATOM     12  C   UNL A   1      42.281  29.046  29.144  1.00  0.00     0.025 C 
BRANCH  11  13
ATOM     13  C   UNL A   1      40.857  27.090  28.478  1.00  0.00    -0.033 A 
ATOM     14  C   UNL A   1      42.279  22.325  27.833  1.00  0.00     0.119 A 
ATOM     15  C   UNL A   1      43.347  22.959  28.469  1.00  0.00     0.047 A 
ATOM     16  C   UNL A   1      41.116  23.029  27.527  1.00  0.00     0.055 A 
ATOM     17  C   UNL A   1      43.240  24.296  28.834  1.00  0.00     0.012 A 
ATOM     18  C   UNL A   1      40.997  24.374  27.878  1.00  0.00    -0.015 A 
ATOM     19  C   UNL A   1      42.073  25.006  28.543  1.00  0.00    -0.018 A 
ATOM     20  C   UNL A   1      39.852  25.105  27.544  1.00  0.00     0.009 A 
ATOM     21  C   UNL A   1      41.985  26.355  28.855  1.00  0.00     0.013 A 
ATOM     22  C   UNL A   1      39.790  26.462  27.825  1.00  0.00     0.005 A 
BRANCH  14  23
ATOM     23  O   UNL A   1      42.313  21.024  27.413  1.00  0.00    -0.497 OA
ATOM     24  C   UNL A   1      41.108  20.320  27.688  1.00  0.00     0.278 C 
ENDBRANCH  14  23
ENDBRANCH  11  13
ENDBRANCH   9  11
ENDBRANCH   8   9
ENDBRANCH   7   8
ENDBRANCH   6   7
ENDBRANCH   5   6
ENDBRANCH   4   5
ENDBRANCH   3   4
ENDBRANCH   2   3
ENDBRANCH   1   2
BRANCH   1  25
ATOM     25  C   UNL A   1      33.157  35.054  29.053  1.00  0.00     0.188 C 
BRANCH  25  26
ATOM     26  O   UNL A   1      33.035  34.933  30.465  1.00  0.00    -0.376 OA
BRANCH  26  27
ATOM     27  C   UNL A   1      34.178  34.592  31.233  1.00  0.00     0.202 C 
BRANCH  27  28
ATOM     28  C   UNL A   1      33.990  34.204  32.712  1.00  0.00     0.261 C 
BRANCH  28  29
ATOM     29  O   UNL A   1      34.760  33.097  33.207  1.00  0.00    -0.460 OA
BRANCH  29  30
ATOM     30  C   UNL A   1      35.638  33.326  34.208  1.00  0.00     0.338 C 
ATOM     31  O   UNL A   1      35.393  33.777  35.306  1.00  0.00    -0.246 OA
BRANCH  30  32
ATOM     32  C   UNL A   1      36.936  32.733  33.810  1.00  0.00     0.060 A 
ATOM     33  C   UNL A   1      38.060  32.969  34.614  1.00  0.00     0.016 A 
ATOM     34  C   UNL A   1      37.046  31.963  32.650  1.00  0.00     0.016 A 
ATOM     35  C   UNL A   1      39.310  32.488  34.226  1.00  0.00     0.010 A 
ATOM     36  C   UNL A   1      38.303  31.501  32.251  1.00  0.00     0.010 A 
ATOM     37  C   UNL A   1      39.447  31.805  33.012  1.00  0.00    -0.014 A 
BRANCH  37  38
ATOM     38  C   UNL A   1      40.796  31.627  32.423  1.00  0.00     0.031 A 
ATOM     39  C   UNL A   1      41.321  32.712  31.519  1.00  0.00     0.074 A 
ATOM     40  C   UNL A   1      41.553  30.550  32.695  1.00  0.00     0.049 A 
ATOM     41  N   UNL A   1      42.449  32.773  30.860  1.00  0.00    -0.248 NA
ATOM     42  C   UNL A   1      40.449  33.885  31.331  1.00  0.00     0.031 C 
ATOM     43  C   UNL A   1      41.180  29.458  33.591  1.00  0.00     0.029 A 
ATOM     44  N   UNL A   1      42.797  30.201  32.234  1.00  0.00    -0.354 N 
ATOM     45  C   UNL A   1      42.414  33.979  30.168  1.00  0.00     0.074 A 
ATOM     46  C   UNL A   1      41.141  34.601  30.461  1.00  0.00     0.031 C 
ATOM     47  C   UNL A   1      42.173  28.551  33.607  1.00  0.00     0.029 A 
ATOM     48  C   UNL A   1      43.233  28.983  32.695  1.00  0.00     0.049 A 
ATOM     49  H   UNL A   1      43.327  30.770  31.630  1.00  0.00     0.167 HD
ATOM     50  C   UNL A   1      43.357  34.523  29.363  1.00  0.00     0.031 A 
ATOM     51  C   UNL A   1      44.349  28.286  32.398  1.00  0.00     0.031 A 
ATOM     52  C   UNL A   1      44.612  33.891  29.058  1.00  0.00     0.049 A 
ATOM     53  C   UNL A   1      45.356  28.873  31.443  1.00  0.00     0.074 A 
ATOM     54  C   UNL A   1      45.645  34.363  28.267  1.00  0.00     0.029 A 
ATOM     55  N   UNL A   1      45.002  32.642  29.519  1.00  0.00    -0.354 N 
ATOM     56  N   UNL A   1      45.323  30.025  30.815  1.00  0.00    -0.248 NA
ATOM     57  C   UNL A   1      46.557  28.072  31.169  1.00  0.00     0.031 C 
ATOM     58  C   UNL A   1      46.627  33.370  28.193  1.00  0.00     0.029 A 
ATOM     59  C   UNL A   1      46.244  32.313  29.004  1.00  0.00     0.049 A 
ATOM     60  H   UNL A   1      44.473  32.072  30.124  1.00  0.00     0.167 HD
ATOM     61  C   UNL A   1      46.514  30.102  30.097  1.00  0.00     0.074 A 
ATOM     62  C   UNL A   1      47.247  28.884  30.378  1.00  0.00     0.031 C 
ATOM     63  C   UNL A   1      46.962  31.095  29.287  1.00  0.00     0.031 A 
BRANCH  50  64
ATOM     64  C   UNL A   1      43.034  35.846  28.715  1.00  0.00    -0.014 A 
ATOM     65  C   UNL A   1      43.411  37.067  29.303  1.00  0.00     0.010 A 
ATOM     66  C   UNL A   1      42.337  35.863  27.493  1.00  0.00     0.010 A 
ATOM     67  C   UNL A   1      43.046  38.280  28.710  1.00  0.00     0.020 A 
ATOM     68  C   UNL A   1      42.002  37.074  26.878  1.00  0.00     0.020 A 
ATOM     69  C   UNL A   1      42.340  38.275  27.504  1.00  0.00     0.054 A 
BRANCH  69  70
ATOM     70  S   UNL A   1      41.877  39.863  26.760  1.00  0.00     0.124 S 
ATOM     71  O   UNL A   1      41.449  40.629  27.929  1.00  0.00    -0.237 OA
ATOM     72  O   UNL A   1      43.125  40.303  26.144  1.00  0.00    -0.237 OA
ATOM     73  O   UNL A   1      40.812  39.510  25.824  1.00  0.00    -0.744 OA
ENDBRANCH  69  70
ENDBRANCH  50  64
BRANCH  51  74
ATOM     74  C   UNL A   1      44.563  26.943  33.009  1.00  0.00    -0.014 A 
ATOM     75  C   UNL A   1      45.082  26.818  34.310  1.00  0.00     0.010 A 
ATOM     76  C   UNL A   1      44.221  25.780  32.295  1.00  0.00     0.010 A 
ATOM     77  C   UNL A   1      45.256  25.555  34.883  1.00  0.00     0.020 A 
ATOM     78  C   UNL A   1      44.366  24.517  32.876  1.00  0.00     0.020 A 
ATOM     79  C   UNL A   1      44.888  24.412  34.166  1.00  0.00     0.054 A 
BRANCH  79  80
ATOM     80  S   UNL A   1      45.046  22.791  34.965  1.00  0.00     0.124 S 
ATOM     81  O   UNL A   1      43.766  22.166  34.643  1.00  0.00    -0.237 OA
ATOM     82  O   UNL A   1      46.213  22.225  34.294  1.00  0.00    -0.237 OA
ATOM     83  O   UNL A   1      45.244  23.121  36.374  1.00  0.00    -0.744 OA
ENDBRANCH  79  80
ENDBRANCH  51  74
BRANCH  63  84
ATOM     84  C   UNL A   1      48.334  30.935  28.677  1.00  0.00    -0.014 A 
ATOM     85  C   UNL A   1      49.489  31.416  29.318  1.00  0.00     0.010 A 
ATOM     86  C   UNL A   1      48.468  30.234  27.463  1.00  0.00     0.010 A 
ATOM     87  C   UNL A   1      50.748  31.232  28.737  1.00  0.00     0.020 A 
ATOM     88  C   UNL A   1      49.727  30.020  26.897  1.00  0.00     0.020 A 
ATOM     89  C   UNL A   1      50.859  30.535  27.530  1.00  0.00     0.054 A 
BRANCH  89  90
ATOM     90  S   UNL A   1      52.506  30.279  26.816  1.00  0.00     0.124 S 
ATOM     91  O   UNL A   1      53.103  31.605  26.942  1.00  0.00    -0.237 OA
ATOM     92  O   UNL A   1      53.073  29.249  27.683  1.00  0.00    -0.237 OA
ATOM     93  O   UNL A   1      52.229  29.848  25.447  1.00  0.00    -0.744 OA
ENDBRANCH  89  90
ENDBRANCH  63  84
ENDBRANCH  37  38
ENDBRANCH  30  32
ENDBRANCH  29  30
ENDBRANCH  28  29
ENDBRANCH  27  28
ENDBRANCH  26  27
ENDBRANCH  25  26
ENDBRANCH   1  25
TORSDOF 25
ENDMDL
