MODEL 1
REMARK VINA RESULT:      -8.8      0.000      0.000
REMARK SMILES CSCC[C@H](NC(=O)N[C@@H]1CCCCC1(C)C)C(=O)OCCOCCOCCOCCOC(=O)c1ccc(-c2c3nc(c(-c4ccc(S(=O)(=O)[O-])cc4)c4ccc([nH]4)c(-c4ccc(S(=O)(=O)[O-])cc4)c4nc(c(-c5ccc(S(=O)(=O)[O-])cc5)c5ccc2[nH]5)C=C4)C=C3)cc1
REMARK SMILES IDX 26 1 25 2 24 3 23 4 22 5 21 6 20 7 18 8 19 9 5 10 4 11 3 12
REMARK SMILES IDX 2 13 1 14 6 15 7 16 8 18 9 19 10 21 11 22 15 23 12 24 14 25
REMARK SMILES IDX 16 26 17 27 13 28 27 29 28 30 29 31 30 32 31 33 32 34 33 35
REMARK SMILES IDX 34 36 35 37 36 38 94 39 37 40 93 41 38 42 39 43 40 44 87 45
REMARK SMILES IDX 41 46 92 47 86 48 88 49 42 50 91 51 85 52 84 53 43 55 73 56
REMARK SMILES IDX 54 57 72 58 55 59 58 60 71 61 89 62 56 63 57 64 70 66 90 67
REMARK SMILES IDX 59 68 44 69 45 70 53 71 46 72 52 73 47 74 48 75 49 76 50 77
REMARK SMILES IDX 51 78 74 79 75 80 83 81 76 82 82 83 77 84 78 85 79 86 80 87
REMARK SMILES IDX 81 88 60 89 61 90 69 91 62 92 68 93 63 94 64 95 65 96 66 97
REMARK SMILES IDX 67 98
REMARK H PARENT 6 17 9 20 88 54 58 65
REMARK Flexibility Score: inf
ROOT
ATOM      1  O   UNL A   1      34.582  34.103  28.878  1.00  0.00    -0.377 OA
ENDROOT
BRANCH   1   2
ATOM      2  C   UNL A   1      33.782  33.156  28.225  1.00  0.00     0.188 C 
BRANCH   2   3
ATOM      3  C   UNL A   1      34.385  31.812  27.823  1.00  0.00     0.188 C 
BRANCH   3   4
ATOM      4  O   UNL A   1      33.511  30.717  27.682  1.00  0.00    -0.376 OA
BRANCH   4   5
ATOM      5  C   UNL A   1      32.369  30.856  26.839  1.00  0.00     0.202 C 
BRANCH   5   6
ATOM      6  C   UNL A   1      32.168  29.935  25.624  1.00  0.00     0.261 C 
BRANCH   6   7
ATOM      7  O   UNL A   1      31.830  28.564  25.955  1.00  0.00    -0.462 OA
BRANCH   7   8
ATOM      8  C   UNL A   1      32.079  27.666  24.971  1.00  0.00     0.328 C 
ATOM      9  O   UNL A   1      32.972  27.818  24.134  1.00  0.00    -0.250 OA
BRANCH   8  10
ATOM     10  C   UNL A   1      31.173  26.388  24.909  1.00  0.00     0.194 C 
BRANCH  10  11
ATOM     11  C   UNL A   1      29.786  26.870  24.428  1.00  0.00     0.048 C 
BRANCH  11  12
ATOM     12  C   UNL A   1      29.701  27.449  23.012  1.00  0.00     0.072 C 
BRANCH  12  13
ATOM     13  S   UNL A   1      29.284  29.219  22.891  1.00  0.00    -0.165 SA
ATOM     14  C   UNL A   1      27.483  29.177  23.123  1.00  0.00     0.085 C 
ENDBRANCH  12  13
ENDBRANCH  11  12
ENDBRANCH  10  11
BRANCH  10  15
ATOM     15  N   UNL A   1      31.006  25.265  25.882  1.00  0.00    -0.325 N 
ATOM     16  C   UNL A   1      31.358  24.011  26.146  1.00  0.00     0.315 C 
ATOM     17  H   UNL A   1      30.406  25.572  26.600  1.00  0.00     0.166 HD
ATOM     18  O   UNL A   1      30.694  23.486  27.057  1.00  0.00    -0.249 OA
ATOM     19  N   UNL A   1      32.283  23.199  25.643  1.00  0.00    -0.335 N 
ATOM     20  H   UNL A   1      32.171  22.347  26.122  1.00  0.00     0.165 HD
BRANCH  19  21
ATOM     21  C   UNL A   1      33.427  22.970  24.677  1.00  0.00     0.089 C 
ATOM     22  C   UNL A   1      32.893  22.267  23.410  1.00  0.00     0.025 C 
ATOM     23  C   UNL A   1      34.652  22.221  25.224  1.00  0.00    -0.015 C 
ATOM     24  C   UNL A   1      32.457  20.833  23.684  1.00  0.00     0.002 C 
ATOM     25  C   UNL A   1      34.108  20.847  25.673  1.00  0.00     0.008 C 
ATOM     26  C   UNL A   1      35.802  21.902  24.243  1.00  0.00     0.013 C 
ATOM     27  C   UNL A   1      35.310  23.196  26.224  1.00  0.00     0.013 C 
ATOM     28  C   UNL A   1      33.465  20.039  24.520  1.00  0.00     0.001 C 
ENDBRANCH  19  21
ENDBRANCH  10  15
ENDBRANCH   8  10
ENDBRANCH   7   8
ENDBRANCH   6   7
ENDBRANCH   5   6
ENDBRANCH   4   5
ENDBRANCH   3   4
ENDBRANCH   2   3
ENDBRANCH   1   2
BRANCH   1  29
ATOM     29  C   UNL A   1      34.151  34.512  30.155  1.00  0.00     0.188 C 
BRANCH  29  30
ATOM     30  C   UNL A   1      34.656  33.765  31.399  1.00  0.00     0.188 C 
BRANCH  30  31
ATOM     31  O   UNL A   1      35.804  32.916  31.382  1.00  0.00    -0.376 OA
BRANCH  31  32
ATOM     32  C   UNL A   1      36.965  33.225  30.625  1.00  0.00     0.202 C 
BRANCH  32  33
ATOM     33  C   UNL A   1      37.500  32.150  29.685  1.00  0.00     0.261 C 
BRANCH  33  34
ATOM     34  O   UNL A   1      37.575  30.876  30.322  1.00  0.00    -0.460 OA
BRANCH  34  35
ATOM     35  C   UNL A   1      37.390  29.805  29.517  1.00  0.00     0.338 C 
ATOM     36  O   UNL A   1      36.336  29.372  29.079  1.00  0.00    -0.246 OA
BRANCH  35  37
ATOM     37  C   UNL A   1      38.721  29.366  29.068  1.00  0.00     0.060 A 
ATOM     38  C   UNL A   1      39.592  28.819  30.020  1.00  0.00     0.016 A 
ATOM     39  C   UNL A   1      39.062  29.398  27.712  1.00  0.00     0.016 A 
ATOM     40  C   UNL A   1      40.818  28.307  29.618  1.00  0.00     0.010 A 
ATOM     41  C   UNL A   1      40.307  28.923  27.315  1.00  0.00     0.010 A 
ATOM     42  C   UNL A   1      41.195  28.407  28.273  1.00  0.00    -0.014 A 
BRANCH  42  43
ATOM     43  C   UNL A   1      42.614  28.234  27.918  1.00  0.00     0.031 A 
ATOM     44  C   UNL A   1      43.506  29.430  28.084  1.00  0.00     0.074 A 
ATOM     45  C   UNL A   1      43.084  27.057  27.473  1.00  0.00     0.049 A 
ATOM     46  N   UNL A   1      44.778  29.557  27.825  1.00  0.00    -0.248 NA
ATOM     47  C   UNL A   1      42.871  30.652  28.612  1.00  0.00     0.031 C 
ATOM     48  C   UNL A   1      42.299  25.833  27.319  1.00  0.00     0.029 A 
ATOM     49  N   UNL A   1      44.343  26.708  27.063  1.00  0.00    -0.354 N 
ATOM     50  C   UNL A   1      45.094  30.868  28.156  1.00  0.00     0.074 A 
ATOM     51  C   UNL A   1      43.880  31.507  28.605  1.00  0.00     0.031 C 
ATOM     52  C   UNL A   1      43.096  24.866  26.832  1.00  0.00     0.029 A 
ATOM     53  C   UNL A   1      44.434  25.413  26.614  1.00  0.00     0.049 A 
ATOM     54  H   UNL A   1      45.108  27.326  27.088  1.00  0.00     0.167 HD
ATOM     55  C   UNL A   1      46.296  31.484  28.090  1.00  0.00     0.031 A 
ATOM     56  C   UNL A   1      45.481  24.762  26.071  1.00  0.00     0.031 A 
ATOM     57  C   UNL A   1      47.483  30.841  27.600  1.00  0.00     0.049 A 
ATOM     58  C   UNL A   1      46.792  25.493  25.935  1.00  0.00     0.074 A 
ATOM     59  C   UNL A   1      48.758  31.361  27.488  1.00  0.00     0.029 A 
ATOM     60  N   UNL A   1      47.533  29.538  27.126  1.00  0.00    -0.354 N 
ATOM     61  N   UNL A   1      47.093  26.722  26.286  1.00  0.00    -0.248 NA
ATOM     62  C   UNL A   1      47.908  24.747  25.338  1.00  0.00     0.031 C 
ATOM     63  C   UNL A   1      49.566  30.392  26.884  1.00  0.00     0.029 A 
ATOM     64  C   UNL A   1      48.812  29.244  26.689  1.00  0.00     0.049 A 
ATOM     65  H   UNL A   1      46.771  28.915  27.103  1.00  0.00     0.167 HD
ATOM     66  C   UNL A   1      48.441  26.888  25.980  1.00  0.00     0.074 A 
ATOM     67  C   UNL A   1      48.897  25.627  25.429  1.00  0.00     0.031 C 
ATOM     68  C   UNL A   1      49.232  27.978  26.142  1.00  0.00     0.031 A 
BRANCH  55  69
ATOM     69  C   UNL A   1      46.358  32.927  28.508  1.00  0.00    -0.014 A 
ATOM     70  C   UNL A   1      46.056  33.964  27.605  1.00  0.00     0.010 A 
ATOM     71  C   UNL A   1      46.718  33.253  29.828  1.00  0.00     0.010 A 
ATOM     72  C   UNL A   1      46.149  35.300  28.005  1.00  0.00     0.020 A 
ATOM     73  C   UNL A   1      46.782  34.586  30.240  1.00  0.00     0.020 A 
ATOM     74  C   UNL A   1      46.511  35.602  29.321  1.00  0.00     0.054 A 
BRANCH  74  75
ATOM     75  S   UNL A   1      46.594  37.343  29.821  1.00  0.00     0.124 S 
ATOM     76  O   UNL A   1      45.435  37.460  30.702  1.00  0.00    -0.237 OA
ATOM     77  O   UNL A   1      47.894  37.425  30.479  1.00  0.00    -0.237 OA
ATOM     78  O   UNL A   1      46.491  38.072  28.558  1.00  0.00    -0.744 OA
ENDBRANCH  74  75
ENDBRANCH  55  69
BRANCH  56  79
ATOM     79  C   UNL A   1      45.326  23.354  25.610  1.00  0.00    -0.014 A 
ATOM     80  C   UNL A   1      45.720  22.281  26.429  1.00  0.00     0.010 A 
ATOM     81  C   UNL A   1      44.775  23.079  24.345  1.00  0.00     0.010 A 
ATOM     82  C   UNL A   1      45.578  20.961  25.986  1.00  0.00     0.020 A 
ATOM     83  C   UNL A   1      44.606  21.761  23.909  1.00  0.00     0.020 A 
ATOM     84  C   UNL A   1      45.018  20.710  24.730  1.00  0.00     0.054 A 
BRANCH  84  85
ATOM     85  S   UNL A   1      44.797  18.988  24.201  1.00  0.00     0.124 S 
ATOM     86  O   UNL A   1      45.266  18.249  25.369  1.00  0.00    -0.237 OA
ATOM     87  O   UNL A   1      43.361  18.922  23.944  1.00  0.00    -0.237 OA
ATOM     88  O   UNL A   1      45.641  18.883  23.013  1.00  0.00    -0.744 OA
ENDBRANCH  84  85
ENDBRANCH  56  79
BRANCH  68  89
ATOM     89  C   UNL A   1      50.682  27.845  25.755  1.00  0.00    -0.014 A 
ATOM     90  C   UNL A   1      51.619  27.254  26.619  1.00  0.00     0.010 A 
ATOM     91  C   UNL A   1      51.092  28.257  24.474  1.00  0.00     0.010 A 
ATOM     92  C   UNL A   1      52.950  27.110  26.222  1.00  0.00     0.020 A 
ATOM     93  C   UNL A   1      52.413  28.083  24.059  1.00  0.00     0.020 A 
ATOM     94  C   UNL A   1      53.338  27.524  24.942  1.00  0.00     0.054 A 
BRANCH  94  95
ATOM     95  S   UNL A   1      55.062  27.283  24.434  1.00  0.00     0.124 S 
ATOM     96  O   UNL A   1      55.487  26.193  25.308  1.00  0.00    -0.237 OA
ATOM     97  O   UNL A   1      54.933  26.941  23.019  1.00  0.00    -0.237 OA
ATOM     98  O   UNL A   1      55.686  28.576  24.702  1.00  0.00    -0.744 OA
ENDBRANCH  94  95
ENDBRANCH  68  89
ENDBRANCH  42  43
ENDBRANCH  35  37
ENDBRANCH  34  35
ENDBRANCH  33  34
ENDBRANCH  32  33
ENDBRANCH  31  32
ENDBRANCH  30  31
ENDBRANCH  29  30
ENDBRANCH   1  29
TORSDOF 28
ENDMDL
MODEL 2
REMARK VINA RESULT:      -8.1      6.328     11.517
REMARK SMILES CSCC[C@H](NC(=O)N[C@@H]1CCCCC1(C)C)C(=O)OCCOCCOCCOCCOC(=O)c1ccc(-c2c3nc(c(-c4ccc(S(=O)(=O)[O-])cc4)c4ccc([nH]4)c(-c4ccc(S(=O)(=O)[O-])cc4)c4nc(c(-c5ccc(S(=O)(=O)[O-])cc5)c5ccc2[nH]5)C=C4)C=C3)cc1
REMARK SMILES IDX 26 1 25 2 24 3 23 4 22 5 21 6 20 7 18 8 19 9 5 10 4 11 3 12
REMARK SMILES IDX 2 13 1 14 6 15 7 16 8 18 9 19 10 21 11 22 15 23 12 24 14 25
REMARK SMILES IDX 16 26 17 27 13 28 27 29 28 30 29 31 30 32 31 33 32 34 33 35
REMARK SMILES IDX 34 36 35 37 36 38 94 39 37 40 93 41 38 42 39 43 40 44 87 45
REMARK SMILES IDX 41 46 92 47 86 48 88 49 42 50 91 51 85 52 84 53 43 55 73 56
REMARK SMILES IDX 54 57 72 58 55 59 58 60 71 61 89 62 56 63 57 64 70 66 90 67
REMARK SMILES IDX 59 68 44 69 45 70 53 71 46 72 52 73 47 74 48 75 49 76 50 77
REMARK SMILES IDX 51 78 74 79 75 80 83 81 76 82 82 83 77 84 78 85 79 86 80 87
REMARK SMILES IDX 81 88 60 89 61 90 69 91 62 92 68 93 63 94 64 95 65 96 66 97
REMARK SMILES IDX 67 98
REMARK H PARENT 6 17 9 20 88 54 58 65
REMARK Flexibility Score: inf
ROOT
ATOM      1  O   UNL A   1      29.998  27.504  24.025  1.00  0.00    -0.377 OA
ENDROOT
BRANCH   1   2
ATOM      2  C   UNL A   1      30.979  26.903  24.825  1.00  0.00     0.188 C 
BRANCH   2   3
ATOM      3  C   UNL A   1      30.728  26.732  26.321  1.00  0.00     0.188 C 
BRANCH   3   4
ATOM      4  O   UNL A   1      30.762  25.426  26.847  1.00  0.00    -0.376 OA
BRANCH   4   5
ATOM      5  C   UNL A   1      30.401  24.337  26.000  1.00  0.00     0.202 C 
BRANCH   5   6
ATOM      6  C   UNL A   1      30.410  22.891  26.525  1.00  0.00     0.261 C 
BRANCH   6   7
ATOM      7  O   UNL A   1      31.475  22.064  25.993  1.00  0.00    -0.462 OA
BRANCH   7   8
ATOM      8  C   UNL A   1      32.705  22.330  26.496  1.00  0.00     0.328 C 
ATOM      9  O   UNL A   1      32.939  22.380  27.706  1.00  0.00    -0.250 OA
BRANCH   8  10
ATOM     10  C   UNL A   1      33.866  22.592  25.475  1.00  0.00     0.194 C 
BRANCH  10  11
ATOM     11  C   UNL A   1      33.192  23.104  24.183  1.00  0.00     0.048 C 
BRANCH  11  12
ATOM     12  C   UNL A   1      33.416  24.575  23.816  1.00  0.00     0.072 C 
BRANCH  12  13
ATOM     13  S   UNL A   1      32.772  25.107  22.196  1.00  0.00    -0.165 SA
ATOM     14  C   UNL A   1      33.503  26.762  22.047  1.00  0.00     0.085 C 
ENDBRANCH  12  13
ENDBRANCH  11  12
ENDBRANCH  10  11
BRANCH  10  15
ATOM     15  N   UNL A   1      35.059  21.762  25.125  1.00  0.00    -0.325 N 
ATOM     16  C   UNL A   1      35.498  20.514  24.990  1.00  0.00     0.315 C 
ATOM     17  H   UNL A   1      35.803  22.373  24.916  1.00  0.00     0.166 HD
ATOM     18  O   UNL A   1      36.732  20.429  24.869  1.00  0.00    -0.249 OA
ATOM     19  N   UNL A   1      34.888  19.334  24.947  1.00  0.00    -0.335 N 
ATOM     20  H   UNL A   1      35.609  18.671  24.861  1.00  0.00     0.165 HD
BRANCH  19  21
ATOM     21  C   UNL A   1      33.604  18.531  24.970  1.00  0.00     0.089 C 
ATOM     22  C   UNL A   1      33.849  17.198  25.709  1.00  0.00     0.025 C 
ATOM     23  C   UNL A   1      32.927  18.273  23.616  1.00  0.00    -0.015 C 
ATOM     24  C   UNL A   1      34.759  16.260  24.923  1.00  0.00     0.002 C 
ATOM     25  C   UNL A   1      33.976  17.494  22.792  1.00  0.00     0.008 C 
ATOM     26  C   UNL A   1      31.659  17.390  23.598  1.00  0.00     0.013 C 
ATOM     27  C   UNL A   1      32.398  19.649  23.158  1.00  0.00     0.013 C 
ATOM     28  C   UNL A   1      34.389  16.151  23.442  1.00  0.00     0.001 C 
ENDBRANCH  19  21
ENDBRANCH  10  15
ENDBRANCH   8  10
ENDBRANCH   7   8
ENDBRANCH   6   7
ENDBRANCH   5   6
ENDBRANCH   4   5
ENDBRANCH   3   4
ENDBRANCH   2   3
ENDBRANCH   1   2
BRANCH   1  29
ATOM     29  C   UNL A   1      30.311  28.770  23.496  1.00  0.00     0.188 C 
BRANCH  29  30
ATOM     30  C   UNL A   1      31.357  29.648  24.203  1.00  0.00     0.188 C 
BRANCH  30  31
ATOM     31  O   UNL A   1      31.048  30.462  25.334  1.00  0.00    -0.376 OA
BRANCH  31  32
ATOM     32  C   UNL A   1      31.952  30.632  26.416  1.00  0.00     0.202 C 
BRANCH  32  33
ATOM     33  C   UNL A   1      32.184  32.050  26.924  1.00  0.00     0.261 C 
BRANCH  33  34
ATOM     34  O   UNL A   1      33.463  32.193  27.539  1.00  0.00    -0.460 OA
BRANCH  34  35
ATOM     35  C   UNL A   1      33.677  33.362  28.185  1.00  0.00     0.338 C 
ATOM     36  O   UNL A   1      33.000  34.376  28.140  1.00  0.00    -0.246 OA
BRANCH  35  37
ATOM     37  C   UNL A   1      34.766  33.130  29.148  1.00  0.00     0.060 A 
ATOM     38  C   UNL A   1      36.030  33.661  28.855  1.00  0.00     0.016 A 
ATOM     39  C   UNL A   1      34.517  32.491  30.367  1.00  0.00     0.016 A 
ATOM     40  C   UNL A   1      37.057  33.546  29.781  1.00  0.00     0.010 A 
ATOM     41  C   UNL A   1      35.557  32.339  31.277  1.00  0.00     0.010 A 
ATOM     42  C   UNL A   1      36.832  32.840  30.969  1.00  0.00    -0.014 A 
BRANCH  42  43
ATOM     43  C   UNL A   1      37.992  32.383  31.755  1.00  0.00     0.031 A 
ATOM     44  C   UNL A   1      38.747  31.200  31.224  1.00  0.00     0.074 A 
ATOM     45  C   UNL A   1      38.356  33.005  32.888  1.00  0.00     0.049 A 
ATOM     46  N   UNL A   1      39.782  30.585  31.726  1.00  0.00    -0.248 NA
ATOM     47  C   UNL A   1      38.263  30.630  29.952  1.00  0.00     0.031 C 
ATOM     48  C   UNL A   1      37.705  34.184  33.457  1.00  0.00     0.029 A 
ATOM     49  N   UNL A   1      39.365  32.716  33.768  1.00  0.00    -0.354 N 
ATOM     50  C   UNL A   1      40.072  29.559  30.835  1.00  0.00     0.074 A 
ATOM     51  C   UNL A   1      39.089  29.612  29.778  1.00  0.00     0.031 C 
ATOM     52  C   UNL A   1      38.327  34.512  34.603  1.00  0.00     0.029 A 
ATOM     53  C   UNL A   1      39.396  33.548  34.859  1.00  0.00     0.049 A 
ATOM     54  H   UNL A   1      40.007  31.984  33.629  1.00  0.00     0.167 HD
ATOM     55  C   UNL A   1      41.072  28.653  30.895  1.00  0.00     0.031 A 
ATOM     56  C   UNL A   1      40.190  33.513  35.947  1.00  0.00     0.031 A 
ATOM     57  C   UNL A   1      42.014  28.591  31.978  1.00  0.00     0.049 A 
ATOM     58  C   UNL A   1      41.249  32.443  36.032  1.00  0.00     0.074 A 
ATOM     59  C   UNL A   1      43.072  27.719  32.149  1.00  0.00     0.029 A 
ATOM     60  N   UNL A   1      41.998  29.431  33.082  1.00  0.00    -0.354 N 
ATOM     61  N   UNL A   1      41.541  31.500  35.166  1.00  0.00    -0.248 NA
ATOM     62  C   UNL A   1      42.093  32.439  37.233  1.00  0.00     0.031 C 
ATOM     63  C   UNL A   1      43.656  27.990  33.390  1.00  0.00     0.029 A 
ATOM     64  C   UNL A   1      43.009  29.078  33.957  1.00  0.00     0.049 A 
ATOM     65  H   UNL A   1      41.360  30.168  33.223  1.00  0.00     0.167 HD
ATOM     66  C   UNL A   1      42.622  30.808  35.704  1.00  0.00     0.074 A 
ATOM     67  C   UNL A   1      42.938  31.452  36.964  1.00  0.00     0.031 C 
ATOM     68  C   UNL A   1      43.295  29.740  35.206  1.00  0.00     0.031 A 
BRANCH  55  69
ATOM     69  C   UNL A   1      41.153  27.636  29.789  1.00  0.00    -0.014 A 
ATOM     70  C   UNL A   1      40.010  27.254  29.062  1.00  0.00     0.010 A 
ATOM     71  C   UNL A   1      42.393  27.057  29.469  1.00  0.00     0.010 A 
ATOM     72  C   UNL A   1      40.101  26.286  28.059  1.00  0.00     0.020 A 
ATOM     73  C   UNL A   1      42.493  26.111  28.445  1.00  0.00     0.020 A 
ATOM     74  C   UNL A   1      41.343  25.721  27.756  1.00  0.00     0.054 A 
BRANCH  74  75
ATOM     75  S   UNL A   1      41.437  24.489  26.429  1.00  0.00     0.124 S 
ATOM     76  O   UNL A   1      41.713  25.323  25.262  1.00  0.00    -0.237 OA
ATOM     77  O   UNL A   1      42.538  23.634  26.864  1.00  0.00    -0.237 OA
ATOM     78  O   UNL A   1      40.118  23.859  26.446  1.00  0.00    -0.744 OA
ENDBRANCH  74  75
ENDBRANCH  55  69
BRANCH  56  79
ATOM     79  C   UNL A   1      40.004  34.507  37.040  1.00  0.00    -0.014 A 
ATOM     80  C   UNL A   1      40.603  35.777  36.967  1.00  0.00     0.010 A 
ATOM     81  C   UNL A   1      39.216  34.189  38.162  1.00  0.00     0.010 A 
ATOM     82  C   UNL A   1      40.430  36.703  38.002  1.00  0.00     0.020 A 
ATOM     83  C   UNL A   1      39.017  35.122  39.185  1.00  0.00     0.020 A 
ATOM     84  C   UNL A   1      39.634  36.371  39.102  1.00  0.00     0.054 A 
BRANCH  84  85
ATOM     85  S   UNL A   1      39.383  37.610  40.404  1.00  0.00     0.124 S 
ATOM     86  O   UNL A   1      40.751  38.033  40.690  1.00  0.00    -0.237 OA
ATOM     87  O   UNL A   1      38.541  38.599  39.736  1.00  0.00    -0.237 OA
ATOM     88  O   UNL A   1      38.724  36.859  41.470  1.00  0.00    -0.744 OA
ENDBRANCH  84  85
ENDBRANCH  56  79
BRANCH  68  89
ATOM     89  C   UNL A   1      44.465  29.226  36.003  1.00  0.00    -0.014 A 
ATOM     90  C   UNL A   1      44.280  28.391  37.119  1.00  0.00     0.010 A 
ATOM     91  C   UNL A   1      45.772  29.530  35.581  1.00  0.00     0.010 A 
ATOM     92  C   UNL A   1      45.382  27.898  37.819  1.00  0.00     0.020 A 
ATOM     93  C   UNL A   1      46.877  29.010  36.258  1.00  0.00     0.020 A 
ATOM     94  C   UNL A   1      46.675  28.209  37.383  1.00  0.00     0.054 A 
BRANCH  94  95
ATOM     95  S   UNL A   1      48.090  27.519  38.282  1.00  0.00     0.124 S 
ATOM     96  O   UNL A   1      49.125  28.519  38.033  1.00  0.00    -0.237 OA
ATOM     97  O   UNL A   1      47.595  27.455  39.656  1.00  0.00    -0.237 OA
ATOM     98  O   UNL A   1      48.308  26.224  37.644  1.00  0.00    -0.744 OA
ENDBRANCH  94  95
ENDBRANCH  68  89
ENDBRANCH  42  43
ENDBRANCH  35  37
ENDBRANCH  34  35
ENDBRANCH  33  34
ENDBRANCH  32  33
ENDBRANCH  31  32
ENDBRANCH  30  31
ENDBRANCH  29  30
ENDBRANCH   1  29
TORSDOF 28
ENDMDL
MODEL 3
REMARK VINA RESULT:      -8.0      5.991     12.401
REMARK SMILES CSCC[C@H](NC(=O)N[C@@H]1CCCCC1(C)C)C(=O)OCCOCCOCCOCCOC(=O)c1ccc(-c2c3nc(c(-c4ccc(S(=O)(=O)[O-])cc4)c4ccc([nH]4)c(-c4ccc(S(=O)(=O)[O-])cc4)c4nc(c(-c5ccc(S(=O)(=O)[O-])cc5)c5ccc2[nH]5)C=C4)C=C3)cc1
REMARK SMILES IDX 26 1 25 2 24 3 23 4 22 5 21 6 20 7 18 8 19 9 5 10 4 11 3 12
REMARK SMILES IDX 2 13 1 14 6 15 7 16 8 18 9 19 10 21 11 22 15 23 12 24 14 25
REMARK SMILES IDX 16 26 17 27 13 28 27 29 28 30 29 31 30 32 31 33 32 34 33 35
REMARK SMILES IDX 34 36 35 37 36 38 94 39 37 40 93 41 38 42 39 43 40 44 87 45
REMARK SMILES IDX 41 46 92 47 86 48 88 49 42 50 91 51 85 52 84 53 43 55 73 56
REMARK SMILES IDX 54 57 72 58 55 59 58 60 71 61 89 62 56 63 57 64 70 66 90 67
REMARK SMILES IDX 59 68 44 69 45 70 53 71 46 72 52 73 47 74 48 75 49 76 50 77
REMARK SMILES IDX 51 78 74 79 75 80 83 81 76 82 82 83 77 84 78 85 79 86 80 87
REMARK SMILES IDX 81 88 60 89 61 90 69 91 62 92 68 93 63 94 64 95 65 96 66 97
REMARK SMILES IDX 67 98
REMARK H PARENT 6 17 9 20 88 54 58 65
REMARK Flexibility Score: inf
ROOT
ATOM      1  O   UNL A   1      34.303  25.589  24.454  1.00  0.00    -0.377 OA
ENDROOT
BRANCH   1   2
ATOM      2  C   UNL A   1      34.736  24.880  25.583  1.00  0.00     0.188 C 
BRANCH   2   3
ATOM      3  C   UNL A   1      34.528  23.369  25.647  1.00  0.00     0.188 C 
BRANCH   3   4
ATOM      4  O   UNL A   1      35.666  22.557  25.817  1.00  0.00    -0.376 OA
BRANCH   4   5
ATOM      5  C   UNL A   1      36.931  23.050  25.380  1.00  0.00     0.202 C 
BRANCH   5   6
ATOM      6  C   UNL A   1      38.240  22.418  25.881  1.00  0.00     0.261 C 
BRANCH   6   7
ATOM      7  O   UNL A   1      39.080  23.306  26.660  1.00  0.00    -0.462 OA
BRANCH   7   8
ATOM      8  C   UNL A   1      40.257  22.766  27.061  1.00  0.00     0.328 C 
ATOM      9  O   UNL A   1      40.351  21.623  27.513  1.00  0.00    -0.250 OA
BRANCH   8  10
ATOM     10  C   UNL A   1      41.542  23.657  26.943  1.00  0.00     0.194 C 
BRANCH  10  11
ATOM     11  C   UNL A   1      42.404  23.020  25.830  1.00  0.00     0.048 C 
BRANCH  11  12
ATOM     12  C   UNL A   1      43.445  21.983  26.263  1.00  0.00     0.072 C 
BRANCH  12  13
ATOM     13  S   UNL A   1      45.135  22.225  25.626  1.00  0.00    -0.165 SA
ATOM     14  C   UNL A   1      44.813  22.514  23.862  1.00  0.00     0.085 C 
ENDBRANCH  12  13
ENDBRANCH  11  12
ENDBRANCH  10  11
BRANCH  10  15
ATOM     15  N   UNL A   1      42.430  24.229  28.001  1.00  0.00    -0.325 N 
ATOM     16  C   UNL A   1      42.638  25.295  28.768  1.00  0.00     0.315 C 
ATOM     17  H   UNL A   1      43.125  23.563  28.208  1.00  0.00     0.166 HD
ATOM     18  O   UNL A   1      43.735  25.283  29.354  1.00  0.00    -0.249 OA
ATOM     19  N   UNL A   1      41.912  26.372  29.048  1.00  0.00    -0.335 N 
ATOM     20  H   UNL A   1      42.472  26.917  29.645  1.00  0.00     0.165 HD
BRANCH  19  21
ATOM     21  C   UNL A   1      40.627  27.156  28.877  1.00  0.00     0.089 C 
ATOM     22  C   UNL A   1      39.947  26.742  27.554  1.00  0.00     0.025 C 
ATOM     23  C   UNL A   1      40.735  28.685  28.964  1.00  0.00    -0.015 C 
ATOM     24  C   UNL A   1      40.731  27.207  26.332  1.00  0.00     0.002 C 
ATOM     25  C   UNL A   1      41.701  29.079  27.825  1.00  0.00     0.008 C 
ATOM     26  C   UNL A   1      39.456  29.516  28.715  1.00  0.00     0.013 C 
ATOM     27  C   UNL A   1      41.061  28.986  30.442  1.00  0.00     0.013 C 
ATOM     28  C   UNL A   1      41.195  28.663  26.423  1.00  0.00     0.001 C 
ENDBRANCH  19  21
ENDBRANCH  10  15
ENDBRANCH   8  10
ENDBRANCH   7   8
ENDBRANCH   6   7
ENDBRANCH   5   6
ENDBRANCH   4   5
ENDBRANCH   3   4
ENDBRANCH   2   3
ENDBRANCH   1   2
BRANCH   1  29
ATOM     29  C   UNL A   1      33.563  26.761  24.697  1.00  0.00     0.188 C 
BRANCH  29  30
ATOM     30  C   UNL A   1      33.090  27.075  26.126  1.00  0.00     0.188 C 
BRANCH  30  31
ATOM     31  O   UNL A   1      33.534  28.218  26.856  1.00  0.00    -0.376 OA
BRANCH  31  32
ATOM     32  C   UNL A   1      33.635  29.505  26.264  1.00  0.00     0.202 C 
BRANCH  32  33
ATOM     33  C   UNL A   1      33.295  30.709  27.135  1.00  0.00     0.261 C 
BRANCH  33  34
ATOM     34  O   UNL A   1      34.364  31.047  28.017  1.00  0.00    -0.460 OA
BRANCH  34  35
ATOM     35  C   UNL A   1      34.430  32.345  28.390  1.00  0.00     0.338 C 
ATOM     36  O   UNL A   1      33.711  33.263  28.031  1.00  0.00    -0.246 OA
BRANCH  35  37
ATOM     37  C   UNL A   1      35.399  32.429  29.495  1.00  0.00     0.060 A 
ATOM     38  C   UNL A   1      35.797  33.701  29.928  1.00  0.00     0.016 A 
ATOM     39  C   UNL A   1      35.825  31.275  30.159  1.00  0.00     0.016 A 
ATOM     40  C   UNL A   1      36.634  33.823  31.029  1.00  0.00     0.010 A 
ATOM     41  C   UNL A   1      36.697  31.394  31.235  1.00  0.00     0.010 A 
ATOM     42  C   UNL A   1      37.124  32.667  31.648  1.00  0.00    -0.014 A 
BRANCH  42  43
ATOM     43  C   UNL A   1      38.293  32.779  32.538  1.00  0.00     0.031 A 
ATOM     44  C   UNL A   1      39.645  32.769  31.886  1.00  0.00     0.074 A 
ATOM     45  C   UNL A   1      38.149  32.889  33.869  1.00  0.00     0.049 A 
ATOM     46  N   UNL A   1      40.827  32.830  32.432  1.00  0.00    -0.248 NA
ATOM     47  C   UNL A   1      39.662  32.675  30.414  1.00  0.00     0.031 C 
ATOM     48  C   UNL A   1      36.875  32.946  34.583  1.00  0.00     0.029 A 
ATOM     49  N   UNL A   1      39.096  32.967  34.855  1.00  0.00    -0.354 N 
ATOM     50  C   UNL A   1      41.727  32.780  31.375  1.00  0.00     0.074 A 
ATOM     51  C   UNL A   1      40.960  32.654  30.158  1.00  0.00     0.031 C 
ATOM     52  C   UNL A   1      37.121  33.036  35.902  1.00  0.00     0.029 A 
ATOM     53  C   UNL A   1      38.566  33.012  36.121  1.00  0.00     0.049 A 
ATOM     54  H   UNL A   1      40.063  32.988  34.673  1.00  0.00     0.167 HD
ATOM     55  C   UNL A   1      43.077  32.835  31.418  1.00  0.00     0.031 A 
ATOM     56  C   UNL A   1      39.190  33.013  37.315  1.00  0.00     0.031 A 
ATOM     57  C   UNL A   1      43.822  32.918  32.642  1.00  0.00     0.049 A 
ATOM     58  C   UNL A   1      40.698  32.995  37.342  1.00  0.00     0.074 A 
ATOM     59  C   UNL A   1      45.192  32.983  32.813  1.00  0.00     0.029 A 
ATOM     60  N   UNL A   1      43.255  32.933  33.908  1.00  0.00    -0.354 N 
ATOM     61  N   UNL A   1      41.541  32.987  36.335  1.00  0.00    -0.248 NA
ATOM     62  C   UNL A   1      41.338  32.997  38.663  1.00  0.00     0.031 C 
ATOM     63  C   UNL A   1      45.456  32.970  34.186  1.00  0.00     0.029 A 
ATOM     64  C   UNL A   1      44.248  32.973  34.869  1.00  0.00     0.049 A 
ATOM     65  H   UNL A   1      42.288  32.916  34.095  1.00  0.00     0.167 HD
ATOM     66  C   UNL A   1      42.812  33.012  36.901  1.00  0.00     0.074 A 
ATOM     67  C   UNL A   1      42.623  33.050  38.338  1.00  0.00     0.031 C 
ATOM     68  C   UNL A   1      44.025  33.008  36.294  1.00  0.00     0.031 A 
BRANCH  55  69
ATOM     69  C   UNL A   1      43.815  32.753  30.109  1.00  0.00    -0.014 A 
ATOM     70  C   UNL A   1      44.072  31.515  29.491  1.00  0.00     0.010 A 
ATOM     71  C   UNL A   1      44.253  33.934  29.485  1.00  0.00     0.010 A 
ATOM     72  C   UNL A   1      44.786  31.458  28.291  1.00  0.00     0.020 A 
ATOM     73  C   UNL A   1      44.940  33.883  28.269  1.00  0.00     0.020 A 
ATOM     74  C   UNL A   1      45.215  32.644  27.687  1.00  0.00     0.054 A 
BRANCH  74  75
ATOM     75  S   UNL A   1      46.112  32.542  26.115  1.00  0.00     0.124 S 
ATOM     76  O   UNL A   1      45.030  32.293  25.165  1.00  0.00    -0.237 OA
ATOM     77  O   UNL A   1      46.740  33.857  26.020  1.00  0.00    -0.237 OA
ATOM     78  O   UNL A   1      47.035  31.426  26.313  1.00  0.00    -0.744 OA
ENDBRANCH  74  75
ENDBRANCH  55  69
BRANCH  56  79
ATOM     79  C   UNL A   1      38.393  33.020  38.573  1.00  0.00    -0.014 A 
ATOM     80  C   UNL A   1      37.495  31.978  38.863  1.00  0.00     0.010 A 
ATOM     81  C   UNL A   1      38.535  34.073  39.497  1.00  0.00     0.010 A 
ATOM     82  C   UNL A   1      36.745  31.996  40.044  1.00  0.00     0.020 A 
ATOM     83  C   UNL A   1      37.808  34.080  40.691  1.00  0.00     0.020 A 
ATOM     84  C   UNL A   1      36.910  33.045  40.952  1.00  0.00     0.054 A 
BRANCH  84  85
ATOM     85  S   UNL A   1      35.963  33.016  42.501  1.00  0.00     0.124 S 
ATOM     86  O   UNL A   1      35.392  31.673  42.483  1.00  0.00    -0.237 OA
ATOM     87  O   UNL A   1      36.998  33.252  43.504  1.00  0.00    -0.237 OA
ATOM     88  O   UNL A   1      35.004  34.106  42.337  1.00  0.00    -0.744 OA
ENDBRANCH  84  85
ENDBRANCH  56  79
BRANCH  68  89
ATOM     89  C   UNL A   1      45.242  33.084  37.177  1.00  0.00    -0.014 A 
ATOM     90  C   UNL A   1      45.960  31.930  37.537  1.00  0.00     0.010 A 
ATOM     91  C   UNL A   1      45.712  34.343  37.594  1.00  0.00     0.010 A 
ATOM     92  C   UNL A   1      47.106  32.032  38.328  1.00  0.00     0.020 A 
ATOM     93  C   UNL A   1      46.877  34.452  38.355  1.00  0.00     0.020 A 
ATOM     94  C   UNL A   1      47.559  33.294  38.730  1.00  0.00     0.054 A 
BRANCH  94  95
ATOM     95  S   UNL A   1      49.075  33.402  39.718  1.00  0.00     0.124 S 
ATOM     96  O   UNL A   1      48.549  33.681  41.052  1.00  0.00    -0.237 OA
ATOM     97  O   UNL A   1      49.668  32.078  39.540  1.00  0.00    -0.237 OA
ATOM     98  O   UNL A   1      49.815  34.499  39.099  1.00  0.00    -0.744 OA
ENDBRANCH  94  95
ENDBRANCH  68  89
ENDBRANCH  42  43
ENDBRANCH  35  37
ENDBRANCH  34  35
ENDBRANCH  33  34
ENDBRANCH  32  33
ENDBRANCH  31  32
ENDBRANCH  30  31
ENDBRANCH  29  30
ENDBRANCH   1  29
TORSDOF 28
ENDMDL
