MODEL 1
REMARK VINA RESULT:      -9.8      0.000      0.000
REMARK SMILES O=C(OCCOCCOCCOCCOC(=O)[C@H]1CN(C(=O)N[C@H]2CCOC2)c2ccccc2O1)c1ccc(-c2c3nc(c(-c4ccc(S(=O)(=O)[O-])cc4)c4ccc([nH]4)c(-c4ccc(S(=O)(=O)[O-])cc4)c4nc(c(-c5ccc(S(=O)(=O)[O-])cc5)c5ccc2[nH]5)C=C4)C=C3)cc1
REMARK SMILES IDX 8 1 7 2 6 3 5 4 4 5 3 6 2 7 1 8 36 9 37 10 95 11 38 12 94 13
REMARK SMILES IDX 39 14 40 15 41 16 88 17 42 18 93 19 87 20 89 21 43 22 92 23
REMARK SMILES IDX 86 24 85 25 44 27 74 28 55 29 73 30 56 31 59 32 72 33 90 34
REMARK SMILES IDX 57 35 58 36 71 38 91 39 60 40 45 41 46 42 54 43 47 44 53 45
REMARK SMILES IDX 48 46 49 47 50 48 51 49 52 50 75 51 76 52 84 53 77 54 83 55
REMARK SMILES IDX 78 56 79 57 80 58 81 59 82 60 61 61 62 62 70 63 63 64 69 65
REMARK SMILES IDX 64 66 65 67 66 68 67 69 68 70 9 71 10 72 11 73 12 74 13 75
REMARK SMILES IDX 14 76 15 77 16 78 17 79 18 80 19 81 35 82 20 83 34 84 29 85
REMARK SMILES IDX 33 86 30 87 32 88 31 89 21 90 22 91 23 92 24 94 25 95 28 96
REMARK SMILES IDX 26 97 27 98
REMARK H PARENT 89 26 59 37 23 93
REMARK Flexibility Score: inf
ROOT
ATOM      1  C   UNL A   1      38.132  21.471  25.309  1.00  0.00     0.188 C 
ENDROOT
BRANCH   1   2
ATOM      2  C   UNL A   1      39.269  22.094  26.119  1.00  0.00     0.188 C 
BRANCH   2   3
ATOM      3  O   UNL A   1      40.101  21.117  26.755  1.00  0.00    -0.376 OA
BRANCH   3   4
ATOM      4  C   UNL A   1      41.474  21.474  26.934  1.00  0.00     0.202 C 
BRANCH   4   5
ATOM      5  C   UNL A   1      42.005  22.566  26.002  1.00  0.00     0.261 C 
BRANCH   5   6
ATOM      6  O   UNL A   1      42.496  23.712  26.705  1.00  0.00    -0.460 OA
BRANCH   6   7
ATOM      7  C   UNL A   1      42.235  25.019  26.456  1.00  0.00     0.338 C 
ATOM      8  O   UNL A   1      42.271  25.393  25.283  1.00  0.00    -0.246 OA
BRANCH   7   9
ATOM      9  C   UNL A   1      41.955  26.054  27.510  1.00  0.00     0.060 A 
ATOM     10  C   UNL A   1      42.707  27.205  27.754  1.00  0.00     0.016 A 
ATOM     11  C   UNL A   1      40.790  25.869  28.277  1.00  0.00     0.016 A 
ATOM     12  C   UNL A   1      42.351  28.130  28.718  1.00  0.00     0.010 A 
ATOM     13  C   UNL A   1      40.429  26.781  29.272  1.00  0.00     0.010 A 
ATOM     14  C   UNL A   1      41.233  27.899  29.505  1.00  0.00    -0.014 A 
BRANCH  14  15
ATOM     15  C   UNL A   1      41.119  28.713  30.720  1.00  0.00     0.031 A 
ATOM     16  C   UNL A   1      39.988  29.694  30.770  1.00  0.00     0.074 A 
ATOM     17  C   UNL A   1      41.879  28.434  31.791  1.00  0.00     0.049 A 
ATOM     18  N   UNL A   1      39.675  30.550  31.701  1.00  0.00    -0.248 NA
ATOM     19  C   UNL A   1      39.067  29.692  29.617  1.00  0.00     0.031 C 
ATOM     20  C   UNL A   1      42.871  27.357  31.865  1.00  0.00     0.029 A 
ATOM     21  N   UNL A   1      41.912  29.008  33.030  1.00  0.00    -0.354 N 
ATOM     22  C   UNL A   1      38.552  31.216  31.227  1.00  0.00     0.074 A 
ATOM     23  C   UNL A   1      38.228  30.664  29.934  1.00  0.00     0.031 C 
ATOM     24  C   UNL A   1      43.421  27.356  33.091  1.00  0.00     0.029 A 
ATOM     25  C   UNL A   1      42.871  28.470  33.854  1.00  0.00     0.049 A 
ATOM     26  H   UNL A   1      41.308  29.735  33.307  1.00  0.00     0.167 HD
ATOM     27  C   UNL A   1      37.870  32.219  31.823  1.00  0.00     0.031 A 
ATOM     28  C   UNL A   1      43.285  28.883  35.067  1.00  0.00     0.031 A 
ATOM     29  C   UNL A   1      38.249  32.750  33.101  1.00  0.00     0.049 A 
ATOM     30  C   UNL A   1      42.596  30.083  35.659  1.00  0.00     0.074 A 
ATOM     31  C   UNL A   1      37.705  33.813  33.794  1.00  0.00     0.029 A 
ATOM     32  N   UNL A   1      39.288  32.247  33.875  1.00  0.00    -0.354 N 
ATOM     33  N   UNL A   1      41.586  30.772  35.176  1.00  0.00    -0.248 NA
ATOM     34  C   UNL A   1      43.100  30.572  36.946  1.00  0.00     0.031 C 
ATOM     35  C   UNL A   1      38.460  33.991  34.959  1.00  0.00     0.029 A 
ATOM     36  C   UNL A   1      39.424  32.992  35.029  1.00  0.00     0.049 A 
ATOM     37  H   UNL A   1      39.846  31.471  33.636  1.00  0.00     0.167 HD
ATOM     38  C   UNL A   1      41.321  31.767  36.106  1.00  0.00     0.074 A 
ATOM     39  C   UNL A   1      42.268  31.576  37.190  1.00  0.00     0.031 C 
ATOM     40  C   UNL A   1      40.389  32.753  36.076  1.00  0.00     0.031 A 
BRANCH  27  41
ATOM     41  C   UNL A   1      36.755  32.851  31.034  1.00  0.00    -0.014 A 
ATOM     42  C   UNL A   1      37.002  33.782  30.008  1.00  0.00     0.010 A 
ATOM     43  C   UNL A   1      35.425  32.549  31.376  1.00  0.00     0.010 A 
ATOM     44  C   UNL A   1      35.939  34.436  29.376  1.00  0.00     0.020 A 
ATOM     45  C   UNL A   1      34.359  33.179  30.727  1.00  0.00     0.020 A 
ATOM     46  C   UNL A   1      34.624  34.135  29.746  1.00  0.00     0.054 A 
BRANCH  46  47
ATOM     47  S   UNL A   1      33.264  35.007  28.921  1.00  0.00     0.124 S 
ATOM     48  O   UNL A   1      33.959  36.134  28.304  1.00  0.00    -0.237 OA
ATOM     49  O   UNL A   1      32.756  33.999  27.994  1.00  0.00    -0.237 OA
ATOM     50  O   UNL A   1      32.361  35.357  30.015  1.00  0.00    -0.744 OA
ENDBRANCH  46  47
ENDBRANCH  27  41
BRANCH  28  51
ATOM     51  C   UNL A   1      44.441  28.219  35.730  1.00  0.00    -0.014 A 
ATOM     52  C   UNL A   1      44.270  27.102  36.565  1.00  0.00     0.010 A 
ATOM     53  C   UNL A   1      45.747  28.703  35.507  1.00  0.00     0.010 A 
ATOM     54  C   UNL A   1      45.377  26.491  37.171  1.00  0.00     0.020 A 
ATOM     55  C   UNL A   1      46.856  28.079  36.083  1.00  0.00     0.020 A 
ATOM     56  C   UNL A   1      46.662  26.981  36.922  1.00  0.00     0.054 A 
BRANCH  56  57
ATOM     57  S   UNL A   1      48.085  26.146  37.680  1.00  0.00     0.124 S 
ATOM     58  O   UNL A   1      47.474  24.940  38.228  1.00  0.00    -0.237 OA
ATOM     59  O   UNL A   1      48.975  25.944  36.540  1.00  0.00    -0.237 OA
ATOM     60  O   UNL A   1      48.562  27.112  38.669  1.00  0.00    -0.744 OA
ENDBRANCH  56  57
ENDBRANCH  28  51
BRANCH  40  61
ATOM     61  C   UNL A   1      40.328  33.668  37.265  1.00  0.00    -0.014 A 
ATOM     62  C   UNL A   1      41.071  34.860  37.306  1.00  0.00     0.010 A 
ATOM     63  C   UNL A   1      39.444  33.363  38.317  1.00  0.00     0.010 A 
ATOM     64  C   UNL A   1      40.948  35.723  38.395  1.00  0.00     0.020 A 
ATOM     65  C   UNL A   1      39.295  34.241  39.390  1.00  0.00     0.020 A 
ATOM     66  C   UNL A   1      40.056  35.409  39.427  1.00  0.00     0.054 A 
BRANCH  66  67
ATOM     67  S   UNL A   1      39.867  36.579  40.797  1.00  0.00     0.124 S 
ATOM     68  O   UNL A   1      38.597  37.222  40.475  1.00  0.00    -0.237 OA
ATOM     69  O   UNL A   1      39.852  35.702  41.965  1.00  0.00    -0.237 OA
ATOM     70  O   UNL A   1      41.046  37.436  40.685  1.00  0.00    -0.744 OA
ENDBRANCH  66  67
ENDBRANCH  40  61
ENDBRANCH  14  15
ENDBRANCH   7   9
ENDBRANCH   6   7
ENDBRANCH   5   6
ENDBRANCH   4   5
ENDBRANCH   3   4
ENDBRANCH   2   3
ENDBRANCH   1   2
BRANCH   1  71
ATOM     71  O   UNL A   1      36.820  21.836  25.721  1.00  0.00    -0.377 OA
BRANCH  71  72
ATOM     72  C   UNL A   1      35.767  21.488  24.833  1.00  0.00     0.188 C 
BRANCH  72  73
ATOM     73  C   UNL A   1      34.833  22.602  24.309  1.00  0.00     0.188 C 
BRANCH  73  74
ATOM     74  O   UNL A   1      33.460  22.343  24.520  1.00  0.00    -0.376 OA
BRANCH  74  75
ATOM     75  C   UNL A   1      33.138  21.770  25.782  1.00  0.00     0.202 C 
BRANCH  75  76
ATOM     76  C   UNL A   1      33.193  22.682  27.024  1.00  0.00     0.261 C 
BRANCH  76  77
ATOM     77  O   UNL A   1      31.929  23.110  27.584  1.00  0.00    -0.460 OA
BRANCH  77  78
ATOM     78  C   UNL A   1      31.132  23.975  26.912  1.00  0.00     0.349 C 
ATOM     79  O   UNL A   1      29.922  23.819  26.761  1.00  0.00    -0.248 OA
BRANCH  78  80
ATOM     80  C   UNL A   1      31.882  25.256  26.475  1.00  0.00     0.302 C 
ATOM     81  C   UNL A   1      31.626  25.425  24.979  1.00  0.00     0.185 C 
ATOM     82  O   UNL A   1      31.497  26.407  27.220  1.00  0.00    -0.475 OA
ATOM     83  N   UNL A   1      32.134  26.653  24.388  1.00  0.00    -0.286 N 
ATOM     84  C   UNL A   1      31.859  27.601  26.648  1.00  0.00     0.144 A 
ATOM     85  C   UNL A   1      32.219  27.769  25.296  1.00  0.00     0.088 A 
ATOM     86  C   UNL A   1      31.810  28.693  27.527  1.00  0.00     0.049 A 
ATOM     87  C   UNL A   1      32.583  29.061  24.884  1.00  0.00     0.030 A 
ATOM     88  C   UNL A   1      32.181  29.962  27.095  1.00  0.00     0.004 A 
ATOM     89  C   UNL A   1      32.581  30.143  25.776  1.00  0.00     0.002 A 
BRANCH  83  90
ATOM     90  C   UNL A   1      32.548  26.699  23.072  1.00  0.00     0.322 C 
ATOM     91  O   UNL A   1      33.686  26.415  22.690  1.00  0.00    -0.248 OA
ATOM     92  N   UNL A   1      31.683  27.041  22.077  1.00  0.00    -0.333 N 
ATOM     93  H   UNL A   1      31.936  26.662  21.204  1.00  0.00     0.165 HD
BRANCH  92  94
ATOM     94  C   UNL A   1      30.458  27.847  22.014  1.00  0.00     0.112 C 
ATOM     95  C   UNL A   1      29.494  27.467  23.132  1.00  0.00     0.056 C 
ATOM     96  C   UNL A   1      30.634  29.344  22.291  1.00  0.00     0.185 C 
ATOM     97  C   UNL A   1      28.617  28.692  23.247  1.00  0.00     0.162 C 
ATOM     98  O   UNL A   1      29.475  29.807  22.997  1.00  0.00    -0.379 OA
ENDBRANCH  92  94
ENDBRANCH  83  90
ENDBRANCH  78  80
ENDBRANCH  77  78
ENDBRANCH  76  77
ENDBRANCH  75  76
ENDBRANCH  74  75
ENDBRANCH  73  74
ENDBRANCH  72  73
ENDBRANCH  71  72
ENDBRANCH   1  71
TORSDOF 25
ENDMDL
MODEL 2
REMARK VINA RESULT:      -9.7      1.015      2.158
REMARK SMILES O=C(OCCOCCOCCOCCOC(=O)[C@H]1CN(C(=O)N[C@H]2CCOC2)c2ccccc2O1)c1ccc(-c2c3nc(c(-c4ccc(S(=O)(=O)[O-])cc4)c4ccc([nH]4)c(-c4ccc(S(=O)(=O)[O-])cc4)c4nc(c(-c5ccc(S(=O)(=O)[O-])cc5)c5ccc2[nH]5)C=C4)C=C3)cc1
REMARK SMILES IDX 8 1 7 2 6 3 5 4 4 5 3 6 2 7 1 8 36 9 37 10 95 11 38 12 94 13
REMARK SMILES IDX 39 14 40 15 41 16 88 17 42 18 93 19 87 20 89 21 43 22 92 23
REMARK SMILES IDX 86 24 85 25 44 27 74 28 55 29 73 30 56 31 59 32 72 33 90 34
REMARK SMILES IDX 57 35 58 36 71 38 91 39 60 40 45 41 46 42 54 43 47 44 53 45
REMARK SMILES IDX 48 46 49 47 50 48 51 49 52 50 75 51 76 52 84 53 77 54 83 55
REMARK SMILES IDX 78 56 79 57 80 58 81 59 82 60 61 61 62 62 70 63 63 64 69 65
REMARK SMILES IDX 64 66 65 67 66 68 67 69 68 70 9 71 10 72 11 73 12 74 13 75
REMARK SMILES IDX 14 76 15 77 16 78 17 79 18 80 19 81 35 82 20 83 34 84 29 85
REMARK SMILES IDX 33 86 30 87 32 88 31 89 21 90 22 91 23 92 24 94 25 95 28 96
REMARK SMILES IDX 26 97 27 98
REMARK H PARENT 89 26 59 37 23 93
REMARK Flexibility Score: inf
ROOT
ATOM      1  C   UNL A   1      37.206  21.990  25.098  1.00  0.00     0.188 C 
ENDROOT
BRANCH   1   2
ATOM      2  C   UNL A   1      38.556  22.232  25.773  1.00  0.00     0.188 C 
BRANCH   2   3
ATOM      3  O   UNL A   1      39.280  21.022  26.022  1.00  0.00    -0.376 OA
BRANCH   3   4
ATOM      4  C   UNL A   1      40.558  21.165  26.647  1.00  0.00     0.202 C 
BRANCH   4   5
ATOM      5  C   UNL A   1      41.390  22.367  26.195  1.00  0.00     0.261 C 
BRANCH   5   6
ATOM      6  O   UNL A   1      41.403  23.431  27.152  1.00  0.00    -0.460 OA
BRANCH   6   7
ATOM      7  C   UNL A   1      41.832  24.705  26.978  1.00  0.00     0.338 C 
ATOM      8  O   UNL A   1      42.486  24.951  25.964  1.00  0.00    -0.246 OA
BRANCH   7   9
ATOM      9  C   UNL A   1      41.611  25.825  27.956  1.00  0.00     0.060 A 
ATOM     10  C   UNL A   1      42.477  26.895  28.191  1.00  0.00     0.016 A 
ATOM     11  C   UNL A   1      40.387  25.821  28.649  1.00  0.00     0.016 A 
ATOM     12  C   UNL A   1      42.173  27.911  29.079  1.00  0.00     0.010 A 
ATOM     13  C   UNL A   1      40.074  26.826  29.569  1.00  0.00     0.010 A 
ATOM     14  C   UNL A   1      40.989  27.857  29.798  1.00  0.00    -0.014 A 
BRANCH  14  15
ATOM     15  C   UNL A   1      40.896  28.749  30.958  1.00  0.00     0.031 A 
ATOM     16  C   UNL A   1      39.798  29.767  30.939  1.00  0.00     0.074 A 
ATOM     17  C   UNL A   1      41.641  28.513  32.050  1.00  0.00     0.049 A 
ATOM     18  N   UNL A   1      39.510  30.690  31.812  1.00  0.00    -0.248 NA
ATOM     19  C   UNL A   1      38.883  29.723  29.782  1.00  0.00     0.031 C 
ATOM     20  C   UNL A   1      42.597  27.412  32.198  1.00  0.00     0.029 A 
ATOM     21  N   UNL A   1      41.688  29.163  33.251  1.00  0.00    -0.354 N 
ATOM     22  C   UNL A   1      38.411  31.362  31.289  1.00  0.00     0.074 A 
ATOM     23  C   UNL A   1      38.075  30.740  30.032  1.00  0.00     0.031 C 
ATOM     24  C   UNL A   1      43.141  27.470  33.425  1.00  0.00     0.029 A 
ATOM     25  C   UNL A   1      42.625  28.647  34.114  1.00  0.00     0.049 A 
ATOM     26  H   UNL A   1      41.107  29.925  33.477  1.00  0.00     0.167 HD
ATOM     27  C   UNL A   1      37.759  32.421  31.816  1.00  0.00     0.031 A 
ATOM     28  C   UNL A   1      43.046  29.122  35.301  1.00  0.00     0.031 A 
ATOM     29  C   UNL A   1      38.150  33.020  33.061  1.00  0.00     0.049 A 
ATOM     30  C   UNL A   1      42.395  30.379  35.812  1.00  0.00     0.074 A 
ATOM     31  C   UNL A   1      37.639  34.141  33.682  1.00  0.00     0.029 A 
ATOM     32  N   UNL A   1      39.169  32.532  33.873  1.00  0.00    -0.354 N 
ATOM     33  N   UNL A   1      41.410  31.069  35.279  1.00  0.00    -0.248 NA
ATOM     34  C   UNL A   1      42.909  30.931  37.069  1.00  0.00     0.031 C 
ATOM     35  C   UNL A   1      38.393  34.368  34.839  1.00  0.00     0.029 A 
ATOM     36  C   UNL A   1      39.323  33.344  34.978  1.00  0.00     0.049 A 
ATOM     37  H   UNL A   1      39.702  31.726  33.686  1.00  0.00     0.167 HD
ATOM     38  C   UNL A   1      41.174  32.129  36.143  1.00  0.00     0.074 A 
ATOM     39  C   UNL A   1      42.109  31.975  37.244  1.00  0.00     0.031 C 
ATOM     40  C   UNL A   1      40.275  33.140  36.044  1.00  0.00     0.031 A 
BRANCH  27  41
ATOM     41  C   UNL A   1      36.670  33.039  30.982  1.00  0.00    -0.014 A 
ATOM     42  C   UNL A   1      35.308  32.786  31.229  1.00  0.00     0.010 A 
ATOM     43  C   UNL A   1      37.028  33.842  29.884  1.00  0.00     0.010 A 
ATOM     44  C   UNL A   1      34.329  33.283  30.362  1.00  0.00     0.020 A 
ATOM     45  C   UNL A   1      36.050  34.365  29.033  1.00  0.00     0.020 A 
ATOM     46  C   UNL A   1      34.709  34.063  29.265  1.00  0.00     0.054 A 
BRANCH  46  47
ATOM     47  S   UNL A   1      33.421  34.684  28.148  1.00  0.00     0.124 S 
ATOM     48  O   UNL A   1      32.770  35.699  28.974  1.00  0.00    -0.237 OA
ATOM     49  O   UNL A   1      34.196  35.196  27.021  1.00  0.00    -0.237 OA
ATOM     50  O   UNL A   1      32.610  33.504  27.860  1.00  0.00    -0.744 OA
ENDBRANCH  46  47
ENDBRANCH  27  41
BRANCH  28  51
ATOM     51  C   UNL A   1      44.177  28.463  36.012  1.00  0.00    -0.014 A 
ATOM     52  C   UNL A   1      45.510  28.843  35.786  1.00  0.00     0.010 A 
ATOM     53  C   UNL A   1      43.913  27.445  36.951  1.00  0.00     0.010 A 
ATOM     54  C   UNL A   1      46.555  28.211  36.475  1.00  0.00     0.020 A 
ATOM     55  C   UNL A   1      44.948  26.834  37.663  1.00  0.00     0.020 A 
ATOM     56  C   UNL A   1      46.266  27.215  37.412  1.00  0.00     0.054 A 
BRANCH  56  57
ATOM     57  S   UNL A   1      47.632  26.443  38.326  1.00  0.00     0.124 S 
ATOM     58  O   UNL A   1      47.431  26.966  39.673  1.00  0.00    -0.237 OA
ATOM     59  O   UNL A   1      47.361  25.018  38.153  1.00  0.00    -0.237 OA
ATOM     60  O   UNL A   1      48.825  26.931  37.636  1.00  0.00    -0.744 OA
ENDBRANCH  56  57
ENDBRANCH  28  51
BRANCH  40  61
ATOM     61  C   UNL A   1      40.239  34.130  37.173  1.00  0.00    -0.014 A 
ATOM     62  C   UNL A   1      40.992  35.316  37.127  1.00  0.00     0.010 A 
ATOM     63  C   UNL A   1      39.368  33.901  38.255  1.00  0.00     0.010 A 
ATOM     64  C   UNL A   1      40.891  36.248  38.160  1.00  0.00     0.020 A 
ATOM     65  C   UNL A   1      39.242  34.847  39.272  1.00  0.00     0.020 A 
ATOM     66  C   UNL A   1      40.013  36.009  39.222  1.00  0.00     0.054 A 
BRANCH  66  67
ATOM     67  S   UNL A   1      39.853  37.266  40.518  1.00  0.00     0.124 S 
ATOM     68  O   UNL A   1      38.458  37.672  40.375  1.00  0.00    -0.237 OA
ATOM     69  O   UNL A   1      40.171  36.516  41.731  1.00  0.00    -0.237 OA
ATOM     70  O   UNL A   1      40.839  38.277  40.142  1.00  0.00    -0.744 OA
ENDBRANCH  66  67
ENDBRANCH  40  61
ENDBRANCH  14  15
ENDBRANCH   7   9
ENDBRANCH   6   7
ENDBRANCH   5   6
ENDBRANCH   4   5
ENDBRANCH   3   4
ENDBRANCH   2   3
ENDBRANCH   1   2
BRANCH   1  71
ATOM     71  O   UNL A   1      36.285  21.203  25.844  1.00  0.00    -0.377 OA
BRANCH  71  72
ATOM     72  C   UNL A   1      35.104  20.807  25.160  1.00  0.00     0.188 C 
BRANCH  72  73
ATOM     73  C   UNL A   1      34.149  21.898  24.626  1.00  0.00     0.188 C 
BRANCH  73  74
ATOM     74  O   UNL A   1      32.941  22.004  25.351  1.00  0.00    -0.376 OA
BRANCH  74  75
ATOM     75  C   UNL A   1      32.973  22.899  26.456  1.00  0.00     0.202 C 
BRANCH  75  76
ATOM     76  C   UNL A   1      31.874  23.978  26.543  1.00  0.00     0.261 C 
BRANCH  76  77
ATOM     77  O   UNL A   1      30.775  23.876  25.608  1.00  0.00    -0.460 OA
BRANCH  77  78
ATOM     78  C   UNL A   1      30.883  24.380  24.354  1.00  0.00     0.349 C 
ATOM     79  O   UNL A   1      31.035  23.690  23.348  1.00  0.00    -0.248 OA
BRANCH  78  80
ATOM     80  C   UNL A   1      30.654  25.910  24.308  1.00  0.00     0.302 C 
ATOM     81  C   UNL A   1      31.809  26.502  23.501  1.00  0.00     0.185 C 
ATOM     82  O   UNL A   1      29.384  26.265  23.769  1.00  0.00    -0.475 OA
ATOM     83  N   UNL A   1      31.714  27.925  23.220  1.00  0.00    -0.286 N 
ATOM     84  C   UNL A   1      29.278  27.578  23.383  1.00  0.00     0.144 A 
ATOM     85  C   UNL A   1      30.369  28.437  23.148  1.00  0.00     0.088 A 
ATOM     86  C   UNL A   1      27.958  28.013  23.199  1.00  0.00     0.049 A 
ATOM     87  C   UNL A   1      30.076  29.761  22.779  1.00  0.00     0.030 A 
ATOM     88  C   UNL A   1      27.694  29.331  22.839  1.00  0.00     0.004 A 
ATOM     89  C   UNL A   1      28.754  30.208  22.643  1.00  0.00     0.002 A 
BRANCH  83  90
ATOM     90  C   UNL A   1      32.844  28.707  23.091  1.00  0.00     0.322 C 
ATOM     91  O   UNL A   1      33.497  28.820  22.051  1.00  0.00    -0.248 OA
ATOM     92  N   UNL A   1      33.301  29.455  24.134  1.00  0.00    -0.333 N 
ATOM     93  H   UNL A   1      33.818  30.242  23.842  1.00  0.00     0.165 HD
BRANCH  92  94
ATOM     94  C   UNL A   1      33.198  29.352  25.594  1.00  0.00     0.112 C 
ATOM     95  C   UNL A   1      31.763  29.574  26.059  1.00  0.00     0.056 C 
ATOM     96  C   UNL A   1      33.472  27.964  26.182  1.00  0.00     0.185 C 
ATOM     97  C   UNL A   1      31.746  28.913  27.417  1.00  0.00     0.162 C 
ATOM     98  O   UNL A   1      32.599  27.773  27.304  1.00  0.00    -0.379 OA
ENDBRANCH  92  94
ENDBRANCH  83  90
ENDBRANCH  78  80
ENDBRANCH  77  78
ENDBRANCH  76  77
ENDBRANCH  75  76
ENDBRANCH  74  75
ENDBRANCH  73  74
ENDBRANCH  72  73
ENDBRANCH  71  72
ENDBRANCH   1  71
TORSDOF 25
ENDMDL
MODEL 3
REMARK VINA RESULT:      -8.8      5.505      7.825
REMARK SMILES O=C(OCCOCCOCCOCCOC(=O)[C@H]1CN(C(=O)N[C@H]2CCOC2)c2ccccc2O1)c1ccc(-c2c3nc(c(-c4ccc(S(=O)(=O)[O-])cc4)c4ccc([nH]4)c(-c4ccc(S(=O)(=O)[O-])cc4)c4nc(c(-c5ccc(S(=O)(=O)[O-])cc5)c5ccc2[nH]5)C=C4)C=C3)cc1
REMARK SMILES IDX 8 1 7 2 6 3 5 4 4 5 3 6 2 7 1 8 36 9 37 10 95 11 38 12 94 13
REMARK SMILES IDX 39 14 40 15 41 16 88 17 42 18 93 19 87 20 89 21 43 22 92 23
REMARK SMILES IDX 86 24 85 25 44 27 74 28 55 29 73 30 56 31 59 32 72 33 90 34
REMARK SMILES IDX 57 35 58 36 71 38 91 39 60 40 45 41 46 42 54 43 47 44 53 45
REMARK SMILES IDX 48 46 49 47 50 48 51 49 52 50 75 51 76 52 84 53 77 54 83 55
REMARK SMILES IDX 78 56 79 57 80 58 81 59 82 60 61 61 62 62 70 63 63 64 69 65
REMARK SMILES IDX 64 66 65 67 66 68 67 69 68 70 9 71 10 72 11 73 12 74 13 75
REMARK SMILES IDX 14 76 15 77 16 78 17 79 18 80 19 81 35 82 20 83 34 84 29 85
REMARK SMILES IDX 33 86 30 87 32 88 31 89 21 90 22 91 23 92 24 94 25 95 28 96
REMARK SMILES IDX 26 97 27 98
REMARK H PARENT 89 26 59 37 23 93
REMARK Flexibility Score: inf
ROOT
ATOM      1  C   UNL A   1      36.670  22.668  25.685  1.00  0.00     0.188 C 
ENDROOT
BRANCH   1   2
ATOM      2  C   UNL A   1      36.883  21.277  25.086  1.00  0.00     0.188 C 
BRANCH   2   3
ATOM      3  O   UNL A   1      38.245  20.843  25.155  1.00  0.00    -0.376 OA
BRANCH   3   4
ATOM      4  C   UNL A   1      38.463  19.430  25.129  1.00  0.00     0.202 C 
BRANCH   4   5
ATOM      5  C   UNL A   1      39.813  18.955  25.671  1.00  0.00     0.261 C 
BRANCH   5   6
ATOM      6  O   UNL A   1      40.847  19.935  25.538  1.00  0.00    -0.460 OA
BRANCH   6   7
ATOM      7  C   UNL A   1      41.779  20.294  26.455  1.00  0.00     0.338 C 
ATOM      8  O   UNL A   1      42.290  19.397  27.127  1.00  0.00    -0.246 OA
BRANCH   7   9
ATOM      9  C   UNL A   1      42.198  21.708  26.744  1.00  0.00     0.060 A 
ATOM     10  C   UNL A   1      42.189  22.771  25.838  1.00  0.00     0.016 A 
ATOM     11  C   UNL A   1      42.573  21.993  28.070  1.00  0.00     0.016 A 
ATOM     12  C   UNL A   1      42.549  24.055  26.202  1.00  0.00     0.010 A 
ATOM     13  C   UNL A   1      42.963  23.280  28.449  1.00  0.00     0.010 A 
ATOM     14  C   UNL A   1      42.975  24.304  27.498  1.00  0.00    -0.014 A 
BRANCH  14  15
ATOM     15  C   UNL A   1      43.670  25.576  27.717  1.00  0.00     0.031 A 
ATOM     16  C   UNL A   1      42.867  26.688  28.318  1.00  0.00     0.074 A 
ATOM     17  C   UNL A   1      45.002  25.650  27.565  1.00  0.00     0.049 A 
ATOM     18  N   UNL A   1      43.220  27.913  28.587  1.00  0.00    -0.248 NA
ATOM     19  C   UNL A   1      41.474  26.367  28.687  1.00  0.00     0.031 C 
ATOM     20  C   UNL A   1      45.869  24.538  27.164  1.00  0.00     0.029 A 
ATOM     21  N   UNL A   1      45.861  26.693  27.760  1.00  0.00    -0.354 N 
ATOM     22  C   UNL A   1      42.085  28.517  29.114  1.00  0.00     0.074 A 
ATOM     23  C   UNL A   1      41.034  27.530  29.138  1.00  0.00     0.031 C 
ATOM     24  C   UNL A   1      47.142  24.966  27.138  1.00  0.00     0.029 A 
ATOM     25  C   UNL A   1      47.166  26.391  27.450  1.00  0.00     0.049 A 
ATOM     26  H   UNL A   1      45.576  27.575  28.092  1.00  0.00     0.167 HD
ATOM     27  C   UNL A   1      41.941  29.797  29.521  1.00  0.00     0.031 A 
ATOM     28  C   UNL A   1      48.237  27.202  27.375  1.00  0.00     0.031 A 
ATOM     29  C   UNL A   1      43.013  30.749  29.453  1.00  0.00     0.049 A 
ATOM     30  C   UNL A   1      48.026  28.655  27.710  1.00  0.00     0.074 A 
ATOM     31  C   UNL A   1      42.997  32.096  29.754  1.00  0.00     0.029 A 
ATOM     32  N   UNL A   1      44.305  30.437  29.043  1.00  0.00    -0.354 N 
ATOM     33  N   UNL A   1      46.932  29.251  28.129  1.00  0.00    -0.248 NA
ATOM     34  C   UNL A   1      49.179  29.547  27.556  1.00  0.00     0.031 C 
ATOM     35  C   UNL A   1      44.266  32.611  29.464  1.00  0.00     0.029 A 
ATOM     36  C   UNL A   1      45.092  31.571  29.055  1.00  0.00     0.049 A 
ATOM     37  H   UNL A   1      44.613  29.539  28.783  1.00  0.00     0.167 HD
ATOM     38  C   UNL A   1      47.266  30.586  28.303  1.00  0.00     0.074 A 
ATOM     39  C   UNL A   1      48.673  30.704  27.963  1.00  0.00     0.031 C 
ATOM     40  C   UNL A   1      46.492  31.626  28.704  1.00  0.00     0.031 A 
BRANCH  27  41
ATOM     41  C   UNL A   1      40.562  30.230  29.940  1.00  0.00    -0.014 A 
ATOM     42  C   UNL A   1      39.549  30.502  29.003  1.00  0.00     0.010 A 
ATOM     43  C   UNL A   1      40.299  30.430  31.308  1.00  0.00     0.010 A 
ATOM     44  C   UNL A   1      38.316  31.015  29.424  1.00  0.00     0.020 A 
ATOM     45  C   UNL A   1      39.059  30.914  31.734  1.00  0.00     0.020 A 
ATOM     46  C   UNL A   1      38.084  31.224  30.787  1.00  0.00     0.054 A 
BRANCH  46  47
ATOM     47  S   UNL A   1      36.483  31.902  31.305  1.00  0.00     0.124 S 
ATOM     48  O   UNL A   1      35.844  32.181  30.021  1.00  0.00    -0.237 OA
ATOM     49  O   UNL A   1      35.902  30.799  32.068  1.00  0.00    -0.237 OA
ATOM     50  O   UNL A   1      36.841  33.080  32.090  1.00  0.00    -0.744 OA
ENDBRANCH  46  47
ENDBRANCH  27  41
BRANCH  28  51
ATOM     51  C   UNL A   1      49.542  26.677  26.887  1.00  0.00    -0.014 A 
ATOM     52  C   UNL A   1      50.502  26.156  27.770  1.00  0.00     0.010 A 
ATOM     53  C   UNL A   1      49.825  26.681  25.506  1.00  0.00     0.010 A 
ATOM     54  C   UNL A   1      51.720  25.661  27.284  1.00  0.00     0.020 A 
ATOM     55  C   UNL A   1      51.024  26.160  25.013  1.00  0.00     0.020 A 
ATOM     56  C   UNL A   1      51.970  25.662  25.908  1.00  0.00     0.054 A 
BRANCH  56  57
ATOM     57  S   UNL A   1      53.535  24.974  25.296  1.00  0.00     0.124 S 
ATOM     58  O   UNL A   1      53.202  23.564  25.128  1.00  0.00    -0.237 OA
ATOM     59  O   UNL A   1      53.749  25.727  24.063  1.00  0.00    -0.237 OA
ATOM     60  O   UNL A   1      54.483  25.269  26.370  1.00  0.00    -0.744 OA
ENDBRANCH  56  57
ENDBRANCH  28  51
BRANCH  40  61
ATOM     61  C   UNL A   1      47.162  32.964  28.830  1.00  0.00    -0.014 A 
ATOM     62  C   UNL A   1      47.862  33.321  29.995  1.00  0.00     0.010 A 
ATOM     63  C   UNL A   1      47.156  33.838  27.727  1.00  0.00     0.010 A 
ATOM     64  C   UNL A   1      48.529  34.544  30.062  1.00  0.00     0.020 A 
ATOM     65  C   UNL A   1      47.850  35.046  27.780  1.00  0.00     0.020 A 
ATOM     66  C   UNL A   1      48.522  35.396  28.952  1.00  0.00     0.054 A 
BRANCH  66  67
ATOM     67  S   UNL A   1      49.450  36.950  29.043  1.00  0.00     0.124 S 
ATOM     68  O   UNL A   1      50.801  36.479  29.334  1.00  0.00    -0.237 OA
ATOM     69  O   UNL A   1      49.254  37.517  27.711  1.00  0.00    -0.237 OA
ATOM     70  O   UNL A   1      48.796  37.680  30.126  1.00  0.00    -0.744 OA
ENDBRANCH  66  67
ENDBRANCH  40  61
ENDBRANCH  14  15
ENDBRANCH   7   9
ENDBRANCH   6   7
ENDBRANCH   5   6
ENDBRANCH   4   5
ENDBRANCH   3   4
ENDBRANCH   2   3
ENDBRANCH   1   2
BRANCH   1  71
ATOM     71  O   UNL A   1      35.322  22.991  26.008  1.00  0.00    -0.377 OA
BRANCH  71  72
ATOM     72  C   UNL A   1      34.553  21.949  26.592  1.00  0.00     0.188 C 
BRANCH  72  73
ATOM     73  C   UNL A   1      33.114  21.707  26.083  1.00  0.00     0.188 C 
BRANCH  73  74
ATOM     74  O   UNL A   1      33.053  21.074  24.821  1.00  0.00    -0.376 OA
BRANCH  74  75
ATOM     75  C   UNL A   1      32.246  21.731  23.850  1.00  0.00     0.202 C 
BRANCH  75  76
ATOM     76  C   UNL A   1      32.955  22.398  22.654  1.00  0.00     0.261 C 
BRANCH  76  77
ATOM     77  O   UNL A   1      33.319  23.792  22.797  1.00  0.00    -0.460 OA
BRANCH  77  78
ATOM     78  C   UNL A   1      32.908  24.710  21.889  1.00  0.00     0.349 C 
ATOM     79  O   UNL A   1      33.289  24.740  20.721  1.00  0.00    -0.248 OA
BRANCH  78  80
ATOM     80  C   UNL A   1      31.798  25.635  22.443  1.00  0.00     0.302 C 
ATOM     81  C   UNL A   1      32.006  25.714  23.955  1.00  0.00     0.185 C 
ATOM     82  O   UNL A   1      31.791  26.922  21.834  1.00  0.00    -0.475 OA
ATOM     83  N   UNL A   1      31.144  26.647  24.660  1.00  0.00    -0.286 N 
ATOM     84  C   UNL A   1      31.079  27.873  22.521  1.00  0.00     0.144 A 
ATOM     85  C   UNL A   1      30.701  27.771  23.875  1.00  0.00     0.088 A 
ATOM     86  C   UNL A   1      30.771  29.013  21.765  1.00  0.00     0.049 A 
ATOM     87  C   UNL A   1      29.953  28.831  24.414  1.00  0.00     0.030 A 
ATOM     88  C   UNL A   1      30.024  30.047  22.321  1.00  0.00     0.004 A 
ATOM     89  C   UNL A   1      29.604  29.948  23.642  1.00  0.00     0.002 A 
BRANCH  83  90
ATOM     90  C   UNL A   1      30.753  26.419  25.964  1.00  0.00     0.322 C 
ATOM     91  O   UNL A   1      29.728  25.813  26.287  1.00  0.00    -0.248 OA
ATOM     92  N   UNL A   1      31.521  26.834  27.010  1.00  0.00    -0.333 N 
ATOM     93  H   UNL A   1      31.384  26.294  27.822  1.00  0.00     0.165 HD
BRANCH  92  94
ATOM     94  C   UNL A   1      32.506  27.906  27.197  1.00  0.00     0.112 C 
ATOM     95  C   UNL A   1      33.501  27.943  26.043  1.00  0.00     0.056 C 
ATOM     96  C   UNL A   1      31.953  29.333  27.138  1.00  0.00     0.185 C 
ATOM     97  C   UNL A   1      34.039  29.353  26.112  1.00  0.00     0.162 C 
ATOM     98  O   UNL A   1      32.938  30.169  26.514  1.00  0.00    -0.379 OA
ENDBRANCH  92  94
ENDBRANCH  83  90
ENDBRANCH  78  80
ENDBRANCH  77  78
ENDBRANCH  76  77
ENDBRANCH  75  76
ENDBRANCH  74  75
ENDBRANCH  73  74
ENDBRANCH  72  73
ENDBRANCH  71  72
ENDBRANCH   1  71
TORSDOF 25
ENDMDL
