MODEL 1
REMARK VINA RESULT:      -9.2      0.000      0.000
REMARK SMILES C[C@@H]1CN(C(=O)Nc2ccc(O)c(C(=O)OCCOCCOCCOCCOC(=O)c3ccc(-c4c5nc(c(-c6ccc(S(=O)(=O)[O-])cc6)c6ccc([nH]6)c(-c6ccc(S(=O)(=O)[O-])cc6)c6nc(c(-c7ccc(S(=O)(=O)[O-])cc7)c7ccc4[nH]7)C=C6)C=C5)cc3)c2)C[C@@H]1C
REMARK SMILES IDX 23 1 22 2 21 3 20 4 19 5 18 6 17 7 16 8 14 9 15 10 13 11
REMARK SMILES IDX 8 12 9 13 91 14 10 15 11 16 7 17 5 18 6 19 4 21 1 22 2 23
REMARK SMILES IDX 3 24 93 25 92 26 94 27 12 28 24 30 25 31 26 32 27 33 28 34
REMARK SMILES IDX 29 35 30 36 31 37 32 38 90 39 33 40 89 41 34 42 35 43 36 44
REMARK SMILES IDX 83 45 37 46 88 47 82 48 84 49 38 50 87 51 81 52 80 53 39 55
REMARK SMILES IDX 69 56 50 57 68 58 51 59 54 60 67 61 85 62 52 63 53 64 66 66
REMARK SMILES IDX 86 67 55 68 40 69 41 70 49 71 42 72 48 73 43 74 44 75 45 76
REMARK SMILES IDX 46 77 47 78 70 79 71 80 79 81 72 82 78 83 73 84 74 85 75 86
REMARK SMILES IDX 76 87 77 88 56 89 57 90 65 91 58 92 64 93 59 94 60 95 61 96
REMARK SMILES IDX 62 97 63 98
REMARK H PARENT 7 20 12 29 84 54 54 65
REMARK Flexibility Score: inf
ROOT
ATOM      1  C   UNL A   1      44.039  22.235  24.993  1.00  0.00     0.188 C 
ENDROOT
BRANCH   1   2
ATOM      2  O   UNL A   1      43.218  22.178  26.155  1.00  0.00    -0.377 OA
BRANCH   2   3
ATOM      3  C   UNL A   1      42.407  23.295  26.497  1.00  0.00     0.188 C 
BRANCH   3   4
ATOM      4  C   UNL A   1      40.877  23.142  26.669  1.00  0.00     0.188 C 
BRANCH   4   5
ATOM      5  O   UNL A   1      40.399  21.820  26.509  1.00  0.00    -0.376 OA
BRANCH   5   6
ATOM      6  C   UNL A   1      39.218  21.580  25.769  1.00  0.00     0.202 C 
BRANCH   6   7
ATOM      7  C   UNL A   1      38.032  22.551  25.878  1.00  0.00     0.261 C 
BRANCH   7   8
ATOM      8  O   UNL A   1      37.041  22.406  24.864  1.00  0.00    -0.460 OA
BRANCH   8   9
ATOM      9  C   UNL A   1      36.138  21.411  24.992  1.00  0.00     0.342 C 
ATOM     10  O   UNL A   1      36.372  20.223  25.129  1.00  0.00    -0.246 OA
BRANCH   9  11
ATOM     11  C   UNL A   1      34.822  22.041  25.249  1.00  0.00     0.103 A 
ATOM     12  C   UNL A   1      32.946  23.261  24.354  1.00  0.00     0.044 A 
ATOM     13  C   UNL A   1      32.221  23.021  25.525  1.00  0.00     0.030 A 
ATOM     14  C   UNL A   1      34.210  22.705  24.176  1.00  0.00     0.045 A 
ATOM     15  C   UNL A   1      32.828  22.358  26.594  1.00  0.00     0.049 A 
ATOM     16  C   UNL A   1      34.143  21.911  26.470  1.00  0.00     0.130 A 
BRANCH  12  17
ATOM     17  N   UNL A   1      32.465  24.157  23.398  1.00  0.00    -0.308 N 
ATOM     18  C   UNL A   1      32.181  25.490  23.528  1.00  0.00     0.321 C 
ATOM     19  O   UNL A   1      31.756  26.071  22.525  1.00  0.00    -0.248 OA
ATOM     20  H   UNL A   1      32.308  23.776  22.504  1.00  0.00     0.171 HD
BRANCH  18  21
ATOM     21  N   UNL A   1      32.460  26.173  24.685  1.00  0.00    -0.324 N 
ATOM     22  C   UNL A   1      34.374  28.649  26.702  1.00  0.00     0.010 C 
ATOM     23  C   UNL A   1      33.397  27.512  26.424  1.00  0.00     0.010 C 
ATOM     24  C   UNL A   1      33.693  26.822  25.101  1.00  0.00     0.125 C 
ATOM     25  C   UNL A   1      31.895  27.812  26.305  1.00  0.00     0.010 C 
ATOM     26  C   UNL A   1      31.392  26.527  25.615  1.00  0.00     0.125 C 
ATOM     27  C   UNL A   1      31.527  29.038  25.462  1.00  0.00     0.010 C 
ENDBRANCH  18  21
ENDBRANCH  12  17
BRANCH  16  28
ATOM     28  O   UNL A   1      34.772  21.367  27.552  1.00  0.00    -0.507 OA
ATOM     29  H   UNL A   1      35.124  20.501  27.503  1.00  0.00     0.293 HD
ENDBRANCH  16  28
ENDBRANCH   9  11
ENDBRANCH   8   9
ENDBRANCH   7   8
ENDBRANCH   6   7
ENDBRANCH   5   6
ENDBRANCH   4   5
ENDBRANCH   3   4
ENDBRANCH   2   3
ENDBRANCH   1   2
BRANCH   1  30
ATOM     30  C   UNL A   1      45.208  23.245  24.915  1.00  0.00     0.188 C 
BRANCH  30  31
ATOM     31  O   UNL A   1      45.654  23.731  26.171  1.00  0.00    -0.376 OA
BRANCH  31  32
ATOM     32  C   UNL A   1      45.447  25.105  26.449  1.00  0.00     0.202 C 
BRANCH  32  33
ATOM     33  C   UNL A   1      44.800  25.964  25.352  1.00  0.00     0.261 C 
BRANCH  33  34
ATOM     34  O   UNL A   1      43.375  26.125  25.422  1.00  0.00    -0.460 OA
BRANCH  34  35
ATOM     35  C   UNL A   1      42.887  27.383  25.378  1.00  0.00     0.338 C 
ATOM     36  O   UNL A   1      42.490  27.984  24.392  1.00  0.00    -0.246 OA
BRANCH  35  37
ATOM     37  C   UNL A   1      42.737  27.846  26.773  1.00  0.00     0.060 A 
ATOM     38  C   UNL A   1      41.976  27.087  27.672  1.00  0.00     0.016 A 
ATOM     39  C   UNL A   1      43.369  29.018  27.192  1.00  0.00     0.016 A 
ATOM     40  C   UNL A   1      41.829  27.512  28.994  1.00  0.00     0.010 A 
ATOM     41  C   UNL A   1      43.199  29.455  28.508  1.00  0.00     0.010 A 
ATOM     42  C   UNL A   1      42.408  28.720  29.406  1.00  0.00    -0.014 A 
BRANCH  42  43
ATOM     43  C   UNL A   1      42.038  29.313  30.714  1.00  0.00     0.031 A 
ATOM     44  C   UNL A   1      40.806  30.174  30.782  1.00  0.00     0.074 A 
ATOM     45  C   UNL A   1      42.776  29.096  31.818  1.00  0.00     0.049 A 
ATOM     46  N   UNL A   1      40.326  30.857  31.788  1.00  0.00    -0.248 NA
ATOM     47  C   UNL A   1      40.012  30.280  29.546  1.00  0.00     0.031 C 
ATOM     48  C   UNL A   1      43.960  28.242  31.892  1.00  0.00     0.029 A 
ATOM     49  N   UNL A   1      42.638  29.592  33.090  1.00  0.00    -0.354 N 
ATOM     50  C   UNL A   1      39.183  31.484  31.304  1.00  0.00     0.074 A 
ATOM     51  C   UNL A   1      39.057  31.122  29.909  1.00  0.00     0.031 C 
ATOM     52  C   UNL A   1      44.448  28.283  33.145  1.00  0.00     0.029 A 
ATOM     53  C   UNL A   1      43.637  29.197  33.947  1.00  0.00     0.049 A 
ATOM     54  H   UNL A   1      41.894  30.176  33.364  1.00  0.00     0.167 HD
ATOM     55  C   UNL A   1      38.316  32.287  31.963  1.00  0.00     0.031 A 
ATOM     56  C   UNL A   1      43.884  29.556  35.224  1.00  0.00     0.031 A 
ATOM     57  C   UNL A   1      38.457  32.661  33.345  1.00  0.00     0.049 A 
ATOM     58  C   UNL A   1      42.954  30.524  35.911  1.00  0.00     0.074 A 
ATOM     59  C   UNL A   1      37.624  33.460  34.109  1.00  0.00     0.029 A 
ATOM     60  N   UNL A   1      39.504  32.272  34.169  1.00  0.00    -0.354 N 
ATOM     61  N   UNL A   1      41.864  31.090  35.451  1.00  0.00    -0.248 NA
ATOM     62  C   UNL A   1      43.286  30.896  37.295  1.00  0.00     0.031 C 
ATOM     63  C   UNL A   1      38.203  33.611  35.373  1.00  0.00     0.029 A 
ATOM     64  C   UNL A   1      39.357  32.843  35.421  1.00  0.00     0.049 A 
ATOM     65  H   UNL A   1      40.241  31.678  33.901  1.00  0.00     0.167 HD
ATOM     66  C   UNL A   1      41.365  31.863  36.496  1.00  0.00     0.074 A 
ATOM     67  C   UNL A   1      42.263  31.677  37.617  1.00  0.00     0.031 C 
ATOM     68  C   UNL A   1      40.262  32.654  36.527  1.00  0.00     0.031 A 
BRANCH  55  69
ATOM     69  C   UNL A   1      37.158  32.853  31.181  1.00  0.00    -0.014 A 
ATOM     70  C   UNL A   1      37.346  33.864  30.221  1.00  0.00     0.010 A 
ATOM     71  C   UNL A   1      35.865  32.338  31.388  1.00  0.00     0.010 A 
ATOM     72  C   UNL A   1      36.257  34.376  29.511  1.00  0.00     0.020 A 
ATOM     73  C   UNL A   1      34.778  32.826  30.657  1.00  0.00     0.020 A 
ATOM     74  C   UNL A   1      34.979  33.853  29.735  1.00  0.00     0.054 A 
BRANCH  74  75
ATOM     75  S   UNL A   1      33.589  34.518  28.779  1.00  0.00     0.124 S 
ATOM     76  O   UNL A   1      32.639  34.867  29.834  1.00  0.00    -0.237 OA
ATOM     77  O   UNL A   1      34.194  35.649  28.081  1.00  0.00    -0.237 OA
ATOM     78  O   UNL A   1      33.188  33.404  27.925  1.00  0.00    -0.744 OA
ENDBRANCH  74  75
ENDBRANCH  55  69
BRANCH  56  79
ATOM     79  C   UNL A   1      45.082  29.021  35.931  1.00  0.00    -0.014 A 
ATOM     80  C   UNL A   1      46.222  29.821  36.126  1.00  0.00     0.010 A 
ATOM     81  C   UNL A   1      45.090  27.697  36.410  1.00  0.00     0.010 A 
ATOM     82  C   UNL A   1      47.349  29.304  36.771  1.00  0.00     0.020 A 
ATOM     83  C   UNL A   1      46.203  27.187  37.084  1.00  0.00     0.020 A 
ATOM     84  C   UNL A   1      47.331  27.992  37.251  1.00  0.00     0.054 A 
BRANCH  84  85
ATOM     85  S   UNL A   1      48.785  27.362  38.135  1.00  0.00     0.124 S 
ATOM     86  O   UNL A   1      48.425  25.965  38.356  1.00  0.00    -0.237 OA
ATOM     87  O   UNL A   1      49.860  27.595  37.175  1.00  0.00    -0.237 OA
ATOM     88  O   UNL A   1      48.841  28.192  39.336  1.00  0.00    -0.744 OA
ENDBRANCH  84  85
ENDBRANCH  56  79
BRANCH  68  89
ATOM     89  C   UNL A   1      39.940  33.354  37.823  1.00  0.00    -0.014 A 
ATOM     90  C   UNL A   1      40.525  34.588  38.155  1.00  0.00     0.010 A 
ATOM     91  C   UNL A   1      38.989  32.792  38.696  1.00  0.00     0.010 A 
ATOM     92  C   UNL A   1      40.191  35.231  39.351  1.00  0.00     0.020 A 
ATOM     93  C   UNL A   1      38.628  33.447  39.876  1.00  0.00     0.020 A 
ATOM     94  C   UNL A   1      39.243  34.657  40.203  1.00  0.00     0.054 A 
BRANCH  94  95
ATOM     95  S   UNL A   1      38.797  35.533  41.728  1.00  0.00     0.124 S 
ATOM     96  O   UNL A   1      37.353  35.321  41.790  1.00  0.00    -0.237 OA
ATOM     97  O   UNL A   1      39.580  34.830  42.741  1.00  0.00    -0.237 OA
ATOM     98  O   UNL A   1      39.213  36.910  41.471  1.00  0.00    -0.744 OA
ENDBRANCH  94  95
ENDBRANCH  68  89
ENDBRANCH  42  43
ENDBRANCH  35  37
ENDBRANCH  34  35
ENDBRANCH  33  34
ENDBRANCH  32  33
ENDBRANCH  31  32
ENDBRANCH  30  31
ENDBRANCH   1  30
TORSDOF 26
ENDMDL
MODEL 2
REMARK VINA RESULT:      -8.9      4.617     13.485
REMARK SMILES C[C@@H]1CN(C(=O)Nc2ccc(O)c(C(=O)OCCOCCOCCOCCOC(=O)c3ccc(-c4c5nc(c(-c6ccc(S(=O)(=O)[O-])cc6)c6ccc([nH]6)c(-c6ccc(S(=O)(=O)[O-])cc6)c6nc(c(-c7ccc(S(=O)(=O)[O-])cc7)c7ccc4[nH]7)C=C6)C=C5)cc3)c2)C[C@@H]1C
REMARK SMILES IDX 23 1 22 2 21 3 20 4 19 5 18 6 17 7 16 8 14 9 15 10 13 11
REMARK SMILES IDX 8 12 9 13 91 14 10 15 11 16 7 17 5 18 6 19 4 21 1 22 2 23
REMARK SMILES IDX 3 24 93 25 92 26 94 27 12 28 24 30 25 31 26 32 27 33 28 34
REMARK SMILES IDX 29 35 30 36 31 37 32 38 90 39 33 40 89 41 34 42 35 43 36 44
REMARK SMILES IDX 83 45 37 46 88 47 82 48 84 49 38 50 87 51 81 52 80 53 39 55
REMARK SMILES IDX 69 56 50 57 68 58 51 59 54 60 67 61 85 62 52 63 53 64 66 66
REMARK SMILES IDX 86 67 55 68 40 69 41 70 49 71 42 72 48 73 43 74 44 75 45 76
REMARK SMILES IDX 46 77 47 78 70 79 71 80 79 81 72 82 78 83 73 84 74 85 75 86
REMARK SMILES IDX 76 87 77 88 56 89 57 90 65 91 58 92 64 93 59 94 60 95 61 96
REMARK SMILES IDX 62 97 63 98
REMARK H PARENT 7 20 12 29 84 54 54 65
REMARK Flexibility Score: inf
ROOT
ATOM      1  C   UNL A   1      35.096  33.133  32.849  1.00  0.00     0.188 C 
ENDROOT
BRANCH   1   2
ATOM      2  O   UNL A   1      35.949  32.085  33.296  1.00  0.00    -0.377 OA
BRANCH   2   3
ATOM      3  C   UNL A   1      37.194  32.404  33.902  1.00  0.00     0.188 C 
BRANCH   3   4
ATOM      4  C   UNL A   1      37.933  31.375  34.791  1.00  0.00     0.188 C 
BRANCH   4   5
ATOM      5  O   UNL A   1      37.750  31.566  36.182  1.00  0.00    -0.376 OA
BRANCH   5   6
ATOM      6  C   UNL A   1      38.425  32.617  36.845  1.00  0.00     0.202 C 
BRANCH   6   7
ATOM      7  C   UNL A   1      39.958  32.609  36.936  1.00  0.00     0.261 C 
BRANCH   7   8
ATOM      8  O   UNL A   1      40.586  33.847  36.610  1.00  0.00    -0.460 OA
BRANCH   8   9
ATOM      9  C   UNL A   1      41.419  34.397  37.518  1.00  0.00     0.342 C 
ATOM     10  O   UNL A   1      42.631  34.493  37.436  1.00  0.00    -0.246 OA
BRANCH   9  11
ATOM     11  C   UNL A   1      40.583  35.142  38.489  1.00  0.00     0.103 A 
ATOM     12  C   UNL A   1      39.910  35.434  40.784  1.00  0.00     0.044 A 
ATOM     13  C   UNL A   1      39.280  36.637  40.455  1.00  0.00     0.030 A 
ATOM     14  C   UNL A   1      40.634  34.726  39.827  1.00  0.00     0.045 A 
ATOM     15  C   UNL A   1      39.230  37.053  39.123  1.00  0.00     0.049 A 
ATOM     16  C   UNL A   1      39.843  36.280  38.137  1.00  0.00     0.130 A 
BRANCH  12  17
ATOM     17  N   UNL A   1      39.728  34.863  42.045  1.00  0.00    -0.308 N 
ATOM     18  C   UNL A   1      38.754  33.999  42.470  1.00  0.00     0.321 C 
ATOM     19  O   UNL A   1      38.805  33.636  43.649  1.00  0.00    -0.248 OA
ATOM     20  H   UNL A   1      40.393  35.118  42.724  1.00  0.00     0.171 HD
BRANCH  18  21
ATOM     21  N   UNL A   1      37.832  33.474  41.599  1.00  0.00    -0.324 N 
ATOM     22  C   UNL A   1      36.430  30.740  39.497  1.00  0.00     0.010 C 
ATOM     23  C   UNL A   1      36.596  32.154  40.042  1.00  0.00     0.010 C 
ATOM     24  C   UNL A   1      37.965  32.359  40.675  1.00  0.00     0.125 C 
ATOM     25  C   UNL A   1      35.651  32.661  41.142  1.00  0.00     0.010 C 
ATOM     26  C   UNL A   1      36.433  33.885  41.661  1.00  0.00     0.125 C 
ATOM     27  C   UNL A   1      35.383  31.683  42.291  1.00  0.00     0.010 C 
ENDBRANCH  18  21
ENDBRANCH  12  17
BRANCH  16  28
ATOM     28  O   UNL A   1      39.696  36.627  36.825  1.00  0.00    -0.507 OA
ATOM     29  H   UNL A   1      39.617  37.528  36.585  1.00  0.00     0.293 HD
ENDBRANCH  16  28
ENDBRANCH   9  11
ENDBRANCH   8   9
ENDBRANCH   7   8
ENDBRANCH   6   7
ENDBRANCH   5   6
ENDBRANCH   4   5
ENDBRANCH   3   4
ENDBRANCH   2   3
ENDBRANCH   1   2
BRANCH   1  30
ATOM     30  C   UNL A   1      35.546  34.064  31.697  1.00  0.00     0.188 C 
BRANCH  30  31
ATOM     31  O   UNL A   1      34.534  34.360  30.748  1.00  0.00    -0.376 OA
BRANCH  31  32
ATOM     32  C   UNL A   1      34.874  34.250  29.377  1.00  0.00     0.202 C 
BRANCH  32  33
ATOM     33  C   UNL A   1      34.164  33.166  28.552  1.00  0.00     0.261 C 
BRANCH  33  34
ATOM     34  O   UNL A   1      34.337  31.811  28.993  1.00  0.00    -0.460 OA
BRANCH  34  35
ATOM     35  C   UNL A   1      34.543  30.869  28.048  1.00  0.00     0.338 C 
ATOM     36  O   UNL A   1      33.868  30.666  27.051  1.00  0.00    -0.246 OA
BRANCH  35  37
ATOM     37  C   UNL A   1      35.851  30.241  28.331  1.00  0.00     0.060 A 
ATOM     38  C   UNL A   1      36.088  29.685  29.595  1.00  0.00     0.016 A 
ATOM     39  C   UNL A   1      36.828  30.184  27.336  1.00  0.00     0.016 A 
ATOM     40  C   UNL A   1      37.318  29.086  29.874  1.00  0.00     0.010 A 
ATOM     41  C   UNL A   1      38.067  29.607  27.626  1.00  0.00     0.010 A 
ATOM     42  C   UNL A   1      38.327  29.081  28.902  1.00  0.00    -0.014 A 
BRANCH  42  43
ATOM     43  C   UNL A   1      39.712  28.698  29.269  1.00  0.00     0.031 A 
ATOM     44  C   UNL A   1      40.555  29.700  30.009  1.00  0.00     0.074 A 
ATOM     45  C   UNL A   1      40.212  27.489  28.957  1.00  0.00     0.049 A 
ATOM     46  N   UNL A   1      41.810  29.624  30.369  1.00  0.00    -0.248 NA
ATOM     47  C   UNL A   1      39.894  30.960  30.388  1.00  0.00     0.031 C 
ATOM     48  C   UNL A   1      39.480  26.414  28.289  1.00  0.00     0.029 A 
ATOM     49  N   UNL A   1      41.468  26.970  29.154  1.00  0.00    -0.354 N 
ATOM     50  C   UNL A   1      42.091  30.828  31.005  1.00  0.00     0.074 A 
ATOM     51  C   UNL A   1      40.886  31.626  30.957  1.00  0.00     0.031 C 
ATOM     52  C   UNL A   1      40.305  25.366  28.121  1.00  0.00     0.029 A 
ATOM     53  C   UNL A   1      41.631  25.709  28.630  1.00  0.00     0.049 A 
ATOM     54  H   UNL A   1      42.184  27.453  29.625  1.00  0.00     0.167 HD
ATOM     55  C   UNL A   1      43.249  31.231  31.578  1.00  0.00     0.031 A 
ATOM     56  C   UNL A   1      42.733  24.935  28.546  1.00  0.00     0.031 A 
ATOM     57  C   UNL A   1      44.451  30.441  31.605  1.00  0.00     0.049 A 
ATOM     58  C   UNL A   1      44.035  25.442  29.112  1.00  0.00     0.074 A 
ATOM     59  C   UNL A   1      45.674  30.755  32.173  1.00  0.00     0.029 A 
ATOM     60  N   UNL A   1      44.588  29.186  31.029  1.00  0.00    -0.354 N 
ATOM     61  N   UNL A   1      44.283  26.572  29.732  1.00  0.00    -0.248 NA
ATOM     62  C   UNL A   1      45.207  24.565  28.972  1.00  0.00     0.031 C 
ATOM     63  C   UNL A   1      46.568  29.720  31.881  1.00  0.00     0.029 A 
ATOM     64  C   UNL A   1      45.883  28.728  31.197  1.00  0.00     0.049 A 
ATOM     65  H   UNL A   1      43.869  28.695  30.570  1.00  0.00     0.167 HD
ATOM     66  C   UNL A   1      45.630  26.529  30.080  1.00  0.00     0.074 A 
ATOM     67  C   UNL A   1      46.139  25.255  29.616  1.00  0.00     0.031 C 
ATOM     68  C   UNL A   1      46.379  27.458  30.726  1.00  0.00     0.031 A 
BRANCH  55  69
ATOM     69  C   UNL A   1      43.282  32.610  32.186  1.00  0.00    -0.014 A 
ATOM     70  C   UNL A   1      43.467  33.756  31.393  1.00  0.00     0.010 A 
ATOM     71  C   UNL A   1      43.092  32.760  33.572  1.00  0.00     0.010 A 
ATOM     72  C   UNL A   1      43.498  35.025  31.979  1.00  0.00     0.020 A 
ATOM     73  C   UNL A   1      43.092  34.029  34.158  1.00  0.00     0.020 A 
ATOM     74  C   UNL A   1      43.310  35.152  33.360  1.00  0.00     0.054 A 
BRANCH  74  75
ATOM     75  S   UNL A   1      43.330  36.812  34.090  1.00  0.00     0.124 S 
ATOM     76  O   UNL A   1      44.445  36.715  35.029  1.00  0.00    -0.237 OA
ATOM     77  O   UNL A   1      43.560  37.668  32.929  1.00  0.00    -0.237 OA
ATOM     78  O   UNL A   1      42.010  36.939  34.702  1.00  0.00    -0.744 OA
ENDBRANCH  74  75
ENDBRANCH  55  69
BRANCH  56  79
ATOM     79  C   UNL A   1      42.662  23.607  27.873  1.00  0.00    -0.014 A 
ATOM     80  C   UNL A   1      42.343  22.446  28.600  1.00  0.00     0.010 A 
ATOM     81  C   UNL A   1      42.924  23.497  26.495  1.00  0.00     0.010 A 
ATOM     82  C   UNL A   1      42.301  21.201  27.965  1.00  0.00     0.020 A 
ATOM     83  C   UNL A   1      42.852  22.258  25.850  1.00  0.00     0.020 A 
ATOM     84  C   UNL A   1      42.549  21.116  26.593  1.00  0.00     0.054 A 
BRANCH  84  85
ATOM     85  S   UNL A   1      42.433  19.497  25.781  1.00  0.00     0.124 S 
ATOM     86  O   UNL A   1      43.395  19.633  24.691  1.00  0.00    -0.237 OA
ATOM     87  O   UNL A   1      42.816  18.581  26.852  1.00  0.00    -0.237 OA
ATOM     88  O   UNL A   1      41.032  19.418  25.374  1.00  0.00    -0.744 OA
ENDBRANCH  84  85
ENDBRANCH  56  79
BRANCH  68  89
ATOM     89  C   UNL A   1      47.823  27.123  31.004  1.00  0.00    -0.014 A 
ATOM     90  C   UNL A   1      48.196  26.361  32.125  1.00  0.00     0.010 A 
ATOM     91  C   UNL A   1      48.816  27.531  30.094  1.00  0.00     0.010 A 
ATOM     92  C   UNL A   1      49.538  26.041  32.348  1.00  0.00     0.020 A 
ATOM     93  C   UNL A   1      50.155  27.186  30.296  1.00  0.00     0.020 A 
ATOM     94  C   UNL A   1      50.509  26.455  31.430  1.00  0.00     0.054 A 
BRANCH  94  95
ATOM     95  S   UNL A   1      52.238  25.990  31.722  1.00  0.00     0.124 S 
ATOM     96  O   UNL A   1      52.107  24.624  32.221  1.00  0.00    -0.237 OA
ATOM     97  O   UNL A   1      52.832  26.120  30.394  1.00  0.00    -0.237 OA
ATOM     98  O   UNL A   1      52.700  26.969  32.704  1.00  0.00    -0.744 OA
ENDBRANCH  94  95
ENDBRANCH  68  89
ENDBRANCH  42  43
ENDBRANCH  35  37
ENDBRANCH  34  35
ENDBRANCH  33  34
ENDBRANCH  32  33
ENDBRANCH  31  32
ENDBRANCH  30  31
ENDBRANCH   1  30
TORSDOF 26
ENDMDL
MODEL 3
REMARK VINA RESULT:      -8.5      4.087      9.517
REMARK SMILES C[C@@H]1CN(C(=O)Nc2ccc(O)c(C(=O)OCCOCCOCCOCCOC(=O)c3ccc(-c4c5nc(c(-c6ccc(S(=O)(=O)[O-])cc6)c6ccc([nH]6)c(-c6ccc(S(=O)(=O)[O-])cc6)c6nc(c(-c7ccc(S(=O)(=O)[O-])cc7)c7ccc4[nH]7)C=C6)C=C5)cc3)c2)C[C@@H]1C
REMARK SMILES IDX 23 1 22 2 21 3 20 4 19 5 18 6 17 7 16 8 14 9 15 10 13 11
REMARK SMILES IDX 8 12 9 13 91 14 10 15 11 16 7 17 5 18 6 19 4 21 1 22 2 23
REMARK SMILES IDX 3 24 93 25 92 26 94 27 12 28 24 30 25 31 26 32 27 33 28 34
REMARK SMILES IDX 29 35 30 36 31 37 32 38 90 39 33 40 89 41 34 42 35 43 36 44
REMARK SMILES IDX 83 45 37 46 88 47 82 48 84 49 38 50 87 51 81 52 80 53 39 55
REMARK SMILES IDX 69 56 50 57 68 58 51 59 54 60 67 61 85 62 52 63 53 64 66 66
REMARK SMILES IDX 86 67 55 68 40 69 41 70 49 71 42 72 48 73 43 74 44 75 45 76
REMARK SMILES IDX 46 77 47 78 70 79 71 80 79 81 72 82 78 83 73 84 74 85 75 86
REMARK SMILES IDX 76 87 77 88 56 89 57 90 65 91 58 92 64 93 59 94 60 95 61 96
REMARK SMILES IDX 62 97 63 98
REMARK H PARENT 7 20 12 29 84 54 54 65
REMARK Flexibility Score: inf
ROOT
ATOM      1  C   UNL A   1      48.988  27.654  25.987  1.00  0.00     0.188 C 
ENDROOT
BRANCH   1   2
ATOM      2  O   UNL A   1      48.864  27.405  27.383  1.00  0.00    -0.377 OA
BRANCH   2   3
ATOM      3  C   UNL A   1      49.277  26.151  27.912  1.00  0.00     0.188 C 
BRANCH   3   4
ATOM      4  C   UNL A   1      48.274  24.983  28.062  1.00  0.00     0.188 C 
BRANCH   4   5
ATOM      5  O   UNL A   1      47.989  24.298  26.857  1.00  0.00    -0.376 OA
BRANCH   5   6
ATOM      6  C   UNL A   1      46.646  24.080  26.469  1.00  0.00     0.202 C 
BRANCH   6   7
ATOM      7  C   UNL A   1      46.302  23.852  24.990  1.00  0.00     0.261 C 
BRANCH   7   8
ATOM      8  O   UNL A   1      45.894  22.525  24.665  1.00  0.00    -0.460 OA
BRANCH   8   9
ATOM      9  C   UNL A   1      44.710  22.356  24.039  1.00  0.00     0.342 C 
ATOM     10  O   UNL A   1      44.502  22.404  22.839  1.00  0.00    -0.246 OA
BRANCH   9  11
ATOM     11  C   UNL A   1      43.762  21.798  25.032  1.00  0.00     0.103 A 
ATOM     12  C   UNL A   1      41.791  22.145  26.374  1.00  0.00     0.044 A 
ATOM     13  C   UNL A   1      41.751  20.782  26.682  1.00  0.00     0.030 A 
ATOM     14  C   UNL A   1      42.739  22.644  25.486  1.00  0.00     0.045 A 
ATOM     15  C   UNL A   1      42.769  19.938  26.231  1.00  0.00     0.049 A 
ATOM     16  C   UNL A   1      43.797  20.458  25.445  1.00  0.00     0.130 A 
BRANCH  12  17
ATOM     17  N   UNL A   1      40.957  23.043  27.042  1.00  0.00    -0.308 N 
ATOM     18  C   UNL A   1      41.261  23.920  28.049  1.00  0.00     0.321 C 
ATOM     19  O   UNL A   1      40.336  24.614  28.483  1.00  0.00    -0.248 OA
ATOM     20  H   UNL A   1      40.018  23.048  26.745  1.00  0.00     0.171 HD
BRANCH  18  21
ATOM     21  N   UNL A   1      42.552  24.098  28.479  1.00  0.00    -0.324 N 
ATOM     22  C   UNL A   1      45.226  25.960  30.280  1.00  0.00     0.010 C 
ATOM     23  C   UNL A   1      44.617  24.910  29.357  1.00  0.00     0.010 C 
ATOM     24  C   UNL A   1      43.236  25.321  28.867  1.00  0.00     0.125 C 
ATOM     25  C   UNL A   1      44.364  23.489  29.884  1.00  0.00     0.010 C 
ATOM     26  C   UNL A   1      43.387  22.950  28.819  1.00  0.00     0.125 C 
ATOM     27  C   UNL A   1      43.727  23.399  31.275  1.00  0.00     0.010 C 
ENDBRANCH  18  21
ENDBRANCH  12  17
BRANCH  16  28
ATOM     28  O   UNL A   1      44.848  19.659  25.101  1.00  0.00    -0.507 OA
ATOM     29  H   UNL A   1      44.705  18.754  24.908  1.00  0.00     0.293 HD
ENDBRANCH  16  28
ENDBRANCH   9  11
ENDBRANCH   8   9
ENDBRANCH   7   8
ENDBRANCH   6   7
ENDBRANCH   5   6
ENDBRANCH   4   5
ENDBRANCH   3   4
ENDBRANCH   2   3
ENDBRANCH   1   2
BRANCH   1  30
ATOM     30  C   UNL A   1      47.723  27.759  25.101  1.00  0.00     0.188 C 
BRANCH  30  31
ATOM     31  O   UNL A   1      46.535  27.277  25.708  1.00  0.00    -0.376 OA
BRANCH  31  32
ATOM     32  C   UNL A   1      45.340  27.350  24.950  1.00  0.00     0.202 C 
BRANCH  32  33
ATOM     33  C   UNL A   1      44.035  26.916  25.636  1.00  0.00     0.261 C 
BRANCH  33  34
ATOM     34  O   UNL A   1      43.016  27.920  25.765  1.00  0.00    -0.460 OA
BRANCH  34  35
ATOM     35  C   UNL A   1      41.802  27.524  26.203  1.00  0.00     0.338 C 
ATOM     36  O   UNL A   1      41.136  26.592  25.782  1.00  0.00    -0.246 OA
BRANCH  35  37
ATOM     37  C   UNL A   1      41.499  28.303  27.421  1.00  0.00     0.060 A 
ATOM     38  C   UNL A   1      42.176  29.507  27.655  1.00  0.00     0.016 A 
ATOM     39  C   UNL A   1      40.527  27.851  28.315  1.00  0.00     0.016 A 
ATOM     40  C   UNL A   1      41.896  30.254  28.801  1.00  0.00     0.010 A 
ATOM     41  C   UNL A   1      40.266  28.587  29.474  1.00  0.00     0.010 A 
ATOM     42  C   UNL A   1      40.968  29.776  29.735  1.00  0.00    -0.014 A 
BRANCH  42  43
ATOM     43  C   UNL A   1      40.861  30.413  31.070  1.00  0.00     0.031 A 
ATOM     44  C   UNL A   1      41.931  30.120  32.086  1.00  0.00     0.074 A 
ATOM     45  C   UNL A   1      39.840  31.233  31.377  1.00  0.00     0.049 A 
ATOM     46  N   UNL A   1      42.014  30.496  33.335  1.00  0.00    -0.248 NA
ATOM     47  C   UNL A   1      43.056  29.286  31.631  1.00  0.00     0.031 C 
ATOM     48  C   UNL A   1      38.770  31.636  30.465  1.00  0.00     0.029 A 
ATOM     49  N   UNL A   1      39.533  31.866  32.556  1.00  0.00    -0.354 N 
ATOM     50  C   UNL A   1      43.192  29.936  33.818  1.00  0.00     0.074 A 
ATOM     51  C   UNL A   1      43.774  29.172  32.737  1.00  0.00     0.031 C 
ATOM     52  C   UNL A   1      37.917  32.440  31.124  1.00  0.00     0.029 A 
ATOM     53  C   UNL A   1      38.356  32.575  32.511  1.00  0.00     0.049 A 
ATOM     54  H   UNL A   1      40.102  31.818  33.358  1.00  0.00     0.167 HD
ATOM     55  C   UNL A   1      43.738  30.048  35.051  1.00  0.00     0.031 A 
ATOM     56  C   UNL A   1      37.696  33.233  33.486  1.00  0.00     0.031 A 
ATOM     57  C   UNL A   1      43.144  30.792  36.130  1.00  0.00     0.049 A 
ATOM     58  C   UNL A   1      38.279  33.269  34.877  1.00  0.00     0.074 A 
ATOM     59  C   UNL A   1      43.626  30.978  37.414  1.00  0.00     0.029 A 
ATOM     60  N   UNL A   1      41.932  31.463  36.056  1.00  0.00    -0.354 N 
ATOM     61  N   UNL A   1      39.404  32.756  35.314  1.00  0.00    -0.248 NA
ATOM     62  C   UNL A   1      37.504  33.981  35.904  1.00  0.00     0.031 C 
ATOM     63  C   UNL A   1      42.673  31.703  38.136  1.00  0.00     0.029 A 
ATOM     64  C   UNL A   1      41.633  32.034  37.281  1.00  0.00     0.049 A 
ATOM     65  H   UNL A   1      41.369  31.524  35.251  1.00  0.00     0.167 HD
ATOM     66  C   UNL A   1      39.485  33.106  36.660  1.00  0.00     0.074 A 
ATOM     67  C   UNL A   1      38.304  33.889  36.958  1.00  0.00     0.031 C 
ATOM     68  C   UNL A   1      40.450  32.808  37.567  1.00  0.00     0.031 A 
BRANCH  55  69
ATOM     69  C   UNL A   1      45.027  29.311  35.312  1.00  0.00    -0.014 A 
ATOM     70  C   UNL A   1      45.031  27.987  35.784  1.00  0.00     0.010 A 
ATOM     71  C   UNL A   1      46.254  29.946  35.046  1.00  0.00     0.010 A 
ATOM     72  C   UNL A   1      46.239  27.324  36.023  1.00  0.00     0.020 A 
ATOM     73  C   UNL A   1      47.463  29.277  35.253  1.00  0.00     0.020 A 
ATOM     74  C   UNL A   1      47.447  27.975  35.755  1.00  0.00     0.054 A 
BRANCH  74  75
ATOM     75  S   UNL A   1      48.998  27.082  36.049  1.00  0.00     0.124 S 
ATOM     76  O   UNL A   1      49.557  26.998  34.701  1.00  0.00    -0.237 OA
ATOM     77  O   UNL A   1      49.707  27.968  36.968  1.00  0.00    -0.237 OA
ATOM     78  O   UNL A   1      48.565  25.811  36.622  1.00  0.00    -0.744 OA
ENDBRANCH  74  75
ENDBRANCH  55  69
BRANCH  56  79
ATOM     79  C   UNL A   1      36.390  33.887  33.193  1.00  0.00    -0.014 A 
ATOM     80  C   UNL A   1      36.339  35.164  32.604  1.00  0.00     0.010 A 
ATOM     81  C   UNL A   1      35.183  33.236  33.510  1.00  0.00     0.010 A 
ATOM     82  C   UNL A   1      35.110  35.780  32.352  1.00  0.00     0.020 A 
ATOM     83  C   UNL A   1      33.951  33.835  33.230  1.00  0.00     0.020 A 
ATOM     84  C   UNL A   1      33.923  35.110  32.661  1.00  0.00     0.054 A 
BRANCH  84  85
ATOM     85  S   UNL A   1      32.340  35.907  32.273  1.00  0.00     0.124 S 
ATOM     86  O   UNL A   1      32.441  36.096  30.829  1.00  0.00    -0.237 OA
ATOM     87  O   UNL A   1      31.370  34.908  32.715  1.00  0.00    -0.237 OA
ATOM     88  O   UNL A   1      32.370  37.132  33.068  1.00  0.00    -0.744 OA
ENDBRANCH  84  85
ENDBRANCH  56  79
BRANCH  68  89
ATOM     89  C   UNL A   1      40.292  33.358  38.962  1.00  0.00    -0.014 A 
ATOM     90  C   UNL A   1      40.847  34.596  39.329  1.00  0.00     0.010 A 
ATOM     91  C   UNL A   1      39.525  32.646  39.904  1.00  0.00     0.010 A 
ATOM     92  C   UNL A   1      40.666  35.097  40.622  1.00  0.00     0.020 A 
ATOM     93  C   UNL A   1      39.313  33.160  41.186  1.00  0.00     0.020 A 
ATOM     94  C   UNL A   1      39.898  34.376  41.541  1.00  0.00     0.054 A 
BRANCH  94  95
ATOM     95  S   UNL A   1      39.644  35.069  43.198  1.00  0.00     0.124 S 
ATOM     96  O   UNL A   1      40.814  35.930  43.352  1.00  0.00    -0.237 OA
ATOM     97  O   UNL A   1      38.366  35.763  43.061  1.00  0.00    -0.237 OA
ATOM     98  O   UNL A   1      39.618  33.894  44.067  1.00  0.00    -0.744 OA
ENDBRANCH  94  95
ENDBRANCH  68  89
ENDBRANCH  42  43
ENDBRANCH  35  37
ENDBRANCH  34  35
ENDBRANCH  33  34
ENDBRANCH  32  33
ENDBRANCH  31  32
ENDBRANCH  30  31
ENDBRANCH   1  30
TORSDOF 26
ENDMDL
