MODEL 1
REMARK VINA RESULT:      -7.5      0.000      0.000
REMARK SMILES CCOc1cc(/C=C2/SC(=S)N([C@H](CC)C(=O)OCCOCCOCCOCCOC(=O)c3ccc(-c4c5nc(c(-c6ccc(S(=O)(=O)[O-])cc6)c6ccc([nH]6)c(-c6ccc(S(=O)(=O)[O-])cc6)c6nc(c(-c7ccc(S(=O)(=O)[O-])cc7)c7ccc4[nH]7)C=C6)C=C5)cc3)C2=O)ccc1O
REMARK SMILES IDX 23 1 22 2 21 3 20 4 19 5 18 6 16 7 17 8 13 9 12 10 7 11 8 12
REMARK SMILES IDX 9 13 93 14 10 15 94 16 11 17 6 18 4 19 5 20 97 21 96 22
REMARK SMILES IDX 95 23 3 24 2 25 1 26 98 27 14 29 15 30 24 31 25 32 26 33
REMARK SMILES IDX 27 34 28 35 29 36 30 37 31 38 32 39 33 40 34 41 92 42 35 43
REMARK SMILES IDX 91 44 36 45 37 46 38 47 85 48 39 49 90 50 84 51 86 52 40 53
REMARK SMILES IDX 89 54 83 55 82 56 41 58 71 59 52 60 70 61 53 62 56 63 69 64
REMARK SMILES IDX 87 65 54 66 55 67 68 69 88 70 57 71 42 72 43 73 51 74 44 75
REMARK SMILES IDX 50 76 45 77 46 78 47 79 48 80 49 81 72 82 73 83 81 84 74 85
REMARK SMILES IDX 80 86 75 87 76 88 77 89 78 90 79 91 58 92 59 93 67 94 60 95
REMARK SMILES IDX 66 96 61 97 62 98 63 99 64 100 65 101
REMARK H PARENT 98 28 86 57 56 68
REMARK Flexibility Score: inf
ROOT
ATOM      1  C   UNL A   1      42.099  24.469  27.398  1.00  0.00     0.188 C 
ENDROOT
BRANCH   1   2
ATOM      2  C   UNL A   1      40.870  23.627  27.036  1.00  0.00     0.188 C 
BRANCH   2   3
ATOM      3  O   UNL A   1      39.642  24.226  26.636  1.00  0.00    -0.376 OA
BRANCH   3   4
ATOM      4  C   UNL A   1      38.460  23.454  26.498  1.00  0.00     0.202 C 
BRANCH   4   5
ATOM      5  C   UNL A   1      37.251  24.112  25.797  1.00  0.00     0.261 C 
BRANCH   5   6
ATOM      6  O   UNL A   1      35.917  23.671  26.168  1.00  0.00    -0.462 OA
BRANCH   6   7
ATOM      7  C   UNL A   1      34.916  24.174  25.405  1.00  0.00     0.329 C 
ATOM      8  O   UNL A   1      34.626  25.368  25.396  1.00  0.00    -0.250 OA
BRANCH   7   9
ATOM      9  C   UNL A   1      34.041  23.129  24.649  1.00  0.00     0.201 C 
BRANCH   9  10
ATOM     10  N   UNL A   1      32.720  23.252  25.315  1.00  0.00    -0.278 N 
ATOM     11  C   UNL A   1      30.132  25.663  25.491  1.00  0.00     0.029 C 
ATOM     12  C   UNL A   1      30.716  24.454  25.495  1.00  0.00     0.081 C 
ATOM     13  S   UNL A   1      30.665  23.418  26.871  1.00  0.00    -0.054 SA
ATOM     14  C   UNL A   1      31.743  23.911  24.575  1.00  0.00     0.266 C 
ATOM     15  C   UNL A   1      32.344  22.914  26.601  1.00  0.00     0.149 C 
ATOM     16  O   UNL A   1      31.686  23.971  23.356  1.00  0.00    -0.268 OA
ATOM     17  S   UNL A   1      33.190  22.156  27.819  1.00  0.00    -0.052 S 
BRANCH  11  18
ATOM     18  C   UNL A   1      30.459  26.802  24.616  1.00  0.00    -0.020 A 
ATOM     19  C   UNL A   1      31.893  28.753  24.247  1.00  0.00     0.161 A 
ATOM     20  C   UNL A   1      31.454  27.696  25.052  1.00  0.00     0.058 A 
ATOM     21  C   UNL A   1      31.348  28.889  22.971  1.00  0.00     0.157 A 
ATOM     22  C   UNL A   1      30.308  28.064  22.553  1.00  0.00     0.051 A 
ATOM     23  C   UNL A   1      29.856  27.029  23.378  1.00  0.00     0.012 A 
BRANCH  19  24
ATOM     24  O   UNL A   1      32.935  29.472  24.757  1.00  0.00    -0.490 OA
BRANCH  24  25
ATOM     25  C   UNL A   1      33.810  28.838  25.691  1.00  0.00     0.226 C 
ATOM     26  C   UNL A   1      33.958  29.795  26.864  1.00  0.00     0.049 C 
ENDBRANCH  24  25
ENDBRANCH  19  24
BRANCH  21  27
ATOM     27  O   UNL A   1      31.858  29.744  22.035  1.00  0.00    -0.504 OA
ATOM     28  H   UNL A   1      31.394  30.529  21.815  1.00  0.00     0.293 HD
ENDBRANCH  21  27
ENDBRANCH  11  18
ENDBRANCH   9  10
BRANCH   9  29
ATOM     29  C   UNL A   1      34.537  21.694  24.352  1.00  0.00     0.034 C 
ATOM     30  C   UNL A   1      33.457  20.611  24.206  1.00  0.00     0.007 C 
ENDBRANCH   9  29
ENDBRANCH   7   9
ENDBRANCH   6   7
ENDBRANCH   5   6
ENDBRANCH   4   5
ENDBRANCH   3   4
ENDBRANCH   2   3
ENDBRANCH   1   2
BRANCH   1  31
ATOM     31  O   UNL A   1      41.880  25.545  28.281  1.00  0.00    -0.377 OA
BRANCH  31  32
ATOM     32  C   UNL A   1      42.365  26.819  27.900  1.00  0.00     0.188 C 
BRANCH  32  33
ATOM     33  C   UNL A   1      41.715  27.470  26.671  1.00  0.00     0.188 C 
BRANCH  33  34
ATOM     34  O   UNL A   1      40.302  27.575  26.776  1.00  0.00    -0.376 OA
BRANCH  34  35
ATOM     35  C   UNL A   1      39.716  28.758  27.293  1.00  0.00     0.202 C 
BRANCH  35  36
ATOM     36  C   UNL A   1      38.570  28.675  28.320  1.00  0.00     0.261 C 
BRANCH  36  37
ATOM     37  O   UNL A   1      38.679  29.453  29.521  1.00  0.00    -0.460 OA
BRANCH  37  38
ATOM     38  C   UNL A   1      39.654  29.153  30.400  1.00  0.00     0.338 C 
ATOM     39  O   UNL A   1      40.086  28.039  30.658  1.00  0.00    -0.246 OA
BRANCH  38  40
ATOM     40  C   UNL A   1      40.275  30.426  30.838  1.00  0.00     0.060 A 
ATOM     41  C   UNL A   1      41.642  30.436  31.148  1.00  0.00     0.016 A 
ATOM     42  C   UNL A   1      39.530  31.607  30.914  1.00  0.00     0.016 A 
ATOM     43  C   UNL A   1      42.259  31.616  31.568  1.00  0.00     0.010 A 
ATOM     44  C   UNL A   1      40.144  32.782  31.364  1.00  0.00     0.010 A 
ATOM     45  C   UNL A   1      41.502  32.783  31.726  1.00  0.00    -0.014 A 
BRANCH  45  46
ATOM     46  C   UNL A   1      42.089  33.934  32.455  1.00  0.00     0.031 A 
ATOM     47  C   UNL A   1      42.077  33.908  33.961  1.00  0.00     0.074 A 
ATOM     48  C   UNL A   1      42.653  34.968  31.803  1.00  0.00     0.049 A 
ATOM     49  N   UNL A   1      42.525  34.793  34.811  1.00  0.00    -0.248 NA
ATOM     50  C   UNL A   1      41.474  32.720  34.588  1.00  0.00     0.031 C 
ATOM     51  C   UNL A   1      42.762  35.093  30.352  1.00  0.00     0.029 A 
ATOM     52  N   UNL A   1      43.235  36.113  32.288  1.00  0.00    -0.354 N 
ATOM     53  C   UNL A   1      42.245  34.280  36.073  1.00  0.00     0.074 A 
ATOM     54  C   UNL A   1      41.566  33.017  35.875  1.00  0.00     0.031 C 
ATOM     55  C   UNL A   1      43.360  36.262  30.061  1.00  0.00     0.029 A 
ATOM     56  C   UNL A   1      43.646  36.980  31.303  1.00  0.00     0.049 A 
ATOM     57  H   UNL A   1      43.346  36.298  33.248  1.00  0.00     0.167 HD
ATOM     58  C   UNL A   1      42.525  34.811  37.286  1.00  0.00     0.031 A 
ATOM     59  C   UNL A   1      44.168  38.221  31.392  1.00  0.00     0.031 A 
ATOM     60  C   UNL A   1      43.181  36.078  37.477  1.00  0.00     0.049 A 
ATOM     61  C   UNL A   1      44.419  38.821  32.752  1.00  0.00     0.074 A 
ATOM     62  C   UNL A   1      43.540  36.689  38.665  1.00  0.00     0.029 A 
ATOM     63  N   UNL A   1      43.557  36.937  36.455  1.00  0.00    -0.354 N 
ATOM     64  N   UNL A   1      44.196  38.301  33.936  1.00  0.00    -0.248 NA
ATOM     65  C   UNL A   1      45.003  40.168  32.786  1.00  0.00     0.031 C 
ATOM     66  C   UNL A   1      44.063  37.951  38.365  1.00  0.00     0.029 A 
ATOM     67  C   UNL A   1      44.105  38.094  36.987  1.00  0.00     0.049 A 
ATOM     68  H   UNL A   1      43.451  36.753  35.494  1.00  0.00     0.167 HD
ATOM     69  C   UNL A   1      44.630  39.251  34.856  1.00  0.00     0.074 A 
ATOM     70  C   UNL A   1      45.150  40.365  34.089  1.00  0.00     0.031 C 
ATOM     71  C   UNL A   1      44.604  39.205  36.213  1.00  0.00     0.031 A 
BRANCH  58  72
ATOM     72  C   UNL A   1      42.065  34.046  38.501  1.00  0.00    -0.014 A 
ATOM     73  C   UNL A   1      40.760  34.178  39.011  1.00  0.00     0.010 A 
ATOM     74  C   UNL A   1      42.958  33.162  39.136  1.00  0.00     0.010 A 
ATOM     75  C   UNL A   1      40.375  33.483  40.160  1.00  0.00     0.020 A 
ATOM     76  C   UNL A   1      42.566  32.440  40.265  1.00  0.00     0.020 A 
ATOM     77  C   UNL A   1      41.282  32.621  40.783  1.00  0.00     0.054 A 
BRANCH  77  78
ATOM     78  S   UNL A   1      40.755  31.727  42.270  1.00  0.00     0.124 S 
ATOM     79  O   UNL A   1      41.610  30.543  42.229  1.00  0.00    -0.237 OA
ATOM     80  O   UNL A   1      41.054  32.679  43.337  1.00  0.00    -0.237 OA
ATOM     81  O   UNL A   1      39.335  31.477  42.042  1.00  0.00    -0.744 OA
ENDBRANCH  77  78
ENDBRANCH  58  72
BRANCH  59  82
ATOM     82  C   UNL A   1      44.460  38.988  30.148  1.00  0.00    -0.014 A 
ATOM     83  C   UNL A   1      43.494  39.829  29.570  1.00  0.00     0.010 A 
ATOM     84  C   UNL A   1      45.729  38.894  29.547  1.00  0.00     0.010 A 
ATOM     85  C   UNL A   1      43.792  40.561  28.415  1.00  0.00     0.020 A 
ATOM     86  C   UNL A   1      46.041  39.646  28.412  1.00  0.00     0.020 A 
ATOM     87  C   UNL A   1      45.068  40.472  27.849  1.00  0.00     0.054 A 
BRANCH  87  88
ATOM     88  S   UNL A   1      45.456  41.494  26.401  1.00  0.00     0.124 S 
ATOM     89  O   UNL A   1      44.754  42.736  26.706  1.00  0.00    -0.237 OA
ATOM     90  O   UNL A   1      46.914  41.562  26.449  1.00  0.00    -0.237 OA
ATOM     91  O   UNL A   1      44.912  40.726  25.283  1.00  0.00    -0.744 OA
ENDBRANCH  87  88
ENDBRANCH  59  82
BRANCH  71  92
ATOM     92  C   UNL A   1      45.174  40.383  36.962  1.00  0.00    -0.014 A 
ATOM     93  C   UNL A   1      46.538  40.448  37.302  1.00  0.00     0.010 A 
ATOM     94  C   UNL A   1      44.339  41.466  37.290  1.00  0.00     0.010 A 
ATOM     95  C   UNL A   1      47.043  41.552  37.995  1.00  0.00     0.020 A 
ATOM     96  C   UNL A   1      44.847  42.588  37.951  1.00  0.00     0.020 A 
ATOM     97  C   UNL A   1      46.193  42.615  38.316  1.00  0.00     0.054 A 
BRANCH  97  98
ATOM     98  S   UNL A   1      46.880  44.049  39.190  1.00  0.00     0.124 S 
ATOM     99  O   UNL A   1      45.682  44.654  39.766  1.00  0.00    -0.237 OA
ATOM    100  O   UNL A   1      47.795  43.432  40.147  1.00  0.00    -0.237 OA
ATOM    101  O   UNL A   1      47.523  44.826  38.133  1.00  0.00    -0.744 OA
ENDBRANCH  97  98
ENDBRANCH  71  92
ENDBRANCH  45  46
ENDBRANCH  38  40
ENDBRANCH  37  38
ENDBRANCH  36  37
ENDBRANCH  35  36
ENDBRANCH  34  35
ENDBRANCH  33  34
ENDBRANCH  32  33
ENDBRANCH  31  32
ENDBRANCH   1  31
TORSDOF 29
ENDMDL
MODEL 2
REMARK VINA RESULT:      -7.2      1.850      7.894
REMARK SMILES CCOc1cc(/C=C2/SC(=S)N([C@H](CC)C(=O)OCCOCCOCCOCCOC(=O)c3ccc(-c4c5nc(c(-c6ccc(S(=O)(=O)[O-])cc6)c6ccc([nH]6)c(-c6ccc(S(=O)(=O)[O-])cc6)c6nc(c(-c7ccc(S(=O)(=O)[O-])cc7)c7ccc4[nH]7)C=C6)C=C5)cc3)C2=O)ccc1O
REMARK SMILES IDX 23 1 22 2 21 3 20 4 19 5 18 6 16 7 17 8 13 9 12 10 7 11 8 12
REMARK SMILES IDX 9 13 93 14 10 15 94 16 11 17 6 18 4 19 5 20 97 21 96 22
REMARK SMILES IDX 95 23 3 24 2 25 1 26 98 27 14 29 15 30 24 31 25 32 26 33
REMARK SMILES IDX 27 34 28 35 29 36 30 37 31 38 32 39 33 40 34 41 92 42 35 43
REMARK SMILES IDX 91 44 36 45 37 46 38 47 85 48 39 49 90 50 84 51 86 52 40 53
REMARK SMILES IDX 89 54 83 55 82 56 41 58 71 59 52 60 70 61 53 62 56 63 69 64
REMARK SMILES IDX 87 65 54 66 55 67 68 69 88 70 57 71 42 72 43 73 51 74 44 75
REMARK SMILES IDX 50 76 45 77 46 78 47 79 48 80 49 81 72 82 73 83 81 84 74 85
REMARK SMILES IDX 80 86 75 87 76 88 77 89 78 90 79 91 58 92 59 93 67 94 60 95
REMARK SMILES IDX 66 96 61 97 62 98 63 99 64 100 65 101
REMARK H PARENT 98 28 86 57 56 68
REMARK Flexibility Score: inf
ROOT
ATOM      1  C   UNL A   1      41.786  24.673  27.621  1.00  0.00     0.188 C 
ENDROOT
BRANCH   1   2
ATOM      2  C   UNL A   1      40.593  23.710  27.573  1.00  0.00     0.188 C 
BRANCH   2   3
ATOM      3  O   UNL A   1      39.286  24.152  27.223  1.00  0.00    -0.376 OA
BRANCH   3   4
ATOM      4  C   UNL A   1      38.433  23.354  26.418  1.00  0.00     0.202 C 
BRANCH   4   5
ATOM      5  C   UNL A   1      37.213  24.041  25.767  1.00  0.00     0.261 C 
BRANCH   5   6
ATOM      6  O   UNL A   1      35.889  23.527  26.074  1.00  0.00    -0.462 OA
BRANCH   6   7
ATOM      7  C   UNL A   1      34.918  23.889  25.200  1.00  0.00     0.329 C 
ATOM      8  O   UNL A   1      34.682  25.062  24.921  1.00  0.00    -0.250 OA
BRANCH   7   9
ATOM      9  C   UNL A   1      34.004  22.740  24.678  1.00  0.00     0.201 C 
BRANCH   9  10
ATOM     10  N   UNL A   1      32.697  23.033  25.318  1.00  0.00    -0.278 N 
ATOM     11  C   UNL A   1      30.305  25.644  25.224  1.00  0.00     0.029 C 
ATOM     12  C   UNL A   1      30.793  24.400  25.358  1.00  0.00     0.081 C 
ATOM     13  S   UNL A   1      30.661  23.519  26.833  1.00  0.00    -0.054 SA
ATOM     14  C   UNL A   1      31.774  23.687  24.506  1.00  0.00     0.266 C 
ATOM     15  C   UNL A   1      32.297  22.860  26.628  1.00  0.00     0.149 C 
ATOM     16  O   UNL A   1      31.721  23.624  23.288  1.00  0.00    -0.268 OA
ATOM     17  S   UNL A   1      33.081  22.169  27.925  1.00  0.00    -0.052 S 
BRANCH  11  18
ATOM     18  C   UNL A   1      30.720  26.657  24.240  1.00  0.00    -0.020 A 
ATOM     19  C   UNL A   1      30.003  28.356  22.627  1.00  0.00     0.161 A 
ATOM     20  C   UNL A   1      29.710  27.316  23.516  1.00  0.00     0.058 A 
ATOM     21  C   UNL A   1      31.330  28.762  22.493  1.00  0.00     0.157 A 
ATOM     22  C   UNL A   1      32.351  28.072  23.140  1.00  0.00     0.051 A 
ATOM     23  C   UNL A   1      32.048  27.015  24.003  1.00  0.00     0.012 A 
BRANCH  19  24
ATOM     24  O   UNL A   1      28.915  28.969  22.077  1.00  0.00    -0.490 OA
BRANCH  24  25
ATOM     25  C   UNL A   1      27.680  28.943  22.794  1.00  0.00     0.226 C 
ATOM     26  C   UNL A   1      27.372  30.381  23.179  1.00  0.00     0.049 C 
ENDBRANCH  24  25
ENDBRANCH  19  24
BRANCH  21  27
ATOM     27  O   UNL A   1      31.693  29.898  21.826  1.00  0.00    -0.504 OA
ATOM     28  H   UNL A   1      32.182  30.565  22.267  1.00  0.00     0.293 HD
ENDBRANCH  21  27
ENDBRANCH  11  18
ENDBRANCH   9  10
BRANCH   9  29
ATOM     29  C   UNL A   1      34.457  21.260  24.672  1.00  0.00     0.034 C 
ATOM     30  C   UNL A   1      35.971  21.006  24.600  1.00  0.00     0.007 C 
ENDBRANCH   9  29
ENDBRANCH   7   9
ENDBRANCH   6   7
ENDBRANCH   5   6
ENDBRANCH   4   5
ENDBRANCH   3   4
ENDBRANCH   2   3
ENDBRANCH   1   2
BRANCH   1  31
ATOM     31  O   UNL A   1      41.709  25.713  28.568  1.00  0.00    -0.377 OA
BRANCH  31  32
ATOM     32  C   UNL A   1      42.153  26.998  28.173  1.00  0.00     0.188 C 
BRANCH  32  33
ATOM     33  C   UNL A   1      41.414  27.658  27.001  1.00  0.00     0.188 C 
BRANCH  33  34
ATOM     34  O   UNL A   1      40.026  27.840  27.248  1.00  0.00    -0.376 OA
BRANCH  34  35
ATOM     35  C   UNL A   1      39.594  28.807  28.190  1.00  0.00     0.202 C 
BRANCH  35  36
ATOM     36  C   UNL A   1      38.095  29.119  28.355  1.00  0.00     0.261 C 
BRANCH  36  37
ATOM     37  O   UNL A   1      37.677  29.848  29.518  1.00  0.00    -0.460 OA
BRANCH  37  38
ATOM     38  C   UNL A   1      38.034  29.389  30.733  1.00  0.00     0.338 C 
ATOM     39  O   UNL A   1      37.975  28.231  31.120  1.00  0.00    -0.246 OA
BRANCH  38  40
ATOM     40  C   UNL A   1      38.725  30.489  31.447  1.00  0.00     0.060 A 
ATOM     41  C   UNL A   1      39.945  30.217  32.081  1.00  0.00     0.016 A 
ATOM     42  C   UNL A   1      38.196  31.783  31.469  1.00  0.00     0.016 A 
ATOM     43  C   UNL A   1      40.621  31.227  32.767  1.00  0.00     0.010 A 
ATOM     44  C   UNL A   1      38.860  32.788  32.182  1.00  0.00     0.010 A 
ATOM     45  C   UNL A   1      40.057  32.506  32.863  1.00  0.00    -0.014 A 
BRANCH  45  46
ATOM     46  C   UNL A   1      40.620  33.474  33.836  1.00  0.00     0.031 A 
ATOM     47  C   UNL A   1      41.617  34.488  33.340  1.00  0.00     0.074 A 
ATOM     48  C   UNL A   1      40.237  33.480  35.126  1.00  0.00     0.049 A 
ATOM     49  N   UNL A   1      42.244  35.427  33.998  1.00  0.00    -0.248 NA
ATOM     50  C   UNL A   1      41.948  34.431  31.907  1.00  0.00     0.031 C 
ATOM     51  C   UNL A   1      39.254  32.577  35.720  1.00  0.00     0.029 A 
ATOM     52  N   UNL A   1      40.639  34.277  36.169  1.00  0.00    -0.354 N 
ATOM     53  C   UNL A   1      43.057  36.062  33.065  1.00  0.00     0.074 A 
ATOM     54  C   UNL A   1      42.860  35.385  31.802  1.00  0.00     0.031 C 
ATOM     55  C   UNL A   1      39.141  32.859  37.030  1.00  0.00     0.029 A 
ATOM     56  C   UNL A   1      40.066  33.940  37.372  1.00  0.00     0.049 A 
ATOM     57  H   UNL A   1      41.278  35.019  36.066  1.00  0.00     0.167 HD
ATOM     58  C   UNL A   1      43.892  37.113  33.243  1.00  0.00     0.031 A 
ATOM     59  C   UNL A   1      40.281  34.427  38.611  1.00  0.00     0.031 A 
ATOM     60  C   UNL A   1      44.101  37.769  34.507  1.00  0.00     0.049 A 
ATOM     61  C   UNL A   1      41.260  35.558  38.800  1.00  0.00     0.074 A 
ATOM     62  C   UNL A   1      44.901  38.862  34.786  1.00  0.00     0.029 A 
ATOM     63  N   UNL A   1      43.523  37.380  35.706  1.00  0.00    -0.354 N 
ATOM     64  N   UNL A   1      41.983  36.182  37.900  1.00  0.00    -0.248 NA
ATOM     65  C   UNL A   1      41.442  36.058  40.169  1.00  0.00     0.031 C 
ATOM     66  C   UNL A   1      44.866  39.086  36.166  1.00  0.00     0.029 A 
ATOM     67  C   UNL A   1      43.982  38.184  36.737  1.00  0.00     0.049 A 
ATOM     68  H   UNL A   1      42.880  36.641  35.811  1.00  0.00     0.167 HD
ATOM     69  C   UNL A   1      42.691  37.161  38.591  1.00  0.00     0.074 A 
ATOM     70  C   UNL A   1      42.290  37.060  39.980  1.00  0.00     0.031 C 
ATOM     71  C   UNL A   1      43.589  38.063  38.120  1.00  0.00     0.031 A 
BRANCH  58  72
ATOM     72  C   UNL A   1      44.689  37.575  32.050  1.00  0.00    -0.014 A 
ATOM     73  C   UNL A   1      44.222  38.590  31.194  1.00  0.00     0.010 A 
ATOM     74  C   UNL A   1      45.942  36.988  31.791  1.00  0.00     0.010 A 
ATOM     75  C   UNL A   1      44.967  38.971  30.075  1.00  0.00     0.020 A 
ATOM     76  C   UNL A   1      46.706  37.390  30.692  1.00  0.00     0.020 A 
ATOM     77  C   UNL A   1      46.204  38.365  29.828  1.00  0.00     0.054 A 
BRANCH  77  78
ATOM     78  S   UNL A   1      47.152  38.881  28.372  1.00  0.00     0.124 S 
ATOM     79  O   UNL A   1      46.147  39.609  27.601  1.00  0.00    -0.237 OA
ATOM     80  O   UNL A   1      48.210  39.701  28.955  1.00  0.00    -0.237 OA
ATOM     81  O   UNL A   1      47.597  37.622  27.781  1.00  0.00    -0.744 OA
ENDBRANCH  77  78
ENDBRANCH  58  72
BRANCH  59  82
ATOM     82  C   UNL A   1      39.574  33.822  39.775  1.00  0.00    -0.014 A 
ATOM     83  C   UNL A   1      38.303  34.274  40.168  1.00  0.00     0.010 A 
ATOM     84  C   UNL A   1      40.170  32.762  40.484  1.00  0.00     0.010 A 
ATOM     85  C   UNL A   1      37.643  33.679  41.249  1.00  0.00     0.020 A 
ATOM     86  C   UNL A   1      39.501  32.144  41.544  1.00  0.00     0.020 A 
ATOM     87  C   UNL A   1      38.242  32.611  41.923  1.00  0.00     0.054 A 
BRANCH  87  88
ATOM     88  S   UNL A   1      37.329  31.801  43.266  1.00  0.00     0.124 S 
ATOM     89  O   UNL A   1      36.084  31.424  42.606  1.00  0.00    -0.237 OA
ATOM     90  O   UNL A   1      38.215  30.697  43.625  1.00  0.00    -0.237 OA
ATOM     91  O   UNL A   1      37.210  32.847  44.279  1.00  0.00    -0.744 OA
ENDBRANCH  87  88
ENDBRANCH  59  82
BRANCH  71  92
ATOM     92  C   UNL A   1      44.187  39.033  39.108  1.00  0.00    -0.014 A 
ATOM     93  C   UNL A   1      45.388  38.748  39.783  1.00  0.00     0.010 A 
ATOM     94  C   UNL A   1      43.559  40.272  39.331  1.00  0.00     0.010 A 
ATOM     95  C   UNL A   1      45.924  39.665  40.692  1.00  0.00     0.020 A 
ATOM     96  C   UNL A   1      44.110  41.206  40.212  1.00  0.00     0.020 A 
ATOM     97  C   UNL A   1      45.281  40.888  40.902  1.00  0.00     0.054 A 
BRANCH  97  98
ATOM     98  S   UNL A   1      46.011  42.071  42.066  1.00  0.00     0.124 S 
ATOM     99  O   UNL A   1      47.059  41.271  42.694  1.00  0.00    -0.237 OA
ATOM    100  O   UNL A   1      46.478  43.139  41.186  1.00  0.00    -0.237 OA
ATOM    101  O   UNL A   1      44.897  42.433  42.940  1.00  0.00    -0.744 OA
ENDBRANCH  97  98
ENDBRANCH  71  92
ENDBRANCH  45  46
ENDBRANCH  38  40
ENDBRANCH  37  38
ENDBRANCH  36  37
ENDBRANCH  35  36
ENDBRANCH  34  35
ENDBRANCH  33  34
ENDBRANCH  32  33
ENDBRANCH  31  32
ENDBRANCH   1  31
TORSDOF 29
ENDMDL
MODEL 3
REMARK VINA RESULT:      -6.7      8.074     12.410
REMARK SMILES CCOc1cc(/C=C2/SC(=S)N([C@H](CC)C(=O)OCCOCCOCCOCCOC(=O)c3ccc(-c4c5nc(c(-c6ccc(S(=O)(=O)[O-])cc6)c6ccc([nH]6)c(-c6ccc(S(=O)(=O)[O-])cc6)c6nc(c(-c7ccc(S(=O)(=O)[O-])cc7)c7ccc4[nH]7)C=C6)C=C5)cc3)C2=O)ccc1O
REMARK SMILES IDX 23 1 22 2 21 3 20 4 19 5 18 6 16 7 17 8 13 9 12 10 7 11 8 12
REMARK SMILES IDX 9 13 93 14 10 15 94 16 11 17 6 18 4 19 5 20 97 21 96 22
REMARK SMILES IDX 95 23 3 24 2 25 1 26 98 27 14 29 15 30 24 31 25 32 26 33
REMARK SMILES IDX 27 34 28 35 29 36 30 37 31 38 32 39 33 40 34 41 92 42 35 43
REMARK SMILES IDX 91 44 36 45 37 46 38 47 85 48 39 49 90 50 84 51 86 52 40 53
REMARK SMILES IDX 89 54 83 55 82 56 41 58 71 59 52 60 70 61 53 62 56 63 69 64
REMARK SMILES IDX 87 65 54 66 55 67 68 69 88 70 57 71 42 72 43 73 51 74 44 75
REMARK SMILES IDX 50 76 45 77 46 78 47 79 48 80 49 81 72 82 73 83 81 84 74 85
REMARK SMILES IDX 80 86 75 87 76 88 77 89 78 90 79 91 58 92 59 93 67 94 60 95
REMARK SMILES IDX 66 96 61 97 62 98 63 99 64 100 65 101
REMARK H PARENT 98 28 86 57 56 68
REMARK Flexibility Score: inf
ROOT
ATOM      1  C   UNL A   1      47.365  23.485  35.482  1.00  0.00     0.188 C 
ENDROOT
BRANCH   1   2
ATOM      2  C   UNL A   1      46.267  23.749  34.444  1.00  0.00     0.188 C 
BRANCH   2   3
ATOM      3  O   UNL A   1      45.220  24.683  34.682  1.00  0.00    -0.376 OA
BRANCH   3   4
ATOM      4  C   UNL A   1      44.527  25.297  33.606  1.00  0.00     0.202 C 
BRANCH   4   5
ATOM      5  C   UNL A   1      45.229  26.460  32.871  1.00  0.00     0.261 C 
BRANCH   5   6
ATOM      6  O   UNL A   1      44.881  26.705  31.483  1.00  0.00    -0.462 OA
BRANCH   6   7
ATOM      7  C   UNL A   1      45.815  26.312  30.581  1.00  0.00     0.329 C 
ATOM      8  O   UNL A   1      46.869  25.772  30.912  1.00  0.00    -0.250 OA
BRANCH   7   9
ATOM      9  C   UNL A   1      45.552  26.722  29.101  1.00  0.00     0.201 C 
BRANCH   9  10
ATOM     10  N   UNL A   1      44.100  26.464  28.935  1.00  0.00    -0.278 N 
ATOM     11  C   UNL A   1      42.059  24.421  26.883  1.00  0.00     0.029 C 
ATOM     12  C   UNL A   1      42.443  25.119  27.964  1.00  0.00     0.081 C 
ATOM     13  S   UNL A   1      41.545  26.471  28.545  1.00  0.00    -0.054 SA
ATOM     14  C   UNL A   1      43.763  25.146  28.637  1.00  0.00     0.266 C 
ATOM     15  C   UNL A   1      43.041  27.351  28.917  1.00  0.00     0.149 C 
ATOM     16  O   UNL A   1      44.405  24.155  28.947  1.00  0.00    -0.268 OA
ATOM     17  S   UNL A   1      42.993  28.995  29.181  1.00  0.00    -0.052 S 
BRANCH  11  18
ATOM     18  C   UNL A   1      42.909  23.579  26.025  1.00  0.00    -0.020 A 
ATOM     19  C   UNL A   1      43.375  21.324  25.189  1.00  0.00     0.161 A 
ATOM     20  C   UNL A   1      42.679  22.192  26.038  1.00  0.00     0.058 A 
ATOM     21  C   UNL A   1      44.289  21.867  24.287  1.00  0.00     0.157 A 
ATOM     22  C   UNL A   1      44.588  23.227  24.313  1.00  0.00     0.051 A 
ATOM     23  C   UNL A   1      43.907  24.080  25.187  1.00  0.00     0.012 A 
BRANCH  19  24
ATOM     24  O   UNL A   1      42.972  20.021  25.239  1.00  0.00    -0.490 OA
BRANCH  24  25
ATOM     25  C   UNL A   1      43.941  19.018  25.549  1.00  0.00     0.226 C 
ATOM     26  C   UNL A   1      43.286  18.077  26.548  1.00  0.00     0.049 C 
ENDBRANCH  24  25
ENDBRANCH  19  24
BRANCH  21  27
ATOM     27  O   UNL A   1      44.854  21.141  23.277  1.00  0.00    -0.504 OA
ATOM     28  H   UNL A   1      45.774  20.964  23.285  1.00  0.00     0.293 HD
ENDBRANCH  21  27
ENDBRANCH  11  18
ENDBRANCH   9  10
BRANCH   9  29
ATOM     29  C   UNL A   1      46.473  26.274  27.941  1.00  0.00     0.034 C 
ATOM     30  C   UNL A   1      46.132  26.816  26.545  1.00  0.00     0.007 C 
ENDBRANCH   9  29
ENDBRANCH   7   9
ENDBRANCH   6   7
ENDBRANCH   5   6
ENDBRANCH   4   5
ENDBRANCH   3   4
ENDBRANCH   2   3
ENDBRANCH   1   2
BRANCH   1  31
ATOM     31  O   UNL A   1      47.768  22.144  35.636  1.00  0.00    -0.377 OA
BRANCH  31  32
ATOM     32  C   UNL A   1      48.329  21.763  36.879  1.00  0.00     0.188 C 
BRANCH  32  33
ATOM     33  C   UNL A   1      49.486  20.756  36.839  1.00  0.00     0.188 C 
BRANCH  33  34
ATOM     34  O   UNL A   1      49.644  20.136  35.570  1.00  0.00    -0.376 OA
BRANCH  34  35
ATOM     35  C   UNL A   1      50.854  19.472  35.251  1.00  0.00     0.202 C 
BRANCH  35  36
ATOM     36  C   UNL A   1      52.207  20.183  35.446  1.00  0.00     0.261 C 
BRANCH  36  37
ATOM     37  O   UNL A   1      52.894  20.664  34.282  1.00  0.00    -0.460 OA
BRANCH  37  38
ATOM     38  C   UNL A   1      53.589  21.815  34.370  1.00  0.00     0.338 C 
ATOM     39  O   UNL A   1      54.713  21.953  34.830  1.00  0.00    -0.246 OA
BRANCH  38  40
ATOM     40  C   UNL A   1      52.852  22.848  33.604  1.00  0.00     0.060 A 
ATOM     41  C   UNL A   1      53.454  24.099  33.410  1.00  0.00     0.016 A 
ATOM     42  C   UNL A   1      51.593  22.583  33.057  1.00  0.00     0.016 A 
ATOM     43  C   UNL A   1      52.786  25.097  32.698  1.00  0.00     0.010 A 
ATOM     44  C   UNL A   1      50.912  23.595  32.369  1.00  0.00     0.010 A 
ATOM     45  C   UNL A   1      51.491  24.867  32.217  1.00  0.00    -0.014 A 
BRANCH  45  46
ATOM     46  C   UNL A   1      50.682  26.015  31.739  1.00  0.00     0.031 A 
ATOM     47  C   UNL A   1      49.818  26.743  32.735  1.00  0.00     0.074 A 
ATOM     48  C   UNL A   1      50.731  26.428  30.460  1.00  0.00     0.049 A 
ATOM     49  N   UNL A   1      49.025  27.766  32.555  1.00  0.00    -0.248 NA
ATOM     50  C   UNL A   1      49.856  26.245  34.120  1.00  0.00     0.031 C 
ATOM     51  C   UNL A   1      51.555  25.832  29.411  1.00  0.00     0.029 A 
ATOM     52  N   UNL A   1      50.063  27.448  29.829  1.00  0.00    -0.354 N 
ATOM     53  C   UNL A   1      48.457  28.026  33.798  1.00  0.00     0.074 A 
ATOM     54  C   UNL A   1      48.978  27.036  34.716  1.00  0.00     0.031 C 
ATOM     55  C   UNL A   1      51.331  26.488  28.258  1.00  0.00     0.029 A 
ATOM     56  C   UNL A   1      50.326  27.527  28.482  1.00  0.00     0.049 A 
ATOM     57  H   UNL A   1      49.454  28.064  30.296  1.00  0.00     0.167 HD
ATOM     58  C   UNL A   1      47.580  28.998  34.143  1.00  0.00     0.031 A 
ATOM     59  C   UNL A   1      49.797  28.327  27.533  1.00  0.00     0.031 A 
ATOM     60  C   UNL A   1      47.048  29.966  33.221  1.00  0.00     0.049 A 
ATOM     61  C   UNL A   1      48.777  29.365  27.926  1.00  0.00     0.074 A 
ATOM     62  C   UNL A   1      46.179  31.011  33.478  1.00  0.00     0.029 A 
ATOM     63  N   UNL A   1      47.317  29.995  31.861  1.00  0.00    -0.354 N 
ATOM     64  N   UNL A   1      48.288  29.631  29.114  1.00  0.00    -0.248 NA
ATOM     65  C   UNL A   1      48.248  30.217  26.853  1.00  0.00     0.031 C 
ATOM     66  C   UNL A   1      45.863  31.624  32.261  1.00  0.00     0.029 A 
ATOM     67  C   UNL A   1      46.597  31.013  31.257  1.00  0.00     0.049 A 
ATOM     68  H   UNL A   1      47.930  29.383  31.392  1.00  0.00     0.167 HD
ATOM     69  C   UNL A   1      47.408  30.694  28.934  1.00  0.00     0.074 A 
ATOM     70  C   UNL A   1      47.452  31.036  27.526  1.00  0.00     0.031 C 
ATOM     71  C   UNL A   1      46.636  31.333  29.850  1.00  0.00     0.031 A 
BRANCH  58  72
ATOM     72  C   UNL A   1      47.095  29.019  35.571  1.00  0.00    -0.014 A 
ATOM     73  C   UNL A   1      45.909  28.371  35.962  1.00  0.00     0.010 A 
ATOM     74  C   UNL A   1      47.857  29.691  36.545  1.00  0.00     0.010 A 
ATOM     75  C   UNL A   1      45.467  28.439  37.285  1.00  0.00     0.020 A 
ATOM     76  C   UNL A   1      47.436  29.733  37.877  1.00  0.00     0.020 A 
ATOM     77  C   UNL A   1      46.232  29.124  38.235  1.00  0.00     0.054 A 
BRANCH  77  78
ATOM     78  S   UNL A   1      45.639  29.194  39.947  1.00  0.00     0.124 S 
ATOM     79  O   UNL A   1      46.890  29.277  40.696  1.00  0.00    -0.237 OA
ATOM     80  O   UNL A   1      44.823  30.405  39.952  1.00  0.00    -0.237 OA
ATOM     81  O   UNL A   1      44.898  27.946  40.110  1.00  0.00    -0.744 OA
ENDBRANCH  77  78
ENDBRANCH  58  72
BRANCH  59  82
ATOM     82  C   UNL A   1      50.206  28.152  26.111  1.00  0.00    -0.014 A 
ATOM     83  C   UNL A   1      51.282  28.875  25.569  1.00  0.00     0.010 A 
ATOM     84  C   UNL A   1      49.523  27.232  25.293  1.00  0.00     0.010 A 
ATOM     85  C   UNL A   1      51.668  28.682  24.238  1.00  0.00     0.020 A 
ATOM     86  C   UNL A   1      49.924  27.013  23.972  1.00  0.00     0.020 A 
ATOM     87  C   UNL A   1      50.992  27.744  23.451  1.00  0.00     0.054 A 
BRANCH  87  88
ATOM     88  S   UNL A   1      51.564  27.451  21.755  1.00  0.00     0.124 S 
ATOM     89  O   UNL A   1      50.319  27.138  21.061  1.00  0.00    -0.237 OA
ATOM     90  O   UNL A   1      52.180  28.729  21.407  1.00  0.00    -0.237 OA
ATOM     91  O   UNL A   1      52.499  26.337  21.895  1.00  0.00    -0.744 OA
ENDBRANCH  87  88
ENDBRANCH  59  82
BRANCH  71  92
ATOM     92  C   UNL A   1      45.788  32.483  29.368  1.00  0.00    -0.014 A 
ATOM     93  C   UNL A   1      46.311  33.784  29.254  1.00  0.00     0.010 A 
ATOM     94  C   UNL A   1      44.457  32.248  28.977  1.00  0.00     0.010 A 
ATOM     95  C   UNL A   1      45.506  34.834  28.802  1.00  0.00     0.020 A 
ATOM     96  C   UNL A   1      43.660  33.287  28.491  1.00  0.00     0.020 A 
ATOM     97  C   UNL A   1      44.184  34.579  28.424  1.00  0.00     0.054 A 
BRANCH  97  98
ATOM     98  S   UNL A   1      43.169  35.952  27.814  1.00  0.00     0.124 S 
ATOM     99  O   UNL A   1      42.198  36.114  28.893  1.00  0.00    -0.237 OA
ATOM    100  O   UNL A   1      44.142  37.033  27.676  1.00  0.00    -0.237 OA
ATOM    101  O   UNL A   1      42.622  35.450  26.556  1.00  0.00    -0.744 OA
ENDBRANCH  97  98
ENDBRANCH  71  92
ENDBRANCH  45  46
ENDBRANCH  38  40
ENDBRANCH  37  38
ENDBRANCH  36  37
ENDBRANCH  35  36
ENDBRANCH  34  35
ENDBRANCH  33  34
ENDBRANCH  32  33
ENDBRANCH  31  32
ENDBRANCH   1  31
TORSDOF 29
ENDMDL
