MODEL 1
REMARK VINA RESULT:      -7.9      0.000      0.000
REMARK SMILES Cc1nc(SCc2ccccc2)[nH]c(=O)c1CCC(=O)OCCOCCOCCOCCOC(=O)c1ccc(-c2c3nc(c(-c4ccc(S(=O)(=O)[O-])cc4)c4ccc([nH]4)c(-c4ccc(S(=O)(=O)[O-])cc4)c4nc(c(-c5ccc(S(=O)(=O)[O-])cc5)c5ccc2[nH]5)C=C4)C=C3)cc1
REMARK SMILES IDX 26 1 25 2 24 3 23 4 22 5 21 6 19 7 20 8 18 9 17 10 16 11
REMARK SMILES IDX 1 12 2 13 3 14 4 15 14 16 13 17 15 18 5 20 6 21 7 22 8 23
REMARK SMILES IDX 12 24 9 25 11 26 10 27 27 28 28 29 29 30 30 31 31 32 32 33
REMARK SMILES IDX 33 34 34 35 35 36 36 37 37 38 95 39 38 40 94 41 39 42 40 43
REMARK SMILES IDX 41 44 88 45 42 46 93 47 87 48 89 49 43 50 92 51 86 52 85 53
REMARK SMILES IDX 44 55 74 56 55 57 73 58 56 59 59 60 72 61 90 62 57 63 58 64
REMARK SMILES IDX 71 66 91 67 60 68 45 69 46 70 54 71 47 72 53 73 48 74 49 75
REMARK SMILES IDX 50 76 51 77 52 78 75 79 76 80 84 81 77 82 83 83 78 84 79 85
REMARK SMILES IDX 80 86 81 87 82 88 61 89 62 90 70 91 63 92 69 93 64 94 65 95
REMARK SMILES IDX 66 96 67 97 68 98
REMARK H PARENT 13 19 89 54 59 65
REMARK Flexibility Score: inf
ROOT
ATOM      1  C   UNL A   1      38.409  28.837  28.122  1.00  0.00     0.188 C 
ENDROOT
BRANCH   1   2
ATOM      2  C   UNL A   1      37.566  29.772  29.005  1.00  0.00     0.188 C 
BRANCH   2   3
ATOM      3  O   UNL A   1      36.173  29.597  29.148  1.00  0.00    -0.376 OA
BRANCH   3   4
ATOM      4  C   UNL A   1      35.261  29.986  28.120  1.00  0.00     0.202 C 
BRANCH   4   5
ATOM      5  C   UNL A   1      34.746  29.097  26.961  1.00  0.00     0.261 C 
BRANCH   5   6
ATOM      6  O   UNL A   1      33.617  28.245  27.201  1.00  0.00    -0.463 OA
BRANCH   6   7
ATOM      7  C   UNL A   1      32.490  28.440  26.495  1.00  0.00     0.306 C 
ATOM      8  O   UNL A   1      32.316  29.371  25.713  1.00  0.00    -0.252 OA
BRANCH   7   9
ATOM      9  C   UNL A   1      31.430  27.382  26.764  1.00  0.00     0.128 C 
BRANCH   9  10
ATOM     10  C   UNL A   1      31.250  26.155  25.837  1.00  0.00     0.055 C 
BRANCH  10  11
ATOM     11  C   UNL A   1      32.272  25.032  25.709  1.00  0.00     0.039 A 
ATOM     12  C   UNL A   1      33.810  26.245  24.110  1.00  0.00     0.067 C 
ATOM     13  C   UNL A   1      33.414  25.071  24.974  1.00  0.00     0.049 A 
ATOM     14  N   UNL A   1      34.273  23.996  24.806  1.00  0.00    -0.229 NA
ATOM     15  C   UNL A   1      33.880  22.860  25.273  1.00  0.00     0.168 A 
ATOM     16  C   UNL A   1      32.124  23.787  26.508  1.00  0.00     0.254 A 
ATOM     17  N   UNL A   1      32.825  22.713  26.091  1.00  0.00    -0.301 N 
ATOM     18  O   UNL A   1      31.431  23.694  27.505  1.00  0.00    -0.269 OA
ATOM     19  H   UNL A   1      32.561  21.813  26.389  1.00  0.00     0.172 HD
BRANCH  15  20
ATOM     20  S   UNL A   1      34.569  21.332  24.874  1.00  0.00    -0.083 SA
BRANCH  20  21
ATOM     21  C   UNL A   1      33.159  20.228  25.077  1.00  0.00     0.113 C 
BRANCH  21  22
ATOM     22  C   UNL A   1      33.346  18.719  25.059  1.00  0.00    -0.038 A 
ATOM     23  C   UNL A   1      34.198  18.156  24.096  1.00  0.00     0.004 A 
ATOM     24  C   UNL A   1      32.582  17.822  25.816  1.00  0.00     0.004 A 
ATOM     25  C   UNL A   1      34.234  16.773  23.876  1.00  0.00     0.000 A 
ATOM     26  C   UNL A   1      32.595  16.444  25.592  1.00  0.00     0.000 A 
ATOM     27  C   UNL A   1      33.413  15.920  24.607  1.00  0.00     0.000 A 
ENDBRANCH  21  22
ENDBRANCH  20  21
ENDBRANCH  15  20
ENDBRANCH  10  11
ENDBRANCH   9  10
ENDBRANCH   7   9
ENDBRANCH   6   7
ENDBRANCH   5   6
ENDBRANCH   4   5
ENDBRANCH   3   4
ENDBRANCH   2   3
ENDBRANCH   1   2
BRANCH   1  28
ATOM     28  O   UNL A   1      39.059  27.694  28.646  1.00  0.00    -0.377 OA
BRANCH  28  29
ATOM     29  C   UNL A   1      39.403  26.658  27.742  1.00  0.00     0.188 C 
BRANCH  29  30
ATOM     30  C   UNL A   1      39.565  25.236  28.297  1.00  0.00     0.188 C 
BRANCH  30  31
ATOM     31  O   UNL A   1      38.674  24.289  27.740  1.00  0.00    -0.376 OA
BRANCH  31  32
ATOM     32  C   UNL A   1      39.151  23.503  26.653  1.00  0.00     0.202 C 
BRANCH  32  33
ATOM     33  C   UNL A   1      39.932  22.193  26.898  1.00  0.00     0.261 C 
BRANCH  33  34
ATOM     34  O   UNL A   1      40.841  21.746  25.879  1.00  0.00    -0.460 OA
BRANCH  34  35
ATOM     35  C   UNL A   1      42.137  21.577  26.206  1.00  0.00     0.338 C 
ATOM     36  O   UNL A   1      42.812  20.574  26.032  1.00  0.00    -0.246 OA
BRANCH  35  37
ATOM     37  C   UNL A   1      42.662  22.887  26.653  1.00  0.00     0.060 A 
ATOM     38  C   UNL A   1      42.748  23.937  25.728  1.00  0.00     0.016 A 
ATOM     39  C   UNL A   1      43.062  23.086  27.977  1.00  0.00     0.016 A 
ATOM     40  C   UNL A   1      43.264  25.175  26.115  1.00  0.00     0.010 A 
ATOM     41  C   UNL A   1      43.603  24.320  28.358  1.00  0.00     0.010 A 
ATOM     42  C   UNL A   1      43.739  25.360  27.421  1.00  0.00    -0.014 A 
BRANCH  42  43
ATOM     43  C   UNL A   1      44.549  26.562  27.744  1.00  0.00     0.031 A 
ATOM     44  C   UNL A   1      43.911  27.659  28.555  1.00  0.00     0.074 A 
ATOM     45  C   UNL A   1      45.834  26.671  27.359  1.00  0.00     0.049 A 
ATOM     46  N   UNL A   1      44.406  28.808  28.935  1.00  0.00    -0.248 NA
ATOM     47  C   UNL A   1      42.528  27.423  29.000  1.00  0.00     0.031 C 
ATOM     48  C   UNL A   1      46.587  25.656  26.624  1.00  0.00     0.029 A 
ATOM     49  N   UNL A   1      46.734  27.695  27.535  1.00  0.00    -0.354 N 
ATOM     50  C   UNL A   1      43.395  29.435  29.653  1.00  0.00     0.074 A 
ATOM     51  C   UNL A   1      42.250  28.553  29.632  1.00  0.00     0.031 C 
ATOM     52  C   UNL A   1      47.832  26.114  26.401  1.00  0.00     0.029 A 
ATOM     53  C   UNL A   1      47.954  27.467  26.944  1.00  0.00     0.049 A 
ATOM     54  H   UNL A   1      46.524  28.515  28.037  1.00  0.00     0.167 HD
ATOM     55  C   UNL A   1      43.416  30.637  30.277  1.00  0.00     0.031 A 
ATOM     56  C   UNL A   1      49.036  28.265  26.834  1.00  0.00     0.031 A 
ATOM     57  C   UNL A   1      44.551  31.522  30.277  1.00  0.00     0.049 A 
ATOM     58  C   UNL A   1      49.008  29.638  27.459  1.00  0.00     0.074 A 
ATOM     59  C   UNL A   1      44.675  32.759  30.885  1.00  0.00     0.029 A 
ATOM     60  N   UNL A   1      45.752  31.272  29.631  1.00  0.00    -0.354 N 
ATOM     61  N   UNL A   1      48.051  30.211  28.151  1.00  0.00    -0.248 NA
ATOM     62  C   UNL A   1      50.211  30.468  27.298  1.00  0.00     0.031 C 
ATOM     63  C   UNL A   1      45.925  33.287  30.547  1.00  0.00     0.029 A 
ATOM     64  C   UNL A   1      46.611  32.345  29.798  1.00  0.00     0.049 A 
ATOM     65  H   UNL A   1      45.962  30.453  29.126  1.00  0.00     0.167 HD
ATOM     66  C   UNL A   1      48.551  31.451  28.539  1.00  0.00     0.074 A 
ATOM     67  C   UNL A   1      49.897  31.542  28.012  1.00  0.00     0.031 C 
ATOM     68  C   UNL A   1      47.952  32.423  29.273  1.00  0.00     0.031 A 
BRANCH  55  69
ATOM     69  C   UNL A   1      42.156  31.086  30.971  1.00  0.00    -0.014 A 
ATOM     70  C   UNL A   1      41.940  30.833  32.338  1.00  0.00     0.010 A 
ATOM     71  C   UNL A   1      41.186  31.804  30.249  1.00  0.00     0.010 A 
ATOM     72  C   UNL A   1      40.760  31.253  32.959  1.00  0.00     0.020 A 
ATOM     73  C   UNL A   1      40.019  32.254  30.872  1.00  0.00     0.020 A 
ATOM     74  C   UNL A   1      39.806  31.961  32.220  1.00  0.00     0.054 A 
BRANCH  74  75
ATOM     75  S   UNL A   1      38.294  32.513  33.056  1.00  0.00     0.124 S 
ATOM     76  O   UNL A   1      37.281  32.283  32.028  1.00  0.00    -0.237 OA
ATOM     77  O   UNL A   1      38.226  31.626  34.213  1.00  0.00    -0.237 OA
ATOM     78  O   UNL A   1      38.559  33.916  33.363  1.00  0.00    -0.744 OA
ENDBRANCH  74  75
ENDBRANCH  55  69
BRANCH  56  79
ATOM     79  C   UNL A   1      50.236  27.794  26.084  1.00  0.00    -0.014 A 
ATOM     80  C   UNL A   1      51.260  27.082  26.733  1.00  0.00     0.010 A 
ATOM     81  C   UNL A   1      50.360  28.061  24.707  1.00  0.00     0.010 A 
ATOM     82  C   UNL A   1      52.391  26.660  26.025  1.00  0.00     0.020 A 
ATOM     83  C   UNL A   1      51.472  27.614  23.989  1.00  0.00     0.020 A 
ATOM     84  C   UNL A   1      52.487  26.925  24.655  1.00  0.00     0.054 A 
BRANCH  84  85
ATOM     85  S   UNL A   1      53.940  26.322  23.750  1.00  0.00     0.124 S 
ATOM     86  O   UNL A   1      53.363  25.951  22.462  1.00  0.00    -0.237 OA
ATOM     87  O   UNL A   1      54.810  27.494  23.741  1.00  0.00    -0.237 OA
ATOM     88  O   UNL A   1      54.415  25.207  24.566  1.00  0.00    -0.744 OA
ENDBRANCH  84  85
ENDBRANCH  56  79
BRANCH  68  89
ATOM     89  C   UNL A   1      48.759  33.654  29.606  1.00  0.00    -0.014 A 
ATOM     90  C   UNL A   1      48.626  34.845  28.871  1.00  0.00     0.010 A 
ATOM     91  C   UNL A   1      49.610  33.634  30.727  1.00  0.00     0.010 A 
ATOM     92  C   UNL A   1      49.351  35.984  29.236  1.00  0.00     0.020 A 
ATOM     93  C   UNL A   1      50.310  34.780  31.114  1.00  0.00     0.020 A 
ATOM     94  C   UNL A   1      50.185  35.945  30.357  1.00  0.00     0.054 A 
BRANCH  94  95
ATOM     95  S   UNL A   1      51.073  37.452  30.839  1.00  0.00     0.124 S 
ATOM     96  O   UNL A   1      51.917  36.974  31.929  1.00  0.00    -0.237 OA
ATOM     97  O   UNL A   1      51.777  37.813  29.610  1.00  0.00    -0.237 OA
ATOM     98  O   UNL A   1      50.009  38.372  31.232  1.00  0.00    -0.744 OA
ENDBRANCH  94  95
ENDBRANCH  68  89
ENDBRANCH  42  43
ENDBRANCH  35  37
ENDBRANCH  34  35
ENDBRANCH  33  34
ENDBRANCH  32  33
ENDBRANCH  31  32
ENDBRANCH  30  31
ENDBRANCH  29  30
ENDBRANCH  28  29
ENDBRANCH   1  28
TORSDOF 28
ENDMDL
MODEL 2
REMARK VINA RESULT:      -7.9      0.815      7.805
REMARK SMILES Cc1nc(SCc2ccccc2)[nH]c(=O)c1CCC(=O)OCCOCCOCCOCCOC(=O)c1ccc(-c2c3nc(c(-c4ccc(S(=O)(=O)[O-])cc4)c4ccc([nH]4)c(-c4ccc(S(=O)(=O)[O-])cc4)c4nc(c(-c5ccc(S(=O)(=O)[O-])cc5)c5ccc2[nH]5)C=C4)C=C3)cc1
REMARK SMILES IDX 26 1 25 2 24 3 23 4 22 5 21 6 19 7 20 8 18 9 17 10 16 11
REMARK SMILES IDX 1 12 2 13 3 14 4 15 14 16 13 17 15 18 5 20 6 21 7 22 8 23
REMARK SMILES IDX 12 24 9 25 11 26 10 27 27 28 28 29 29 30 30 31 31 32 32 33
REMARK SMILES IDX 33 34 34 35 35 36 36 37 37 38 95 39 38 40 94 41 39 42 40 43
REMARK SMILES IDX 41 44 88 45 42 46 93 47 87 48 89 49 43 50 92 51 86 52 85 53
REMARK SMILES IDX 44 55 74 56 55 57 73 58 56 59 59 60 72 61 90 62 57 63 58 64
REMARK SMILES IDX 71 66 91 67 60 68 45 69 46 70 54 71 47 72 53 73 48 74 49 75
REMARK SMILES IDX 50 76 51 77 52 78 75 79 76 80 84 81 77 82 83 83 78 84 79 85
REMARK SMILES IDX 80 86 81 87 82 88 61 89 62 90 70 91 63 92 69 93 64 94 65 95
REMARK SMILES IDX 66 96 67 97 68 98
REMARK H PARENT 13 19 89 54 59 65
REMARK Flexibility Score: inf
ROOT
ATOM      1  C   UNL A   1      38.399  28.860  28.065  1.00  0.00     0.188 C 
ENDROOT
BRANCH   1   2
ATOM      2  C   UNL A   1      37.565  29.812  28.938  1.00  0.00     0.188 C 
BRANCH   2   3
ATOM      3  O   UNL A   1      36.171  29.649  29.086  1.00  0.00    -0.376 OA
BRANCH   3   4
ATOM      4  C   UNL A   1      35.259  30.032  28.055  1.00  0.00     0.202 C 
BRANCH   4   5
ATOM      5  C   UNL A   1      34.720  29.126  26.920  1.00  0.00     0.261 C 
BRANCH   5   6
ATOM      6  O   UNL A   1      33.600  28.273  27.198  1.00  0.00    -0.463 OA
BRANCH   6   7
ATOM      7  C   UNL A   1      32.448  28.469  26.533  1.00  0.00     0.306 C 
ATOM      8  O   UNL A   1      32.241  29.409  25.771  1.00  0.00    -0.252 OA
BRANCH   7   9
ATOM      9  C   UNL A   1      31.406  27.399  26.824  1.00  0.00     0.128 C 
BRANCH   9  10
ATOM     10  C   UNL A   1      31.209  26.179  25.891  1.00  0.00     0.055 C 
BRANCH  10  11
ATOM     11  C   UNL A   1      32.233  25.063  25.729  1.00  0.00     0.039 A 
ATOM     12  C   UNL A   1      33.714  26.287  24.086  1.00  0.00     0.067 C 
ATOM     13  C   UNL A   1      33.352  25.109  24.959  1.00  0.00     0.049 A 
ATOM     14  N   UNL A   1      34.211  24.039  24.762  1.00  0.00    -0.229 NA
ATOM     15  C   UNL A   1      33.840  22.901  25.238  1.00  0.00     0.168 A 
ATOM     16  C   UNL A   1      32.118  23.815  26.529  1.00  0.00     0.254 A 
ATOM     17  N   UNL A   1      32.812  22.746  26.088  1.00  0.00    -0.301 N 
ATOM     18  O   UNL A   1      31.456  23.715  27.547  1.00  0.00    -0.269 OA
ATOM     19  H   UNL A   1      32.562  21.844  26.392  1.00  0.00     0.172 HD
BRANCH  15  20
ATOM     20  S   UNL A   1      34.525  21.378  24.815  1.00  0.00    -0.083 SA
BRANCH  20  21
ATOM     21  C   UNL A   1      33.150  20.255  25.128  1.00  0.00     0.113 C 
BRANCH  21  22
ATOM     22  C   UNL A   1      33.359  18.749  25.116  1.00  0.00    -0.038 A 
ATOM     23  C   UNL A   1      34.335  18.210  24.263  1.00  0.00     0.004 A 
ATOM     24  C   UNL A   1      32.517  17.832  25.758  1.00  0.00     0.004 A 
ATOM     25  C   UNL A   1      34.418  16.831  24.033  1.00  0.00     0.000 A 
ATOM     26  C   UNL A   1      32.578  16.458  25.520  1.00  0.00     0.000 A 
ATOM     27  C   UNL A   1      33.523  15.958  24.642  1.00  0.00     0.000 A 
ENDBRANCH  21  22
ENDBRANCH  20  21
ENDBRANCH  15  20
ENDBRANCH  10  11
ENDBRANCH   9  10
ENDBRANCH   7   9
ENDBRANCH   6   7
ENDBRANCH   5   6
ENDBRANCH   4   5
ENDBRANCH   3   4
ENDBRANCH   2   3
ENDBRANCH   1   2
BRANCH   1  28
ATOM     28  O   UNL A   1      39.046  27.722  28.604  1.00  0.00    -0.377 OA
BRANCH  28  29
ATOM     29  C   UNL A   1      39.410  26.684  27.709  1.00  0.00     0.188 C 
BRANCH  29  30
ATOM     30  C   UNL A   1      39.653  25.282  28.286  1.00  0.00     0.188 C 
BRANCH  30  31
ATOM     31  O   UNL A   1      38.771  24.290  27.796  1.00  0.00    -0.376 OA
BRANCH  31  32
ATOM     32  C   UNL A   1      39.226  23.493  26.707  1.00  0.00     0.202 C 
BRANCH  32  33
ATOM     33  C   UNL A   1      40.068  22.221  26.947  1.00  0.00     0.261 C 
BRANCH  33  34
ATOM     34  O   UNL A   1      41.017  21.836  25.939  1.00  0.00    -0.460 OA
BRANCH  34  35
ATOM     35  C   UNL A   1      42.308  21.694  26.295  1.00  0.00     0.338 C 
ATOM     36  O   UNL A   1      43.020  20.722  26.095  1.00  0.00    -0.246 OA
BRANCH  35  37
ATOM     37  C   UNL A   1      42.778  22.998  26.815  1.00  0.00     0.060 A 
ATOM     38  C   UNL A   1      42.809  24.103  25.952  1.00  0.00     0.016 A 
ATOM     39  C   UNL A   1      43.178  23.138  28.146  1.00  0.00     0.016 A 
ATOM     40  C   UNL A   1      43.273  25.338  26.409  1.00  0.00     0.010 A 
ATOM     41  C   UNL A   1      43.666  24.370  28.596  1.00  0.00     0.010 A 
ATOM     42  C   UNL A   1      43.748  25.468  27.720  1.00  0.00    -0.014 A 
BRANCH  42  43
ATOM     43  C   UNL A   1      44.506  26.684  28.109  1.00  0.00     0.031 A 
ATOM     44  C   UNL A   1      45.986  26.723  27.832  1.00  0.00     0.074 A 
ATOM     45  C   UNL A   1      43.898  27.749  28.664  1.00  0.00     0.049 A 
ATOM     46  N   UNL A   1      46.859  27.659  28.105  1.00  0.00    -0.248 NA
ATOM     47  C   UNL A   1      46.556  25.549  27.152  1.00  0.00     0.031 C 
ATOM     48  C   UNL A   1      42.465  27.863  28.927  1.00  0.00     0.029 A 
ATOM     49  N   UNL A   1      44.416  28.941  29.109  1.00  0.00    -0.354 N 
ATOM     50  C   UNL A   1      48.079  27.182  27.640  1.00  0.00     0.074 A 
ATOM     51  C   UNL A   1      47.841  25.865  27.095  1.00  0.00     0.031 C 
ATOM     52  C   UNL A   1      42.220  29.055  29.500  1.00  0.00     0.029 A 
ATOM     53  C   UNL A   1      43.481  29.774  29.677  1.00  0.00     0.049 A 
ATOM     54  H   UNL A   1      45.369  29.177  29.028  1.00  0.00     0.167 HD
ATOM     55  C   UNL A   1      49.291  27.787  27.663  1.00  0.00     0.031 A 
ATOM     56  C   UNL A   1      43.628  30.967  30.289  1.00  0.00     0.031 A 
ATOM     57  C   UNL A   1      49.528  29.090  28.227  1.00  0.00     0.049 A 
ATOM     58  C   UNL A   1      45.002  31.584  30.384  1.00  0.00     0.074 A 
ATOM     59  C   UNL A   1      50.719  29.793  28.293  1.00  0.00     0.029 A 
ATOM     60  N   UNL A   1      48.563  29.881  28.831  1.00  0.00    -0.354 N 
ATOM     61  N   UNL A   1      46.145  31.130  29.924  1.00  0.00    -0.248 NA
ATOM     62  C   UNL A   1      45.105  32.879  31.072  1.00  0.00     0.031 C 
ATOM     63  C   UNL A   1      50.486  30.977  28.999  1.00  0.00     0.029 A 
ATOM     64  C   UNL A   1      49.136  31.051  29.301  1.00  0.00     0.049 A 
ATOM     65  H   UNL A   1      47.611  29.645  28.913  1.00  0.00     0.167 HD
ATOM     66  C   UNL A   1      47.093  32.101  30.233  1.00  0.00     0.074 A 
ATOM     67  C   UNL A   1      46.390  33.170  30.912  1.00  0.00     0.031 C 
ATOM     68  C   UNL A   1      48.425  32.112  29.970  1.00  0.00     0.031 A 
BRANCH  55  69
ATOM     69  C   UNL A   1      50.463  27.024  27.103  1.00  0.00    -0.014 A 
ATOM     70  C   UNL A   1      50.591  26.781  25.723  1.00  0.00     0.010 A 
ATOM     71  C   UNL A   1      51.472  26.569  27.972  1.00  0.00     0.010 A 
ATOM     72  C   UNL A   1      51.684  26.064  25.228  1.00  0.00     0.020 A 
ATOM     73  C   UNL A   1      52.583  25.880  27.478  1.00  0.00     0.020 A 
ATOM     74  C   UNL A   1      52.673  25.616  26.110  1.00  0.00     0.054 A 
BRANCH  74  75
ATOM     75  S   UNL A   1      54.091  24.708  25.438  1.00  0.00     0.124 S 
ATOM     76  O   UNL A   1      54.508  25.573  24.335  1.00  0.00    -0.237 OA
ATOM     77  O   UNL A   1      55.006  24.657  26.574  1.00  0.00    -0.237 OA
ATOM     78  O   UNL A   1      53.524  23.423  25.039  1.00  0.00    -0.744 OA
ENDBRANCH  74  75
ENDBRANCH  55  69
BRANCH  56  79
ATOM     79  C   UNL A   1      42.443  31.652  30.879  1.00  0.00    -0.014 A 
ATOM     80  C   UNL A   1      41.709  32.593  30.136  1.00  0.00     0.010 A 
ATOM     81  C   UNL A   1      42.044  31.366  32.199  1.00  0.00     0.010 A 
ATOM     82  C   UNL A   1      40.609  33.246  30.705  1.00  0.00     0.020 A 
ATOM     83  C   UNL A   1      40.927  31.991  32.760  1.00  0.00     0.020 A 
ATOM     84  C   UNL A   1      40.223  32.936  32.012  1.00  0.00     0.054 A 
BRANCH  84  85
ATOM     85  S   UNL A   1      38.762  33.758  32.709  1.00  0.00     0.124 S 
ATOM     86  O   UNL A   1      38.128  32.674  33.452  1.00  0.00    -0.237 OA
ATOM     87  O   UNL A   1      39.357  34.819  33.517  1.00  0.00    -0.237 OA
ATOM     88  O   UNL A   1      38.032  34.217  31.529  1.00  0.00    -0.744 OA
ENDBRANCH  84  85
ENDBRANCH  56  79
BRANCH  68  89
ATOM     89  C   UNL A   1      49.212  33.337  30.363  1.00  0.00    -0.014 A 
ATOM     90  C   UNL A   1      49.928  33.399  31.572  1.00  0.00     0.010 A 
ATOM     91  C   UNL A   1      49.297  34.416  29.463  1.00  0.00     0.010 A 
ATOM     92  C   UNL A   1      50.689  34.530  31.885  1.00  0.00     0.020 A 
ATOM     93  C   UNL A   1      50.083  35.533  29.757  1.00  0.00     0.020 A 
ATOM     94  C   UNL A   1      50.765  35.588  30.973  1.00  0.00     0.054 A 
BRANCH  94  95
ATOM     95  S   UNL A   1      51.803  37.019  31.381  1.00  0.00     0.124 S 
ATOM     96  O   UNL A   1      51.409  37.300  32.758  1.00  0.00    -0.237 OA
ATOM     97  O   UNL A   1      53.154  36.491  31.208  1.00  0.00    -0.237 OA
ATOM     98  O   UNL A   1      51.405  38.027  30.401  1.00  0.00    -0.744 OA
ENDBRANCH  94  95
ENDBRANCH  68  89
ENDBRANCH  42  43
ENDBRANCH  35  37
ENDBRANCH  34  35
ENDBRANCH  33  34
ENDBRANCH  32  33
ENDBRANCH  31  32
ENDBRANCH  30  31
ENDBRANCH  29  30
ENDBRANCH  28  29
ENDBRANCH   1  28
TORSDOF 28
ENDMDL
MODEL 3
REMARK VINA RESULT:      -7.4      4.987     11.856
REMARK SMILES Cc1nc(SCc2ccccc2)[nH]c(=O)c1CCC(=O)OCCOCCOCCOCCOC(=O)c1ccc(-c2c3nc(c(-c4ccc(S(=O)(=O)[O-])cc4)c4ccc([nH]4)c(-c4ccc(S(=O)(=O)[O-])cc4)c4nc(c(-c5ccc(S(=O)(=O)[O-])cc5)c5ccc2[nH]5)C=C4)C=C3)cc1
REMARK SMILES IDX 26 1 25 2 24 3 23 4 22 5 21 6 19 7 20 8 18 9 17 10 16 11
REMARK SMILES IDX 1 12 2 13 3 14 4 15 14 16 13 17 15 18 5 20 6 21 7 22 8 23
REMARK SMILES IDX 12 24 9 25 11 26 10 27 27 28 28 29 29 30 30 31 31 32 32 33
REMARK SMILES IDX 33 34 34 35 35 36 36 37 37 38 95 39 38 40 94 41 39 42 40 43
REMARK SMILES IDX 41 44 88 45 42 46 93 47 87 48 89 49 43 50 92 51 86 52 85 53
REMARK SMILES IDX 44 55 74 56 55 57 73 58 56 59 59 60 72 61 90 62 57 63 58 64
REMARK SMILES IDX 71 66 91 67 60 68 45 69 46 70 54 71 47 72 53 73 48 74 49 75
REMARK SMILES IDX 50 76 51 77 52 78 75 79 76 80 84 81 77 82 83 83 78 84 79 85
REMARK SMILES IDX 80 86 81 87 82 88 61 89 62 90 70 91 63 92 69 93 64 94 65 95
REMARK SMILES IDX 66 96 67 97 68 98
REMARK H PARENT 13 19 89 54 59 65
REMARK Flexibility Score: inf
ROOT
ATOM      1  C   UNL A   1      33.822  34.908  31.727  1.00  0.00     0.188 C 
ENDROOT
BRANCH   1   2
ATOM      2  C   UNL A   1      34.138  33.705  32.631  1.00  0.00     0.188 C 
BRANCH   2   3
ATOM      3  O   UNL A   1      35.349  32.991  32.515  1.00  0.00    -0.376 OA
BRANCH   3   4
ATOM      4  C   UNL A   1      35.932  32.320  33.633  1.00  0.00     0.202 C 
BRANCH   4   5
ATOM      5  C   UNL A   1      37.304  32.632  34.281  1.00  0.00     0.261 C 
BRANCH   5   6
ATOM      6  O   UNL A   1      38.296  33.306  33.494  1.00  0.00    -0.463 OA
BRANCH   6   7
ATOM      7  C   UNL A   1      39.171  34.123  34.105  1.00  0.00     0.306 C 
ATOM      8  O   UNL A   1      39.034  35.339  34.195  1.00  0.00    -0.252 OA
BRANCH   7   9
ATOM      9  C   UNL A   1      40.372  33.385  34.679  1.00  0.00     0.128 C 
BRANCH   9  10
ATOM     10  C   UNL A   1      41.651  33.136  33.842  1.00  0.00     0.055 C 
BRANCH  10  11
ATOM     11  C   UNL A   1      41.884  33.723  32.456  1.00  0.00     0.039 A 
ATOM     12  C   UNL A   1      42.959  35.870  33.246  1.00  0.00     0.067 C 
ATOM     13  C   UNL A   1      42.482  34.911  32.181  1.00  0.00     0.049 A 
ATOM     14  N   UNL A   1      42.592  35.457  30.911  1.00  0.00    -0.229 NA
ATOM     15  C   UNL A   1      41.965  34.850  29.962  1.00  0.00     0.168 A 
ATOM     16  C   UNL A   1      41.541  32.939  31.241  1.00  0.00     0.254 A 
ATOM     17  N   UNL A   1      41.421  33.628  30.088  1.00  0.00    -0.301 N 
ATOM     18  O   UNL A   1      41.380  31.731  31.230  1.00  0.00    -0.269 OA
ATOM     19  H   UNL A   1      40.931  33.233  29.332  1.00  0.00     0.172 HD
BRANCH  15  20
ATOM     20  S   UNL A   1      41.638  35.514  28.407  1.00  0.00    -0.083 SA
BRANCH  20  21
ATOM     21  C   UNL A   1      43.149  36.439  28.075  1.00  0.00     0.113 C 
BRANCH  21  22
ATOM     22  C   UNL A   1      43.094  37.921  27.741  1.00  0.00    -0.038 A 
ATOM     23  C   UNL A   1      44.069  38.457  26.885  1.00  0.00     0.004 A 
ATOM     24  C   UNL A   1      42.248  38.840  28.375  1.00  0.00     0.004 A 
ATOM     25  C   UNL A   1      44.214  39.840  26.723  1.00  0.00     0.000 A 
ATOM     26  C   UNL A   1      42.396  40.221  28.236  1.00  0.00     0.000 A 
ATOM     27  C   UNL A   1      43.394  40.723  27.419  1.00  0.00     0.000 A 
ENDBRANCH  21  22
ENDBRANCH  20  21
ENDBRANCH  15  20
ENDBRANCH  10  11
ENDBRANCH   9  10
ENDBRANCH   7   9
ENDBRANCH   6   7
ENDBRANCH   5   6
ENDBRANCH   4   5
ENDBRANCH   3   4
ENDBRANCH   2   3
ENDBRANCH   1   2
BRANCH   1  28
ATOM     28  O   UNL A   1      34.253  34.967  30.380  1.00  0.00    -0.377 OA
BRANCH  28  29
ATOM     29  C   UNL A   1      34.081  33.809  29.580  1.00  0.00     0.188 C 
BRANCH  29  30
ATOM     30  C   UNL A   1      34.346  33.925  28.072  1.00  0.00     0.188 C 
BRANCH  30  31
ATOM     31  O   UNL A   1      35.471  33.196  27.621  1.00  0.00    -0.376 OA
BRANCH  31  32
ATOM     32  C   UNL A   1      35.382  31.775  27.646  1.00  0.00     0.202 C 
BRANCH  32  33
ATOM     33  C   UNL A   1      35.817  30.969  28.889  1.00  0.00     0.261 C 
BRANCH  33  34
ATOM     34  O   UNL A   1      37.218  30.708  29.071  1.00  0.00    -0.460 OA
BRANCH  34  35
ATOM     35  C   UNL A   1      37.586  29.520  29.588  1.00  0.00     0.338 C 
ATOM     36  O   UNL A   1      36.885  28.748  30.224  1.00  0.00    -0.246 OA
BRANCH  35  37
ATOM     37  C   UNL A   1      38.950  29.219  29.095  1.00  0.00     0.060 A 
ATOM     38  C   UNL A   1      39.941  28.854  30.017  1.00  0.00     0.016 A 
ATOM     39  C   UNL A   1      39.253  29.288  27.733  1.00  0.00     0.016 A 
ATOM     40  C   UNL A   1      41.242  28.590  29.584  1.00  0.00     0.010 A 
ATOM     41  C   UNL A   1      40.563  29.049  27.303  1.00  0.00     0.010 A 
ATOM     42  C   UNL A   1      41.573  28.732  28.230  1.00  0.00    -0.014 A 
BRANCH  42  43
ATOM     43  C   UNL A   1      43.000  28.743  27.821  1.00  0.00     0.031 A 
ATOM     44  C   UNL A   1      43.590  27.482  27.246  1.00  0.00     0.074 A 
ATOM     45  C   UNL A   1      43.755  29.853  27.921  1.00  0.00     0.049 A 
ATOM     46  N   UNL A   1      44.812  27.242  26.847  1.00  0.00    -0.248 NA
ATOM     47  C   UNL A   1      42.674  26.339  27.100  1.00  0.00     0.031 C 
ATOM     48  C   UNL A   1      43.289  31.153  28.401  1.00  0.00     0.029 A 
ATOM     49  N   UNL A   1      45.080  30.060  27.623  1.00  0.00    -0.354 N 
ATOM     50  C   UNL A   1      44.814  25.922  26.413  1.00  0.00     0.074 A 
ATOM     51  C   UNL A   1      43.481  25.403  26.623  1.00  0.00     0.031 C 
ATOM     52  C   UNL A   1      44.317  32.020  28.377  1.00  0.00     0.029 A 
ATOM     53  C   UNL A   1      45.521  31.330  27.915  1.00  0.00     0.049 A 
ATOM     54  H   UNL A   1      45.660  29.365  27.236  1.00  0.00     0.167 HD
ATOM     55  C   UNL A   1      45.833  25.204  25.883  1.00  0.00     0.031 A 
ATOM     56  C   UNL A   1      46.756  31.866  27.840  1.00  0.00     0.031 A 
ATOM     57  C   UNL A   1      47.164  25.716  25.695  1.00  0.00     0.049 A 
ATOM     58  C   UNL A   1      47.898  31.021  27.331  1.00  0.00     0.074 A 
ATOM     59  C   UNL A   1      48.266  25.070  25.161  1.00  0.00     0.029 A 
ATOM     60  N   UNL A   1      47.580  26.992  26.044  1.00  0.00    -0.354 N 
ATOM     61  N   UNL A   1      47.882  29.779  26.907  1.00  0.00    -0.248 NA
ATOM     62  C   UNL A   1      49.225  31.654  27.282  1.00  0.00     0.031 C 
ATOM     63  C   UNL A   1      49.363  25.933  25.252  1.00  0.00     0.029 A 
ATOM     64  C   UNL A   1      48.928  27.144  25.766  1.00  0.00     0.049 A 
ATOM     65  H   UNL A   1      47.001  27.688  26.432  1.00  0.00     0.167 HD
ATOM     66  C   UNL A   1      49.185  29.496  26.505  1.00  0.00     0.074 A 
ATOM     67  C   UNL A   1      49.961  30.698  26.729  1.00  0.00     0.031 C 
ATOM     68  C   UNL A   1      49.690  28.347  25.988  1.00  0.00     0.031 A 
BRANCH  55  69
ATOM     69  C   UNL A   1      45.558  23.769  25.514  1.00  0.00    -0.014 A 
ATOM     70  C   UNL A   1      45.426  23.367  24.172  1.00  0.00     0.010 A 
ATOM     71  C   UNL A   1      45.463  22.799  26.529  1.00  0.00     0.010 A 
ATOM     72  C   UNL A   1      45.164  22.031  23.856  1.00  0.00     0.020 A 
ATOM     73  C   UNL A   1      45.234  21.456  26.215  1.00  0.00     0.020 A 
ATOM     74  C   UNL A   1      45.068  21.083  24.881  1.00  0.00     0.054 A 
BRANCH  74  75
ATOM     75  S   UNL A   1      44.750  19.354  24.439  1.00  0.00     0.124 S 
ATOM     76  O   UNL A   1      44.173  19.485  23.103  1.00  0.00    -0.237 OA
ATOM     77  O   UNL A   1      46.082  18.760  24.491  1.00  0.00    -0.237 OA
ATOM     78  O   UNL A   1      43.825  18.896  25.472  1.00  0.00    -0.744 OA
ENDBRANCH  74  75
ENDBRANCH  55  69
BRANCH  56  79
ATOM     79  C   UNL A   1      46.984  33.274  28.274  1.00  0.00    -0.014 A 
ATOM     80  C   UNL A   1      47.573  33.559  29.519  1.00  0.00     0.010 A 
ATOM     81  C   UNL A   1      46.608  34.343  27.440  1.00  0.00     0.010 A 
ATOM     82  C   UNL A   1      47.765  34.883  29.927  1.00  0.00     0.020 A 
ATOM     83  C   UNL A   1      46.828  35.667  27.828  1.00  0.00     0.020 A 
ATOM     84  C   UNL A   1      47.396  35.929  29.076  1.00  0.00     0.054 A 
BRANCH  84  85
ATOM     85  S   UNL A   1      47.705  37.637  29.607  1.00  0.00     0.124 S 
ATOM     86  O   UNL A   1      46.644  37.847  30.587  1.00  0.00    -0.237 OA
ATOM     87  O   UNL A   1      49.060  37.557  30.145  1.00  0.00    -0.237 OA
ATOM     88  O   UNL A   1      47.576  38.408  28.372  1.00  0.00    -0.744 OA
ENDBRANCH  84  85
ENDBRANCH  56  79
BRANCH  68  89
ATOM     89  C   UNL A   1      51.140  28.339  25.572  1.00  0.00    -0.014 A 
ATOM     90  C   UNL A   1      52.162  27.969  26.464  1.00  0.00     0.010 A 
ATOM     91  C   UNL A   1      51.473  28.633  24.236  1.00  0.00     0.010 A 
ATOM     92  C   UNL A   1      53.493  27.923  26.033  1.00  0.00     0.020 A 
ATOM     93  C   UNL A   1      52.796  28.556  23.794  1.00  0.00     0.020 A 
ATOM     94  C   UNL A   1      53.800  28.213  24.700  1.00  0.00     0.054 A 
BRANCH  94  95
ATOM     95  S   UNL A   1      55.526  28.093  24.156  1.00  0.00     0.124 S 
ATOM     96  O   UNL A   1      55.552  29.010  23.020  1.00  0.00    -0.237 OA
ATOM     97  O   UNL A   1      56.264  28.535  25.337  1.00  0.00    -0.237 OA
ATOM     98  O   UNL A   1      55.689  26.680  23.821  1.00  0.00    -0.744 OA
ENDBRANCH  94  95
ENDBRANCH  68  89
ENDBRANCH  42  43
ENDBRANCH  35  37
ENDBRANCH  34  35
ENDBRANCH  33  34
ENDBRANCH  32  33
ENDBRANCH  31  32
ENDBRANCH  30  31
ENDBRANCH  29  30
ENDBRANCH  28  29
ENDBRANCH   1  28
TORSDOF 28
ENDMDL
