MODEL 1
REMARK VINA RESULT:     -11.7      0.000      0.000
REMARK SMILES Cc1ccc([C@H](C)NC(=O)[C@H]2[C@@H]3CC[C@@H](C3)[C@@H]2C(=O)OCCOCCOCCOCCOC(=O)c2ccc(-c3c4nc(c(-c5ccc(S(=O)(=O)[O-])cc5)c5ccc([nH]5)c(-c5ccc(S(=O)(=O)[O-])cc5)c5nc(c(-c6ccc(S(=O)(=O)[O-])cc6)c6ccc3[nH]6)C=C5)C=C4)cc2)cc1
REMARK SMILES IDX 26 1 25 2 24 3 23 4 22 5 21 6 20 7 18 8 19 9 17 10 11 11
REMARK SMILES IDX 12 12 13 13 16 14 15 15 14 16 9 17 8 18 10 20 6 21 7 22 5 23
REMARK SMILES IDX 1 24 2 25 3 26 96 27 4 28 95 29 27 30 28 31 29 32 30 33
REMARK SMILES IDX 31 34 32 35 33 36 34 37 35 38 36 39 94 40 37 41 93 42 38 43
REMARK SMILES IDX 39 44 40 45 87 46 41 47 92 48 86 49 88 50 42 51 91 52 85 53
REMARK SMILES IDX 84 54 43 56 73 57 54 58 72 59 55 60 58 61 71 62 89 63 56 64
REMARK SMILES IDX 57 65 70 67 90 68 59 69 44 70 45 71 53 72 46 73 52 74 47 75
REMARK SMILES IDX 48 76 49 77 50 78 51 79 74 80 75 81 83 82 76 83 82 84 77 85
REMARK SMILES IDX 78 86 79 87 80 88 81 89 60 90 61 91 69 92 62 93 68 94 63 95
REMARK SMILES IDX 64 96 65 97 66 98 67 99
REMARK H PARENT 8 19 88 55 58 66
REMARK Flexibility Score: inf
ROOT
ATOM      1  O   UNL A   1      33.042  21.054  25.735  1.00  0.00    -0.377 OA
ENDROOT
BRANCH   1   2
ATOM      2  C   UNL A   1      33.648  21.366  26.984  1.00  0.00     0.188 C 
BRANCH   2   3
ATOM      3  C   UNL A   1      33.422  22.787  27.440  1.00  0.00     0.188 C 
BRANCH   3   4
ATOM      4  O   UNL A   1      32.729  23.452  26.403  1.00  0.00    -0.376 OA
BRANCH   4   5
ATOM      5  C   UNL A   1      33.509  24.419  25.740  1.00  0.00     0.202 C 
BRANCH   5   6
ATOM      6  C   UNL A   1      33.577  24.451  24.233  1.00  0.00     0.261 C 
BRANCH   6   7
ATOM      7  O   UNL A   1      34.007  25.689  23.749  1.00  0.00    -0.463 OA
BRANCH   7   8
ATOM      8  C   UNL A   1      33.348  25.944  22.598  1.00  0.00     0.310 C 
ATOM      9  O   UNL A   1      33.653  25.593  21.463  1.00  0.00    -0.252 OA
BRANCH   8  10
ATOM     10  C   UNL A   1      32.266  26.918  22.822  1.00  0.00     0.115 C 
ATOM     11  C   UNL A   1      32.360  27.701  24.120  1.00  0.00     0.096 C 
ATOM     12  C   UNL A   1      30.839  27.914  24.390  1.00  0.00     0.002 C 
ATOM     13  C   UNL A   1      30.302  26.622  25.048  1.00  0.00     0.005 C 
ATOM     14  C   UNL A   1      30.195  27.805  22.987  1.00  0.00     0.009 C 
ATOM     15  C   UNL A   1      30.824  26.440  22.699  1.00  0.00     0.004 C 
ATOM     16  C   UNL A   1      30.221  25.655  23.867  1.00  0.00     0.005 C 
BRANCH  11  17
ATOM     17  C   UNL A   1      33.264  28.950  24.200  1.00  0.00     0.224 C 
ATOM     18  N   UNL A   1      33.458  29.700  25.335  1.00  0.00    -0.349 N 
ATOM     19  H   UNL A   1      33.331  30.670  25.227  1.00  0.00     0.164 HD
ATOM     20  O   UNL A   1      33.712  29.427  23.148  1.00  0.00    -0.275 OA
BRANCH  18  21
ATOM     21  C   UNL A   1      33.827  29.260  26.685  1.00  0.00     0.109 C 
ATOM     22  C   UNL A   1      34.207  27.781  26.649  1.00  0.00     0.036 C 
BRANCH  21  23
ATOM     23  C   UNL A   1      34.854  30.085  27.445  1.00  0.00    -0.026 A 
ATOM     24  C   UNL A   1      37.755  32.888  29.010  1.00  0.00     0.044 C 
ATOM     25  C   UNL A   1      36.705  31.882  28.635  1.00  0.00    -0.051 A 
ATOM     26  C   UNL A   1      35.438  32.330  28.256  1.00  0.00     0.004 A 
ATOM     27  C   UNL A   1      37.015  30.521  28.477  1.00  0.00     0.004 A 
ATOM     28  C   UNL A   1      34.531  31.444  27.674  1.00  0.00     0.006 A 
ATOM     29  C   UNL A   1      36.095  29.626  27.895  1.00  0.00     0.006 A 
ENDBRANCH  21  23
ENDBRANCH  18  21
ENDBRANCH  11  17
ENDBRANCH   8  10
ENDBRANCH   7   8
ENDBRANCH   6   7
ENDBRANCH   5   6
ENDBRANCH   4   5
ENDBRANCH   3   4
ENDBRANCH   2   3
ENDBRANCH   1   2
BRANCH   1  30
ATOM     30  C   UNL A   1      33.016  19.663  25.523  1.00  0.00     0.188 C 
BRANCH  30  31
ATOM     31  C   UNL A   1      34.163  19.134  24.646  1.00  0.00     0.188 C 
BRANCH  31  32
ATOM     32  O   UNL A   1      35.525  19.573  24.938  1.00  0.00    -0.376 OA
BRANCH  32  33
ATOM     33  C   UNL A   1      36.392  20.785  24.625  1.00  0.00     0.202 C 
BRANCH  33  34
ATOM     34  C   UNL A   1      36.899  22.315  25.629  1.00  0.00     0.261 C 
BRANCH  34  35
ATOM     35  O   UNL A   1      38.421  22.649  26.590  1.00  0.00    -0.460 OA
BRANCH  35  36
ATOM     36  C   UNL A   1      39.958  23.062  26.742  1.00  0.00     0.338 C 
ATOM     37  O   UNL A   1      40.635  22.250  27.387  1.00  0.00    -0.246 OA
BRANCH  36  38
ATOM     38  C   UNL A   1      40.754  24.683  26.522  1.00  0.00     0.060 A 
ATOM     39  C   UNL A   1      41.863  24.991  27.323  1.00  0.00     0.016 A 
ATOM     40  C   UNL A   1      40.379  25.853  25.749  1.00  0.00     0.016 A 
ATOM     41  C   UNL A   1      42.317  26.359  27.520  1.00  0.00     0.010 A 
ATOM     42  C   UNL A   1      40.781  27.204  25.965  1.00  0.00     0.010 A 
ATOM     43  C   UNL A   1      41.673  27.509  26.965  1.00  0.00    -0.014 A 
BRANCH  43  44
ATOM     44  C   UNL A   1      41.545  28.825  27.723  1.00  0.00     0.031 A 
ATOM     45  C   UNL A   1      40.869  29.319  29.063  1.00  0.00     0.074 A 
ATOM     46  C   UNL A   1      42.756  29.415  27.670  1.00  0.00     0.049 A 
ATOM     47  N   UNL A   1      40.871  30.581  29.487  1.00  0.00    -0.248 NA
ATOM     48  C   UNL A   1      40.238  28.442  30.050  1.00  0.00     0.031 C 
ATOM     49  C   UNL A   1      43.547  29.317  28.875  1.00  0.00     0.029 A 
ATOM     50  N   UNL A   1      43.710  29.633  26.697  1.00  0.00    -0.354 N 
ATOM     51  C   UNL A   1      40.340  30.654  30.799  1.00  0.00     0.074 A 
ATOM     52  C   UNL A   1      39.923  29.282  31.056  1.00  0.00     0.031 C 
ATOM     53  C   UNL A   1      44.761  29.768  28.650  1.00  0.00     0.029 A 
ATOM     54  C   UNL A   1      44.848  30.152  27.247  1.00  0.00     0.049 A 
ATOM     55  H   UNL A   1      43.586  29.442  25.739  1.00  0.00     0.167 HD
ATOM     56  C   UNL A   1      40.431  31.739  31.677  1.00  0.00     0.031 A 
ATOM     57  C   UNL A   1      46.109  30.326  26.815  1.00  0.00     0.031 A 
ATOM     58  C   UNL A   1      41.464  32.787  31.282  1.00  0.00     0.049 A 
ATOM     59  C   UNL A   1      46.044  31.835  27.392  1.00  0.00     0.074 A 
ATOM     60  C   UNL A   1      42.415  33.451  32.064  1.00  0.00     0.029 A 
ATOM     61  N   UNL A   1      41.910  33.005  29.958  1.00  0.00    -0.354 N 
ATOM     62  N   UNL A   1      45.354  32.320  28.428  1.00  0.00    -0.248 NA
ATOM     63  C   UNL A   1      46.338  32.932  26.450  1.00  0.00     0.031 C 
ATOM     64  C   UNL A   1      43.429  33.967  31.239  1.00  0.00     0.029 A 
ATOM     65  C   UNL A   1      43.152  33.663  29.929  1.00  0.00     0.049 A 
ATOM     66  H   UNL A   1      41.412  32.730  29.155  1.00  0.00     0.167 HD
ATOM     67  C   UNL A   1      44.846  33.596  28.122  1.00  0.00     0.074 A 
ATOM     68  C   UNL A   1      45.605  33.951  26.932  1.00  0.00     0.031 C 
ATOM     69  C   UNL A   1      43.784  34.256  28.742  1.00  0.00     0.031 A 
BRANCH  56  70
ATOM     70  C   UNL A   1      39.834  31.763  33.195  1.00  0.00    -0.014 A 
ATOM     71  C   UNL A   1      38.605  32.412  33.518  1.00  0.00     0.010 A 
ATOM     72  C   UNL A   1      40.397  31.121  34.324  1.00  0.00     0.010 A 
ATOM     73  C   UNL A   1      38.053  32.533  34.823  1.00  0.00     0.020 A 
ATOM     74  C   UNL A   1      39.845  31.203  35.647  1.00  0.00     0.020 A 
ATOM     75  C   UNL A   1      38.679  31.923  35.894  1.00  0.00     0.054 A 
BRANCH  75  76
ATOM     76  S   UNL A   1      37.880  31.976  37.537  1.00  0.00     0.124 S 
ATOM     77  O   UNL A   1      37.377  30.613  37.702  1.00  0.00    -0.237 OA
ATOM     78  O   UNL A   1      38.984  32.342  38.422  1.00  0.00    -0.237 OA
ATOM     79  O   UNL A   1      36.848  33.000  37.390  1.00  0.00    -0.744 OA
ENDBRANCH  75  76
ENDBRANCH  56  70
BRANCH  57  80
ATOM     80  C   UNL A   1      46.668  28.858  26.963  1.00  0.00    -0.014 A 
ATOM     81  C   UNL A   1      46.280  27.819  27.801  1.00  0.00     0.010 A 
ATOM     82  C   UNL A   1      47.112  28.272  25.785  1.00  0.00     0.010 A 
ATOM     83  C   UNL A   1      45.955  26.391  27.320  1.00  0.00     0.020 A 
ATOM     84  C   UNL A   1      46.785  26.876  25.360  1.00  0.00     0.020 A 
ATOM     85  C   UNL A   1      46.000  25.797  25.982  1.00  0.00     0.054 A 
BRANCH  85  86
ATOM     86  S   UNL A   1      45.708  23.583  25.230  1.00  0.00     0.124 S 
ATOM     87  O   UNL A   1      44.287  23.179  25.239  1.00  0.00    -0.237 OA
ATOM     88  O   UNL A   1      46.215  23.373  23.917  1.00  0.00    -0.237 OA
ATOM     89  O   UNL A   1      46.383  22.639  26.128  1.00  0.00    -0.744 OA
ENDBRANCH  85  86
ENDBRANCH  57  80
BRANCH  69  90
ATOM     90  C   UNL A   1      43.212  35.683  28.443  1.00  0.00    -0.014 A 
ATOM     91  C   UNL A   1      41.949  35.991  27.927  1.00  0.00     0.010 A 
ATOM     92  C   UNL A   1      44.060  36.822  28.634  1.00  0.00     0.010 A 
ATOM     93  C   UNL A   1      41.534  37.324  27.703  1.00  0.00     0.020 A 
ATOM     94  C   UNL A   1      43.675  38.148  28.396  1.00  0.00     0.020 A 
ATOM     95  C   UNL A   1      42.392  38.395  27.954  1.00  0.00     0.054 A 
BRANCH  95  96
ATOM     96  S   UNL A   1      41.821  40.088  27.672  1.00  0.00     0.124 S 
ATOM     97  O   UNL A   1      41.136  39.977  26.387  1.00  0.00    -0.237 OA
ATOM     98  O   UNL A   1      40.956  40.314  28.826  1.00  0.00    -0.237 OA
ATOM     99  O   UNL A   1      43.049  40.878  27.651  1.00  0.00    -0.744 OA
ENDBRANCH  95  96
ENDBRANCH  69  90
ENDBRANCH  43  44
ENDBRANCH  36  38
ENDBRANCH  35  36
ENDBRANCH  34  35
ENDBRANCH  33  34
ENDBRANCH  32  33
ENDBRANCH  31  32
ENDBRANCH  30  31
ENDBRANCH   1  30
TORSDOF 26
ENDMDL
MODEL 2
REMARK VINA RESULT:     -11.2      5.237     11.134
REMARK SMILES Cc1ccc([C@H](C)NC(=O)[C@H]2[C@@H]3CC[C@@H](C3)[C@@H]2C(=O)OCCOCCOCCOCCOC(=O)c2ccc(-c3c4nc(c(-c5ccc(S(=O)(=O)[O-])cc5)c5ccc([nH]5)c(-c5ccc(S(=O)(=O)[O-])cc5)c5nc(c(-c6ccc(S(=O)(=O)[O-])cc6)c6ccc3[nH]6)C=C5)C=C4)cc2)cc1
REMARK SMILES IDX 26 1 25 2 24 3 23 4 22 5 21 6 20 7 18 8 19 9 17 10 11 11
REMARK SMILES IDX 12 12 13 13 16 14 15 15 14 16 9 17 8 18 10 20 6 21 7 22 5 23
REMARK SMILES IDX 1 24 2 25 3 26 96 27 4 28 95 29 27 30 28 31 29 32 30 33
REMARK SMILES IDX 31 34 32 35 33 36 34 37 35 38 36 39 94 40 37 41 93 42 38 43
REMARK SMILES IDX 39 44 40 45 87 46 41 47 92 48 86 49 88 50 42 51 91 52 85 53
REMARK SMILES IDX 84 54 43 56 73 57 54 58 72 59 55 60 58 61 71 62 89 63 56 64
REMARK SMILES IDX 57 65 70 67 90 68 59 69 44 70 45 71 53 72 46 73 52 74 47 75
REMARK SMILES IDX 48 76 49 77 50 78 51 79 74 80 75 81 83 82 76 83 82 84 77 85
REMARK SMILES IDX 78 86 79 87 80 88 81 89 60 90 61 91 69 92 62 93 68 94 63 95
REMARK SMILES IDX 64 96 65 97 66 98 67 99
REMARK H PARENT 8 19 88 55 58 66
REMARK Flexibility Score: inf
ROOT
ATOM      1  O   UNL A   1      32.657  21.565  25.500  1.00  0.00    -0.377 OA
ENDROOT
BRANCH   1   2
ATOM      2  C   UNL A   1      32.944  21.918  26.848  1.00  0.00     0.188 C 
BRANCH   2   3
ATOM      3  C   UNL A   1      32.269  23.187  27.310  1.00  0.00     0.188 C 
BRANCH   3   4
ATOM      4  O   UNL A   1      31.271  23.498  26.357  1.00  0.00    -0.376 OA
BRANCH   4   5
ATOM      5  C   UNL A   1      30.999  24.876  26.261  1.00  0.00     0.202 C 
BRANCH   5   6
ATOM      6  C   UNL A   1      30.018  25.397  25.241  1.00  0.00     0.261 C 
BRANCH   6   7
ATOM      7  O   UNL A   1      30.243  26.740  24.928  1.00  0.00    -0.463 OA
BRANCH   7   8
ATOM      8  C   UNL A   1      29.294  27.134  24.050  1.00  0.00     0.310 C 
ATOM      9  O   UNL A   1      28.290  26.520  23.705  1.00  0.00    -0.252 OA
BRANCH   8  10
ATOM     10  C   UNL A   1      29.709  28.361  23.350  1.00  0.00     0.115 C 
ATOM     11  C   UNL A   1      30.114  29.514  24.252  1.00  0.00     0.096 C 
ATOM     12  C   UNL A   1      29.674  30.703  23.343  1.00  0.00     0.002 C 
ATOM     13  C   UNL A   1      28.154  30.899  23.543  1.00  0.00     0.005 C 
ATOM     14  C   UNL A   1      29.697  30.106  21.916  1.00  0.00     0.009 C 
ATOM     15  C   UNL A   1      28.782  28.937  22.287  1.00  0.00     0.004 C 
ATOM     16  C   UNL A   1      27.560  29.736  22.749  1.00  0.00     0.005 C 
BRANCH  11  17
ATOM     17  C   UNL A   1      31.543  29.571  24.833  1.00  0.00     0.224 C 
ATOM     18  N   UNL A   1      32.539  28.670  24.541  1.00  0.00    -0.349 N 
ATOM     19  H   UNL A   1      32.998  28.281  25.319  1.00  0.00     0.164 HD
ATOM     20  O   UNL A   1      31.777  30.361  25.758  1.00  0.00    -0.275 OA
BRANCH  18  21
ATOM     21  C   UNL A   1      33.014  28.207  23.233  1.00  0.00     0.109 C 
ATOM     22  C   UNL A   1      34.270  28.984  22.845  1.00  0.00     0.036 C 
BRANCH  21  23
ATOM     23  C   UNL A   1      33.197  26.710  23.033  1.00  0.00    -0.026 A 
ATOM     24  C   UNL A   1      32.991  22.455  22.272  1.00  0.00     0.044 C 
ATOM     25  C   UNL A   1      33.233  23.922  22.490  1.00  0.00    -0.051 A 
ATOM     26  C   UNL A   1      32.877  24.826  21.489  1.00  0.00     0.004 A 
ATOM     27  C   UNL A   1      33.634  24.422  23.740  1.00  0.00     0.004 A 
ATOM     28  C   UNL A   1      32.863  26.195  21.758  1.00  0.00     0.006 A 
ATOM     29  C   UNL A   1      33.625  25.805  24.009  1.00  0.00     0.006 A 
ENDBRANCH  21  23
ENDBRANCH  18  21
ENDBRANCH  11  17
ENDBRANCH   8  10
ENDBRANCH   7   8
ENDBRANCH   6   7
ENDBRANCH   5   6
ENDBRANCH   4   5
ENDBRANCH   3   4
ENDBRANCH   2   3
ENDBRANCH   1   2
BRANCH   1  30
ATOM     30  C   UNL A   1      32.691  20.168  25.329  1.00  0.00     0.188 C 
BRANCH  30  31
ATOM     31  C   UNL A   1      33.945  19.650  24.605  1.00  0.00     0.188 C 
BRANCH  31  32
ATOM     32  O   UNL A   1      35.244  20.200  24.977  1.00  0.00    -0.376 OA
BRANCH  32  33
ATOM     33  C   UNL A   1      36.087  21.411  24.600  1.00  0.00     0.202 C 
BRANCH  33  34
ATOM     34  C   UNL A   1      37.624  22.218  25.370  1.00  0.00     0.261 C 
BRANCH  34  35
ATOM     35  O   UNL A   1      39.103  21.456  26.133  1.00  0.00    -0.460 OA
BRANCH  35  36
ATOM     36  C   UNL A   1      40.469  21.497  26.964  1.00  0.00     0.338 C 
ATOM     37  O   UNL A   1      40.589  20.571  27.778  1.00  0.00    -0.246 OA
BRANCH  36  38
ATOM     38  C   UNL A   1      41.629  22.873  27.227  1.00  0.00     0.060 A 
ATOM     39  C   UNL A   1      42.428  23.282  26.150  1.00  0.00     0.016 A 
ATOM     40  C   UNL A   1      42.032  23.589  28.423  1.00  0.00     0.016 A 
ATOM     41  C   UNL A   1      43.637  24.069  26.340  1.00  0.00     0.010 A 
ATOM     42  C   UNL A   1      43.237  24.322  28.634  1.00  0.00     0.010 A 
ATOM     43  C   UNL A   1      44.147  24.465  27.616  1.00  0.00    -0.014 A 
BRANCH  43  44
ATOM     44  C   UNL A   1      45.639  24.503  27.928  1.00  0.00     0.031 A 
ATOM     45  C   UNL A   1      46.979  24.699  27.113  1.00  0.00     0.074 A 
ATOM     46  C   UNL A   1      45.774  25.224  29.059  1.00  0.00     0.049 A 
ATOM     47  N   UNL A   1      48.198  24.642  27.645  1.00  0.00    -0.248 NA
ATOM     48  C   UNL A   1      47.048  25.059  25.697  1.00  0.00     0.031 C 
ATOM     49  C   UNL A   1      46.236  26.581  28.877  1.00  0.00     0.029 A 
ATOM     50  N   UNL A   1      45.133  25.281  30.279  1.00  0.00    -0.354 N 
ATOM     51  C   UNL A   1      49.165  25.035  26.687  1.00  0.00     0.074 A 
ATOM     52  C   UNL A   1      48.367  25.231  25.483  1.00  0.00     0.031 C 
ATOM     53  C   UNL A   1      46.161  27.234  30.016  1.00  0.00     0.029 A 
ATOM     54  C   UNL A   1      45.592  26.336  31.015  1.00  0.00     0.049 A 
ATOM     55  H   UNL A   1      44.442  24.646  30.579  1.00  0.00     0.167 HD
ATOM     56  C   UNL A   1      50.500  25.369  26.937  1.00  0.00     0.031 A 
ATOM     57  C   UNL A   1      45.170  26.967  32.125  1.00  0.00     0.031 A 
ATOM     58  C   UNL A   1      50.823  25.630  28.403  1.00  0.00     0.049 A 
ATOM     59  C   UNL A   1      46.686  26.892  32.682  1.00  0.00     0.074 A 
ATOM     60  C   UNL A   1      51.576  26.653  28.990  1.00  0.00     0.029 A 
ATOM     61  N   UNL A   1      50.091  25.092  29.487  1.00  0.00    -0.354 N 
ATOM     62  N   UNL A   1      47.840  26.892  32.009  1.00  0.00    -0.248 NA
ATOM     63  C   UNL A   1      46.891  26.253  33.996  1.00  0.00     0.031 C 
ATOM     64  C   UNL A   1      51.238  26.770  30.349  1.00  0.00     0.029 A 
ATOM     65  C   UNL A   1      50.285  25.834  30.665  1.00  0.00     0.049 A 
ATOM     66  H   UNL A   1      49.516  24.296  29.425  1.00  0.00     0.167 HD
ATOM     67  C   UNL A   1      48.753  26.001  32.605  1.00  0.00     0.074 A 
ATOM     68  C   UNL A   1      48.132  25.744  33.896  1.00  0.00     0.031 C 
ATOM     69  C   UNL A   1      49.878  25.423  32.016  1.00  0.00     0.031 A 
BRANCH  56  70
ATOM     70  C   UNL A   1      51.569  25.852  25.803  1.00  0.00    -0.014 A 
ATOM     71  C   UNL A   1      51.599  27.190  25.307  1.00  0.00     0.010 A 
ATOM     72  C   UNL A   1      52.598  25.063  25.235  1.00  0.00     0.010 A 
ATOM     73  C   UNL A   1      52.453  27.670  24.277  1.00  0.00     0.020 A 
ATOM     74  C   UNL A   1      53.492  25.531  24.213  1.00  0.00     0.020 A 
ATOM     75  C   UNL A   1      53.406  26.833  23.728  1.00  0.00     0.054 A 
BRANCH  75  76
ATOM     76  S   UNL A   1      54.582  27.510  22.504  1.00  0.00     0.124 S 
ATOM     77  O   UNL A   1      55.847  26.883  22.881  1.00  0.00    -0.237 OA
ATOM     78  O   UNL A   1      54.020  27.060  21.231  1.00  0.00    -0.237 OA
ATOM     79  O   UNL A   1      54.520  28.954  22.722  1.00  0.00    -0.744 OA
ENDBRANCH  75  76
ENDBRANCH  56  70
BRANCH  57  80
ATOM     80  C   UNL A   1      44.004  27.848  31.528  1.00  0.00    -0.014 A 
ATOM     81  C   UNL A   1      43.058  27.560  30.552  1.00  0.00     0.010 A 
ATOM     82  C   UNL A   1      43.395  28.710  32.429  1.00  0.00     0.010 A 
ATOM     83  C   UNL A   1      41.541  27.762  30.726  1.00  0.00     0.020 A 
ATOM     84  C   UNL A   1      41.916  28.889  32.559  1.00  0.00     0.020 A 
ATOM     85  C   UNL A   1      40.768  28.296  31.852  1.00  0.00     0.054 A 
BRANCH  85  86
ATOM     86  S   UNL A   1      38.481  28.808  32.091  1.00  0.00     0.124 S 
ATOM     87  O   UNL A   1      37.749  28.681  30.814  1.00  0.00    -0.237 OA
ATOM     88  O   UNL A   1      37.828  27.988  33.053  1.00  0.00    -0.237 OA
ATOM     89  O   UNL A   1      38.304  30.207  32.499  1.00  0.00    -0.744 OA
ENDBRANCH  85  86
ENDBRANCH  57  80
BRANCH  69  90
ATOM     90  C   UNL A   1      50.926  24.451  32.658  1.00  0.00    -0.014 A 
ATOM     91  C   UNL A   1      52.309  24.448  32.447  1.00  0.00     0.010 A 
ATOM     92  C   UNL A   1      50.460  23.389  33.499  1.00  0.00     0.010 A 
ATOM     93  C   UNL A   1      53.164  23.523  33.088  1.00  0.00     0.020 A 
ATOM     94  C   UNL A   1      51.289  22.449  34.125  1.00  0.00     0.020 A 
ATOM     95  C   UNL A   1      52.652  22.540  33.935  1.00  0.00     0.054 A 
BRANCH  95  96
ATOM     96  S   UNL A   1      53.779  21.384  34.752  1.00  0.00     0.124 S 
ATOM     97  O   UNL A   1      54.994  22.181  34.898  1.00  0.00    -0.237 OA
ATOM     98  O   UNL A   1      53.067  21.091  35.994  1.00  0.00    -0.237 OA
ATOM     99  O   UNL A   1      53.881  20.267  33.816  1.00  0.00    -0.744 OA
ENDBRANCH  95  96
ENDBRANCH  69  90
ENDBRANCH  43  44
ENDBRANCH  36  38
ENDBRANCH  35  36
ENDBRANCH  34  35
ENDBRANCH  33  34
ENDBRANCH  32  33
ENDBRANCH  31  32
ENDBRANCH  30  31
ENDBRANCH   1  30
TORSDOF 26
ENDMDL
MODEL 3
REMARK VINA RESULT:     -10.9      5.175     10.929
REMARK SMILES Cc1ccc([C@H](C)NC(=O)[C@H]2[C@@H]3CC[C@@H](C3)[C@@H]2C(=O)OCCOCCOCCOCCOC(=O)c2ccc(-c3c4nc(c(-c5ccc(S(=O)(=O)[O-])cc5)c5ccc([nH]5)c(-c5ccc(S(=O)(=O)[O-])cc5)c5nc(c(-c6ccc(S(=O)(=O)[O-])cc6)c6ccc3[nH]6)C=C5)C=C4)cc2)cc1
REMARK SMILES IDX 26 1 25 2 24 3 23 4 22 5 21 6 20 7 18 8 19 9 17 10 11 11
REMARK SMILES IDX 12 12 13 13 16 14 15 15 14 16 9 17 8 18 10 20 6 21 7 22 5 23
REMARK SMILES IDX 1 24 2 25 3 26 96 27 4 28 95 29 27 30 28 31 29 32 30 33
REMARK SMILES IDX 31 34 32 35 33 36 34 37 35 38 36 39 94 40 37 41 93 42 38 43
REMARK SMILES IDX 39 44 40 45 87 46 41 47 92 48 86 49 88 50 42 51 91 52 85 53
REMARK SMILES IDX 84 54 43 56 73 57 54 58 72 59 55 60 58 61 71 62 89 63 56 64
REMARK SMILES IDX 57 65 70 67 90 68 59 69 44 70 45 71 53 72 46 73 52 74 47 75
REMARK SMILES IDX 48 76 49 77 50 78 51 79 74 80 75 81 83 82 76 83 82 84 77 85
REMARK SMILES IDX 78 86 79 87 80 88 81 89 60 90 61 91 69 92 62 93 68 94 63 95
REMARK SMILES IDX 64 96 65 97 66 98 67 99
REMARK H PARENT 8 19 88 55 58 66
REMARK Flexibility Score: inf
ROOT
ATOM      1  O   UNL A   1      32.386  21.474  25.336  1.00  0.00    -0.377 OA
ENDROOT
BRANCH   1   2
ATOM      2  C   UNL A   1      32.383  21.881  26.699  1.00  0.00     0.188 C 
BRANCH   2   3
ATOM      3  C   UNL A   1      32.586  23.364  26.899  1.00  0.00     0.188 C 
BRANCH   3   4
ATOM      4  O   UNL A   1      31.349  23.994  26.627  1.00  0.00    -0.376 OA
BRANCH   4   5
ATOM      5  C   UNL A   1      31.364  24.773  25.454  1.00  0.00     0.202 C 
BRANCH   5   6
ATOM      6  C   UNL A   1      30.114  25.470  24.977  1.00  0.00     0.261 C 
BRANCH   6   7
ATOM      7  O   UNL A   1      30.398  26.569  24.162  1.00  0.00    -0.463 OA
BRANCH   7   8
ATOM      8  C   UNL A   1      29.228  27.113  23.764  1.00  0.00     0.310 C 
ATOM      9  O   UNL A   1      28.104  26.631  23.860  1.00  0.00    -0.252 OA
BRANCH   8  10
ATOM     10  C   UNL A   1      29.463  28.330  22.969  1.00  0.00     0.115 C 
ATOM     11  C   UNL A   1      30.267  29.413  23.668  1.00  0.00     0.096 C 
ATOM     12  C   UNL A   1      29.631  30.666  22.993  1.00  0.00     0.002 C 
ATOM     13  C   UNL A   1      28.311  30.972  23.738  1.00  0.00     0.005 C 
ATOM     14  C   UNL A   1      29.079  30.125  21.652  1.00  0.00     0.009 C 
ATOM     15  C   UNL A   1      28.264  29.017  22.325  1.00  0.00     0.004 C 
ATOM     16  C   UNL A   1      27.370  29.891  23.209  1.00  0.00     0.005 C 
BRANCH  11  17
ATOM     17  C   UNL A   1      31.809  29.335  23.684  1.00  0.00     0.224 C 
ATOM     18  N   UNL A   1      32.606  29.881  24.662  1.00  0.00    -0.349 N 
ATOM     19  H   UNL A   1      33.343  30.447  24.338  1.00  0.00     0.164 HD
ATOM     20  O   UNL A   1      32.392  28.917  22.676  1.00  0.00    -0.275 OA
BRANCH  18  21
ATOM     21  C   UNL A   1      32.513  29.740  26.119  1.00  0.00     0.109 C 
ATOM     22  C   UNL A   1      31.907  28.380  26.459  1.00  0.00     0.036 C 
BRANCH  21  23
ATOM     23  C   UNL A   1      33.763  30.017  26.940  1.00  0.00    -0.026 A 
ATOM     24  C   UNL A   1      37.419  31.387  28.808  1.00  0.00     0.044 C 
ATOM     25  C   UNL A   1      36.103  30.850  28.318  1.00  0.00    -0.051 A 
ATOM     26  C   UNL A   1      35.019  31.720  28.189  1.00  0.00     0.004 A 
ATOM     27  C   UNL A   1      35.984  29.544  27.815  1.00  0.00     0.004 A 
ATOM     28  C   UNL A   1      33.871  31.307  27.513  1.00  0.00     0.006 A 
ATOM     29  C   UNL A   1      34.821  29.127  27.138  1.00  0.00     0.006 A 
ENDBRANCH  21  23
ENDBRANCH  18  21
ENDBRANCH  11  17
ENDBRANCH   8  10
ENDBRANCH   7   8
ENDBRANCH   6   7
ENDBRANCH   5   6
ENDBRANCH   4   5
ENDBRANCH   3   4
ENDBRANCH   2   3
ENDBRANCH   1   2
BRANCH   1  30
ATOM     30  C   UNL A   1      32.495  20.074  25.231  1.00  0.00     0.188 C 
BRANCH  30  31
ATOM     31  C   UNL A   1      33.812  19.587  24.603  1.00  0.00     0.188 C 
BRANCH  31  32
ATOM     32  O   UNL A   1      35.061  20.215  25.023  1.00  0.00    -0.376 OA
BRANCH  32  33
ATOM     33  C   UNL A   1      35.806  21.511  24.732  1.00  0.00     0.202 C 
BRANCH  33  34
ATOM     34  C   UNL A   1      37.268  22.387  25.569  1.00  0.00     0.261 C 
BRANCH  34  35
ATOM     35  O   UNL A   1      38.962  21.790  25.919  1.00  0.00    -0.460 OA
BRANCH  35  36
ATOM     36  C   UNL A   1      40.319  21.744  26.764  1.00  0.00     0.338 C 
ATOM     37  O   UNL A   1      40.402  20.772  27.527  1.00  0.00    -0.246 OA
BRANCH  36  38
ATOM     38  C   UNL A   1      41.517  23.067  27.114  1.00  0.00     0.060 A 
ATOM     39  C   UNL A   1      42.362  23.487  26.077  1.00  0.00     0.016 A 
ATOM     40  C   UNL A   1      41.908  23.723  28.348  1.00  0.00     0.016 A 
ATOM     41  C   UNL A   1      43.591  24.224  26.332  1.00  0.00     0.010 A 
ATOM     42  C   UNL A   1      43.129  24.406  28.621  1.00  0.00     0.010 A 
ATOM     43  C   UNL A   1      44.075  24.554  27.636  1.00  0.00    -0.014 A 
BRANCH  43  44
ATOM     44  C   UNL A   1      45.557  24.528  27.993  1.00  0.00     0.031 A 
ATOM     45  C   UNL A   1      46.927  24.686  27.222  1.00  0.00     0.074 A 
ATOM     46  C   UNL A   1      45.685  25.223  29.141  1.00  0.00     0.049 A 
ATOM     47  N   UNL A   1      48.127  24.571  27.788  1.00  0.00    -0.248 NA
ATOM     48  C   UNL A   1      47.053  25.068  25.815  1.00  0.00     0.031 C 
ATOM     49  C   UNL A   1      46.205  26.563  28.999  1.00  0.00     0.029 A 
ATOM     50  N   UNL A   1      45.010  25.283  30.343  1.00  0.00    -0.354 N 
ATOM     51  C   UNL A   1      49.137  24.943  26.867  1.00  0.00     0.074 A 
ATOM     52  C   UNL A   1      48.384  25.191  25.645  1.00  0.00     0.031 C 
ATOM     53  C   UNL A   1      46.120  27.198  30.148  1.00  0.00     0.029 A 
ATOM     54  C   UNL A   1      45.488  26.306  31.112  1.00  0.00     0.049 A 
ATOM     55  H   UNL A   1      44.286  24.671  30.609  1.00  0.00     0.167 HD
ATOM     56  C   UNL A   1      50.476  25.219  27.162  1.00  0.00     0.031 A 
ATOM     57  C   UNL A   1      45.057  26.932  32.220  1.00  0.00     0.031 A 
ATOM     58  C   UNL A   1      50.764  25.442  28.643  1.00  0.00     0.049 A 
ATOM     59  C   UNL A   1      46.551  26.788  32.821  1.00  0.00     0.074 A 
ATOM     60  C   UNL A   1      51.538  26.423  29.271  1.00  0.00     0.029 A 
ATOM     61  N   UNL A   1      49.979  24.913  29.694  1.00  0.00    -0.354 N 
ATOM     62  N   UNL A   1      47.724  26.755  32.182  1.00  0.00    -0.248 NA
ATOM     63  C   UNL A   1      46.692  26.118  34.128  1.00  0.00     0.031 C 
ATOM     64  C   UNL A   1      51.164  26.530  30.621  1.00  0.00     0.029 A 
ATOM     65  C   UNL A   1      50.166  25.626  30.891  1.00  0.00     0.049 A 
ATOM     66  H   UNL A   1      49.376  24.142  29.599  1.00  0.00     0.167 HD
ATOM     67  C   UNL A   1      48.583  25.818  32.788  1.00  0.00     0.074 A 
ATOM     68  C   UNL A   1      47.915  25.563  34.055  1.00  0.00     0.031 C 
ATOM     69  C   UNL A   1      49.703  25.207  32.222  1.00  0.00     0.031 A 
BRANCH  56  70
ATOM     70  C   UNL A   1      51.596  25.681  26.070  1.00  0.00    -0.014 A 
ATOM     71  C   UNL A   1      51.301  26.599  25.019  1.00  0.00     0.010 A 
ATOM     72  C   UNL A   1      52.959  25.298  26.060  1.00  0.00     0.010 A 
ATOM     73  C   UNL A   1      52.201  26.998  23.994  1.00  0.00     0.020 A 
ATOM     74  C   UNL A   1      53.897  25.709  25.052  1.00  0.00     0.020 A 
ATOM     75  C   UNL A   1      53.508  26.549  24.012  1.00  0.00     0.054 A 
BRANCH  75  76
ATOM     76  S   UNL A   1      54.682  27.183  22.764  1.00  0.00     0.124 S 
ATOM     77  O   UNL A   1      54.528  28.632  22.873  1.00  0.00    -0.237 OA
ATOM     78  O   UNL A   1      55.964  26.658  23.230  1.00  0.00    -0.237 OA
ATOM     79  O   UNL A   1      54.205  26.604  21.510  1.00  0.00    -0.744 OA
ENDBRANCH  75  76
ENDBRANCH  56  70
BRANCH  57  80
ATOM     80  C   UNL A   1      43.945  27.869  31.607  1.00  0.00    -0.014 A 
ATOM     81  C   UNL A   1      42.746  27.560  30.974  1.00  0.00     0.010 A 
ATOM     82  C   UNL A   1      43.740  29.065  32.281  1.00  0.00     0.010 A 
ATOM     83  C   UNL A   1      41.380  28.160  31.361  1.00  0.00     0.020 A 
ATOM     84  C   UNL A   1      42.396  29.621  32.627  1.00  0.00     0.020 A 
ATOM     85  C   UNL A   1      41.023  29.150  32.381  1.00  0.00     0.054 A 
BRANCH  85  86
ATOM     86  S   UNL A   1      38.993  30.240  32.874  1.00  0.00     0.124 S 
ATOM     87  O   UNL A   1      38.542  29.972  34.255  1.00  0.00    -0.237 OA
ATOM     88  O   UNL A   1      39.067  31.651  32.704  1.00  0.00    -0.237 OA
ATOM     89  O   UNL A   1      37.915  29.740  32.013  1.00  0.00    -0.744 OA
ENDBRANCH  85  86
ENDBRANCH  57  80
BRANCH  69  90
ATOM     90  C   UNL A   1      50.692  24.183  32.875  1.00  0.00    -0.014 A 
ATOM     91  C   UNL A   1      52.084  24.294  32.956  1.00  0.00     0.010 A 
ATOM     92  C   UNL A   1      50.172  22.953  33.393  1.00  0.00     0.010 A 
ATOM     93  C   UNL A   1      52.882  23.307  33.578  1.00  0.00     0.020 A 
ATOM     94  C   UNL A   1      50.948  21.952  33.993  1.00  0.00     0.020 A 
ATOM     95  C   UNL A   1      52.308  22.150  34.107  1.00  0.00     0.054 A 
BRANCH  95  96
ATOM     96  S   UNL A   1      53.358  20.915  34.911  1.00  0.00     0.124 S 
ATOM     97  O   UNL A   1      54.104  20.358  33.786  1.00  0.00    -0.237 OA
ATOM     98  O   UNL A   1      54.137  21.734  35.837  1.00  0.00    -0.237 OA
ATOM     99  O   UNL A   1      52.410  19.998  35.539  1.00  0.00    -0.744 OA
ENDBRANCH  95  96
ENDBRANCH  69  90
ENDBRANCH  43  44
ENDBRANCH  36  38
ENDBRANCH  35  36
ENDBRANCH  34  35
ENDBRANCH  33  34
ENDBRANCH  32  33
ENDBRANCH  31  32
ENDBRANCH  30  31
ENDBRANCH   1  30
TORSDOF 26
ENDMDL
