MODEL 1
REMARK VINA RESULT:      -7.9      0.000      0.000
REMARK SMILES CC[C@@H]1CCCC[C@@]1(O)[C@H](F)C(=O)OCCOCCOCCOCCOC(=O)c1ccc(-c2c3nc(c(-c4ccc(S(=O)(=O)[O-])cc4)c4ccc([nH]4)c(-c4ccc(S(=O)(=O)[O-])cc4)c4nc(c(-c5ccc(S(=O)(=O)[O-])cc5)c5ccc2[nH]5)C=C4)C=C3)cc1
REMARK SMILES IDX 21 1 20 2 19 3 18 4 17 5 16 6 15 7 14 8 12 9 13 10 10 11
REMARK SMILES IDX 11 12 8 13 3 14 4 15 5 16 7 17 6 18 2 19 1 20 9 21 22 23
REMARK SMILES IDX 23 24 24 25 25 26 26 27 27 28 28 29 29 30 30 31 88 32 31 33
REMARK SMILES IDX 87 34 32 35 33 36 34 37 81 38 35 39 86 40 80 41 82 42 36 43
REMARK SMILES IDX 85 44 79 45 78 46 37 48 67 49 48 50 66 51 49 52 52 53 65 54
REMARK SMILES IDX 83 55 50 56 51 57 64 59 84 60 53 61 38 62 39 63 47 64 40 65
REMARK SMILES IDX 46 66 41 67 42 68 43 69 44 70 45 71 68 72 69 73 77 74 70 75
REMARK SMILES IDX 76 76 71 77 72 78 73 79 74 80 75 81 54 82 55 83 63 84 56 85
REMARK SMILES IDX 62 86 57 87 58 88 59 89 60 90 61 91
REMARK H PARENT 9 22 82 47 52 58
REMARK Flexibility Score: inf
ROOT
ATOM      1  C   UNL A   1      34.738  32.714  27.992  1.00  0.00     0.188 C 
ENDROOT
BRANCH   1   2
ATOM      2  O   UNL A   1      34.698  31.426  27.397  1.00  0.00    -0.377 OA
BRANCH   2   3
ATOM      3  C   UNL A   1      33.504  30.687  27.483  1.00  0.00     0.188 C 
BRANCH   3   4
ATOM      4  C   UNL A   1      32.837  30.420  26.123  1.00  0.00     0.188 C 
BRANCH   4   5
ATOM      5  O   UNL A   1      31.974  29.315  25.908  1.00  0.00    -0.376 OA
BRANCH   5   6
ATOM      6  C   UNL A   1      31.181  29.125  24.742  1.00  0.00     0.202 C 
BRANCH   6   7
ATOM      7  C   UNL A   1      31.049  27.816  23.949  1.00  0.00     0.261 C 
BRANCH   7   8
ATOM      8  O   UNL A   1      32.123  26.896  24.090  1.00  0.00    -0.461 OA
BRANCH   8   9
ATOM      9  C   UNL A   1      31.842  25.790  24.818  1.00  0.00     0.343 C 
ATOM     10  O   UNL A   1      31.498  25.823  25.995  1.00  0.00    -0.249 OA
BRANCH   9  11
ATOM     11  C   UNL A   1      31.831  24.537  23.957  1.00  0.00     0.307 C 
ATOM     12  F   UNL A   1      31.496  24.809  22.655  1.00  0.00    -0.232 F 
BRANCH  11  13
ATOM     13  C   UNL A   1      33.151  23.738  23.958  1.00  0.00     0.110 C 
ATOM     14  C   UNL A   1      33.308  22.849  25.228  1.00  0.00     0.024 C 
ATOM     15  C   UNL A   1      32.348  21.644  25.216  1.00  0.00     0.007 C 
ATOM     16  C   UNL A   1      32.401  20.823  23.937  1.00  0.00     0.001 C 
ATOM     17  C   UNL A   1      33.176  22.872  22.668  1.00  0.00     0.039 C 
ATOM     18  C   UNL A   1      32.216  21.685  22.695  1.00  0.00     0.003 C 
BRANCH  14  19
ATOM     19  C   UNL A   1      34.751  22.498  25.653  1.00  0.00     0.003 C 
ATOM     20  C   UNL A   1      35.484  21.415  24.887  1.00  0.00     0.004 C 
ENDBRANCH  14  19
BRANCH  13  21
ATOM     21  O   UNL A   1      34.248  24.656  23.854  1.00  0.00    -0.386 OA
ATOM     22  H   UNL A   1      34.601  24.637  22.951  1.00  0.00     0.211 HD
ENDBRANCH  13  21
ENDBRANCH  11  13
ENDBRANCH   9  11
ENDBRANCH   8   9
ENDBRANCH   7   8
ENDBRANCH   6   7
ENDBRANCH   5   6
ENDBRANCH   4   5
ENDBRANCH   3   4
ENDBRANCH   2   3
ENDBRANCH   1   2
BRANCH   1  23
ATOM     23  C   UNL A   1      34.353  32.896  29.479  1.00  0.00     0.188 C 
BRANCH  23  24
ATOM     24  O   UNL A   1      35.297  32.387  30.410  1.00  0.00    -0.376 OA
BRANCH  24  25
ATOM     25  C   UNL A   1      34.946  32.396  31.785  1.00  0.00     0.202 C 
BRANCH  25  26
ATOM     26  C   UNL A   1      35.992  31.855  32.772  1.00  0.00     0.261 C 
BRANCH  26  27
ATOM     27  O   UNL A   1      37.364  32.140  32.462  1.00  0.00    -0.460 OA
BRANCH  27  28
ATOM     28  C   UNL A   1      38.310  31.614  33.273  1.00  0.00     0.338 C 
ATOM     29  O   UNL A   1      38.255  31.493  34.478  1.00  0.00    -0.246 OA
BRANCH  28  30
ATOM     30  C   UNL A   1      39.353  31.014  32.410  1.00  0.00     0.060 A 
ATOM     31  C   UNL A   1      40.259  30.104  32.972  1.00  0.00     0.016 A 
ATOM     32  C   UNL A   1      39.430  31.344  31.055  1.00  0.00     0.016 A 
ATOM     33  C   UNL A   1      41.271  29.550  32.186  1.00  0.00     0.010 A 
ATOM     34  C   UNL A   1      40.458  30.806  30.275  1.00  0.00     0.010 A 
ATOM     35  C   UNL A   1      41.404  29.936  30.846  1.00  0.00    -0.014 A 
BRANCH  35  36
ATOM     36  C   UNL A   1      42.646  29.605  30.105  1.00  0.00     0.031 A 
ATOM     37  C   UNL A   1      42.731  28.260  29.433  1.00  0.00     0.074 A 
ATOM     38  C   UNL A   1      43.667  30.475  30.009  1.00  0.00     0.049 A 
ATOM     39  N   UNL A   1      43.724  27.721  28.775  1.00  0.00    -0.248 NA
ATOM     40  C   UNL A   1      41.533  27.407  29.519  1.00  0.00     0.031 C 
ATOM     41  C   UNL A   1      43.686  31.825  30.567  1.00  0.00     0.029 A 
ATOM     42  N   UNL A   1      44.894  30.342  29.406  1.00  0.00    -0.354 N 
ATOM     43  C   UNL A   1      43.277  26.466  28.380  1.00  0.00     0.074 A 
ATOM     44  C   UNL A   1      41.936  26.310  28.898  1.00  0.00     0.031 C 
ATOM     45  C   UNL A   1      44.873  32.394  30.290  1.00  0.00     0.029 A 
ATOM     46  C   UNL A   1      45.710  31.435  29.570  1.00  0.00     0.049 A 
ATOM     47  H   UNL A   1      45.163  29.539  28.905  1.00  0.00     0.167 HD
ATOM     48  C   UNL A   1      43.923  25.525  27.651  1.00  0.00     0.031 A 
ATOM     49  C   UNL A   1      46.995  31.629  29.203  1.00  0.00     0.031 A 
ATOM     50  C   UNL A   1      45.265  25.676  27.156  1.00  0.00     0.049 A 
ATOM     51  C   UNL A   1      47.725  30.533  28.468  1.00  0.00     0.074 A 
ATOM     52  C   UNL A   1      46.004  24.786  26.396  1.00  0.00     0.029 A 
ATOM     53  N   UNL A   1      46.073  26.780  27.378  1.00  0.00    -0.354 N 
ATOM     54  N   UNL A   1      47.282  29.360  28.079  1.00  0.00    -0.248 NA
ATOM     55  C   UNL A   1      49.130  30.788  28.118  1.00  0.00     0.031 C 
ATOM     56  C   UNL A   1      47.283  25.324  26.217  1.00  0.00     0.029 A 
ATOM     57  C   UNL A   1      47.316  26.582  26.801  1.00  0.00     0.049 A 
ATOM     58  H   UNL A   1      45.802  27.587  27.873  1.00  0.00     0.167 HD
ATOM     59  C   UNL A   1      48.344  28.753  27.415  1.00  0.00     0.074 A 
ATOM     60  C   UNL A   1      49.444  29.693  27.439  1.00  0.00     0.031 C 
ATOM     61  C   UNL A   1      48.404  27.527  26.834  1.00  0.00     0.031 A 
BRANCH  48  62
ATOM     62  C   UNL A   1      43.199  24.232  27.386  1.00  0.00    -0.014 A 
ATOM     63  C   UNL A   1      43.169  23.200  28.342  1.00  0.00     0.010 A 
ATOM     64  C   UNL A   1      42.509  24.060  26.173  1.00  0.00     0.010 A 
ATOM     65  C   UNL A   1      42.494  22.006  28.072  1.00  0.00     0.020 A 
ATOM     66  C   UNL A   1      41.807  22.880  25.912  1.00  0.00     0.020 A 
ATOM     67  C   UNL A   1      41.818  21.854  26.858  1.00  0.00     0.054 A 
BRANCH  67  68
ATOM     68  S   UNL A   1      40.929  20.303  26.546  1.00  0.00     0.124 S 
ATOM     69  O   UNL A   1      39.627  20.787  26.096  1.00  0.00    -0.237 OA
ATOM     70  O   UNL A   1      41.751  19.666  25.520  1.00  0.00    -0.237 OA
ATOM     71  O   UNL A   1      40.930  19.634  27.845  1.00  0.00    -0.744 OA
ENDBRANCH  67  68
ENDBRANCH  48  62
BRANCH  49  72
ATOM     72  C   UNL A   1      47.687  32.904  29.546  1.00  0.00    -0.014 A 
ATOM     73  C   UNL A   1      47.639  34.006  28.675  1.00  0.00     0.010 A 
ATOM     74  C   UNL A   1      48.410  33.017  30.748  1.00  0.00     0.010 A 
ATOM     75  C   UNL A   1      48.315  35.190  28.991  1.00  0.00     0.020 A 
ATOM     76  C   UNL A   1      49.061  34.209  31.081  1.00  0.00     0.020 A 
ATOM     77  C   UNL A   1      49.018  35.285  30.194  1.00  0.00     0.054 A 
BRANCH  77  78
ATOM     78  S   UNL A   1      49.842  36.849  30.604  1.00  0.00     0.124 S 
ATOM     79  O   UNL A   1      48.761  37.611  31.221  1.00  0.00    -0.237 OA
ATOM     80  O   UNL A   1      50.907  36.415  31.506  1.00  0.00    -0.237 OA
ATOM     81  O   UNL A   1      50.299  37.347  29.308  1.00  0.00    -0.744 OA
ENDBRANCH  77  78
ENDBRANCH  49  72
BRANCH  61  82
ATOM     82  C   UNL A   1      49.688  27.140  26.144  1.00  0.00    -0.014 A 
ATOM     83  C   UNL A   1      50.733  26.507  26.840  1.00  0.00     0.010 A 
ATOM     84  C   UNL A   1      49.822  27.358  24.760  1.00  0.00     0.010 A 
ATOM     85  C   UNL A   1      51.901  26.131  26.171  1.00  0.00     0.020 A 
ATOM     86  C   UNL A   1      50.975  26.953  24.082  1.00  0.00     0.020 A 
ATOM     87  C   UNL A   1      52.015  26.355  24.795  1.00  0.00     0.054 A 
BRANCH  87  88
ATOM     88  S   UNL A   1      53.524  25.818  23.945  1.00  0.00     0.124 S 
ATOM     89  O   UNL A   1      54.529  26.713  24.512  1.00  0.00    -0.237 OA
ATOM     90  O   UNL A   1      53.634  24.416  24.344  1.00  0.00    -0.237 OA
ATOM     91  O   UNL A   1      53.223  26.034  22.531  1.00  0.00    -0.744 OA
ENDBRANCH  87  88
ENDBRANCH  61  82
ENDBRANCH  35  36
ENDBRANCH  28  30
ENDBRANCH  27  28
ENDBRANCH  26  27
ENDBRANCH  25  26
ENDBRANCH  24  25
ENDBRANCH  23  24
ENDBRANCH   1  23
TORSDOF 26
ENDMDL
MODEL 2
REMARK VINA RESULT:      -7.6      3.846      9.816
REMARK SMILES CC[C@@H]1CCCC[C@@]1(O)[C@H](F)C(=O)OCCOCCOCCOCCOC(=O)c1ccc(-c2c3nc(c(-c4ccc(S(=O)(=O)[O-])cc4)c4ccc([nH]4)c(-c4ccc(S(=O)(=O)[O-])cc4)c4nc(c(-c5ccc(S(=O)(=O)[O-])cc5)c5ccc2[nH]5)C=C4)C=C3)cc1
REMARK SMILES IDX 21 1 20 2 19 3 18 4 17 5 16 6 15 7 14 8 12 9 13 10 10 11
REMARK SMILES IDX 11 12 8 13 3 14 4 15 5 16 7 17 6 18 2 19 1 20 9 21 22 23
REMARK SMILES IDX 23 24 24 25 25 26 26 27 27 28 28 29 29 30 30 31 88 32 31 33
REMARK SMILES IDX 87 34 32 35 33 36 34 37 81 38 35 39 86 40 80 41 82 42 36 43
REMARK SMILES IDX 85 44 79 45 78 46 37 48 67 49 48 50 66 51 49 52 52 53 65 54
REMARK SMILES IDX 83 55 50 56 51 57 64 59 84 60 53 61 38 62 39 63 47 64 40 65
REMARK SMILES IDX 46 66 41 67 42 68 43 69 44 70 45 71 68 72 69 73 77 74 70 75
REMARK SMILES IDX 76 76 71 77 72 78 73 79 74 80 75 81 54 82 55 83 63 84 56 85
REMARK SMILES IDX 62 86 57 87 58 88 59 89 60 90 61 91
REMARK H PARENT 9 22 82 47 52 58
REMARK Flexibility Score: inf
ROOT
ATOM      1  C   UNL A   1      41.082  22.093  27.060  1.00  0.00     0.188 C 
ENDROOT
BRANCH   1   2
ATOM      2  O   UNL A   1      39.984  22.560  26.289  1.00  0.00    -0.377 OA
BRANCH   2   3
ATOM      3  C   UNL A   1      38.876  21.710  26.122  1.00  0.00     0.188 C 
BRANCH   3   4
ATOM      4  C   UNL A   1      37.708  22.353  25.354  1.00  0.00     0.188 C 
BRANCH   4   5
ATOM      5  O   UNL A   1      36.416  22.494  25.922  1.00  0.00    -0.376 OA
BRANCH   5   6
ATOM      6  C   UNL A   1      35.468  21.440  26.040  1.00  0.00     0.202 C 
BRANCH   6   7
ATOM      7  C   UNL A   1      34.049  21.569  26.617  1.00  0.00     0.261 C 
BRANCH   7   8
ATOM      8  O   UNL A   1      33.760  22.792  27.282  1.00  0.00    -0.461 OA
BRANCH   8   9
ATOM      9  C   UNL A   1      32.540  23.315  27.017  1.00  0.00     0.343 C 
ATOM     10  O   UNL A   1      31.512  22.956  27.580  1.00  0.00    -0.249 OA
BRANCH   9  11
ATOM     11  C   UNL A   1      32.631  24.510  26.081  1.00  0.00     0.307 C 
ATOM     12  F   UNL A   1      33.896  24.674  25.576  1.00  0.00    -0.232 F 
BRANCH  11  13
ATOM     13  C   UNL A   1      31.639  24.484  24.898  1.00  0.00     0.110 C 
ATOM     14  C   UNL A   1      31.805  25.714  23.956  1.00  0.00     0.024 C 
ATOM     15  C   UNL A   1      33.102  25.640  23.127  1.00  0.00     0.007 C 
ATOM     16  C   UNL A   1      33.289  24.325  22.387  1.00  0.00     0.001 C 
ATOM     17  C   UNL A   1      31.867  23.157  24.124  1.00  0.00     0.039 C 
ATOM     18  C   UNL A   1      33.159  23.122  23.311  1.00  0.00     0.003 C 
BRANCH  14  19
ATOM     19  C   UNL A   1      30.562  26.133  23.141  1.00  0.00     0.003 C 
ATOM     20  C   UNL A   1      29.926  27.476  23.435  1.00  0.00     0.004 C 
ENDBRANCH  14  19
BRANCH  13  21
ATOM     21  O   UNL A   1      30.303  24.430  25.416  1.00  0.00    -0.386 OA
ATOM     22  H   UNL A   1      30.284  23.862  26.202  1.00  0.00     0.211 HD
ENDBRANCH  13  21
ENDBRANCH  11  13
ENDBRANCH   9  11
ENDBRANCH   8   9
ENDBRANCH   7   8
ENDBRANCH   6   7
ENDBRANCH   5   6
ENDBRANCH   4   5
ENDBRANCH   3   4
ENDBRANCH   2   3
ENDBRANCH   1   2
BRANCH   1  23
ATOM     23  C   UNL A   1      42.318  21.484  26.360  1.00  0.00     0.188 C 
BRANCH  23  24
ATOM     24  O   UNL A   1      42.499  21.880  25.008  1.00  0.00    -0.376 OA
BRANCH  24  25
ATOM     25  C   UNL A   1      43.629  22.680  24.694  1.00  0.00     0.202 C 
BRANCH  25  26
ATOM     26  C   UNL A   1      44.319  23.396  25.864  1.00  0.00     0.261 C 
BRANCH  26  27
ATOM     27  O   UNL A   1      45.370  24.310  25.517  1.00  0.00    -0.460 OA
BRANCH  27  28
ATOM     28  C   UNL A   1      46.340  24.525  26.436  1.00  0.00     0.338 C 
ATOM     29  O   UNL A   1      47.145  23.720  26.852  1.00  0.00    -0.246 OA
BRANCH  28  30
ATOM     30  C   UNL A   1      46.386  25.982  26.700  1.00  0.00     0.060 A 
ATOM     31  C   UNL A   1      46.942  26.436  27.904  1.00  0.00     0.016 A 
ATOM     32  C   UNL A   1      45.890  26.890  25.762  1.00  0.00     0.016 A 
ATOM     33  C   UNL A   1      46.968  27.802  28.190  1.00  0.00     0.010 A 
ATOM     34  C   UNL A   1      45.896  28.256  26.060  1.00  0.00     0.010 A 
ATOM     35  C   UNL A   1      46.401  28.714  27.291  1.00  0.00    -0.014 A 
BRANCH  35  36
ATOM     36  C   UNL A   1      46.139  30.108  27.723  1.00  0.00     0.031 A 
ATOM     37  C   UNL A   1      44.847  30.396  28.441  1.00  0.00     0.074 A 
ATOM     38  C   UNL A   1      47.027  31.096  27.507  1.00  0.00     0.049 A 
ATOM     39  N   UNL A   1      44.369  31.535  28.868  1.00  0.00    -0.248 NA
ATOM     40  C   UNL A   1      43.974  29.239  28.709  1.00  0.00     0.031 C 
ATOM     41  C   UNL A   1      48.334  30.938  26.873  1.00  0.00     0.029 A 
ATOM     42  N   UNL A   1      46.952  32.437  27.796  1.00  0.00    -0.354 N 
ATOM     43  C   UNL A   1      43.139  31.236  29.442  1.00  0.00     0.074 A 
ATOM     44  C   UNL A   1      42.930  29.814  29.283  1.00  0.00     0.031 C 
ATOM     45  C   UNL A   1      48.935  32.138  26.811  1.00  0.00     0.029 A 
ATOM     46  C   UNL A   1      48.041  33.155  27.364  1.00  0.00     0.049 A 
ATOM     47  H   UNL A   1      46.190  32.844  28.268  1.00  0.00     0.167 HD
ATOM     48  C   UNL A   1      42.261  32.068  30.050  1.00  0.00     0.031 A 
ATOM     49  C   UNL A   1      48.277  34.484  27.389  1.00  0.00     0.031 A 
ATOM     50  C   UNL A   1      42.463  33.486  30.189  1.00  0.00     0.049 A 
ATOM     51  C   UNL A   1      47.244  35.404  27.992  1.00  0.00     0.074 A 
ATOM     52  C   UNL A   1      41.640  34.415  30.800  1.00  0.00     0.029 A 
ATOM     53  N   UNL A   1      43.559  34.182  29.702  1.00  0.00    -0.354 N 
ATOM     54  N   UNL A   1      46.096  35.105  28.555  1.00  0.00    -0.248 NA
ATOM     55  C   UNL A   1      47.541  36.844  27.968  1.00  0.00     0.031 C 
ATOM     56  C   UNL A   1      42.205  35.681  30.622  1.00  0.00     0.029 A 
ATOM     57  C   UNL A   1      43.418  35.533  29.967  1.00  0.00     0.049 A 
ATOM     58  H   UNL A   1      44.325  33.774  29.236  1.00  0.00     0.167 HD
ATOM     59  C   UNL A   1      45.552  36.315  28.976  1.00  0.00     0.074 A 
ATOM     60  C   UNL A   1      46.502  37.347  28.619  1.00  0.00     0.031 C 
ATOM     61  C   UNL A   1      44.372  36.551  29.603  1.00  0.00     0.031 A 
BRANCH  48  62
ATOM     62  C   UNL A   1      40.981  31.470  30.571  1.00  0.00    -0.014 A 
ATOM     63  C   UNL A   1      40.831  31.125  31.926  1.00  0.00     0.010 A 
ATOM     64  C   UNL A   1      39.898  31.280  29.693  1.00  0.00     0.010 A 
ATOM     65  C   UNL A   1      39.635  30.566  32.386  1.00  0.00     0.020 A 
ATOM     66  C   UNL A   1      38.689  30.751  30.156  1.00  0.00     0.020 A 
ATOM     67  C   UNL A   1      38.572  30.383  31.497  1.00  0.00     0.054 A 
BRANCH  67  68
ATOM     68  S   UNL A   1      37.023  29.679  32.127  1.00  0.00     0.124 S 
ATOM     69  O   UNL A   1      36.335  29.312  30.892  1.00  0.00    -0.237 OA
ATOM     70  O   UNL A   1      37.490  28.559  32.941  1.00  0.00    -0.237 OA
ATOM     71  O   UNL A   1      36.419  30.779  32.874  1.00  0.00    -0.744 OA
ENDBRANCH  67  68
ENDBRANCH  48  62
BRANCH  49  72
ATOM     72  C   UNL A   1      49.532  35.033  26.803  1.00  0.00    -0.014 A 
ATOM     73  C   UNL A   1      49.585  35.428  25.455  1.00  0.00     0.010 A 
ATOM     74  C   UNL A   1      50.691  35.150  27.592  1.00  0.00     0.010 A 
ATOM     75  C   UNL A   1      50.775  35.915  24.904  1.00  0.00     0.020 A 
ATOM     76  C   UNL A   1      51.874  35.666  27.054  1.00  0.00     0.020 A 
ATOM     77  C   UNL A   1      51.911  36.035  25.709  1.00  0.00     0.054 A 
BRANCH  77  78
ATOM     78  S   UNL A   1      53.427  36.719  24.983  1.00  0.00     0.124 S 
ATOM     79  O   UNL A   1      53.145  38.151  24.982  1.00  0.00    -0.237 OA
ATOM     80  O   UNL A   1      54.453  36.276  25.925  1.00  0.00    -0.237 OA
ATOM     81  O   UNL A   1      53.491  36.092  23.665  1.00  0.00    -0.744 OA
ENDBRANCH  77  78
ENDBRANCH  49  72
BRANCH  61  82
ATOM     82  C   UNL A   1      44.050  37.976  29.980  1.00  0.00    -0.014 A 
ATOM     83  C   UNL A   1      43.332  38.819  29.115  1.00  0.00     0.010 A 
ATOM     84  C   UNL A   1      44.423  38.457  31.250  1.00  0.00     0.010 A 
ATOM     85  C   UNL A   1      43.020  40.127  29.499  1.00  0.00     0.020 A 
ATOM     86  C   UNL A   1      44.084  39.752  31.650  1.00  0.00     0.020 A 
ATOM     87  C   UNL A   1      43.397  40.585  30.766  1.00  0.00     0.054 A 
BRANCH  87  88
ATOM     88  S   UNL A   1      42.943  42.272  31.255  1.00  0.00     0.124 S 
ATOM     89  O   UNL A   1      41.526  42.319  30.907  1.00  0.00    -0.237 OA
ATOM     90  O   UNL A   1      43.239  42.279  32.686  1.00  0.00    -0.237 OA
ATOM     91  O   UNL A   1      43.814  43.117  30.440  1.00  0.00    -0.744 OA
ENDBRANCH  87  88
ENDBRANCH  61  82
ENDBRANCH  35  36
ENDBRANCH  28  30
ENDBRANCH  27  28
ENDBRANCH  26  27
ENDBRANCH  25  26
ENDBRANCH  24  25
ENDBRANCH  23  24
ENDBRANCH   1  23
TORSDOF 26
ENDMDL
MODEL 3
REMARK VINA RESULT:      -7.3      4.607      6.457
REMARK SMILES CC[C@@H]1CCCC[C@@]1(O)[C@H](F)C(=O)OCCOCCOCCOCCOC(=O)c1ccc(-c2c3nc(c(-c4ccc(S(=O)(=O)[O-])cc4)c4ccc([nH]4)c(-c4ccc(S(=O)(=O)[O-])cc4)c4nc(c(-c5ccc(S(=O)(=O)[O-])cc5)c5ccc2[nH]5)C=C4)C=C3)cc1
REMARK SMILES IDX 21 1 20 2 19 3 18 4 17 5 16 6 15 7 14 8 12 9 13 10 10 11
REMARK SMILES IDX 11 12 8 13 3 14 4 15 5 16 7 17 6 18 2 19 1 20 9 21 22 23
REMARK SMILES IDX 23 24 24 25 25 26 26 27 27 28 28 29 29 30 30 31 88 32 31 33
REMARK SMILES IDX 87 34 32 35 33 36 34 37 81 38 35 39 86 40 80 41 82 42 36 43
REMARK SMILES IDX 85 44 79 45 78 46 37 48 67 49 48 50 66 51 49 52 52 53 65 54
REMARK SMILES IDX 83 55 50 56 51 57 64 59 84 60 53 61 38 62 39 63 47 64 40 65
REMARK SMILES IDX 46 66 41 67 42 68 43 69 44 70 45 71 68 72 69 73 77 74 70 75
REMARK SMILES IDX 76 76 71 77 72 78 73 79 74 80 75 81 54 82 55 83 63 84 56 85
REMARK SMILES IDX 62 86 57 87 58 88 59 89 60 90 61 91
REMARK H PARENT 9 22 82 47 52 58
REMARK Flexibility Score: inf
ROOT
ATOM      1  C   UNL A   1      34.580  30.594  27.261  1.00  0.00     0.188 C 
ENDROOT
BRANCH   1   2
ATOM      2  O   UNL A   1      34.380  29.229  27.599  1.00  0.00    -0.377 OA
BRANCH   2   3
ATOM      3  C   UNL A   1      33.460  28.482  26.842  1.00  0.00     0.188 C 
BRANCH   3   4
ATOM      4  C   UNL A   1      33.387  28.898  25.363  1.00  0.00     0.188 C 
BRANCH   4   5
ATOM      5  O   UNL A   1      32.170  29.289  24.747  1.00  0.00    -0.376 OA
BRANCH   5   6
ATOM      6  C   UNL A   1      31.228  28.387  24.177  1.00  0.00     0.202 C 
BRANCH   6   7
ATOM      7  C   UNL A   1      31.368  27.682  22.820  1.00  0.00     0.261 C 
BRANCH   7   8
ATOM      8  O   UNL A   1      32.362  26.669  22.748  1.00  0.00    -0.461 OA
BRANCH   8   9
ATOM      9  C   UNL A   1      31.906  25.404  22.908  1.00  0.00     0.343 C 
ATOM     10  O   UNL A   1      30.742  25.072  22.706  1.00  0.00    -0.249 OA
BRANCH   9  11
ATOM     11  C   UNL A   1      33.038  24.430  23.191  1.00  0.00     0.307 C 
ATOM     12  F   UNL A   1      34.256  24.925  22.797  1.00  0.00    -0.232 F 
BRANCH  11  13
ATOM     13  C   UNL A   1      33.154  23.978  24.663  1.00  0.00     0.110 C 
ATOM     14  C   UNL A   1      32.175  22.817  25.008  1.00  0.00     0.024 C 
ATOM     15  C   UNL A   1      32.601  21.486  24.360  1.00  0.00     0.007 C 
ATOM     16  C   UNL A   1      34.050  21.106  24.621  1.00  0.00     0.001 C 
ATOM     17  C   UNL A   1      34.628  23.553  24.908  1.00  0.00     0.039 C 
ATOM     18  C   UNL A   1      35.012  22.228  24.255  1.00  0.00     0.003 C 
BRANCH  14  19
ATOM     19  C   UNL A   1      31.750  22.687  26.487  1.00  0.00     0.003 C 
ATOM     20  C   UNL A   1      30.302  22.949  26.847  1.00  0.00     0.004 C 
ENDBRANCH  14  19
BRANCH  13  21
ATOM     21  O   UNL A   1      32.908  25.107  25.513  1.00  0.00    -0.386 OA
ATOM     22  H   UNL A   1      33.738  25.587  25.660  1.00  0.00     0.211 HD
ENDBRANCH  13  21
ENDBRANCH  11  13
ENDBRANCH   9  11
ENDBRANCH   8   9
ENDBRANCH   7   8
ENDBRANCH   6   7
ENDBRANCH   5   6
ENDBRANCH   4   5
ENDBRANCH   3   4
ENDBRANCH   2   3
ENDBRANCH   1   2
BRANCH   1  23
ATOM     23  C   UNL A   1      33.544  31.659  27.688  1.00  0.00     0.188 C 
BRANCH  23  24
ATOM     24  O   UNL A   1      34.092  32.823  28.290  1.00  0.00    -0.376 OA
BRANCH  24  25
ATOM     25  C   UNL A   1      35.476  32.820  28.605  1.00  0.00     0.202 C 
BRANCH  25  26
ATOM     26  C   UNL A   1      35.866  33.269  30.022  1.00  0.00     0.261 C 
BRANCH  26  27
ATOM     27  O   UNL A   1      37.218  33.000  30.421  1.00  0.00    -0.460 OA
BRANCH  27  28
ATOM     28  C   UNL A   1      37.785  33.843  31.316  1.00  0.00     0.338 C 
ATOM     29  O   UNL A   1      37.393  34.091  32.436  1.00  0.00    -0.246 OA
BRANCH  28  30
ATOM     30  C   UNL A   1      39.096  34.259  30.767  1.00  0.00     0.060 A 
ATOM     31  C   UNL A   1      39.189  34.588  29.408  1.00  0.00     0.016 A 
ATOM     32  C   UNL A   1      40.221  34.329  31.591  1.00  0.00     0.016 A 
ATOM     33  C   UNL A   1      40.419  34.951  28.860  1.00  0.00     0.010 A 
ATOM     34  C   UNL A   1      41.458  34.671  31.035  1.00  0.00     0.010 A 
ATOM     35  C   UNL A   1      41.569  34.948  29.661  1.00  0.00    -0.014 A 
BRANCH  35  36
ATOM     36  C   UNL A   1      42.908  35.019  29.027  1.00  0.00     0.031 A 
ATOM     37  C   UNL A   1      43.709  33.748  28.923  1.00  0.00     0.074 A 
ATOM     38  C   UNL A   1      43.401  36.171  28.538  1.00  0.00     0.049 A 
ATOM     39  N   UNL A   1      44.918  33.563  28.462  1.00  0.00    -0.248 NA
ATOM     40  C   UNL A   1      43.056  32.519  29.408  1.00  0.00     0.031 C 
ATOM     41  C   UNL A   1      42.704  37.455  28.530  1.00  0.00     0.029 A 
ATOM     42  N   UNL A   1      44.615  36.442  27.957  1.00  0.00    -0.354 N 
ATOM     43  C   UNL A   1      45.176  32.205  28.613  1.00  0.00     0.074 A 
ATOM     44  C   UNL A   1      44.009  31.618  29.234  1.00  0.00     0.031 C 
ATOM     45  C   UNL A   1      43.508  38.382  27.980  1.00  0.00     0.029 A 
ATOM     46  C   UNL A   1      44.789  37.766  27.634  1.00  0.00     0.049 A 
ATOM     47  H   UNL A   1      45.298  35.752  27.789  1.00  0.00     0.167 HD
ATOM     48  C   UNL A   1      46.282  31.507  28.264  1.00  0.00     0.031 A 
ATOM     49  C   UNL A   1      45.866  38.411  27.140  1.00  0.00     0.031 A 
ATOM     50  C   UNL A   1      47.448  32.098  27.664  1.00  0.00     0.049 A 
ATOM     51  C   UNL A   1      47.121  37.628  26.840  1.00  0.00     0.074 A 
ATOM     52  C   UNL A   1      48.616  31.475  27.262  1.00  0.00     0.029 A 
ATOM     53  N   UNL A   1      47.601  33.449  27.391  1.00  0.00    -0.354 N 
ATOM     54  N   UNL A   1      47.342  36.340  26.964  1.00  0.00    -0.248 NA
ATOM     55  C   UNL A   1      48.273  38.387  26.331  1.00  0.00     0.031 C 
ATOM     56  C   UNL A   1      49.501  32.459  26.808  1.00  0.00     0.029 A 
ATOM     57  C   UNL A   1      48.856  33.686  26.858  1.00  0.00     0.049 A 
ATOM     58  H   UNL A   1      46.916  34.138  27.553  1.00  0.00     0.167 HD
ATOM     59  C   UNL A   1      48.644  36.133  26.519  1.00  0.00     0.074 A 
ATOM     60  C   UNL A   1      49.155  37.423  26.109  1.00  0.00     0.031 C 
ATOM     61  C   UNL A   1      49.354  34.977  26.455  1.00  0.00     0.031 A 
BRANCH  48  62
ATOM     62  C   UNL A   1      46.298  30.032  28.565  1.00  0.00    -0.014 A 
ATOM     63  C   UNL A   1      45.821  29.089  27.636  1.00  0.00     0.010 A 
ATOM     64  C   UNL A   1      46.829  29.579  29.787  1.00  0.00     0.010 A 
ATOM     65  C   UNL A   1      45.841  27.725  27.940  1.00  0.00     0.020 A 
ATOM     66  C   UNL A   1      46.880  28.214  30.081  1.00  0.00     0.020 A 
ATOM     67  C   UNL A   1      46.370  27.296  29.161  1.00  0.00     0.054 A 
BRANCH  67  68
ATOM     68  S   UNL A   1      46.406  25.518  29.517  1.00  0.00     0.124 S 
ATOM     69  O   UNL A   1      47.396  25.445  30.588  1.00  0.00    -0.237 OA
ATOM     70  O   UNL A   1      45.028  25.245  29.918  1.00  0.00    -0.237 OA
ATOM     71  O   UNL A   1      46.814  24.917  28.250  1.00  0.00    -0.744 OA
ENDBRANCH  67  68
ENDBRANCH  48  62
BRANCH  49  72
ATOM     72  C   UNL A   1      45.821  39.885  26.919  1.00  0.00    -0.014 A 
ATOM     73  C   UNL A   1      45.441  40.415  25.674  1.00  0.00     0.010 A 
ATOM     74  C   UNL A   1      46.171  40.768  27.957  1.00  0.00     0.010 A 
ATOM     75  C   UNL A   1      45.429  41.798  25.466  1.00  0.00     0.020 A 
ATOM     76  C   UNL A   1      46.129  42.152  27.763  1.00  0.00     0.020 A 
ATOM     77  C   UNL A   1      45.768  42.658  26.514  1.00  0.00     0.054 A 
BRANCH  77  78
ATOM     78  S   UNL A   1      45.693  44.450  26.233  1.00  0.00     0.124 S 
ATOM     79  O   UNL A   1      45.302  44.948  27.548  1.00  0.00    -0.237 OA
ATOM     80  O   UNL A   1      47.060  44.760  25.819  1.00  0.00    -0.237 OA
ATOM     81  O   UNL A   1      44.685  44.592  25.185  1.00  0.00    -0.744 OA
ENDBRANCH  77  78
ENDBRANCH  49  72
BRANCH  61  82
ATOM     82  C   UNL A   1      50.750  35.042  25.888  1.00  0.00    -0.014 A 
ATOM     83  C   UNL A   1      50.979  35.043  24.501  1.00  0.00     0.010 A 
ATOM     84  C   UNL A   1      51.847  35.167  26.761  1.00  0.00     0.010 A 
ATOM     85  C   UNL A   1      52.281  35.134  23.999  1.00  0.00     0.020 A 
ATOM     86  C   UNL A   1      53.146  35.292  26.263  1.00  0.00     0.020 A 
ATOM     87  C   UNL A   1      53.357  35.260  24.884  1.00  0.00     0.054 A 
BRANCH  87  88
ATOM     88  S   UNL A   1      55.031  35.420  24.205  1.00  0.00     0.124 S 
ATOM     89  O   UNL A   1      55.820  34.637  25.152  1.00  0.00    -0.237 OA
ATOM     90  O   UNL A   1      54.892  34.838  22.872  1.00  0.00    -0.237 OA
ATOM     91  O   UNL A   1      55.280  36.860  24.227  1.00  0.00    -0.744 OA
ENDBRANCH  87  88
ENDBRANCH  61  82
ENDBRANCH  35  36
ENDBRANCH  28  30
ENDBRANCH  27  28
ENDBRANCH  26  27
ENDBRANCH  25  26
ENDBRANCH  24  25
ENDBRANCH  23  24
ENDBRANCH   1  23
TORSDOF 26
ENDMDL
