MODEL 1
REMARK VINA RESULT:      -9.6      0.000      0.000
REMARK SMILES CSc1ccc(/C=C2\C(C)=C(CC(=O)OCCOCCOCCOCCOC(=O)c3ccc(-c4c5nc(c(-c6ccc(S(=O)(=O)[O-])cc6)c6ccc([nH]6)c(-c6ccc(S(=O)(=O)[O-])cc6)c6nc(c(-c7ccc(S(=O)(=O)[O-])cc7)c7ccc4[nH]7)C=C6)C=C5)cc3)c3cc(F)ccc32)cc1
REMARK SMILES IDX 21 1 20 2 19 3 18 4 17 5 16 6 15 7 13 8 14 9 12 10 11 11
REMARK SMILES IDX 7 12 8 13 9 14 96 15 10 16 90 17 95 18 91 19 94 20 92 21
REMARK SMILES IDX 93 22 6 23 3 24 4 25 98 26 5 27 97 28 2 29 1 30 22 31 23 32
REMARK SMILES IDX 24 33 25 34 26 35 27 36 28 37 29 38 30 39 31 40 89 41 32 42
REMARK SMILES IDX 88 43 33 44 34 45 35 46 82 47 36 48 87 49 81 50 83 51 37 52
REMARK SMILES IDX 86 53 80 54 79 55 38 57 68 58 49 59 67 60 50 61 53 62 66 63
REMARK SMILES IDX 84 64 51 65 52 66 65 68 85 69 54 70 39 71 40 72 48 73 41 74
REMARK SMILES IDX 47 75 42 76 43 77 44 78 45 79 46 80 69 81 70 82 78 83 71 84
REMARK SMILES IDX 77 85 72 86 73 87 74 88 75 89 76 90 55 91 56 92 64 93 57 94
REMARK SMILES IDX 63 95 58 96 59 97 60 98 61 99 62 100
REMARK H PARENT 83 56 53 67
REMARK Flexibility Score: inf
ROOT
ATOM      1  O   UNL A   1      35.925  23.023  24.858  1.00  0.00    -0.377 OA
ENDROOT
BRANCH   1   2
ATOM      2  C   UNL A   1      35.733  22.995  23.456  1.00  0.00     0.188 C 
BRANCH   2   3
ATOM      3  C   UNL A   1      34.276  23.192  23.042  1.00  0.00     0.188 C 
BRANCH   3   4
ATOM      4  O   UNL A   1      33.488  22.015  22.955  1.00  0.00    -0.376 OA
BRANCH   4   5
ATOM      5  C   UNL A   1      32.214  22.013  23.602  1.00  0.00     0.202 C 
BRANCH   5   6
ATOM      6  C   UNL A   1      32.143  21.532  25.062  1.00  0.00     0.261 C 
BRANCH   6   7
ATOM      7  O   UNL A   1      31.583  22.519  25.964  1.00  0.00    -0.463 OA
BRANCH   7   8
ATOM      8  C   UNL A   1      32.448  23.114  26.819  1.00  0.00     0.310 C 
ATOM      9  O   UNL A   1      32.753  22.649  27.918  1.00  0.00    -0.252 OA
BRANCH   8  10
ATOM     10  C   UNL A   1      33.022  24.452  26.371  1.00  0.00     0.159 C 
BRANCH  10  11
ATOM     11  C   UNL A   1      32.158  25.577  25.785  1.00  0.00    -0.025 C 
ATOM     12  C   UNL A   1      34.498  28.004  26.430  1.00  0.00     0.017 C 
ATOM     13  C   UNL A   1      33.513  27.353  25.792  1.00  0.00    -0.014 C 
ATOM     14  C   UNL A   1      32.213  26.841  26.308  1.00  0.00    -0.039 C 
ATOM     15  C   UNL A   1      33.544  26.902  24.383  1.00  0.00    -0.010 A 
ATOM     16  C   UNL A   1      31.054  27.800  25.977  1.00  0.00     0.045 C 
ATOM     17  C   UNL A   1      32.567  25.890  24.366  1.00  0.00    -0.011 A 
ATOM     18  C   UNL A   1      33.789  27.693  23.258  1.00  0.00     0.012 A 
ATOM     19  C   UNL A   1      31.787  25.703  23.238  1.00  0.00     0.048 A 
ATOM     20  C   UNL A   1      32.989  27.494  22.124  1.00  0.00     0.040 A 
ATOM     21  C   UNL A   1      31.988  26.520  22.134  1.00  0.00     0.123 A 
ATOM     22  F   UNL A   1      31.116  26.458  21.117  1.00  0.00    -0.207 F 
BRANCH  12  23
ATOM     23  C   UNL A   1      34.337  29.055  27.472  1.00  0.00    -0.025 A 
ATOM     24  C   UNL A   1      34.950  31.714  28.041  1.00  0.00     0.007 A 
ATOM     25  C   UNL A   1      33.691  31.383  27.555  1.00  0.00     0.015 A 
ATOM     26  C   UNL A   1      35.787  30.698  28.502  1.00  0.00     0.015 A 
ATOM     27  C   UNL A   1      33.365  30.046  27.343  1.00  0.00     0.009 A 
ATOM     28  C   UNL A   1      35.481  29.363  28.217  1.00  0.00     0.009 A 
BRANCH  24  29
ATOM     29  S   UNL A   1      35.535  33.391  27.921  1.00  0.00    -0.130 SA
ATOM     30  C   UNL A   1      33.945  34.242  28.197  1.00  0.00     0.091 C 
ENDBRANCH  24  29
ENDBRANCH  12  23
ENDBRANCH  10  11
ENDBRANCH   8  10
ENDBRANCH   7   8
ENDBRANCH   6   7
ENDBRANCH   5   6
ENDBRANCH   4   5
ENDBRANCH   3   4
ENDBRANCH   2   3
ENDBRANCH   1   2
BRANCH   1  31
ATOM     31  C   UNL A   1      35.854  21.840  25.651  1.00  0.00     0.188 C 
BRANCH  31  32
ATOM     32  C   UNL A   1      36.497  20.557  25.118  1.00  0.00     0.188 C 
BRANCH  32  33
ATOM     33  O   UNL A   1      37.872  20.605  24.722  1.00  0.00    -0.376 OA
BRANCH  33  34
ATOM     34  C   UNL A   1      38.806  19.782  25.412  1.00  0.00     0.202 C 
BRANCH  34  35
ATOM     35  C   UNL A   1      39.865  20.509  26.236  1.00  0.00     0.261 C 
BRANCH  35  36
ATOM     36  O   UNL A   1      41.021  19.693  26.461  1.00  0.00    -0.460 OA
BRANCH  36  37
ATOM     37  C   UNL A   1      42.170  20.235  25.987  1.00  0.00     0.338 C 
ATOM     38  O   UNL A   1      42.925  19.764  25.160  1.00  0.00    -0.246 OA
BRANCH  37  39
ATOM     39  C   UNL A   1      42.316  21.600  26.519  1.00  0.00     0.060 A 
ATOM     40  C   UNL A   1      42.311  22.650  25.594  1.00  0.00     0.016 A 
ATOM     41  C   UNL A   1      42.542  21.836  27.877  1.00  0.00     0.016 A 
ATOM     42  C   UNL A   1      42.583  23.943  26.016  1.00  0.00     0.010 A 
ATOM     43  C   UNL A   1      42.836  23.133  28.298  1.00  0.00     0.010 A 
ATOM     44  C   UNL A   1      42.902  24.177  27.358  1.00  0.00    -0.014 A 
BRANCH  44  45
ATOM     45  C   UNL A   1      43.513  25.472  27.717  1.00  0.00     0.031 A 
ATOM     46  C   UNL A   1      44.961  25.690  27.373  1.00  0.00     0.074 A 
ATOM     47  C   UNL A   1      42.770  26.443  28.274  1.00  0.00     0.049 A 
ATOM     48  N   UNL A   1      45.712  26.735  27.592  1.00  0.00    -0.248 NA
ATOM     49  C   UNL A   1      45.656  24.583  26.690  1.00  0.00     0.031 C 
ATOM     50  C   UNL A   1      41.345  26.338  28.592  1.00  0.00     0.029 A 
ATOM     51  N   UNL A   1      43.113  27.707  28.671  1.00  0.00    -0.354 N 
ATOM     52  C   UNL A   1      46.968  26.406  27.096  1.00  0.00     0.074 A 
ATOM     53  C   UNL A   1      46.887  25.061  26.577  1.00  0.00     0.031 C 
ATOM     54  C   UNL A   1      40.938  27.492  29.150  1.00  0.00     0.029 A 
ATOM     55  C   UNL A   1      42.080  28.396  29.261  1.00  0.00     0.049 A 
ATOM     56  H   UNL A   1      44.012  28.087  28.546  1.00  0.00     0.167 HD
ATOM     57  C   UNL A   1      48.088  27.164  27.079  1.00  0.00     0.031 A 
ATOM     58  C   UNL A   1      42.073  29.608  29.849  1.00  0.00     0.031 A 
ATOM     59  C   UNL A   1      48.143  28.504  27.597  1.00  0.00     0.049 A 
ATOM     60  C   UNL A   1      43.351  30.409  29.863  1.00  0.00     0.074 A 
ATOM     61  C   UNL A   1      49.216  29.377  27.603  1.00  0.00     0.029 A 
ATOM     62  N   UNL A   1      47.085  29.161  28.205  1.00  0.00    -0.354 N 
ATOM     63  N   UNL A   1      44.522  30.100  29.356  1.00  0.00    -0.248 NA
ATOM     64  C   UNL A   1      43.305  31.723  30.517  1.00  0.00     0.031 C 
ATOM     65  C   UNL A   1      48.827  30.534  28.282  1.00  0.00     0.029 A 
ATOM     66  C   UNL A   1      47.489  30.414  28.627  1.00  0.00     0.049 A 
ATOM     67  H   UNL A   1      46.181  28.790  28.321  1.00  0.00     0.167 HD
ATOM     68  C   UNL A   1      45.342  31.196  29.602  1.00  0.00     0.074 A 
ATOM     69  C   UNL A   1      44.527  32.180  30.286  1.00  0.00     0.031 C 
ATOM     70  C   UNL A   1      46.652  31.376  29.296  1.00  0.00     0.031 A 
BRANCH  57  71
ATOM     71  C   UNL A   1      49.352  26.559  26.533  1.00  0.00    -0.014 A 
ATOM     72  C   UNL A   1      49.756  26.766  25.202  1.00  0.00     0.010 A 
ATOM     73  C   UNL A   1      50.197  25.840  27.400  1.00  0.00     0.010 A 
ATOM     74  C   UNL A   1      50.979  26.261  24.748  1.00  0.00     0.020 A 
ATOM     75  C   UNL A   1      51.431  25.358  26.957  1.00  0.00     0.020 A 
ATOM     76  C   UNL A   1      51.813  25.570  25.632  1.00  0.00     0.054 A 
BRANCH  76  77
ATOM     77  S   UNL A   1      53.429  24.999  25.038  1.00  0.00     0.124 S 
ATOM     78  O   UNL A   1      53.484  25.585  23.701  1.00  0.00    -0.237 OA
ATOM     79  O   UNL A   1      54.349  25.576  26.015  1.00  0.00    -0.237 OA
ATOM     80  O   UNL A   1      53.319  23.543  25.073  1.00  0.00    -0.744 OA
ENDBRANCH  76  77
ENDBRANCH  57  71
BRANCH  58  81
ATOM     81  C   UNL A   1      40.841  30.114  30.517  1.00  0.00    -0.014 A 
ATOM     82  C   UNL A   1      39.883  30.863  29.812  1.00  0.00     0.010 A 
ATOM     83  C   UNL A   1      40.640  29.871  31.889  1.00  0.00     0.010 A 
ATOM     84  C   UNL A   1      38.771  31.394  30.475  1.00  0.00     0.020 A 
ATOM     85  C   UNL A   1      39.511  30.369  32.547  1.00  0.00     0.020 A 
ATOM     86  C   UNL A   1      38.595  31.146  31.839  1.00  0.00     0.054 A 
BRANCH  86  87
ATOM     87  S   UNL A   1      37.144  31.841  32.677  1.00  0.00     0.124 S 
ATOM     88  O   UNL A   1      36.045  31.242  31.927  1.00  0.00    -0.237 OA
ATOM     89  O   UNL A   1      37.313  31.361  34.047  1.00  0.00    -0.237 OA
ATOM     90  O   UNL A   1      37.308  33.282  32.505  1.00  0.00    -0.744 OA
ENDBRANCH  86  87
ENDBRANCH  58  81
BRANCH  70  91
ATOM     91  C   UNL A   1      47.270  32.703  29.648  1.00  0.00    -0.014 A 
ATOM     92  C   UNL A   1      48.142  32.837  30.742  1.00  0.00     0.010 A 
ATOM     93  C   UNL A   1      47.019  33.817  28.827  1.00  0.00     0.010 A 
ATOM     94  C   UNL A   1      48.724  34.074  31.029  1.00  0.00     0.020 A 
ATOM     95  C   UNL A   1      47.627  35.046  29.090  1.00  0.00     0.020 A 
ATOM     96  C   UNL A   1      48.464  35.170  30.201  1.00  0.00     0.054 A 
BRANCH  96  97
ATOM     97  S   UNL A   1      49.265  36.753  30.571  1.00  0.00     0.124 S 
ATOM     98  O   UNL A   1      50.508  36.650  29.812  1.00  0.00    -0.237 OA
ATOM     99  O   UNL A   1      48.298  37.725  30.068  1.00  0.00    -0.237 OA
ATOM    100  O   UNL A   1      49.420  36.732  32.025  1.00  0.00    -0.744 OA
ENDBRANCH  96  97
ENDBRANCH  70  91
ENDBRANCH  44  45
ENDBRANCH  37  39
ENDBRANCH  36  37
ENDBRANCH  35  36
ENDBRANCH  34  35
ENDBRANCH  33  34
ENDBRANCH  32  33
ENDBRANCH  31  32
ENDBRANCH   1  31
TORSDOF 26
ENDMDL
MODEL 2
REMARK VINA RESULT:      -8.9      0.870      7.741
REMARK SMILES CSc1ccc(/C=C2\C(C)=C(CC(=O)OCCOCCOCCOCCOC(=O)c3ccc(-c4c5nc(c(-c6ccc(S(=O)(=O)[O-])cc6)c6ccc([nH]6)c(-c6ccc(S(=O)(=O)[O-])cc6)c6nc(c(-c7ccc(S(=O)(=O)[O-])cc7)c7ccc4[nH]7)C=C6)C=C5)cc3)c3cc(F)ccc32)cc1
REMARK SMILES IDX 21 1 20 2 19 3 18 4 17 5 16 6 15 7 13 8 14 9 12 10 11 11
REMARK SMILES IDX 7 12 8 13 9 14 96 15 10 16 90 17 95 18 91 19 94 20 92 21
REMARK SMILES IDX 93 22 6 23 3 24 4 25 98 26 5 27 97 28 2 29 1 30 22 31 23 32
REMARK SMILES IDX 24 33 25 34 26 35 27 36 28 37 29 38 30 39 31 40 89 41 32 42
REMARK SMILES IDX 88 43 33 44 34 45 35 46 82 47 36 48 87 49 81 50 83 51 37 52
REMARK SMILES IDX 86 53 80 54 79 55 38 57 68 58 49 59 67 60 50 61 53 62 66 63
REMARK SMILES IDX 84 64 51 65 52 66 65 68 85 69 54 70 39 71 40 72 48 73 41 74
REMARK SMILES IDX 47 75 42 76 43 77 44 78 45 79 46 80 69 81 70 82 78 83 71 84
REMARK SMILES IDX 77 85 72 86 73 87 74 88 75 89 76 90 55 91 56 92 64 93 57 94
REMARK SMILES IDX 63 95 58 96 59 97 60 98 61 99 62 100
REMARK H PARENT 83 56 53 67
REMARK Flexibility Score: inf
ROOT
ATOM      1  O   UNL A   1      35.898  23.132  24.868  1.00  0.00    -0.377 OA
ENDROOT
BRANCH   1   2
ATOM      2  C   UNL A   1      35.767  23.192  23.460  1.00  0.00     0.188 C 
BRANCH   2   3
ATOM      3  C   UNL A   1      34.422  23.751  23.001  1.00  0.00     0.188 C 
BRANCH   3   4
ATOM      4  O   UNL A   1      33.374  22.806  22.847  1.00  0.00    -0.376 OA
BRANCH   4   5
ATOM      5  C   UNL A   1      32.070  23.172  23.304  1.00  0.00     0.202 C 
BRANCH   5   6
ATOM      6  C   UNL A   1      31.566  22.559  24.622  1.00  0.00     0.261 C 
BRANCH   6   7
ATOM      7  O   UNL A   1      30.979  23.535  25.519  1.00  0.00    -0.463 OA
BRANCH   7   8
ATOM      8  C   UNL A   1      31.712  23.874  26.605  1.00  0.00     0.310 C 
ATOM      9  O   UNL A   1      31.781  23.189  27.626  1.00  0.00    -0.252 OA
BRANCH   8  10
ATOM     10  C   UNL A   1      32.446  25.207  26.529  1.00  0.00     0.159 C 
BRANCH  10  11
ATOM     11  C   UNL A   1      31.730  26.542  26.284  1.00  0.00    -0.025 C 
ATOM     12  C   UNL A   1      34.625  28.378  26.480  1.00  0.00     0.017 C 
ATOM     13  C   UNL A   1      33.398  28.014  26.075  1.00  0.00    -0.014 C 
ATOM     14  C   UNL A   1      32.183  27.693  26.874  1.00  0.00    -0.039 C 
ATOM     15  C   UNL A   1      32.988  27.757  24.677  1.00  0.00    -0.010 A 
ATOM     16  C   UNL A   1      31.213  28.888  26.939  1.00  0.00     0.045 C 
ATOM     17  C   UNL A   1      31.841  26.959  24.838  1.00  0.00    -0.011 A 
ATOM     18  C   UNL A   1      33.118  28.630  23.594  1.00  0.00     0.012 A 
ATOM     19  C   UNL A   1      30.790  27.073  23.945  1.00  0.00     0.048 A 
ATOM     20  C   UNL A   1      32.044  28.738  22.699  1.00  0.00     0.040 A 
ATOM     21  C   UNL A   1      30.890  27.977  22.896  1.00  0.00     0.123 A 
ATOM     22  F   UNL A   1      29.805  28.216  22.144  1.00  0.00    -0.207 F 
BRANCH  12  23
ATOM     23  C   UNL A   1      34.952  29.292  27.608  1.00  0.00    -0.025 A 
ATOM     24  C   UNL A   1      35.739  31.905  28.177  1.00  0.00     0.007 A 
ATOM     25  C   UNL A   1      34.400  31.549  28.276  1.00  0.00     0.015 A 
ATOM     26  C   UNL A   1      36.701  30.901  28.073  1.00  0.00     0.015 A 
ATOM     27  C   UNL A   1      34.022  30.226  28.064  1.00  0.00     0.009 A 
ATOM     28  C   UNL A   1      36.308  29.589  27.786  1.00  0.00     0.009 A 
BRANCH  24  29
ATOM     29  S   UNL A   1      36.194  33.620  28.023  1.00  0.00    -0.130 SA
ATOM     30  C   UNL A   1      34.523  34.343  28.143  1.00  0.00     0.091 C 
ENDBRANCH  24  29
ENDBRANCH  12  23
ENDBRANCH  10  11
ENDBRANCH   8  10
ENDBRANCH   7   8
ENDBRANCH   6   7
ENDBRANCH   5   6
ENDBRANCH   4   5
ENDBRANCH   3   4
ENDBRANCH   2   3
ENDBRANCH   1   2
BRANCH   1  31
ATOM     31  C   UNL A   1      35.767  21.906  25.584  1.00  0.00     0.188 C 
BRANCH  31  32
ATOM     32  C   UNL A   1      36.478  20.661  25.047  1.00  0.00     0.188 C 
BRANCH  32  33
ATOM     33  O   UNL A   1      37.875  20.757  24.749  1.00  0.00    -0.376 OA
BRANCH  33  34
ATOM     34  C   UNL A   1      38.779  19.913  25.455  1.00  0.00     0.202 C 
BRANCH  34  35
ATOM     35  C   UNL A   1      39.886  20.616  26.234  1.00  0.00     0.261 C 
BRANCH  35  36
ATOM     36  O   UNL A   1      40.994  19.746  26.491  1.00  0.00    -0.460 OA
BRANCH  36  37
ATOM     37  C   UNL A   1      42.174  20.210  26.011  1.00  0.00     0.338 C 
ATOM     38  O   UNL A   1      42.875  19.707  25.155  1.00  0.00    -0.246 OA
BRANCH  37  39
ATOM     39  C   UNL A   1      42.437  21.542  26.579  1.00  0.00     0.060 A 
ATOM     40  C   UNL A   1      42.568  22.607  25.681  1.00  0.00     0.016 A 
ATOM     41  C   UNL A   1      42.638  21.727  27.950  1.00  0.00     0.016 A 
ATOM     42  C   UNL A   1      42.952  23.857  26.142  1.00  0.00     0.010 A 
ATOM     43  C   UNL A   1      43.045  22.978  28.411  1.00  0.00     0.010 A 
ATOM     44  C   UNL A   1      43.247  24.030  27.499  1.00  0.00    -0.014 A 
BRANCH  44  45
ATOM     45  C   UNL A   1      43.971  25.249  27.909  1.00  0.00     0.031 A 
ATOM     46  C   UNL A   1      43.193  26.335  28.600  1.00  0.00     0.074 A 
ATOM     47  C   UNL A   1      45.298  25.346  27.724  1.00  0.00     0.049 A 
ATOM     48  N   UNL A   1      43.607  27.492  29.043  1.00  0.00    -0.248 NA
ATOM     49  C   UNL A   1      41.756  26.086  28.821  1.00  0.00     0.031 C 
ATOM     50  C   UNL A   1      46.143  24.318  27.113  1.00  0.00     0.029 A 
ATOM     51  N   UNL A   1      46.168  26.357  28.033  1.00  0.00    -0.354 N 
ATOM     52  C   UNL A   1      42.483  28.114  29.574  1.00  0.00     0.074 A 
ATOM     53  C   UNL A   1      41.366  27.218  29.387  1.00  0.00     0.031 C 
ATOM     54  C   UNL A   1      47.412  24.761  27.081  1.00  0.00     0.029 A 
ATOM     55  C   UNL A   1      47.459  26.112  27.632  1.00  0.00     0.049 A 
ATOM     56  H   UNL A   1      45.895  27.181  28.497  1.00  0.00     0.167 HD
ATOM     57  C   UNL A   1      42.398  29.328  30.164  1.00  0.00     0.031 A 
ATOM     58  C   UNL A   1      48.546  26.908  27.679  1.00  0.00     0.031 A 
ATOM     59  C   UNL A   1      43.526  30.200  30.345  1.00  0.00     0.049 A 
ATOM     60  C   UNL A   1      48.408  28.278  28.294  1.00  0.00     0.074 A 
ATOM     61  C   UNL A   1      43.562  31.439  30.958  1.00  0.00     0.029 A 
ATOM     62  N   UNL A   1      44.813  29.929  29.907  1.00  0.00    -0.354 N 
ATOM     63  N   UNL A   1      47.347  28.839  28.828  1.00  0.00    -0.248 NA
ATOM     64  C   UNL A   1      49.612  29.117  28.325  1.00  0.00     0.031 C 
ATOM     65  C   UNL A   1      44.855  31.950  30.825  1.00  0.00     0.029 A 
ATOM     66  C   UNL A   1      45.644  30.994  30.202  1.00  0.00     0.049 A 
ATOM     67  H   UNL A   1      45.093  29.102  29.454  1.00  0.00     0.167 HD
ATOM     68  C   UNL A   1      47.766  30.084  29.285  1.00  0.00     0.074 A 
ATOM     69  C   UNL A   1      49.179  30.183  28.982  1.00  0.00     0.031 C 
ATOM     70  C   UNL A   1      47.050  31.060  29.898  1.00  0.00     0.031 A 
BRANCH  57  71
ATOM     71  C   UNL A   1      41.046  29.811  30.613  1.00  0.00    -0.014 A 
ATOM     72  C   UNL A   1      40.529  29.488  31.881  1.00  0.00     0.010 A 
ATOM     73  C   UNL A   1      40.317  30.679  29.778  1.00  0.00     0.010 A 
ATOM     74  C   UNL A   1      39.307  30.022  32.302  1.00  0.00     0.020 A 
ATOM     75  C   UNL A   1      39.109  31.235  30.206  1.00  0.00     0.020 A 
ATOM     76  C   UNL A   1      38.610  30.901  31.465  1.00  0.00     0.054 A 
BRANCH  76  77
ATOM     77  S   UNL A   1      37.070  31.642  32.072  1.00  0.00     0.124 S 
ATOM     78  O   UNL A   1      37.272  31.620  33.518  1.00  0.00    -0.237 OA
ATOM     79  O   UNL A   1      37.089  32.965  31.454  1.00  0.00    -0.237 OA
ATOM     80  O   UNL A   1      36.031  30.741  31.577  1.00  0.00    -0.744 OA
ENDBRANCH  76  77
ENDBRANCH  57  71
BRANCH  58  81
ATOM     81  C   UNL A   1      49.836  26.457  27.086  1.00  0.00    -0.014 A 
ATOM     82  C   UNL A   1      50.917  26.070  27.897  1.00  0.00     0.010 A 
ATOM     83  C   UNL A   1      49.997  26.449  25.688  1.00  0.00     0.010 A 
ATOM     84  C   UNL A   1      52.145  25.723  27.322  1.00  0.00     0.020 A 
ATOM     85  C   UNL A   1      51.211  26.068  25.109  1.00  0.00     0.020 A 
ATOM     86  C   UNL A   1      52.284  25.728  25.932  1.00  0.00     0.054 A 
BRANCH  86  87
ATOM     87  S   UNL A   1      53.883  25.271  25.208  1.00  0.00     0.124 S 
ATOM     88  O   UNL A   1      54.767  25.327  26.368  1.00  0.00    -0.237 OA
ATOM     89  O   UNL A   1      53.618  23.937  24.677  1.00  0.00    -0.237 OA
ATOM     90  O   UNL A   1      54.109  26.303  24.198  1.00  0.00    -0.744 OA
ENDBRANCH  86  87
ENDBRANCH  58  81
BRANCH  70  91
ATOM     91  C   UNL A   1      47.793  32.297  30.328  1.00  0.00    -0.014 A 
ATOM     92  C   UNL A   1      48.329  32.416  31.622  1.00  0.00     0.010 A 
ATOM     93  C   UNL A   1      48.010  33.327  29.396  1.00  0.00     0.010 A 
ATOM     94  C   UNL A   1      49.038  33.563  31.986  1.00  0.00     0.020 A 
ATOM     95  C   UNL A   1      48.749  34.459  29.746  1.00  0.00     0.020 A 
ATOM     96  C   UNL A   1      49.246  34.576  31.045  1.00  0.00     0.054 A 
BRANCH  96  97
ATOM     97  S   UNL A   1      50.206  36.034  31.531  1.00  0.00     0.124 S 
ATOM     98  O   UNL A   1      50.446  36.682  30.245  1.00  0.00    -0.237 OA
ATOM     99  O   UNL A   1      49.289  36.735  32.428  1.00  0.00    -0.237 OA
ATOM    100  O   UNL A   1      51.391  35.472  32.176  1.00  0.00    -0.744 OA
ENDBRANCH  96  97
ENDBRANCH  70  91
ENDBRANCH  44  45
ENDBRANCH  37  39
ENDBRANCH  36  37
ENDBRANCH  35  36
ENDBRANCH  34  35
ENDBRANCH  33  34
ENDBRANCH  32  33
ENDBRANCH  31  32
ENDBRANCH   1  31
TORSDOF 26
ENDMDL
MODEL 3
REMARK VINA RESULT:      -8.6      2.558      9.376
REMARK SMILES CSc1ccc(/C=C2\C(C)=C(CC(=O)OCCOCCOCCOCCOC(=O)c3ccc(-c4c5nc(c(-c6ccc(S(=O)(=O)[O-])cc6)c6ccc([nH]6)c(-c6ccc(S(=O)(=O)[O-])cc6)c6nc(c(-c7ccc(S(=O)(=O)[O-])cc7)c7ccc4[nH]7)C=C6)C=C5)cc3)c3cc(F)ccc32)cc1
REMARK SMILES IDX 21 1 20 2 19 3 18 4 17 5 16 6 15 7 13 8 14 9 12 10 11 11
REMARK SMILES IDX 7 12 8 13 9 14 96 15 10 16 90 17 95 18 91 19 94 20 92 21
REMARK SMILES IDX 93 22 6 23 3 24 4 25 98 26 5 27 97 28 2 29 1 30 22 31 23 32
REMARK SMILES IDX 24 33 25 34 26 35 27 36 28 37 29 38 30 39 31 40 89 41 32 42
REMARK SMILES IDX 88 43 33 44 34 45 35 46 82 47 36 48 87 49 81 50 83 51 37 52
REMARK SMILES IDX 86 53 80 54 79 55 38 57 68 58 49 59 67 60 50 61 53 62 66 63
REMARK SMILES IDX 84 64 51 65 52 66 65 68 85 69 54 70 39 71 40 72 48 73 41 74
REMARK SMILES IDX 47 75 42 76 43 77 44 78 45 79 46 80 69 81 70 82 78 83 71 84
REMARK SMILES IDX 77 85 72 86 73 87 74 88 75 89 76 90 55 91 56 92 64 93 57 94
REMARK SMILES IDX 63 95 58 96 59 97 60 98 61 99 62 100
REMARK H PARENT 83 56 53 67
REMARK Flexibility Score: inf
ROOT
ATOM      1  O   UNL A   1      34.079  33.764  29.962  1.00  0.00    -0.377 OA
ENDROOT
BRANCH   1   2
ATOM      2  C   UNL A   1      34.623  33.980  28.673  1.00  0.00     0.188 C 
BRANCH   2   3
ATOM      3  C   UNL A   1      35.245  32.726  28.062  1.00  0.00     0.188 C 
BRANCH   3   4
ATOM      4  O   UNL A   1      35.328  31.592  28.912  1.00  0.00    -0.376 OA
BRANCH   4   5
ATOM      5  C   UNL A   1      35.992  30.429  28.414  1.00  0.00     0.202 C 
BRANCH   5   6
ATOM      6  C   UNL A   1      35.178  29.441  27.560  1.00  0.00     0.261 C 
BRANCH   6   7
ATOM      7  O   UNL A   1      33.817  29.877  27.320  1.00  0.00    -0.463 OA
BRANCH   7   8
ATOM      8  C   UNL A   1      33.272  29.528  26.131  1.00  0.00     0.310 C 
ATOM      9  O   UNL A   1      32.273  30.066  25.652  1.00  0.00    -0.252 OA
BRANCH   8  10
ATOM     10  C   UNL A   1      33.943  28.374  25.398  1.00  0.00     0.159 C 
BRANCH  10  11
ATOM     11  C   UNL A   1      33.325  27.693  24.169  1.00  0.00    -0.025 C 
ATOM     12  C   UNL A   1      32.259  24.960  25.951  1.00  0.00     0.017 C 
ATOM     13  C   UNL A   1      32.257  25.924  25.017  1.00  0.00    -0.014 C 
ATOM     14  C   UNL A   1      33.322  26.328  24.058  1.00  0.00    -0.039 C 
ATOM     15  C   UNL A   1      31.171  26.902  24.784  1.00  0.00    -0.010 A 
ATOM     16  C   UNL A   1      33.083  25.729  22.659  1.00  0.00     0.045 C 
ATOM     17  C   UNL A   1      31.837  27.939  24.106  1.00  0.00    -0.011 A 
ATOM     18  C   UNL A   1      29.829  26.614  24.531  1.00  0.00     0.012 A 
ATOM     19  C   UNL A   1      31.176  28.658  23.125  1.00  0.00     0.048 A 
ATOM     20  C   UNL A   1      29.172  27.349  23.533  1.00  0.00     0.040 A 
ATOM     21  C   UNL A   1      29.856  28.343  22.830  1.00  0.00     0.123 A 
ATOM     22  F   UNL A   1      29.279  28.914  21.763  1.00  0.00    -0.207 F 
BRANCH  12  23
ATOM     23  C   UNL A   1      32.857  23.603  25.824  1.00  0.00    -0.025 A 
ATOM     24  C   UNL A   1      35.158  22.271  24.985  1.00  0.00     0.007 A 
ATOM     25  C   UNL A   1      34.969  22.543  26.334  1.00  0.00     0.015 A 
ATOM     26  C   UNL A   1      34.081  22.411  24.109  1.00  0.00     0.015 A 
ATOM     27  C   UNL A   1      33.784  23.140  26.757  1.00  0.00     0.009 A 
ATOM     28  C   UNL A   1      32.927  23.080  24.528  1.00  0.00     0.009 A 
BRANCH  24  29
ATOM     29  S   UNL A   1      36.789  21.911  24.371  1.00  0.00    -0.130 SA
ATOM     30  C   UNL A   1      37.695  23.230  25.248  1.00  0.00     0.091 C 
ENDBRANCH  24  29
ENDBRANCH  12  23
ENDBRANCH  10  11
ENDBRANCH   8  10
ENDBRANCH   7   8
ENDBRANCH   6   7
ENDBRANCH   5   6
ENDBRANCH   4   5
ENDBRANCH   3   4
ENDBRANCH   2   3
ENDBRANCH   1   2
BRANCH   1  31
ATOM     31  C   UNL A   1      34.842  33.984  31.147  1.00  0.00     0.188 C 
BRANCH  31  32
ATOM     32  C   UNL A   1      34.372  33.343  32.454  1.00  0.00     0.188 C 
BRANCH  32  33
ATOM     33  O   UNL A   1      35.276  32.473  33.144  1.00  0.00    -0.376 OA
BRANCH  33  34
ATOM     34  C   UNL A   1      35.882  31.409  32.417  1.00  0.00     0.202 C 
BRANCH  34  35
ATOM     35  C   UNL A   1      37.198  30.877  32.975  1.00  0.00     0.261 C 
BRANCH  35  36
ATOM     36  O   UNL A   1      38.049  31.932  33.438  1.00  0.00    -0.460 OA
BRANCH  36  37
ATOM     37  C   UNL A   1      38.669  32.609  32.439  1.00  0.00     0.338 C 
ATOM     38  O   UNL A   1      38.580  33.793  32.180  1.00  0.00    -0.246 OA
BRANCH  37  39
ATOM     39  C   UNL A   1      39.626  31.713  31.770  1.00  0.00     0.060 A 
ATOM     40  C   UNL A   1      40.472  30.954  32.587  1.00  0.00     0.016 A 
ATOM     41  C   UNL A   1      39.752  31.685  30.379  1.00  0.00     0.016 A 
ATOM     42  C   UNL A   1      41.486  30.199  32.018  1.00  0.00     0.010 A 
ATOM     43  C   UNL A   1      40.785  30.942  29.809  1.00  0.00     0.010 A 
ATOM     44  C   UNL A   1      41.680  30.237  30.633  1.00  0.00    -0.014 A 
BRANCH  44  45
ATOM     45  C   UNL A   1      42.948  29.713  30.089  1.00  0.00     0.031 A 
ATOM     46  C   UNL A   1      42.936  28.349  29.456  1.00  0.00     0.074 A 
ATOM     47  C   UNL A   1      44.058  30.470  30.105  1.00  0.00     0.049 A 
ATOM     48  N   UNL A   1      43.921  27.680  28.919  1.00  0.00    -0.248 NA
ATOM     49  C   UNL A   1      41.642  27.642  29.423  1.00  0.00     0.031 C 
ATOM     50  C   UNL A   1      44.148  31.826  30.648  1.00  0.00     0.029 A 
ATOM     51  N   UNL A   1      45.322  30.203  29.651  1.00  0.00    -0.354 N 
ATOM     52  C   UNL A   1      43.373  26.471  28.505  1.00  0.00     0.074 A 
ATOM     53  C   UNL A   1      41.974  26.488  28.864  1.00  0.00     0.031 C 
ATOM     54  C   UNL A   1      45.410  32.268  30.506  1.00  0.00     0.029 A 
ATOM     55  C   UNL A   1      46.219  31.215  29.900  1.00  0.00     0.049 A 
ATOM     56  H   UNL A   1      45.566  29.368  29.191  1.00  0.00     0.167 HD
ATOM     57  C   UNL A   1      43.989  25.442  27.882  1.00  0.00     0.031 A 
ATOM     58  C   UNL A   1      47.549  31.264  29.687  1.00  0.00     0.031 A 
ATOM     59  C   UNL A   1      45.383  25.451  27.528  1.00  0.00     0.049 A 
ATOM     60  C   UNL A   1      48.218  30.078  29.039  1.00  0.00     0.074 A 
ATOM     61  C   UNL A   1      46.105  24.475  26.866  1.00  0.00     0.029 A 
ATOM     62  N   UNL A   1      46.264  26.482  27.815  1.00  0.00    -0.354 N 
ATOM     63  N   UNL A   1      47.680  28.956  28.618  1.00  0.00    -0.248 NA
ATOM     64  C   UNL A   1      49.668  30.167  28.827  1.00  0.00     0.031 C 
ATOM     65  C   UNL A   1      47.440  24.885  26.819  1.00  0.00     0.029 A 
ATOM     66  C   UNL A   1      47.533  26.150  27.378  1.00  0.00     0.049 A 
ATOM     67  H   UNL A   1      46.022  27.324  28.264  1.00  0.00     0.167 HD
ATOM     68  C   UNL A   1      48.722  28.221  28.063  1.00  0.00     0.074 A 
ATOM     69  C   UNL A   1      49.915  29.034  28.185  1.00  0.00     0.031 C 
ATOM     70  C   UNL A   1      48.700  26.985  27.504  1.00  0.00     0.031 A 
BRANCH  57  71
ATOM     71  C   UNL A   1      43.187  24.205  27.583  1.00  0.00    -0.014 A 
ATOM     72  C   UNL A   1      42.534  24.026  26.351  1.00  0.00     0.010 A 
ATOM     73  C   UNL A   1      43.163  23.161  28.528  1.00  0.00     0.010 A 
ATOM     74  C   UNL A   1      41.867  22.829  26.071  1.00  0.00     0.020 A 
ATOM     75  C   UNL A   1      42.521  21.953  28.241  1.00  0.00     0.020 A 
ATOM     76  C   UNL A   1      41.875  21.796  27.015  1.00  0.00     0.054 A 
BRANCH  76  77
ATOM     77  S   UNL A   1      41.073  20.225  26.591  1.00  0.00     0.124 S 
ATOM     78  O   UNL A   1      40.990  19.567  27.893  1.00  0.00    -0.237 OA
ATOM     79  O   UNL A   1      39.800  20.660  26.024  1.00  0.00    -0.237 OA
ATOM     80  O   UNL A   1      41.998  19.608  25.643  1.00  0.00    -0.744 OA
ENDBRANCH  76  77
ENDBRANCH  57  71
BRANCH  58  81
ATOM     81  C   UNL A   1      48.340  32.444  30.135  1.00  0.00    -0.014 A 
ATOM     82  C   UNL A   1      48.881  32.511  31.430  1.00  0.00     0.010 A 
ATOM     83  C   UNL A   1      48.524  33.534  29.263  1.00  0.00     0.010 A 
ATOM     84  C   UNL A   1      49.556  33.661  31.858  1.00  0.00     0.020 A 
ATOM     85  C   UNL A   1      49.229  34.669  29.674  1.00  0.00     0.020 A 
ATOM     86  C   UNL A   1      49.722  34.733  30.977  1.00  0.00     0.054 A 
BRANCH  86  87
ATOM     87  S   UNL A   1      50.603  36.211  31.550  1.00  0.00     0.124 S 
ATOM     88  O   UNL A   1      49.685  36.741  32.552  1.00  0.00    -0.237 OA
ATOM     89  O   UNL A   1      51.851  35.652  32.066  1.00  0.00    -0.237 OA
ATOM     90  O   UNL A   1      50.744  37.017  30.339  1.00  0.00    -0.744 OA
ENDBRANCH  86  87
ENDBRANCH  58  81
BRANCH  70  91
ATOM     91  C   UNL A   1      49.991  26.459  26.936  1.00  0.00    -0.014 A 
ATOM     92  C   UNL A   1      50.290  26.573  25.567  1.00  0.00     0.010 A 
ATOM     93  C   UNL A   1      50.945  25.898  27.804  1.00  0.00     0.010 A 
ATOM     94  C   UNL A   1      51.507  26.101  25.072  1.00  0.00     0.020 A 
ATOM     95  C   UNL A   1      52.178  25.458  27.317  1.00  0.00     0.020 A 
ATOM     96  C   UNL A   1      52.444  25.549  25.950  1.00  0.00     0.054 A 
BRANCH  96  97
ATOM     97  S   UNL A   1      54.033  24.983  25.287  1.00  0.00     0.124 S 
ATOM     98  O   UNL A   1      53.670  23.709  24.675  1.00  0.00    -0.237 OA
ATOM     99  O   UNL A   1      54.388  26.051  24.355  1.00  0.00    -0.237 OA
ATOM    100  O   UNL A   1      54.888  24.886  26.468  1.00  0.00    -0.744 OA
ENDBRANCH  96  97
ENDBRANCH  70  91
ENDBRANCH  44  45
ENDBRANCH  37  39
ENDBRANCH  36  37
ENDBRANCH  35  36
ENDBRANCH  34  35
ENDBRANCH  33  34
ENDBRANCH  32  33
ENDBRANCH  31  32
ENDBRANCH   1  31
TORSDOF 26
ENDMDL
