MODEL 1
REMARK VINA RESULT:      -9.4      0.000      0.000
REMARK SMILES O=C(NC1(C(=O)OCCOCCOCCOCCOC(=O)c2ccc(-c3c4nc(c(-c5ccc(S(=O)(=O)[O-])cc5)c5ccc([nH]5)c(-c5ccc(S(=O)(=O)[O-])cc5)c5nc(c(-c6ccc(S(=O)(=O)[O-])cc6)c6ccc3[nH]6)C=C5)C=C4)cc2)CC[NH2+]CC1)OCC1c2ccccc2-c2ccccc21
REMARK SMILES IDX 12 1 11 2 10 3 9 4 8 5 7 6 5 7 6 8 4 9 82 10 86 11 83 12
REMARK SMILES IDX 85 13 84 14 3 17 1 18 2 19 87 21 88 22 89 23 90 24 101 25
REMARK SMILES IDX 91 26 95 27 96 28 100 29 92 30 94 31 97 32 99 33 93 34 98 35
REMARK SMILES IDX 13 36 14 37 15 38 16 39 17 40 18 41 19 42 20 43 21 44 22 45
REMARK SMILES IDX 23 46 81 47 24 48 80 49 25 50 26 51 27 52 74 53 28 54 79 55
REMARK SMILES IDX 73 56 75 57 29 58 78 59 72 60 71 61 30 63 60 64 41 65 59 66
REMARK SMILES IDX 42 67 45 68 58 69 76 70 43 71 44 72 57 74 77 75 46 76 31 77
REMARK SMILES IDX 32 78 40 79 33 80 39 81 34 82 35 83 36 84 37 85 38 86 61 87
REMARK SMILES IDX 62 88 70 89 63 90 69 91 64 92 65 93 66 94 67 95 68 96 47 97
REMARK SMILES IDX 48 98 56 99 49 100 55 101 50 102 51 103 52 104 53 105 54 106
REMARK H PARENT 84 15 84 16 3 20 75 62 45 73
REMARK Flexibility Score: inf
ROOT
ATOM      1  C   UNL A   1      40.631  41.029  29.281  1.00  0.00     0.188 C 
ENDROOT
BRANCH   1   2
ATOM      2  C   UNL A   1      42.009  39.877  28.445  1.00  0.00     0.188 C 
BRANCH   2   3
ATOM      3  O   UNL A   1      43.240  40.394  27.970  1.00  0.00    -0.376 OA
BRANCH   3   4
ATOM      4  C   UNL A   1      44.168  39.395  27.649  1.00  0.00     0.202 C 
BRANCH   4   5
ATOM      5  C   UNL A   1      44.875  39.525  26.204  1.00  0.00     0.261 C 
BRANCH   5   6
ATOM      6  O   UNL A   1      45.328  40.964  25.707  1.00  0.00    -0.461 OA
BRANCH   6   7
ATOM      7  C   UNL A   1      46.448  41.594  26.237  1.00  0.00     0.332 C 
ATOM      8  O   UNL A   1      47.546  41.033  26.119  1.00  0.00    -0.249 OA
BRANCH   7   9
ATOM      9  C   UNL A   1      46.387  43.132  27.011  1.00  0.00     0.151 C 
ATOM     10  C   UNL A   1      45.411  44.380  27.114  1.00  0.00     0.102 C 
ATOM     11  C   UNL A   1      46.347  42.601  28.460  1.00  0.00     0.102 C 
ATOM     12  C   UNL A   1      45.633  45.375  28.256  1.00  0.00     0.263 C 
ATOM     13  C   UNL A   1      46.505  43.627  29.574  1.00  0.00     0.263 C 
ATOM     14  N   UNL A   1      45.503  44.677  29.510  1.00  0.00    -0.346 N 
ATOM     15  H   UNL A   1      44.572  44.266  29.577  1.00  0.00     0.346 HD
ATOM     16  H   UNL A   1      45.638  45.329  30.283  1.00  0.00     0.346 HD
BRANCH   9  17
ATOM     17  N   UNL A   1      47.666  43.785  26.516  1.00  0.00    -0.305 N 
ATOM     18  O   UNL A   1      48.650  45.327  25.099  1.00  0.00    -0.225 OA
ATOM     19  C   UNL A   1      47.738  44.559  25.352  1.00  0.00     0.408 C 
ATOM     20  H   UNL A   1      48.489  43.658  27.042  1.00  0.00     0.168 HD
BRANCH  19  21
ATOM     21  O   UNL A   1      46.635  44.387  24.612  1.00  0.00    -0.449 OA
BRANCH  21  22
ATOM     22  C   UNL A   1      46.286  43.845  23.254  1.00  0.00     0.248 C 
BRANCH  22  23
ATOM     23  C   UNL A   1      45.611  45.184  22.092  1.00  0.00     0.088 C 
ATOM     24  C   UNL A   1      45.517  45.640  19.972  1.00  0.00    -0.029 A 
ATOM     25  C   UNL A   1      43.902  44.121  22.230  1.00  0.00    -0.029 A 
ATOM     26  C   UNL A   1      46.154  45.904  18.765  1.00  0.00     0.005 A 
ATOM     27  C   UNL A   1      43.993  44.873  19.439  1.00  0.00    -0.014 A 
ATOM     28  C   UNL A   1      43.246  43.933  20.706  1.00  0.00    -0.014 A 
ATOM     29  C   UNL A   1      43.270  43.541  23.304  1.00  0.00     0.005 A 
ATOM     30  C   UNL A   1      45.466  46.031  17.500  1.00  0.00     0.000 A 
ATOM     31  C   UNL A   1      43.375  45.052  18.213  1.00  0.00     0.009 A 
ATOM     32  C   UNL A   1      42.160  43.116  20.514  1.00  0.00     0.009 A 
ATOM     33  C   UNL A   1      42.134  42.764  22.990  1.00  0.00     0.000 A 
ATOM     34  C   UNL A   1      44.110  45.734  17.266  1.00  0.00     0.001 A 
ATOM     35  C   UNL A   1      41.620  42.541  21.668  1.00  0.00     0.001 A 
ENDBRANCH  22  23
ENDBRANCH  21  22
ENDBRANCH  19  21
ENDBRANCH   9  17
ENDBRANCH   7   9
ENDBRANCH   6   7
ENDBRANCH   5   6
ENDBRANCH   4   5
ENDBRANCH   3   4
ENDBRANCH   2   3
ENDBRANCH   1   2
BRANCH   1  36
ATOM     36  O   UNL A   1      41.265  41.535  31.221  1.00  0.00    -0.377 OA
BRANCH  36  37
ATOM     37  C   UNL A   1      42.410  42.704  31.581  1.00  0.00     0.188 C 
BRANCH  37  38
ATOM     38  C   UNL A   1      43.364  42.344  32.701  1.00  0.00     0.188 C 
BRANCH  38  39
ATOM     39  O   UNL A   1      43.110  41.439  33.762  1.00  0.00    -0.376 OA
BRANCH  39  40
ATOM     40  C   UNL A   1      44.216  40.679  34.262  1.00  0.00     0.202 C 
BRANCH  40  41
ATOM     41  C   UNL A   1      44.735  39.401  33.555  1.00  0.00     0.261 C 
BRANCH  41  42
ATOM     42  O   UNL A   1      43.759  38.417  33.135  1.00  0.00    -0.460 OA
BRANCH  42  43
ATOM     43  C   UNL A   1      43.766  37.259  33.864  1.00  0.00     0.338 C 
ATOM     44  O   UNL A   1      43.912  37.191  35.076  1.00  0.00    -0.246 OA
BRANCH  43  45
ATOM     45  C   UNL A   1      43.173  36.127  33.090  1.00  0.00     0.060 A 
ATOM     46  C   UNL A   1      42.492  35.112  33.798  1.00  0.00     0.016 A 
ATOM     47  C   UNL A   1      43.334  36.018  31.716  1.00  0.00     0.016 A 
ATOM     48  C   UNL A   1      42.037  33.966  33.158  1.00  0.00     0.010 A 
ATOM     49  C   UNL A   1      42.957  34.826  31.085  1.00  0.00     0.010 A 
ATOM     50  C   UNL A   1      42.361  33.778  31.816  1.00  0.00    -0.014 A 
BRANCH  50  51
ATOM     51  C   UNL A   1      42.318  32.400  31.276  1.00  0.00     0.031 A 
ATOM     52  C   UNL A   1      43.557  31.557  31.393  1.00  0.00     0.074 A 
ATOM     53  C   UNL A   1      41.187  31.881  30.772  1.00  0.00     0.049 A 
ATOM     54  N   UNL A   1      43.768  30.337  30.976  1.00  0.00    -0.248 NA
ATOM     55  C   UNL A   1      44.712  32.171  32.070  1.00  0.00     0.031 C 
ATOM     56  C   UNL A   1      39.906  32.578  30.699  1.00  0.00     0.029 A 
ATOM     57  N   UNL A   1      40.935  30.647  30.229  1.00  0.00    -0.354 N 
ATOM     58  C   UNL A   1      45.082  30.044  31.323  1.00  0.00     0.074 A 
ATOM     59  C   UNL A   1      45.630  31.224  31.954  1.00  0.00     0.031 C 
ATOM     60  C   UNL A   1      39.003  31.766  30.122  1.00  0.00     0.029 A 
ATOM     61  C   UNL A   1      39.653  30.511  29.751  1.00  0.00     0.049 A 
ATOM     62  H   UNL A   1      41.607  29.929  30.184  1.00  0.00     0.167 HD
ATOM     63  C   UNL A   1      45.766  28.891  31.134  1.00  0.00     0.031 A 
ATOM     64  C   UNL A   1      39.082  29.502  29.066  1.00  0.00     0.031 A 
ATOM     65  C   UNL A   1      45.214  27.734  30.481  1.00  0.00     0.049 A 
ATOM     66  C   UNL A   1      39.897  28.270  28.767  1.00  0.00     0.074 A 
ATOM     67  C   UNL A   1      45.822  26.516  30.236  1.00  0.00     0.029 A 
ATOM     68  N   UNL A   1      43.932  27.654  29.955  1.00  0.00    -0.354 N 
ATOM     69  N   UNL A   1      41.136  27.999  29.108  1.00  0.00    -0.248 NA
ATOM     70  C   UNL A   1      39.238  27.206  28.001  1.00  0.00     0.031 C 
ATOM     71  C   UNL A   1      44.941  25.735  29.484  1.00  0.00     0.029 A 
ATOM     72  C   UNL A   1      43.745  26.423  29.350  1.00  0.00     0.049 A 
ATOM     73  H   UNL A   1      43.257  28.368  30.004  1.00  0.00     0.167 HD
ATOM     74  C   UNL A   1      41.389  26.718  28.630  1.00  0.00     0.074 A 
ATOM     75  C   UNL A   1      40.170  26.263  27.992  1.00  0.00     0.031 C 
ATOM     76  C   UNL A   1      42.526  25.982  28.716  1.00  0.00     0.031 A 
BRANCH  63  77
ATOM     77  C   UNL A   1      47.203  28.848  31.590  1.00  0.00    -0.014 A 
ATOM     78  C   UNL A   1      48.258  29.229  30.742  1.00  0.00     0.010 A 
ATOM     79  C   UNL A   1      47.498  28.450  32.908  1.00  0.00     0.010 A 
ATOM     80  C   UNL A   1      49.581  29.174  31.190  1.00  0.00     0.020 A 
ATOM     81  C   UNL A   1      48.814  28.436  33.373  1.00  0.00     0.020 A 
ATOM     82  C   UNL A   1      49.850  28.783  32.505  1.00  0.00     0.054 A 
BRANCH  82  83
ATOM     83  S   UNL A   1      51.573  28.763  33.067  1.00  0.00     0.124 S 
ATOM     84  O   UNL A   1      51.446  29.215  34.451  1.00  0.00    -0.237 OA
ATOM     85  O   UNL A   1      51.942  27.359  32.897  1.00  0.00    -0.237 OA
ATOM     86  O   UNL A   1      52.245  29.696  32.167  1.00  0.00    -0.744 OA
ENDBRANCH  82  83
ENDBRANCH  63  77
BRANCH  64  87
ATOM     87  C   UNL A   1      37.680  29.629  28.580  1.00  0.00    -0.014 A 
ATOM     88  C   UNL A   1      37.385  29.666  27.206  1.00  0.00     0.010 A 
ATOM     89  C   UNL A   1      36.623  29.725  29.506  1.00  0.00     0.010 A 
ATOM     90  C   UNL A   1      36.064  29.812  26.769  1.00  0.00     0.020 A 
ATOM     91  C   UNL A   1      35.300  29.829  29.073  1.00  0.00     0.020 A 
ATOM     92  C   UNL A   1      35.030  29.880  27.706  1.00  0.00     0.054 A 
BRANCH  92  93
ATOM     93  S   UNL A   1      33.320  29.998  27.112  1.00  0.00     0.124 S 
ATOM     94  O   UNL A   1      33.491  29.908  25.666  1.00  0.00    -0.237 OA
ATOM     95  O   UNL A   1      32.692  28.844  27.751  1.00  0.00    -0.237 OA
ATOM     96  O   UNL A   1      32.873  31.297  27.611  1.00  0.00    -0.744 OA
ENDBRANCH  92  93
ENDBRANCH  64  87
BRANCH  76  97
ATOM     97  C   UNL A   1      42.496  24.583  28.154  1.00  0.00    -0.014 A 
ATOM     98  C   UNL A   1      42.176  23.469  28.951  1.00  0.00     0.010 A 
ATOM     99  C   UNL A   1      42.738  24.389  26.780  1.00  0.00     0.010 A 
ATOM    100  C   UNL A   1      42.140  22.188  28.394  1.00  0.00     0.020 A 
ATOM    101  C   UNL A   1      42.656  23.118  26.210  1.00  0.00     0.020 A 
ATOM    102  C   UNL A   1      42.372  22.022  27.025  1.00  0.00     0.054 A 
BRANCH 102 103
ATOM    103  S   UNL A   1      42.264  20.355  26.320  1.00  0.00     0.124 S 
ATOM    104  O   UNL A   1      42.714  19.523  27.432  1.00  0.00    -0.237 OA
ATOM    105  O   UNL A   1      40.845  20.247  25.986  1.00  0.00    -0.237 OA
ATOM    106  O   UNL A   1      43.168  20.402  25.174  1.00  0.00    -0.744 OA
ENDBRANCH 102 103
ENDBRANCH  76  97
ENDBRANCH  50  51
ENDBRANCH  43  45
ENDBRANCH  42  43
ENDBRANCH  41  42
ENDBRANCH  40  41
ENDBRANCH  39  40
ENDBRANCH  38  39
ENDBRANCH  37  38
ENDBRANCH  36  37
ENDBRANCH   1  36
TORSDOF 27
ENDMDL
MODEL 2
REMARK VINA RESULT:      -9.0      6.266     11.931
REMARK SMILES O=C(NC1(C(=O)OCCOCCOCCOCCOC(=O)c2ccc(-c3c4nc(c(-c5ccc(S(=O)(=O)[O-])cc5)c5ccc([nH]5)c(-c5ccc(S(=O)(=O)[O-])cc5)c5nc(c(-c6ccc(S(=O)(=O)[O-])cc6)c6ccc3[nH]6)C=C5)C=C4)cc2)CC[NH2+]CC1)OCC1c2ccccc2-c2ccccc21
REMARK SMILES IDX 12 1 11 2 10 3 9 4 8 5 7 6 5 7 6 8 4 9 82 10 86 11 83 12
REMARK SMILES IDX 85 13 84 14 3 17 1 18 2 19 87 21 88 22 89 23 90 24 101 25
REMARK SMILES IDX 91 26 95 27 96 28 100 29 92 30 94 31 97 32 99 33 93 34 98 35
REMARK SMILES IDX 13 36 14 37 15 38 16 39 17 40 18 41 19 42 20 43 21 44 22 45
REMARK SMILES IDX 23 46 81 47 24 48 80 49 25 50 26 51 27 52 74 53 28 54 79 55
REMARK SMILES IDX 73 56 75 57 29 58 78 59 72 60 71 61 30 63 60 64 41 65 59 66
REMARK SMILES IDX 42 67 45 68 58 69 76 70 43 71 44 72 57 74 77 75 46 76 31 77
REMARK SMILES IDX 32 78 40 79 33 80 39 81 34 82 35 83 36 84 37 85 38 86 61 87
REMARK SMILES IDX 62 88 70 89 63 90 69 91 64 92 65 93 66 94 67 95 68 96 47 97
REMARK SMILES IDX 48 98 56 99 49 100 55 101 50 102 51 103 52 104 53 105 54 106
REMARK H PARENT 84 15 84 16 3 20 75 62 45 73
REMARK Flexibility Score: inf
ROOT
ATOM      1  C   UNL A   1      46.612  37.324  34.017  1.00  0.00     0.188 C 
ENDROOT
BRANCH   1   2
ATOM      2  C   UNL A   1      47.853  37.637  32.503  1.00  0.00     0.188 C 
BRANCH   2   3
ATOM      3  O   UNL A   1      48.729  36.632  32.023  1.00  0.00    -0.376 OA
BRANCH   3   4
ATOM      4  C   UNL A   1      48.162  35.846  31.013  1.00  0.00     0.202 C 
BRANCH   4   5
ATOM      5  C   UNL A   1      46.561  35.654  31.081  1.00  0.00     0.261 C 
BRANCH   5   6
ATOM      6  O   UNL A   1      45.976  34.178  31.150  1.00  0.00    -0.461 OA
BRANCH   6   7
ATOM      7  C   UNL A   1      45.957  33.460  32.340  1.00  0.00     0.332 C 
ATOM      8  O   UNL A   1      46.664  33.859  33.275  1.00  0.00    -0.249 OA
BRANCH   7   9
ATOM      9  C   UNL A   1      44.969  32.071  32.588  1.00  0.00     0.151 C 
ATOM     10  C   UNL A   1      44.912  30.800  33.537  1.00  0.00     0.102 C 
ATOM     11  C   UNL A   1      43.699  32.831  33.029  1.00  0.00     0.102 C 
ATOM     12  C   UNL A   1      43.595  30.023  33.620  1.00  0.00     0.263 C 
ATOM     13  C   UNL A   1      42.421  32.015  33.166  1.00  0.00     0.263 C 
ATOM     14  N   UNL A   1      42.564  30.909  34.097  1.00  0.00    -0.346 N 
ATOM     15  H   UNL A   1      42.820  31.267  35.017  1.00  0.00     0.346 HD
ATOM     16  H   UNL A   1      41.681  30.403  34.168  1.00  0.00     0.346 HD
BRANCH   9  17
ATOM     17  N   UNL A   1      44.983  31.424  31.213  1.00  0.00    -0.305 N 
ATOM     18  O   UNL A   1      45.989  29.919  29.773  1.00  0.00    -0.225 OA
ATOM     19  C   UNL A   1      46.063  30.685  30.718  1.00  0.00     0.408 C 
ATOM     20  H   UNL A   1      44.190  31.531  30.639  1.00  0.00     0.168 HD
BRANCH  19  21
ATOM     21  O   UNL A   1      47.149  30.885  31.477  1.00  0.00    -0.449 OA
BRANCH  21  22
ATOM     22  C   UNL A   1      48.455  30.192  31.747  1.00  0.00     0.248 C 
BRANCH  22  23
ATOM     23  C   UNL A   1      49.782  30.621  30.459  1.00  0.00     0.088 C 
ATOM     24  C   UNL A   1      51.923  30.948  30.338  1.00  0.00    -0.029 A 
ATOM     25  C   UNL A   1      49.778  28.632  30.128  1.00  0.00    -0.029 A 
ATOM     26  C   UNL A   1      53.060  31.656  30.714  1.00  0.00     0.005 A 
ATOM     27  C   UNL A   1      52.583  29.323  29.994  1.00  0.00    -0.014 A 
ATOM     28  C   UNL A   1      51.354  28.085  30.045  1.00  0.00    -0.014 A 
ATOM     29  C   UNL A   1      48.751  27.725  30.010  1.00  0.00     0.005 A 
ATOM     30  C   UNL A   1      54.405  31.281  30.340  1.00  0.00     0.000 A 
ATOM     31  C   UNL A   1      53.885  29.034  29.621  1.00  0.00     0.009 A 
ATOM     32  C   UNL A   1      51.619  26.740  29.978  1.00  0.00     0.009 A 
ATOM     33  C   UNL A   1      49.146  26.375  29.897  1.00  0.00     0.000 A 
ATOM     34  C   UNL A   1      54.780  30.078  29.713  1.00  0.00     0.001 A 
ATOM     35  C   UNL A   1      50.502  25.903  29.905  1.00  0.00     0.001 A 
ENDBRANCH  22  23
ENDBRANCH  21  22
ENDBRANCH  19  21
ENDBRANCH   9  17
ENDBRANCH   7   9
ENDBRANCH   6   7
ENDBRANCH   5   6
ENDBRANCH   4   5
ENDBRANCH   3   4
ENDBRANCH   2   3
ENDBRANCH   1   2
BRANCH   1  36
ATOM     36  O   UNL A   1      45.190  38.871  34.050  1.00  0.00    -0.377 OA
BRANCH  36  37
ATOM     37  C   UNL A   1      44.350  39.430  32.712  1.00  0.00     0.188 C 
BRANCH  37  38
ATOM     38  C   UNL A   1      44.100  38.395  31.634  1.00  0.00     0.188 C 
BRANCH  38  39
ATOM     39  O   UNL A   1      44.505  38.478  30.279  1.00  0.00    -0.376 OA
BRANCH  39  40
ATOM     40  C   UNL A   1      43.968  37.514  29.367  1.00  0.00     0.202 C 
BRANCH  40  41
ATOM     41  C   UNL A   1      44.296  37.529  27.852  1.00  0.00     0.261 C 
BRANCH  41  42
ATOM     42  O   UNL A   1      43.220  37.246  26.925  1.00  0.00    -0.460 OA
BRANCH  42  43
ATOM     43  C   UNL A   1      42.424  36.190  27.278  1.00  0.00     0.338 C 
ATOM     44  O   UNL A   1      41.215  36.247  27.453  1.00  0.00    -0.246 OA
BRANCH  43  45
ATOM     45  C   UNL A   1      43.112  34.886  27.031  1.00  0.00     0.060 A 
ATOM     46  C   UNL A   1      43.419  34.067  28.139  1.00  0.00     0.016 A 
ATOM     47  C   UNL A   1      43.512  34.501  25.759  1.00  0.00     0.016 A 
ATOM     48  C   UNL A   1      44.175  32.911  27.995  1.00  0.00     0.010 A 
ATOM     49  C   UNL A   1      44.349  33.387  25.624  1.00  0.00     0.010 A 
ATOM     50  C   UNL A   1      44.727  32.626  26.749  1.00  0.00    -0.014 A 
BRANCH  50  51
ATOM     51  C   UNL A   1      45.891  31.713  26.695  1.00  0.00     0.031 A 
ATOM     52  C   UNL A   1      47.266  32.321  26.709  1.00  0.00     0.074 A 
ATOM     53  C   UNL A   1      45.737  30.379  26.719  1.00  0.00     0.049 A 
ATOM     54  N   UNL A   1      48.431  31.731  26.646  1.00  0.00    -0.248 NA
ATOM     55  C   UNL A   1      47.338  33.789  26.806  1.00  0.00     0.031 C 
ATOM     56  C   UNL A   1      44.455  29.686  26.802  1.00  0.00     0.029 A 
ATOM     57  N   UNL A   1      46.667  29.372  26.678  1.00  0.00    -0.354 N 
ATOM     58  C   UNL A   1      49.372  32.754  26.677  1.00  0.00     0.074 A 
ATOM     59  C   UNL A   1      48.642  34.002  26.731  1.00  0.00     0.031 C 
ATOM     60  C   UNL A   1      44.677  28.361  26.785  1.00  0.00     0.029 A 
ATOM     61  C   UNL A   1      46.111  28.115  26.650  1.00  0.00     0.049 A 
ATOM     62  H   UNL A   1      47.638  29.532  26.667  1.00  0.00     0.167 HD
ATOM     63  C   UNL A   1      50.722  32.658  26.666  1.00  0.00     0.031 A 
ATOM     64  C   UNL A   1      46.692  26.909  26.502  1.00  0.00     0.031 A 
ATOM     65  C   UNL A   1      51.431  31.409  26.587  1.00  0.00     0.049 A 
ATOM     66  C   UNL A   1      48.191  26.832  26.378  1.00  0.00     0.074 A 
ATOM     67  C   UNL A   1      52.799  31.199  26.566  1.00  0.00     0.029 A 
ATOM     68  N   UNL A   1      50.834  30.160  26.499  1.00  0.00    -0.354 N 
ATOM     69  N   UNL A   1      49.072  27.805  26.419  1.00  0.00    -0.248 NA
ATOM     70  C   UNL A   1      48.776  25.498  26.198  1.00  0.00     0.031 C 
ATOM     71  C   UNL A   1      53.025  29.834  26.375  1.00  0.00     0.029 A 
ATOM     72  C   UNL A   1      51.804  29.179  26.382  1.00  0.00     0.049 A 
ATOM     73  H   UNL A   1      49.864  29.996  26.516  1.00  0.00     0.167 HD
ATOM     74  C   UNL A   1      50.316  27.194  26.307  1.00  0.00     0.074 A 
ATOM     75  C   UNL A   1      50.074  25.769  26.215  1.00  0.00     0.031 C 
ATOM     76  C   UNL A   1      51.549  27.761  26.288  1.00  0.00     0.031 A 
BRANCH  63  77
ATOM     77  C   UNL A   1      51.514  33.941  26.685  1.00  0.00    -0.014 A 
ATOM     78  C   UNL A   1      51.949  34.522  27.890  1.00  0.00     0.010 A 
ATOM     79  C   UNL A   1      51.859  34.558  25.468  1.00  0.00     0.010 A 
ATOM     80  C   UNL A   1      52.678  35.715  27.879  1.00  0.00     0.020 A 
ATOM     81  C   UNL A   1      52.624  35.726  25.451  1.00  0.00     0.020 A 
ATOM     82  C   UNL A   1      53.016  36.306  26.658  1.00  0.00     0.054 A 
BRANCH  82  83
ATOM     83  S   UNL A   1      53.997  37.829  26.676  1.00  0.00     0.124 S 
ATOM     84  O   UNL A   1      52.963  38.855  26.789  1.00  0.00    -0.237 OA
ATOM     85  O   UNL A   1      54.836  37.650  27.858  1.00  0.00    -0.237 OA
ATOM     86  O   UNL A   1      54.708  37.802  25.400  1.00  0.00    -0.744 OA
ENDBRANCH  82  83
ENDBRANCH  63  77
BRANCH  64  87
ATOM     87  C   UNL A   1      45.851  25.681  26.420  1.00  0.00    -0.014 A 
ATOM     88  C   UNL A   1      45.182  25.333  25.234  1.00  0.00     0.010 A 
ATOM     89  C   UNL A   1      45.710  24.852  27.549  1.00  0.00     0.010 A 
ATOM     90  C   UNL A   1      44.378  24.191  25.184  1.00  0.00     0.020 A 
ATOM     91  C   UNL A   1      44.941  23.688  27.491  1.00  0.00     0.020 A 
ATOM     92  C   UNL A   1      44.273  23.369  26.309  1.00  0.00     0.054 A 
BRANCH  92  93
ATOM     93  S   UNL A   1      43.279  21.856  26.197  1.00  0.00     0.124 S 
ATOM     94  O   UNL A   1      42.724  21.754  27.542  1.00  0.00    -0.237 OA
ATOM     95  O   UNL A   1      42.327  22.191  25.140  1.00  0.00    -0.237 OA
ATOM     96  O   UNL A   1      44.256  20.829  25.842  1.00  0.00    -0.744 OA
ENDBRANCH  92  93
ENDBRANCH  64  87
BRANCH  76  97
ATOM     97  C   UNL A   1      52.741  26.840  26.218  1.00  0.00    -0.014 A 
ATOM     98  C   UNL A   1      53.281  26.417  24.989  1.00  0.00     0.010 A 
ATOM     99  C   UNL A   1      53.368  26.435  27.412  1.00  0.00     0.010 A 
ATOM    100  C   UNL A   1      54.398  25.578  24.960  1.00  0.00     0.020 A 
ATOM    101  C   UNL A   1      54.511  25.635  27.386  1.00  0.00     0.020 A 
ATOM    102  C   UNL A   1      55.010  25.198  26.158  1.00  0.00     0.054 A 
BRANCH 102 103
ATOM    103  S   UNL A   1      56.489  24.153  26.086  1.00  0.00     0.124 S 
ATOM    104  O   UNL A   1      55.926  22.814  26.233  1.00  0.00    -0.237 OA
ATOM    105  O   UNL A   1      57.033  24.467  24.767  1.00  0.00    -0.237 OA
ATOM    106  O   UNL A   1      57.297  24.613  27.213  1.00  0.00    -0.744 OA
ENDBRANCH 102 103
ENDBRANCH  76  97
ENDBRANCH  50  51
ENDBRANCH  43  45
ENDBRANCH  42  43
ENDBRANCH  41  42
ENDBRANCH  40  41
ENDBRANCH  39  40
ENDBRANCH  38  39
ENDBRANCH  37  38
ENDBRANCH  36  37
ENDBRANCH   1  36
TORSDOF 27
ENDMDL
MODEL 3
REMARK VINA RESULT:      -8.5      5.114      9.113
REMARK SMILES O=C(NC1(C(=O)OCCOCCOCCOCCOC(=O)c2ccc(-c3c4nc(c(-c5ccc(S(=O)(=O)[O-])cc5)c5ccc([nH]5)c(-c5ccc(S(=O)(=O)[O-])cc5)c5nc(c(-c6ccc(S(=O)(=O)[O-])cc6)c6ccc3[nH]6)C=C5)C=C4)cc2)CC[NH2+]CC1)OCC1c2ccccc2-c2ccccc21
REMARK SMILES IDX 12 1 11 2 10 3 9 4 8 5 7 6 5 7 6 8 4 9 82 10 86 11 83 12
REMARK SMILES IDX 85 13 84 14 3 17 1 18 2 19 87 21 88 22 89 23 90 24 101 25
REMARK SMILES IDX 91 26 95 27 96 28 100 29 92 30 94 31 97 32 99 33 93 34 98 35
REMARK SMILES IDX 13 36 14 37 15 38 16 39 17 40 18 41 19 42 20 43 21 44 22 45
REMARK SMILES IDX 23 46 81 47 24 48 80 49 25 50 26 51 27 52 74 53 28 54 79 55
REMARK SMILES IDX 73 56 75 57 29 58 78 59 72 60 71 61 30 63 60 64 41 65 59 66
REMARK SMILES IDX 42 67 45 68 58 69 76 70 43 71 44 72 57 74 77 75 46 76 31 77
REMARK SMILES IDX 32 78 40 79 33 80 39 81 34 82 35 83 36 84 37 85 38 86 61 87
REMARK SMILES IDX 62 88 70 89 63 90 69 91 64 92 65 93 66 94 67 95 68 96 47 97
REMARK SMILES IDX 48 98 56 99 49 100 55 101 50 102 51 103 52 104 53 105 54 106
REMARK H PARENT 84 15 84 16 3 20 75 62 45 73
REMARK Flexibility Score: inf
ROOT
ATOM      1  C   UNL A   1      45.302  42.018  26.327  1.00  0.00     0.188 C 
ENDROOT
BRANCH   1   2
ATOM      2  C   UNL A   1      46.661  40.971  25.335  1.00  0.00     0.188 C 
BRANCH   2   3
ATOM      3  O   UNL A   1      46.518  40.657  23.960  1.00  0.00    -0.376 OA
BRANCH   3   4
ATOM      4  C   UNL A   1      47.166  41.569  23.118  1.00  0.00     0.202 C 
BRANCH   4   5
ATOM      5  C   UNL A   1      46.766  41.496  21.556  1.00  0.00     0.261 C 
BRANCH   5   6
ATOM      6  O   UNL A   1      45.240  41.682  21.154  1.00  0.00    -0.461 OA
BRANCH   6   7
ATOM      7  C   UNL A   1      44.622  42.925  21.209  1.00  0.00     0.332 C 
ATOM      8  O   UNL A   1      44.401  43.420  22.323  1.00  0.00    -0.249 OA
BRANCH   7   9
ATOM      9  C   UNL A   1      44.186  43.825  19.807  1.00  0.00     0.151 C 
ATOM     10  C   UNL A   1      44.688  44.029  18.314  1.00  0.00     0.102 C 
ATOM     11  C   UNL A   1      42.822  43.141  19.572  1.00  0.00     0.102 C 
ATOM     12  C   UNL A   1      43.723  44.665  17.310  1.00  0.00     0.263 C 
ATOM     13  C   UNL A   1      41.913  43.761  18.519  1.00  0.00     0.263 C 
ATOM     14  N   UNL A   1      42.546  43.839  17.214  1.00  0.00    -0.346 N 
ATOM     15  H   UNL A   1      42.809  42.903  16.905  1.00  0.00     0.346 HD
ATOM     16  H   UNL A   1      41.895  44.244  16.540  1.00  0.00     0.346 HD
BRANCH   9  17
ATOM     17  N   UNL A   1      44.199  45.251  20.329  1.00  0.00    -0.305 N 
ATOM     18  O   UNL A   1      45.324  47.268  20.477  1.00  0.00    -0.225 OA
ATOM     19  C   UNL A   1      45.344  46.055  20.354  1.00  0.00     0.408 C 
ATOM     20  H   UNL A   1      43.357  45.631  20.671  1.00  0.00     0.168 HD
BRANCH  19  21
ATOM     21  O   UNL A   1      46.438  45.310  20.145  1.00  0.00    -0.449 OA
BRANCH  21  22
ATOM     22  C   UNL A   1      47.912  45.536  19.957  1.00  0.00     0.248 C 
BRANCH  22  23
ATOM     23  C   UNL A   1      48.921  43.942  20.161  1.00  0.00     0.088 C 
ATOM     24  C   UNL A   1      50.908  43.178  19.742  1.00  0.00    -0.029 A 
ATOM     25  C   UNL A   1      49.283  44.679  22.004  1.00  0.00    -0.029 A 
ATOM     26  C   UNL A   1      51.915  42.865  18.834  1.00  0.00     0.005 A 
ATOM     27  C   UNL A   1      51.834  43.564  21.221  1.00  0.00    -0.014 A 
ATOM     28  C   UNL A   1      50.909  44.521  22.349  1.00  0.00    -0.014 A 
ATOM     29  C   UNL A   1      48.461  45.280  22.927  1.00  0.00     0.005 A 
ATOM     30  C   UNL A   1      53.240  42.433  19.217  1.00  0.00     0.000 A 
ATOM     31  C   UNL A   1      53.100  43.099  21.535  1.00  0.00     0.009 A 
ATOM     32  C   UNL A   1      51.436  45.087  23.484  1.00  0.00     0.009 A 
ATOM     33  C   UNL A   1      49.107  45.780  24.078  1.00  0.00     0.000 A 
ATOM     34  C   UNL A   1      53.762  42.437  20.523  1.00  0.00     0.001 A 
ATOM     35  C   UNL A   1      50.518  45.712  24.334  1.00  0.00     0.001 A 
ENDBRANCH  22  23
ENDBRANCH  21  22
ENDBRANCH  19  21
ENDBRANCH   9  17
ENDBRANCH   7   9
ENDBRANCH   6   7
ENDBRANCH   5   6
ENDBRANCH   4   5
ENDBRANCH   3   4
ENDBRANCH   2   3
ENDBRANCH   1   2
BRANCH   1  36
ATOM     36  O   UNL A   1      43.654  42.346  25.065  1.00  0.00    -0.377 OA
BRANCH  36  37
ATOM     37  C   UNL A   1      42.147  41.636  25.251  1.00  0.00     0.188 C 
BRANCH  37  38
ATOM     38  C   UNL A   1      42.172  40.182  25.676  1.00  0.00     0.188 C 
BRANCH  38  39
ATOM     39  O   UNL A   1      41.450  39.608  26.751  1.00  0.00    -0.376 OA
BRANCH  39  40
ATOM     40  C   UNL A   1      41.681  38.225  27.041  1.00  0.00     0.202 C 
BRANCH  40  41
ATOM     41  C   UNL A   1      42.211  37.739  28.414  1.00  0.00     0.261 C 
BRANCH  41  42
ATOM     42  O   UNL A   1      43.640  37.792  28.644  1.00  0.00    -0.460 OA
BRANCH  42  43
ATOM     43  C   UNL A   1      44.403  37.368  27.591  1.00  0.00     0.338 C 
ATOM     44  O   UNL A   1      44.906  38.096  26.747  1.00  0.00    -0.246 OA
BRANCH  43  45
ATOM     45  C   UNL A   1      44.899  35.974  27.806  1.00  0.00     0.060 A 
ATOM     46  C   UNL A   1      44.083  34.899  27.391  1.00  0.00     0.016 A 
ATOM     47  C   UNL A   1      46.096  35.717  28.458  1.00  0.00     0.016 A 
ATOM     48  C   UNL A   1      44.419  33.583  27.682  1.00  0.00     0.010 A 
ATOM     49  C   UNL A   1      46.392  34.400  28.832  1.00  0.00     0.010 A 
ATOM     50  C   UNL A   1      45.525  33.341  28.493  1.00  0.00    -0.014 A 
BRANCH  50  51
ATOM     51  C   UNL A   1      45.604  32.039  29.193  1.00  0.00     0.031 A 
ATOM     52  C   UNL A   1      44.645  31.785  30.323  1.00  0.00     0.074 A 
ATOM     53  C   UNL A   1      46.444  31.074  28.785  1.00  0.00     0.049 A 
ATOM     54  N   UNL A   1      44.538  30.738  31.096  1.00  0.00    -0.248 NA
ATOM     55  C   UNL A   1      43.677  32.856  30.620  1.00  0.00     0.031 C 
ATOM     56  C   UNL A   1      47.348  31.179  27.643  1.00  0.00     0.029 A 
ATOM     57  N   UNL A   1      46.671  29.817  29.284  1.00  0.00    -0.354 N 
ATOM     58  C   UNL A   1      43.506  31.029  31.982  1.00  0.00     0.074 A 
ATOM     59  C   UNL A   1      43.043  32.364  31.672  1.00  0.00     0.031 C 
ATOM     60  C   UNL A   1      48.050  30.038  27.540  1.00  0.00     0.029 A 
ATOM     61  C   UNL A   1      47.673  29.141  28.630  1.00  0.00     0.049 A 
ATOM     62  H   UNL A   1      46.166  29.436  30.039  1.00  0.00     0.167 HD
ATOM     63  C   UNL A   1      42.992  30.250  32.962  1.00  0.00     0.031 A 
ATOM     64  C   UNL A   1      48.240  27.950  28.901  1.00  0.00     0.031 A 
ATOM     65  C   UNL A   1      43.482  28.933  33.274  1.00  0.00     0.049 A 
ATOM     66  C   UNL A   1      47.727  27.146  30.067  1.00  0.00     0.074 A 
ATOM     67  C   UNL A   1      43.034  28.060  34.248  1.00  0.00     0.029 A 
ATOM     68  N   UNL A   1      44.539  28.306  32.629  1.00  0.00    -0.354 N 
ATOM     69  N   UNL A   1      46.745  27.425  30.892  1.00  0.00    -0.248 NA
ATOM     70  C   UNL A   1      48.389  25.863  30.334  1.00  0.00     0.031 C 
ATOM     71  C   UNL A   1      43.877  26.945  34.252  1.00  0.00     0.029 A 
ATOM     72  C   UNL A   1      44.784  27.074  33.213  1.00  0.00     0.049 A 
ATOM     73  H   UNL A   1      45.041  28.681  31.871  1.00  0.00     0.167 HD
ATOM     74  C   UNL A   1      46.649  26.336  31.751  1.00  0.00     0.074 A 
ATOM     75  C   UNL A   1      47.661  25.387  31.334  1.00  0.00     0.031 C 
ATOM     76  C   UNL A   1      45.797  26.138  32.789  1.00  0.00     0.031 A 
BRANCH  63  77
ATOM     77  C   UNL A   1      41.879  30.825  33.801  1.00  0.00    -0.014 A 
ATOM     78  C   UNL A   1      40.527  30.562  33.514  1.00  0.00     0.010 A 
ATOM     79  C   UNL A   1      42.196  31.617  34.920  1.00  0.00     0.010 A 
ATOM     80  C   UNL A   1      39.515  31.113  34.306  1.00  0.00     0.020 A 
ATOM     81  C   UNL A   1      41.190  32.134  35.739  1.00  0.00     0.020 A 
ATOM     82  C   UNL A   1      39.854  31.890  35.417  1.00  0.00     0.054 A 
BRANCH  82  83
ATOM     83  S   UNL A   1      38.520  32.556  36.447  1.00  0.00     0.124 S 
ATOM     84  O   UNL A   1      38.911  33.957  36.585  1.00  0.00    -0.237 OA
ATOM     85  O   UNL A   1      37.337  32.312  35.626  1.00  0.00    -0.237 OA
ATOM     86  O   UNL A   1      38.598  31.765  37.673  1.00  0.00    -0.744 OA
ENDBRANCH  82  83
ENDBRANCH  63  77
BRANCH  64  87
ATOM     87  C   UNL A   1      49.383  27.464  28.078  1.00  0.00    -0.014 A 
ATOM     88  C   UNL A   1      50.707  27.817  28.390  1.00  0.00     0.010 A 
ATOM     89  C   UNL A   1      49.143  26.643  26.960  1.00  0.00     0.010 A 
ATOM     90  C   UNL A   1      51.766  27.372  27.592  1.00  0.00     0.020 A 
ATOM     91  C   UNL A   1      50.201  26.162  26.185  1.00  0.00     0.020 A 
ATOM     92  C   UNL A   1      51.506  26.537  26.502  1.00  0.00     0.054 A 
BRANCH  92  93
ATOM     93  S   UNL A   1      52.902  25.918  25.524  1.00  0.00     0.124 S 
ATOM     94  O   UNL A   1      52.700  26.586  24.243  1.00  0.00    -0.237 OA
ATOM     95  O   UNL A   1      54.050  26.374  26.303  1.00  0.00    -0.237 OA
ATOM     96  O   UNL A   1      52.700  24.471  25.516  1.00  0.00    -0.744 OA
ENDBRANCH  92  93
ENDBRANCH  64  87
BRANCH  76  97
ATOM     97  C   UNL A   1      45.881  24.820  33.518  1.00  0.00    -0.014 A 
ATOM     98  C   UNL A   1      46.751  24.627  34.606  1.00  0.00     0.010 A 
ATOM     99  C   UNL A   1      45.023  23.769  33.138  1.00  0.00     0.010 A 
ATOM    100  C   UNL A   1      46.790  23.399  35.271  1.00  0.00     0.020 A 
ATOM    101  C   UNL A   1      45.026  22.557  33.830  1.00  0.00     0.020 A 
ATOM    102  C   UNL A   1      45.921  22.374  34.884  1.00  0.00     0.054 A 
BRANCH 102 103
ATOM    103  S   UNL A   1      45.956  20.811  35.800  1.00  0.00     0.124 S 
ATOM    104  O   UNL A   1      47.307  20.327  35.529  1.00  0.00    -0.237 OA
ATOM    105  O   UNL A   1      45.706  21.245  37.173  1.00  0.00    -0.237 OA
ATOM    106  O   UNL A   1      44.883  20.027  35.194  1.00  0.00    -0.744 OA
ENDBRANCH 102 103
ENDBRANCH  76  97
ENDBRANCH  50  51
ENDBRANCH  43  45
ENDBRANCH  42  43
ENDBRANCH  41  42
ENDBRANCH  40  41
ENDBRANCH  39  40
ENDBRANCH  38  39
ENDBRANCH  37  38
ENDBRANCH  36  37
ENDBRANCH   1  36
TORSDOF 27
ENDMDL
