MODEL 1
REMARK VINA RESULT:      -8.9      0.000      0.000
REMARK SMILES C[C@@H](CC(=O)OCCOCCOCCOCCOC(=O)c1ccc(-c2c3nc(c(-c4ccc(S(=O)(=O)[O-])cc4)c4ccc([nH]4)c(-c4ccc(S(=O)(=O)[O-])cc4)c4nc(c(-c5ccc(S(=O)(=O)[O-])cc5)c5ccc2[nH]5)C=C4)C=C3)cc1)NC(=O)c1ccc(O)cc1
REMARK SMILES IDX 11 1 10 2 9 3 8 4 7 5 6 6 4 7 5 8 3 9 2 10 1 11 81 12 82 13
REMARK SMILES IDX 83 15 84 16 85 17 90 18 86 19 89 20 87 21 88 22 12 24 13 25
REMARK SMILES IDX 14 26 15 27 16 28 17 29 18 30 19 31 20 32 21 33 22 34 80 35
REMARK SMILES IDX 23 36 79 37 24 38 25 39 26 40 73 41 27 42 78 43 72 44 74 45
REMARK SMILES IDX 28 46 77 47 71 48 70 49 29 51 59 52 40 53 58 54 41 55 44 56
REMARK SMILES IDX 57 57 75 58 42 59 43 60 56 62 76 63 45 64 30 65 31 66 39 67
REMARK SMILES IDX 32 68 38 69 33 70 34 71 35 72 36 73 37 74 60 75 61 76 69 77
REMARK SMILES IDX 62 78 68 79 63 80 64 81 65 82 66 83 67 84 46 85 47 86 55 87
REMARK SMILES IDX 48 88 54 89 49 90 50 91 51 92 52 93 53 94
REMARK H PARENT 81 14 88 23 74 50 44 61
REMARK Flexibility Score: inf
ROOT
ATOM      1  C   UNL A   1      43.592  19.648  25.474  1.00  0.00     0.188 C 
ENDROOT
BRANCH   1   2
ATOM      2  C   UNL A   1      42.508  20.318  26.316  1.00  0.00     0.188 C 
BRANCH   2   3
ATOM      3  O   UNL A   1      41.351  20.833  25.690  1.00  0.00    -0.376 OA
BRANCH   3   4
ATOM      4  C   UNL A   1      40.306  21.400  26.474  1.00  0.00     0.202 C 
BRANCH   4   5
ATOM      5  C   UNL A   1      39.094  22.090  25.821  1.00  0.00     0.261 C 
BRANCH   5   6
ATOM      6  O   UNL A   1      38.113  21.198  25.233  1.00  0.00    -0.463 OA
BRANCH   6   7
ATOM      7  C   UNL A   1      36.966  21.757  24.801  1.00  0.00     0.307 C 
ATOM      8  O   UNL A   1      36.903  22.518  23.835  1.00  0.00    -0.252 OA
BRANCH   7   9
ATOM      9  C   UNL A   1      35.682  21.369  25.523  1.00  0.00     0.147 C 
BRANCH   9  10
ATOM     10  C   UNL A   1      34.263  21.910  25.265  1.00  0.00     0.090 C 
ATOM     11  C   UNL A   1      33.476  22.276  26.515  1.00  0.00     0.031 C 
BRANCH  10  12
ATOM     12  N   UNL A   1      33.455  21.065  24.381  1.00  0.00    -0.349 N 
ATOM     13  C   UNL A   1      32.586  21.366  23.357  1.00  0.00     0.251 C 
ATOM     14  H   UNL A   1      33.552  20.100  24.551  1.00  0.00     0.164 HD
ATOM     15  O   UNL A   1      32.065  20.469  22.699  1.00  0.00    -0.269 OA
BRANCH  13  16
ATOM     16  C   UNL A   1      32.197  22.762  23.070  1.00  0.00     0.040 A 
ATOM     17  C   UNL A   1      30.938  23.190  23.508  1.00  0.00     0.017 A 
ATOM     18  C   UNL A   1      33.022  23.636  22.358  1.00  0.00     0.017 A 
ATOM     19  C   UNL A   1      30.548  24.517  23.321  1.00  0.00     0.047 A 
ATOM     20  C   UNL A   1      32.640  24.969  22.184  1.00  0.00     0.047 A 
ATOM     21  C   UNL A   1      31.417  25.402  22.692  1.00  0.00     0.115 A 
BRANCH  21  22
ATOM     22  O   UNL A   1      31.035  26.707  22.593  1.00  0.00    -0.508 OA
ATOM     23  H   UNL A   1      31.651  27.389  22.774  1.00  0.00     0.293 HD
ENDBRANCH  21  22
ENDBRANCH  13  16
ENDBRANCH  10  12
ENDBRANCH   9  10
ENDBRANCH   7   9
ENDBRANCH   6   7
ENDBRANCH   5   6
ENDBRANCH   4   5
ENDBRANCH   3   4
ENDBRANCH   2   3
ENDBRANCH   1   2
BRANCH   1  24
ATOM     24  O   UNL A   1      44.728  20.425  25.132  1.00  0.00    -0.377 OA
BRANCH  24  25
ATOM     25  C   UNL A   1      45.102  21.535  25.944  1.00  0.00     0.188 C 
BRANCH  25  26
ATOM     26  C   UNL A   1      44.889  22.958  25.416  1.00  0.00     0.188 C 
BRANCH  26  27
ATOM     27  O   UNL A   1      43.649  23.125  24.755  1.00  0.00    -0.376 OA
BRANCH  27  28
ATOM     28  C   UNL A   1      42.724  24.096  25.217  1.00  0.00     0.202 C 
BRANCH  28  29
ATOM     29  C   UNL A   1      42.392  24.233  26.713  1.00  0.00     0.261 C 
BRANCH  29  30
ATOM     30  O   UNL A   1      41.185  24.916  27.083  1.00  0.00    -0.460 OA
BRANCH  30  31
ATOM     31  C   UNL A   1      40.939  26.130  26.560  1.00  0.00     0.338 C 
ATOM     32  O   UNL A   1      40.867  26.421  25.376  1.00  0.00    -0.246 OA
BRANCH  31  33
ATOM     33  C   UNL A   1      40.578  27.032  27.674  1.00  0.00     0.060 A 
ATOM     34  C   UNL A   1      41.103  28.330  27.691  1.00  0.00     0.016 A 
ATOM     35  C   UNL A   1      39.749  26.594  28.712  1.00  0.00     0.016 A 
ATOM     36  C   UNL A   1      40.857  29.169  28.779  1.00  0.00     0.010 A 
ATOM     37  C   UNL A   1      39.513  27.431  29.808  1.00  0.00     0.010 A 
ATOM     38  C   UNL A   1      40.108  28.704  29.868  1.00  0.00    -0.014 A 
BRANCH  38  39
ATOM     39  C   UNL A   1      40.129  29.461  31.146  1.00  0.00     0.031 A 
ATOM     40  C   UNL A   1      41.248  29.193  32.120  1.00  0.00     0.074 A 
ATOM     41  C   UNL A   1      39.204  30.399  31.423  1.00  0.00     0.049 A 
ATOM     42  N   UNL A   1      41.472  29.722  33.293  1.00  0.00    -0.248 NA
ATOM     43  C   UNL A   1      42.247  28.190  31.712  1.00  0.00     0.031 C 
ATOM     44  C   UNL A   1      38.102  30.786  30.544  1.00  0.00     0.029 A 
ATOM     45  N   UNL A   1      39.052  31.198  32.529  1.00  0.00    -0.354 N 
ATOM     46  C   UNL A   1      42.631  29.113  33.767  1.00  0.00     0.074 A 
ATOM     47  C   UNL A   1      43.040  28.149  32.771  1.00  0.00     0.031 C 
ATOM     48  C   UNL A   1      37.383  31.750  31.149  1.00  0.00     0.029 A 
ATOM     49  C   UNL A   1      37.954  32.022  32.467  1.00  0.00     0.049 A 
ATOM     50  H   UNL A   1      39.671  31.182  33.295  1.00  0.00     0.167 HD
ATOM     51  C   UNL A   1      43.298  29.340  34.923  1.00  0.00     0.031 A 
ATOM     52  C   UNL A   1      37.456  32.884  33.377  1.00  0.00     0.031 A 
ATOM     53  C   UNL A   1      42.880  30.290  35.920  1.00  0.00     0.049 A 
ATOM     54  C   UNL A   1      38.172  33.064  34.692  1.00  0.00     0.074 A 
ATOM     55  C   UNL A   1      43.493  30.603  37.121  1.00  0.00     0.029 A 
ATOM     56  N   UNL A   1      41.738  31.073  35.839  1.00  0.00    -0.354 N 
ATOM     57  N   UNL A   1      39.279  32.498  35.114  1.00  0.00    -0.248 NA
ATOM     58  C   UNL A   1      37.578  34.010  35.648  1.00  0.00     0.031 C 
ATOM     59  C   UNL A   1      42.687  31.525  37.794  1.00  0.00     0.029 A 
ATOM     60  C   UNL A   1      41.613  31.847  36.981  1.00  0.00     0.049 A 
ATOM     61  H   UNL A   1      41.110  31.078  35.080  1.00  0.00     0.167 HD
ATOM     62  C   UNL A   1      39.530  33.046  36.369  1.00  0.00     0.074 A 
ATOM     63  C   UNL A   1      38.470  33.998  36.629  1.00  0.00     0.031 C 
ATOM     64  C   UNL A   1      40.549  32.790  37.228  1.00  0.00     0.031 A 
BRANCH  51  65
ATOM     65  C   UNL A   1      44.532  28.516  35.189  1.00  0.00    -0.014 A 
ATOM     66  C   UNL A   1      44.464  27.297  35.890  1.00  0.00     0.010 A 
ATOM     67  C   UNL A   1      45.777  28.953  34.700  1.00  0.00     0.010 A 
ATOM     68  C   UNL A   1      45.624  26.553  36.131  1.00  0.00     0.020 A 
ATOM     69  C   UNL A   1      46.933  28.195  34.910  1.00  0.00     0.020 A 
ATOM     70  C   UNL A   1      46.850  27.007  35.639  1.00  0.00     0.054 A 
BRANCH  70  71
ATOM     71  S   UNL A   1      48.333  26.009  35.946  1.00  0.00     0.124 S 
ATOM     72  O   UNL A   1      48.172  24.923  34.982  1.00  0.00    -0.237 OA
ATOM     73  O   UNL A   1      49.415  26.947  35.660  1.00  0.00    -0.237 OA
ATOM     74  O   UNL A   1      48.206  25.619  37.348  1.00  0.00    -0.744 OA
ENDBRANCH  70  71
ENDBRANCH  51  65
BRANCH  52  75
ATOM     75  C   UNL A   1      36.204  33.638  33.084  1.00  0.00    -0.014 A 
ATOM     76  C   UNL A   1      34.960  33.186  33.558  1.00  0.00     0.010 A 
ATOM     77  C   UNL A   1      36.252  34.817  32.317  1.00  0.00     0.010 A 
ATOM     78  C   UNL A   1      33.788  33.887  33.259  1.00  0.00     0.020 A 
ATOM     79  C   UNL A   1      35.087  35.539  32.043  1.00  0.00     0.020 A 
ATOM     80  C   UNL A   1      33.860  35.064  32.507  1.00  0.00     0.054 A 
BRANCH  80  81
ATOM     81  S   UNL A   1      32.333  35.986  32.178  1.00  0.00     0.124 S 
ATOM     82  O   UNL A   1      31.306  35.034  32.586  1.00  0.00    -0.237 OA
ATOM     83  O   UNL A   1      32.486  37.160  33.034  1.00  0.00    -0.237 OA
ATOM     84  O   UNL A   1      32.400  36.258  30.743  1.00  0.00    -0.744 OA
ENDBRANCH  80  81
ENDBRANCH  52  75
BRANCH  64  85
ATOM     85  C   UNL A   1      40.598  33.579  38.511  1.00  0.00    -0.014 A 
ATOM     86  C   UNL A   1      41.197  34.850  38.573  1.00  0.00     0.010 A 
ATOM     87  C   UNL A   1      39.989  33.055  39.668  1.00  0.00     0.010 A 
ATOM     88  C   UNL A   1      41.224  35.562  39.776  1.00  0.00     0.020 A 
ATOM     89  C   UNL A   1      39.983  33.778  40.863  1.00  0.00     0.020 A 
ATOM     90  C   UNL A   1      40.616  35.020  40.915  1.00  0.00     0.054 A 
BRANCH  90  91
ATOM     91  S   UNL A   1      40.639  35.977  42.455  1.00  0.00     0.124 S 
ATOM     92  O   UNL A   1      40.533  34.929  43.466  1.00  0.00    -0.237 OA
ATOM     93  O   UNL A   1      41.929  36.659  42.389  1.00  0.00    -0.237 OA
ATOM     94  O   UNL A   1      39.473  36.850  42.339  1.00  0.00    -0.744 OA
ENDBRANCH  90  91
ENDBRANCH  64  85
ENDBRANCH  38  39
ENDBRANCH  31  33
ENDBRANCH  30  31
ENDBRANCH  29  30
ENDBRANCH  28  29
ENDBRANCH  27  28
ENDBRANCH  26  27
ENDBRANCH  25  26
ENDBRANCH  24  25
ENDBRANCH   1  24
TORSDOF 27
ENDMDL
MODEL 2
REMARK VINA RESULT:      -8.3      2.381      3.739
REMARK SMILES C[C@@H](CC(=O)OCCOCCOCCOCCOC(=O)c1ccc(-c2c3nc(c(-c4ccc(S(=O)(=O)[O-])cc4)c4ccc([nH]4)c(-c4ccc(S(=O)(=O)[O-])cc4)c4nc(c(-c5ccc(S(=O)(=O)[O-])cc5)c5ccc2[nH]5)C=C4)C=C3)cc1)NC(=O)c1ccc(O)cc1
REMARK SMILES IDX 11 1 10 2 9 3 8 4 7 5 6 6 4 7 5 8 3 9 2 10 1 11 81 12 82 13
REMARK SMILES IDX 83 15 84 16 85 17 90 18 86 19 89 20 87 21 88 22 12 24 13 25
REMARK SMILES IDX 14 26 15 27 16 28 17 29 18 30 19 31 20 32 21 33 22 34 80 35
REMARK SMILES IDX 23 36 79 37 24 38 25 39 26 40 73 41 27 42 78 43 72 44 74 45
REMARK SMILES IDX 28 46 77 47 71 48 70 49 29 51 59 52 40 53 58 54 41 55 44 56
REMARK SMILES IDX 57 57 75 58 42 59 43 60 56 62 76 63 45 64 30 65 31 66 39 67
REMARK SMILES IDX 32 68 38 69 33 70 34 71 35 72 36 73 37 74 60 75 61 76 69 77
REMARK SMILES IDX 62 78 68 79 63 80 64 81 65 82 66 83 67 84 46 85 47 86 55 87
REMARK SMILES IDX 48 88 54 89 49 90 50 91 51 92 52 93 53 94
REMARK H PARENT 81 14 88 23 74 50 44 61
REMARK Flexibility Score: inf
ROOT
ATOM      1  C   UNL A   1      37.919  22.786  25.417  1.00  0.00     0.188 C 
ENDROOT
BRANCH   1   2
ATOM      2  C   UNL A   1      36.854  22.438  24.380  1.00  0.00     0.188 C 
BRANCH   2   3
ATOM      3  O   UNL A   1      35.619  21.892  24.798  1.00  0.00    -0.376 OA
BRANCH   3   4
ATOM      4  C   UNL A   1      34.695  22.692  25.531  1.00  0.00     0.202 C 
BRANCH   4   5
ATOM      5  C   UNL A   1      34.245  24.072  25.020  1.00  0.00     0.261 C 
BRANCH   5   6
ATOM      6  O   UNL A   1      33.194  24.053  24.020  1.00  0.00    -0.463 OA
BRANCH   6   7
ATOM      7  C   UNL A   1      33.574  24.205  22.737  1.00  0.00     0.307 C 
ATOM      8  O   UNL A   1      34.346  23.438  22.161  1.00  0.00    -0.252 OA
BRANCH   7   9
ATOM      9  C   UNL A   1      32.959  25.359  21.957  1.00  0.00     0.147 C 
BRANCH   9  10
ATOM     10  C   UNL A   1      32.645  26.777  22.473  1.00  0.00     0.090 C 
ATOM     11  C   UNL A   1      33.639  27.850  22.055  1.00  0.00     0.031 C 
BRANCH  10  12
ATOM     12  N   UNL A   1      32.398  26.844  23.917  1.00  0.00    -0.349 N 
ATOM     13  C   UNL A   1      31.359  27.364  24.652  1.00  0.00     0.251 C 
ATOM     14  H   UNL A   1      33.110  26.440  24.464  1.00  0.00     0.164 HD
ATOM     15  O   UNL A   1      31.336  27.241  25.874  1.00  0.00    -0.269 OA
BRANCH  13  16
ATOM     16  C   UNL A   1      30.284  28.148  24.008  1.00  0.00     0.040 A 
ATOM     17  C   UNL A   1      29.125  27.465  23.617  1.00  0.00     0.017 A 
ATOM     18  C   UNL A   1      30.406  29.516  23.754  1.00  0.00     0.017 A 
ATOM     19  C   UNL A   1      28.054  28.169  23.065  1.00  0.00     0.047 A 
ATOM     20  C   UNL A   1      29.329  30.224  23.216  1.00  0.00     0.047 A 
ATOM     21  C   UNL A   1      28.153  29.546  22.902  1.00  0.00     0.115 A 
BRANCH  21  22
ATOM     22  O   UNL A   1      27.060  30.211  22.430  1.00  0.00    -0.508 OA
ATOM     23  H   UNL A   1      26.657  30.877  22.951  1.00  0.00     0.293 HD
ENDBRANCH  21  22
ENDBRANCH  13  16
ENDBRANCH  10  12
ENDBRANCH   9  10
ENDBRANCH   7   9
ENDBRANCH   6   7
ENDBRANCH   5   6
ENDBRANCH   4   5
ENDBRANCH   3   4
ENDBRANCH   2   3
ENDBRANCH   1   2
BRANCH   1  24
ATOM     24  O   UNL A   1      38.978  21.862  25.603  1.00  0.00    -0.377 OA
BRANCH  24  25
ATOM     25  C   UNL A   1      39.646  21.790  26.861  1.00  0.00     0.188 C 
BRANCH  25  26
ATOM     26  C   UNL A   1      40.737  22.814  27.192  1.00  0.00     0.188 C 
BRANCH  26  27
ATOM     27  O   UNL A   1      42.039  22.258  27.188  1.00  0.00    -0.376 OA
BRANCH  27  28
ATOM     28  C   UNL A   1      43.034  22.787  26.326  1.00  0.00     0.202 C 
BRANCH  28  29
ATOM     29  C   UNL A   1      43.797  24.075  26.684  1.00  0.00     0.261 C 
BRANCH  29  30
ATOM     30  O   UNL A   1      43.561  25.248  25.891  1.00  0.00    -0.460 OA
BRANCH  30  31
ATOM     31  C   UNL A   1      42.380  25.881  26.001  1.00  0.00     0.338 C 
ATOM     32  O   UNL A   1      41.369  25.672  25.347  1.00  0.00    -0.246 OA
BRANCH  31  33
ATOM     33  C   UNL A   1      42.451  26.755  27.190  1.00  0.00     0.060 A 
ATOM     34  C   UNL A   1      42.081  26.235  28.437  1.00  0.00     0.016 A 
ATOM     35  C   UNL A   1      42.854  28.089  27.076  1.00  0.00     0.016 A 
ATOM     36  C   UNL A   1      42.046  27.065  29.558  1.00  0.00     0.010 A 
ATOM     37  C   UNL A   1      42.807  28.924  28.198  1.00  0.00     0.010 A 
ATOM     38  C   UNL A   1      42.354  28.426  29.433  1.00  0.00    -0.014 A 
BRANCH  38  39
ATOM     39  C   UNL A   1      41.999  29.360  30.532  1.00  0.00     0.031 A 
ATOM     40  C   UNL A   1      42.891  29.407  31.747  1.00  0.00     0.074 A 
ATOM     41  C   UNL A   1      40.938  30.181  30.442  1.00  0.00     0.049 A 
ATOM     42  N   UNL A   1      42.782  30.133  32.829  1.00  0.00    -0.248 NA
ATOM     43  C   UNL A   1      44.062  28.514  31.738  1.00  0.00     0.031 C 
ATOM     44  C   UNL A   1      40.028  30.267  29.301  1.00  0.00     0.029 A 
ATOM     45  N   UNL A   1      40.449  31.105  31.334  1.00  0.00    -0.354 N 
ATOM     46  C   UNL A   1      43.863  29.778  33.631  1.00  0.00     0.074 A 
ATOM     47  C   UNL A   1      44.592  28.748  32.928  1.00  0.00     0.031 C 
ATOM     48  C   UNL A   1      39.088  31.193  29.564  1.00  0.00     0.029 A 
ATOM     49  C   UNL A   1      39.309  31.740  30.901  1.00  0.00     0.049 A 
ATOM     50  H   UNL A   1      40.876  31.294  32.200  1.00  0.00     0.167 HD
ATOM     51  C   UNL A   1      44.220  30.271  34.841  1.00  0.00     0.031 A 
ATOM     52  C   UNL A   1      38.525  32.644  31.522  1.00  0.00     0.031 A 
ATOM     53  C   UNL A   1      43.483  31.286  35.546  1.00  0.00     0.049 A 
ATOM     54  C   UNL A   1      38.899  33.121  32.903  1.00  0.00     0.074 A 
ATOM     55  C   UNL A   1      43.768  31.861  36.772  1.00  0.00     0.029 A 
ATOM     56  N   UNL A   1      42.309  31.871  35.094  1.00  0.00    -0.354 N 
ATOM     57  N   UNL A   1      39.936  32.794  33.637  1.00  0.00    -0.248 NA
ATOM     58  C   UNL A   1      38.001  34.101  33.533  1.00  0.00     0.031 C 
ATOM     59  C   UNL A   1      42.732  32.744  37.091  1.00  0.00     0.029 A 
ATOM     60  C   UNL A   1      41.842  32.779  36.029  1.00  0.00     0.049 A 
ATOM     61  H   UNL A   1      41.873  31.670  34.234  1.00  0.00     0.167 HD
ATOM     62  C   UNL A   1      39.833  33.553  34.800  1.00  0.00     0.074 A 
ATOM     63  C   UNL A   1      38.642  34.366  34.663  1.00  0.00     0.031 C 
ATOM     64  C   UNL A   1      40.652  33.580  35.882  1.00  0.00     0.031 A 
BRANCH  51  65
ATOM     65  C   UNL A   1      45.445  29.687  35.497  1.00  0.00    -0.014 A 
ATOM     66  C   UNL A   1      46.723  30.240  35.290  1.00  0.00     0.010 A 
ATOM     67  C   UNL A   1      45.312  28.586  36.363  1.00  0.00     0.010 A 
ATOM     68  C   UNL A   1      47.847  29.677  35.904  1.00  0.00     0.020 A 
ATOM     69  C   UNL A   1      46.428  28.041  37.005  1.00  0.00     0.020 A 
ATOM     70  C   UNL A   1      47.691  28.581  36.757  1.00  0.00     0.054 A 
BRANCH  70  71
ATOM     71  S   UNL A   1      49.163  27.888  37.557  1.00  0.00     0.124 S 
ATOM     72  O   UNL A   1      50.243  28.506  36.792  1.00  0.00    -0.237 OA
ATOM     73  O   UNL A   1      49.025  28.351  38.935  1.00  0.00    -0.237 OA
ATOM     74  O   UNL A   1      49.015  26.446  37.369  1.00  0.00    -0.744 OA
ENDBRANCH  70  71
ENDBRANCH  51  65
BRANCH  52  75
ATOM     75  C   UNL A   1      37.296  33.153  30.848  1.00  0.00    -0.014 A 
ATOM     76  C   UNL A   1      37.383  33.982  29.716  1.00  0.00     0.010 A 
ATOM     77  C   UNL A   1      36.025  32.812  31.347  1.00  0.00     0.010 A 
ATOM     78  C   UNL A   1      36.225  34.473  29.105  1.00  0.00     0.020 A 
ATOM     79  C   UNL A   1      34.864  33.275  30.720  1.00  0.00     0.020 A 
ATOM     80  C   UNL A   1      34.972  34.111  29.608  1.00  0.00     0.054 A 
BRANCH  80  81
ATOM     81  S   UNL A   1      33.483  34.716  28.767  1.00  0.00     0.124 S 
ATOM     82  O   UNL A   1      33.959  35.952  28.154  1.00  0.00    -0.237 OA
ATOM     83  O   UNL A   1      33.182  33.626  27.843  1.00  0.00    -0.237 OA
ATOM     84  O   UNL A   1      32.521  34.886  29.854  1.00  0.00    -0.744 OA
ENDBRANCH  80  81
ENDBRANCH  52  75
BRANCH  64  85
ATOM     85  C   UNL A   1      40.319  34.550  36.987  1.00  0.00    -0.014 A 
ATOM     86  C   UNL A   1      40.984  35.784  37.110  1.00  0.00     0.010 A 
ATOM     87  C   UNL A   1      39.287  34.238  37.892  1.00  0.00     0.010 A 
ATOM     88  C   UNL A   1      40.651  36.666  38.143  1.00  0.00     0.020 A 
ATOM     89  C   UNL A   1      38.928  35.132  38.903  1.00  0.00     0.020 A 
ATOM     90  C   UNL A   1      39.625  36.334  39.034  1.00  0.00     0.054 A 
BRANCH  90  91
ATOM     91  S   UNL A   1      39.193  37.509  40.346  1.00  0.00     0.124 S 
ATOM     92  O   UNL A   1      38.731  36.621  41.409  1.00  0.00    -0.237 OA
ATOM     93  O   UNL A   1      40.462  38.186  40.599  1.00  0.00    -0.237 OA
ATOM     94  O   UNL A   1      38.159  38.344  39.739  1.00  0.00    -0.744 OA
ENDBRANCH  90  91
ENDBRANCH  64  85
ENDBRANCH  38  39
ENDBRANCH  31  33
ENDBRANCH  30  31
ENDBRANCH  29  30
ENDBRANCH  28  29
ENDBRANCH  27  28
ENDBRANCH  26  27
ENDBRANCH  25  26
ENDBRANCH  24  25
ENDBRANCH   1  24
TORSDOF 27
ENDMDL
MODEL 3
REMARK VINA RESULT:      -7.9      2.452      8.604
REMARK SMILES C[C@@H](CC(=O)OCCOCCOCCOCCOC(=O)c1ccc(-c2c3nc(c(-c4ccc(S(=O)(=O)[O-])cc4)c4ccc([nH]4)c(-c4ccc(S(=O)(=O)[O-])cc4)c4nc(c(-c5ccc(S(=O)(=O)[O-])cc5)c5ccc2[nH]5)C=C4)C=C3)cc1)NC(=O)c1ccc(O)cc1
REMARK SMILES IDX 11 1 10 2 9 3 8 4 7 5 6 6 4 7 5 8 3 9 2 10 1 11 81 12 82 13
REMARK SMILES IDX 83 15 84 16 85 17 90 18 86 19 89 20 87 21 88 22 12 24 13 25
REMARK SMILES IDX 14 26 15 27 16 28 17 29 18 30 19 31 20 32 21 33 22 34 80 35
REMARK SMILES IDX 23 36 79 37 24 38 25 39 26 40 73 41 27 42 78 43 72 44 74 45
REMARK SMILES IDX 28 46 77 47 71 48 70 49 29 51 59 52 40 53 58 54 41 55 44 56
REMARK SMILES IDX 57 57 75 58 42 59 43 60 56 62 76 63 45 64 30 65 31 66 39 67
REMARK SMILES IDX 32 68 38 69 33 70 34 71 35 72 36 73 37 74 60 75 61 76 69 77
REMARK SMILES IDX 62 78 68 79 63 80 64 81 65 82 66 83 67 84 46 85 47 86 55 87
REMARK SMILES IDX 48 88 54 89 49 90 50 91 51 92 52 93 53 94
REMARK H PARENT 81 14 88 23 74 50 44 61
REMARK Flexibility Score: inf
ROOT
ATOM      1  C   UNL A   1      37.284  23.092  25.107  1.00  0.00     0.188 C 
ENDROOT
BRANCH   1   2
ATOM      2  C   UNL A   1      36.285  22.785  23.994  1.00  0.00     0.188 C 
BRANCH   2   3
ATOM      3  O   UNL A   1      35.212  21.898  24.239  1.00  0.00    -0.376 OA
BRANCH   3   4
ATOM      4  C   UNL A   1      34.048  22.354  24.921  1.00  0.00     0.202 C 
BRANCH   4   5
ATOM      5  C   UNL A   1      33.376  23.691  24.559  1.00  0.00     0.261 C 
BRANCH   5   6
ATOM      6  O   UNL A   1      32.530  23.662  23.380  1.00  0.00    -0.463 OA
BRANCH   6   7
ATOM      7  C   UNL A   1      33.071  24.121  22.235  1.00  0.00     0.307 C 
ATOM      8  O   UNL A   1      33.946  23.521  21.609  1.00  0.00    -0.252 OA
BRANCH   7   9
ATOM      9  C   UNL A   1      32.516  25.421  21.670  1.00  0.00     0.147 C 
BRANCH   9  10
ATOM     10  C   UNL A   1      32.079  26.673  22.456  1.00  0.00     0.090 C 
ATOM     11  C   UNL A   1      33.185  27.683  22.724  1.00  0.00     0.031 C 
BRANCH  10  12
ATOM     12  N   UNL A   1      31.347  26.375  23.691  1.00  0.00    -0.349 N 
ATOM     13  C   UNL A   1      30.263  26.975  24.288  1.00  0.00     0.251 C 
ATOM     14  H   UNL A   1      31.696  25.599  24.186  1.00  0.00     0.164 HD
ATOM     15  O   UNL A   1      29.769  26.499  25.307  1.00  0.00    -0.269 OA
BRANCH  13  16
ATOM     16  C   UNL A   1      29.710  28.244  23.770  1.00  0.00     0.040 A 
ATOM     17  C   UNL A   1      28.552  28.178  22.985  1.00  0.00     0.017 A 
ATOM     18  C   UNL A   1      30.320  29.478  24.010  1.00  0.00     0.017 A 
ATOM     19  C   UNL A   1      27.952  29.351  22.527  1.00  0.00     0.047 A 
ATOM     20  C   UNL A   1      29.711  30.654  23.566  1.00  0.00     0.047 A 
ATOM     21  C   UNL A   1      28.518  30.579  22.851  1.00  0.00     0.115 A 
BRANCH  21  22
ATOM     22  O   UNL A   1      27.864  31.707  22.450  1.00  0.00    -0.508 OA
ATOM     23  H   UNL A   1      27.155  31.645  21.841  1.00  0.00     0.293 HD
ENDBRANCH  21  22
ENDBRANCH  13  16
ENDBRANCH  10  12
ENDBRANCH   9  10
ENDBRANCH   7   9
ENDBRANCH   6   7
ENDBRANCH   5   6
ENDBRANCH   4   5
ENDBRANCH   3   4
ENDBRANCH   2   3
ENDBRANCH   1   2
BRANCH   1  24
ATOM     24  O   UNL A   1      38.498  22.360  25.117  1.00  0.00    -0.377 OA
BRANCH  24  25
ATOM     25  C   UNL A   1      39.226  22.206  26.333  1.00  0.00     0.188 C 
BRANCH  25  26
ATOM     26  C   UNL A   1      40.345  23.197  26.670  1.00  0.00     0.188 C 
BRANCH  26  27
ATOM     27  O   UNL A   1      41.599  22.571  26.868  1.00  0.00    -0.376 OA
BRANCH  27  28
ATOM     28  C   UNL A   1      42.732  23.002  26.131  1.00  0.00     0.202 C 
BRANCH  28  29
ATOM     29  C   UNL A   1      43.630  24.142  26.643  1.00  0.00     0.261 C 
BRANCH  29  30
ATOM     30  O   UNL A   1      43.670  25.365  25.892  1.00  0.00    -0.460 OA
BRANCH  30  31
ATOM     31  C   UNL A   1      42.610  26.190  25.937  1.00  0.00     0.338 C 
ATOM     32  O   UNL A   1      41.683  26.241  25.142  1.00  0.00    -0.246 OA
BRANCH  31  33
ATOM     33  C   UNL A   1      42.655  26.908  27.227  1.00  0.00     0.060 A 
ATOM     34  C   UNL A   1      42.363  26.206  28.404  1.00  0.00     0.016 A 
ATOM     35  C   UNL A   1      42.958  28.272  27.279  1.00  0.00     0.016 A 
ATOM     36  C   UNL A   1      42.305  26.880  29.624  1.00  0.00     0.010 A 
ATOM     37  C   UNL A   1      42.887  28.950  28.501  1.00  0.00     0.010 A 
ATOM     38  C   UNL A   1      42.510  28.266  29.670  1.00  0.00    -0.014 A 
BRANCH  38  39
ATOM     39  C   UNL A   1      42.124  29.021  30.890  1.00  0.00     0.031 A 
ATOM     40  C   UNL A   1      40.867  29.851  30.849  1.00  0.00     0.074 A 
ATOM     41  C   UNL A   1      42.844  28.942  32.023  1.00  0.00     0.049 A 
ATOM     42  N   UNL A   1      40.334  30.597  31.781  1.00  0.00    -0.248 NA
ATOM     43  C   UNL A   1      40.110  29.837  29.585  1.00  0.00     0.031 C 
ATOM     44  C   UNL A   1      44.050  28.136  32.206  1.00  0.00     0.029 A 
ATOM     45  N   UNL A   1      42.657  29.551  33.240  1.00  0.00    -0.354 N 
ATOM     46  C   UNL A   1      39.187  31.146  31.215  1.00  0.00     0.074 A 
ATOM     47  C   UNL A   1      39.123  30.678  29.849  1.00  0.00     0.031 C 
ATOM     48  C   UNL A   1      44.498  28.304  33.464  1.00  0.00     0.029 A 
ATOM     49  C   UNL A   1      43.631  29.251  34.163  1.00  0.00     0.049 A 
ATOM     50  H   UNL A   1      41.897  30.145  33.434  1.00  0.00     0.167 HD
ATOM     51  C   UNL A   1      38.266  31.962  31.782  1.00  0.00     0.031 A 
ATOM     52  C   UNL A   1      43.812  29.704  35.420  1.00  0.00     0.031 A 
ATOM     53  C   UNL A   1      38.341  32.438  33.138  1.00  0.00     0.049 A 
ATOM     54  C   UNL A   1      42.816  30.674  36.006  1.00  0.00     0.074 A 
ATOM     55  C   UNL A   1      37.452  33.259  33.811  1.00  0.00     0.029 A 
ATOM     56  N   UNL A   1      39.367  32.148  34.025  1.00  0.00    -0.354 N 
ATOM     57  N   UNL A   1      41.725  31.164  35.466  1.00  0.00    -0.248 NA
ATOM     58  C   UNL A   1      43.071  31.139  37.377  1.00  0.00     0.031 C 
ATOM     59  C   UNL A   1      37.975  33.517  35.082  1.00  0.00     0.029 A 
ATOM     60  C   UNL A   1      39.149  32.796  35.229  1.00  0.00     0.049 A 
ATOM     61  H   UNL A   1      40.136  31.565  33.827  1.00  0.00     0.167 HD
ATOM     62  C   UNL A   1      41.147  31.969  36.443  1.00  0.00     0.074 A 
ATOM     63  C   UNL A   1      42.000  31.885  37.611  1.00  0.00     0.031 C 
ATOM     64  C   UNL A   1      40.009  32.706  36.384  1.00  0.00     0.031 A 
BRANCH  51  65
ATOM     65  C   UNL A   1      37.117  32.421  30.922  1.00  0.00    -0.014 A 
ATOM     66  C   UNL A   1      35.996  31.600  30.695  1.00  0.00     0.010 A 
ATOM     67  C   UNL A   1      37.143  33.709  30.357  1.00  0.00     0.010 A 
ATOM     68  C   UNL A   1      34.944  32.044  29.887  1.00  0.00     0.020 A 
ATOM     69  C   UNL A   1      36.079  34.170  29.577  1.00  0.00     0.020 A 
ATOM     70  C   UNL A   1      34.994  33.326  29.333  1.00  0.00     0.054 A 
BRANCH  70  71
ATOM     71  S   UNL A   1      33.604  33.884  28.309  1.00  0.00     0.124 S 
ATOM     72  O   UNL A   1      34.223  34.938  27.509  1.00  0.00    -0.237 OA
ATOM     73  O   UNL A   1      33.240  32.674  27.579  1.00  0.00    -0.237 OA
ATOM     74  O   UNL A   1      32.616  34.343  29.283  1.00  0.00    -0.744 OA
ENDBRANCH  70  71
ENDBRANCH  51  65
BRANCH  52  75
ATOM     75  C   UNL A   1      44.994  29.256  36.211  1.00  0.00    -0.014 A 
ATOM     76  C   UNL A   1      46.231  29.913  36.097  1.00  0.00     0.010 A 
ATOM     77  C   UNL A   1      44.884  28.158  37.084  1.00  0.00     0.010 A 
ATOM     78  C   UNL A   1      47.340  29.472  36.826  1.00  0.00     0.020 A 
ATOM     79  C   UNL A   1      45.981  27.733  37.839  1.00  0.00     0.020 A 
ATOM     80  C   UNL A   1      47.206  28.388  37.698  1.00  0.00     0.054 A 
BRANCH  80  81
ATOM     81  S   UNL A   1      48.643  27.867  38.674  1.00  0.00     0.124 S 
ATOM     82  O   UNL A   1      48.869  26.511  38.186  1.00  0.00    -0.237 OA
ATOM     83  O   UNL A   1      49.651  28.854  38.296  1.00  0.00    -0.237 OA
ATOM     84  O   UNL A   1      48.172  27.966  40.055  1.00  0.00    -0.744 OA
ENDBRANCH  80  81
ENDBRANCH  52  75
BRANCH  64  85
ATOM     85  C   UNL A   1      39.590  33.448  37.628  1.00  0.00    -0.014 A 
ATOM     86  C   UNL A   1      38.656  32.908  38.530  1.00  0.00     0.010 A 
ATOM     87  C   UNL A   1      40.182  34.692  37.922  1.00  0.00     0.010 A 
ATOM     88  C   UNL A   1      38.289  33.616  39.678  1.00  0.00     0.020 A 
ATOM     89  C   UNL A   1      39.845  35.386  39.086  1.00  0.00     0.020 A 
ATOM     90  C   UNL A   1      38.887  34.852  39.949  1.00  0.00     0.054 A 
BRANCH  90  91
ATOM     91  S   UNL A   1      38.416  35.737  41.460  1.00  0.00     0.124 S 
ATOM     92  O   UNL A   1      38.059  37.055  40.942  1.00  0.00    -0.237 OA
ATOM     93  O   UNL A   1      37.303  34.937  41.965  1.00  0.00    -0.237 OA
ATOM     94  O   UNL A   1      39.626  35.697  42.278  1.00  0.00    -0.744 OA
ENDBRANCH  90  91
ENDBRANCH  64  85
ENDBRANCH  38  39
ENDBRANCH  31  33
ENDBRANCH  30  31
ENDBRANCH  29  30
ENDBRANCH  28  29
ENDBRANCH  27  28
ENDBRANCH  26  27
ENDBRANCH  25  26
ENDBRANCH  24  25
ENDBRANCH   1  24
TORSDOF 27
ENDMDL
