MODEL 1
REMARK VINA RESULT:      -9.1      0.000      0.000
REMARK SMILES Cc1cc(C)n([C@@H](C(=O)OCCOCCOCCOCCOC(=O)c2ccc(-c3c4nc(c(-c5ccc(S(=O)(=O)[O-])cc5)c5ccc([nH]5)c(-c5ccc(S(=O)(=O)[O-])cc5)c5nc(c(-c6ccc(S(=O)(=O)[O-])cc6)c6ccc3[nH]6)C=C5)C=C4)cc2)C(C)C)n1
REMARK SMILES IDX 17 1 16 2 15 3 14 4 13 5 12 6 11 7 10 8 8 9 9 10 7 11 6 12
REMARK SMILES IDX 1 13 2 14 3 15 88 16 4 17 5 18 85 19 86 20 87 21 18 22 19 23
REMARK SMILES IDX 20 24 21 25 22 26 23 27 24 28 25 29 26 30 84 31 27 32 83 33
REMARK SMILES IDX 28 34 29 35 30 36 77 37 31 38 82 39 76 40 78 41 32 42 81 43
REMARK SMILES IDX 75 44 74 45 33 47 63 48 44 49 62 50 45 51 48 52 61 53 79 54
REMARK SMILES IDX 46 55 47 56 60 58 80 59 49 60 34 61 35 62 43 63 36 64 42 65
REMARK SMILES IDX 37 66 38 67 39 68 40 69 41 70 64 71 65 72 73 73 66 74 72 75
REMARK SMILES IDX 67 76 68 77 69 78 70 79 71 80 50 81 51 82 59 83 52 84 58 85
REMARK SMILES IDX 53 86 54 87 55 88 56 89 57 90
REMARK H PARENT 78 46 48 57
REMARK Flexibility Score: inf
ROOT
ATOM      1  C   UNL A   1      36.651  20.116  24.809  1.00  0.00     0.188 C 
ENDROOT
BRANCH   1   2
ATOM      2  O   UNL A   1      35.339  20.500  25.159  1.00  0.00    -0.377 OA
BRANCH   2   3
ATOM      3  C   UNL A   1      34.238  19.714  24.777  1.00  0.00     0.188 C 
BRANCH   3   4
ATOM      4  C   UNL A   1      32.915  19.900  25.511  1.00  0.00     0.188 C 
BRANCH   4   5
ATOM      5  O   UNL A   1      32.566  21.172  26.011  1.00  0.00    -0.376 OA
BRANCH   5   6
ATOM      6  C   UNL A   1      31.412  21.809  25.473  1.00  0.00     0.202 C 
BRANCH   6   7
ATOM      7  C   UNL A   1      31.541  23.244  24.909  1.00  0.00     0.261 C 
BRANCH   7   8
ATOM      8  O   UNL A   1      31.318  24.320  25.864  1.00  0.00    -0.462 OA
BRANCH   8   9
ATOM      9  C   UNL A   1      32.323  25.200  26.081  1.00  0.00     0.331 C 
ATOM     10  O   UNL A   1      33.431  24.825  26.471  1.00  0.00    -0.250 OA
BRANCH   9  11
ATOM     11  C   UNL A   1      32.068  26.683  25.735  1.00  0.00     0.219 C 
BRANCH  11  12
ATOM     12  N   UNL A   1      32.080  27.077  24.297  1.00  0.00    -0.255 N 
ATOM     13  C   UNL A   1      32.679  25.785  21.014  1.00  0.00     0.069 C 
ATOM     14  C   UNL A   1      32.335  26.576  22.218  1.00  0.00     0.060 A 
ATOM     15  C   UNL A   1      31.572  27.748  22.242  1.00  0.00     0.048 A 
ATOM     16  N   UNL A   1      32.678  26.186  23.450  1.00  0.00    -0.177 NA
ATOM     17  C   UNL A   1      31.322  28.008  23.574  1.00  0.00     0.037 A 
ATOM     18  C   UNL A   1      30.343  29.034  24.039  1.00  0.00     0.066 C 
ENDBRANCH  11  12
BRANCH  11  19
ATOM     19  C   UNL A   1      32.789  27.693  26.684  1.00  0.00     0.019 C 
ATOM     20  C   UNL A   1      33.935  28.391  25.933  1.00  0.00     0.010 C 
ATOM     21  C   UNL A   1      31.904  28.774  27.315  1.00  0.00     0.010 C 
ENDBRANCH  11  19
ENDBRANCH   9  11
ENDBRANCH   8   9
ENDBRANCH   7   8
ENDBRANCH   6   7
ENDBRANCH   5   6
ENDBRANCH   4   5
ENDBRANCH   3   4
ENDBRANCH   2   3
ENDBRANCH   1   2
BRANCH   1  22
ATOM     22  C   UNL A   1      37.751  21.158  24.985  1.00  0.00     0.188 C 
BRANCH  22  23
ATOM     23  O   UNL A   1      38.552  21.131  26.177  1.00  0.00    -0.376 OA
BRANCH  23  24
ATOM     24  C   UNL A   1      39.934  20.764  26.136  1.00  0.00     0.202 C 
BRANCH  24  25
ATOM     25  C   UNL A   1      40.911  21.912  26.284  1.00  0.00     0.261 C 
BRANCH  25  26
ATOM     26  O   UNL A   1      40.588  22.551  27.506  1.00  0.00    -0.460 OA
BRANCH  26  27
ATOM     27  C   UNL A   1      40.079  23.790  27.355  1.00  0.00     0.338 C 
ATOM     28  O   UNL A   1      38.922  24.139  27.555  1.00  0.00    -0.246 OA
BRANCH  27  29
ATOM     29  C   UNL A   1      41.159  24.679  26.861  1.00  0.00     0.060 A 
ATOM     30  C   UNL A   1      42.201  24.714  27.777  1.00  0.00     0.016 A 
ATOM     31  C   UNL A   1      40.731  25.828  26.179  1.00  0.00     0.016 A 
ATOM     32  C   UNL A   1      42.334  25.891  28.462  1.00  0.00     0.010 A 
ATOM     33  C   UNL A   1      40.850  27.004  26.862  1.00  0.00     0.010 A 
ATOM     34  C   UNL A   1      41.534  26.971  28.072  1.00  0.00    -0.014 A 
BRANCH  34  35
ATOM     35  C   UNL A   1      41.523  28.139  28.909  1.00  0.00     0.031 A 
ATOM     36  C   UNL A   1      42.622  29.038  28.525  1.00  0.00     0.074 A 
ATOM     37  C   UNL A   1      40.572  28.380  29.826  1.00  0.00     0.049 A 
ATOM     38  N   UNL A   1      43.789  29.109  29.074  1.00  0.00    -0.248 NA
ATOM     39  C   UNL A   1      42.534  29.667  27.194  1.00  0.00     0.031 C 
ATOM     40  C   UNL A   1      39.306  27.685  30.073  1.00  0.00     0.029 A 
ATOM     41  N   UNL A   1      40.518  29.409  30.701  1.00  0.00    -0.354 N 
ATOM     42  C   UNL A   1      44.489  29.999  28.277  1.00  0.00     0.074 A 
ATOM     43  C   UNL A   1      43.803  30.027  27.013  1.00  0.00     0.031 C 
ATOM     44  C   UNL A   1      38.516  28.468  30.851  1.00  0.00     0.029 A 
ATOM     45  C   UNL A   1      39.270  29.644  31.256  1.00  0.00     0.049 A 
ATOM     46  H   UNL A   1      41.308  29.951  30.928  1.00  0.00     0.167 HD
ATOM     47  C   UNL A   1      45.336  30.915  28.819  1.00  0.00     0.031 A 
ATOM     48  C   UNL A   1      38.901  30.778  31.911  1.00  0.00     0.031 A 
ATOM     49  C   UNL A   1      45.650  30.593  30.189  1.00  0.00     0.049 A 
ATOM     50  C   UNL A   1      40.161  31.472  32.309  1.00  0.00     0.074 A 
ATOM     51  C   UNL A   1      46.267  29.527  30.815  1.00  0.00     0.029 A 
ATOM     52  N   UNL A   1      44.915  31.237  31.160  1.00  0.00    -0.354 N 
ATOM     53  N   UNL A   1      41.008  30.967  33.167  1.00  0.00    -0.248 NA
ATOM     54  C   UNL A   1      40.731  32.437  31.378  1.00  0.00     0.031 C 
ATOM     55  C   UNL A   1      45.523  29.320  32.012  1.00  0.00     0.029 A 
ATOM     56  C   UNL A   1      44.539  30.309  32.100  1.00  0.00     0.049 A 
ATOM     57  H   UNL A   1      44.697  32.196  31.177  1.00  0.00     0.167 HD
ATOM     58  C   UNL A   1      42.266  31.215  32.629  1.00  0.00     0.074 A 
ATOM     59  C   UNL A   1      42.033  32.191  31.562  1.00  0.00     0.031 C 
ATOM     60  C   UNL A   1      43.325  30.389  32.890  1.00  0.00     0.031 A 
BRANCH  47  61
ATOM     61  C   UNL A   1      45.491  32.305  28.253  1.00  0.00    -0.014 A 
ATOM     62  C   UNL A   1      46.741  32.683  27.734  1.00  0.00     0.010 A 
ATOM     63  C   UNL A   1      44.541  33.334  28.436  1.00  0.00     0.010 A 
ATOM     64  C   UNL A   1      47.040  34.028  27.479  1.00  0.00     0.020 A 
ATOM     65  C   UNL A   1      44.810  34.667  28.144  1.00  0.00     0.020 A 
ATOM     66  C   UNL A   1      46.074  35.011  27.699  1.00  0.00     0.054 A 
BRANCH  66  67
ATOM     67  S   UNL A   1      46.498  36.751  27.471  1.00  0.00     0.124 S 
ATOM     68  O   UNL A   1      47.602  36.668  26.521  1.00  0.00    -0.237 OA
ATOM     69  O   UNL A   1      45.249  37.303  26.953  1.00  0.00    -0.237 OA
ATOM     70  O   UNL A   1      46.859  37.195  28.815  1.00  0.00    -0.744 OA
ENDBRANCH  66  67
ENDBRANCH  47  61
BRANCH  48  71
ATOM     71  C   UNL A   1      37.583  31.470  31.834  1.00  0.00    -0.014 A 
ATOM     72  C   UNL A   1      36.669  31.461  32.904  1.00  0.00     0.010 A 
ATOM     73  C   UNL A   1      37.335  32.375  30.780  1.00  0.00     0.010 A 
ATOM     74  C   UNL A   1      35.571  32.345  32.933  1.00  0.00     0.020 A 
ATOM     75  C   UNL A   1      36.246  33.255  30.800  1.00  0.00     0.020 A 
ATOM     76  C   UNL A   1      35.375  33.249  31.885  1.00  0.00     0.054 A 
BRANCH  76  77
ATOM     77  S   UNL A   1      34.045  34.487  31.988  1.00  0.00     0.124 S 
ATOM     78  O   UNL A   1      33.537  34.514  30.619  1.00  0.00    -0.237 OA
ATOM     79  O   UNL A   1      33.147  33.910  32.983  1.00  0.00    -0.237 OA
ATOM     80  O   UNL A   1      34.737  35.703  32.414  1.00  0.00    -0.744 OA
ENDBRANCH  76  77
ENDBRANCH  48  71
BRANCH  60  81
ATOM     81  C   UNL A   1      43.153  29.321  33.952  1.00  0.00    -0.014 A 
ATOM     82  C   UNL A   1      43.418  29.524  35.324  1.00  0.00     0.010 A 
ATOM     83  C   UNL A   1      42.530  28.122  33.567  1.00  0.00     0.010 A 
ATOM     84  C   UNL A   1      43.083  28.545  36.276  1.00  0.00     0.020 A 
ATOM     85  C   UNL A   1      42.179  27.152  34.510  1.00  0.00     0.020 A 
ATOM     86  C   UNL A   1      42.463  27.363  35.859  1.00  0.00     0.054 A 
BRANCH  86  87
ATOM     87  S   UNL A   1      41.982  26.117  37.091  1.00  0.00     0.124 S 
ATOM     88  O   UNL A   1      40.591  26.465  37.366  1.00  0.00    -0.237 OA
ATOM     89  O   UNL A   1      42.187  24.858  36.377  1.00  0.00    -0.237 OA
ATOM     90  O   UNL A   1      42.907  26.348  38.200  1.00  0.00    -0.744 OA
ENDBRANCH  86  87
ENDBRANCH  60  81
ENDBRANCH  34  35
ENDBRANCH  27  29
ENDBRANCH  26  27
ENDBRANCH  25  26
ENDBRANCH  24  25
ENDBRANCH  23  24
ENDBRANCH  22  23
ENDBRANCH   1  22
TORSDOF 25
ENDMDL
MODEL 2
REMARK VINA RESULT:      -9.0      2.842      9.680
REMARK SMILES Cc1cc(C)n([C@@H](C(=O)OCCOCCOCCOCCOC(=O)c2ccc(-c3c4nc(c(-c5ccc(S(=O)(=O)[O-])cc5)c5ccc([nH]5)c(-c5ccc(S(=O)(=O)[O-])cc5)c5nc(c(-c6ccc(S(=O)(=O)[O-])cc6)c6ccc3[nH]6)C=C5)C=C4)cc2)C(C)C)n1
REMARK SMILES IDX 17 1 16 2 15 3 14 4 13 5 12 6 11 7 10 8 8 9 9 10 7 11 6 12
REMARK SMILES IDX 1 13 2 14 3 15 88 16 4 17 5 18 85 19 86 20 87 21 18 22 19 23
REMARK SMILES IDX 20 24 21 25 22 26 23 27 24 28 25 29 26 30 84 31 27 32 83 33
REMARK SMILES IDX 28 34 29 35 30 36 77 37 31 38 82 39 76 40 78 41 32 42 81 43
REMARK SMILES IDX 75 44 74 45 33 47 63 48 44 49 62 50 45 51 48 52 61 53 79 54
REMARK SMILES IDX 46 55 47 56 60 58 80 59 49 60 34 61 35 62 43 63 36 64 42 65
REMARK SMILES IDX 37 66 38 67 39 68 40 69 41 70 64 71 65 72 73 73 66 74 72 75
REMARK SMILES IDX 67 76 68 77 69 78 70 79 71 80 50 81 51 82 59 83 52 84 58 85
REMARK SMILES IDX 53 86 54 87 55 88 56 89 57 90
REMARK H PARENT 78 46 48 57
REMARK Flexibility Score: inf
ROOT
ATOM      1  C   UNL A   1      33.030  29.935  26.395  1.00  0.00     0.188 C 
ENDROOT
BRANCH   1   2
ATOM      2  O   UNL A   1      31.935  29.065  26.206  1.00  0.00    -0.377 OA
BRANCH   2   3
ATOM      3  C   UNL A   1      31.606  28.107  27.181  1.00  0.00     0.188 C 
BRANCH   3   4
ATOM      4  C   UNL A   1      31.407  26.659  26.748  1.00  0.00     0.188 C 
BRANCH   4   5
ATOM      5  O   UNL A   1      30.538  26.364  25.676  1.00  0.00    -0.376 OA
BRANCH   5   6
ATOM      6  C   UNL A   1      31.056  25.613  24.582  1.00  0.00     0.202 C 
BRANCH   6   7
ATOM      7  C   UNL A   1      30.863  24.078  24.568  1.00  0.00     0.261 C 
BRANCH   7   8
ATOM      8  O   UNL A   1      30.851  23.431  25.872  1.00  0.00    -0.462 OA
BRANCH   8   9
ATOM      9  C   UNL A   1      32.025  22.982  26.373  1.00  0.00     0.331 C 
ATOM     10  O   UNL A   1      32.198  22.856  27.587  1.00  0.00    -0.250 OA
BRANCH   9  11
ATOM     11  C   UNL A   1      33.115  22.546  25.370  1.00  0.00     0.219 C 
BRANCH  11  12
ATOM     12  N   UNL A   1      33.043  21.161  24.821  1.00  0.00    -0.255 N 
ATOM     13  C   UNL A   1      32.623  17.745  25.802  1.00  0.00     0.069 C 
ATOM     14  C   UNL A   1      32.776  19.043  25.103  1.00  0.00     0.060 A 
ATOM     15  C   UNL A   1      32.496  19.290  23.756  1.00  0.00     0.048 A 
ATOM     16  N   UNL A   1      33.144  20.157  25.744  1.00  0.00    -0.177 NA
ATOM     17  C   UNL A   1      32.564  20.660  23.602  1.00  0.00     0.037 A 
ATOM     18  C   UNL A   1      32.102  21.371  22.374  1.00  0.00     0.066 C 
ENDBRANCH  11  12
BRANCH  11  19
ATOM     19  C   UNL A   1      34.556  23.013  25.749  1.00  0.00     0.019 C 
ATOM     20  C   UNL A   1      35.595  22.061  25.133  1.00  0.00     0.010 C 
ATOM     21  C   UNL A   1      34.926  24.445  25.351  1.00  0.00     0.010 C 
ENDBRANCH  11  19
ENDBRANCH   9  11
ENDBRANCH   8   9
ENDBRANCH   7   8
ENDBRANCH   6   7
ENDBRANCH   5   6
ENDBRANCH   4   5
ENDBRANCH   3   4
ENDBRANCH   2   3
ENDBRANCH   1   2
BRANCH   1  22
ATOM     22  C   UNL A   1      32.790  31.179  27.244  1.00  0.00     0.188 C 
BRANCH  22  23
ATOM     23  O   UNL A   1      33.921  31.939  27.702  1.00  0.00    -0.376 OA
BRANCH  23  24
ATOM     24  C   UNL A   1      33.750  33.165  28.421  1.00  0.00     0.202 C 
BRANCH  24  25
ATOM     25  C   UNL A   1      34.538  33.270  29.711  1.00  0.00     0.261 C 
BRANCH  25  26
ATOM     26  O   UNL A   1      34.576  31.965  30.259  1.00  0.00    -0.460 OA
BRANCH  26  27
ATOM     27  C   UNL A   1      35.821  31.468  30.397  1.00  0.00     0.338 C 
ATOM     28  O   UNL A   1      36.456  31.357  31.438  1.00  0.00    -0.246 OA
BRANCH  27  29
ATOM     29  C   UNL A   1      36.328  31.101  29.052  1.00  0.00     0.060 A 
ATOM     30  C   UNL A   1      36.375  29.720  28.923  1.00  0.00     0.016 A 
ATOM     31  C   UNL A   1      37.338  31.930  28.541  1.00  0.00     0.016 A 
ATOM     32  C   UNL A   1      37.631  29.180  28.910  1.00  0.00     0.010 A 
ATOM     33  C   UNL A   1      38.596  31.401  28.537  1.00  0.00     0.010 A 
ATOM     34  C   UNL A   1      38.722  30.056  28.867  1.00  0.00    -0.014 A 
BRANCH  34  35
ATOM     35  C   UNL A   1      40.036  29.506  29.057  1.00  0.00     0.031 A 
ATOM     36  C   UNL A   1      40.379  29.515  30.488  1.00  0.00     0.074 A 
ATOM     37  C   UNL A   1      40.765  28.980  28.060  1.00  0.00     0.049 A 
ATOM     38  N   UNL A   1      41.068  30.412  31.111  1.00  0.00    -0.248 NA
ATOM     39  C   UNL A   1      39.592  28.630  31.367  1.00  0.00     0.031 C 
ATOM     40  C   UNL A   1      40.389  28.680  26.676  1.00  0.00     0.029 A 
ATOM     41  N   UNL A   1      42.030  28.507  28.131  1.00  0.00    -0.354 N 
ATOM     42  C   UNL A   1      40.995  30.037  32.442  1.00  0.00     0.074 A 
ATOM     43  C   UNL A   1      39.846  29.180  32.552  1.00  0.00     0.031 C 
ATOM     44  C   UNL A   1      41.319  27.852  26.135  1.00  0.00     0.029 A 
ATOM     45  C   UNL A   1      42.407  27.678  27.086  1.00  0.00     0.049 A 
ATOM     46  H   UNL A   1      42.638  28.735  28.870  1.00  0.00     0.167 HD
ATOM     47  C   UNL A   1      42.074  30.143  33.264  1.00  0.00     0.031 A 
ATOM     48  C   UNL A   1      43.491  26.856  27.084  1.00  0.00     0.031 A 
ATOM     49  C   UNL A   1      43.093  30.983  32.685  1.00  0.00     0.049 A 
ATOM     50  C   UNL A   1      44.402  27.347  28.161  1.00  0.00     0.074 A 
ATOM     51  C   UNL A   1      43.151  32.308  32.299  1.00  0.00     0.029 A 
ATOM     52  N   UNL A   1      44.119  30.344  32.023  1.00  0.00    -0.354 N 
ATOM     53  N   UNL A   1      44.987  28.514  28.116  1.00  0.00    -0.248 NA
ATOM     54  C   UNL A   1      44.236  26.793  29.498  1.00  0.00     0.031 C 
ATOM     55  C   UNL A   1      43.910  32.310  31.093  1.00  0.00     0.029 A 
ATOM     56  C   UNL A   1      44.344  31.005  30.840  1.00  0.00     0.049 A 
ATOM     57  H   UNL A   1      44.606  29.551  32.342  1.00  0.00     0.167 HD
ATOM     58  C   UNL A   1      44.884  29.026  29.404  1.00  0.00     0.074 A 
ATOM     59  C   UNL A   1      44.477  27.887  30.230  1.00  0.00     0.031 C 
ATOM     60  C   UNL A   1      44.839  30.374  29.631  1.00  0.00     0.031 A 
BRANCH  47  61
ATOM     61  C   UNL A   1      42.368  29.132  34.344  1.00  0.00    -0.014 A 
ATOM     62  C   UNL A   1      42.855  27.869  33.967  1.00  0.00     0.010 A 
ATOM     63  C   UNL A   1      41.952  29.278  35.686  1.00  0.00     0.010 A 
ATOM     64  C   UNL A   1      42.858  26.797  34.869  1.00  0.00     0.020 A 
ATOM     65  C   UNL A   1      41.993  28.234  36.605  1.00  0.00     0.020 A 
ATOM     66  C   UNL A   1      42.414  26.987  36.179  1.00  0.00     0.054 A 
BRANCH  66  67
ATOM     67  S   UNL A   1      42.321  25.580  37.306  1.00  0.00     0.124 S 
ATOM     68  O   UNL A   1      42.975  26.108  38.498  1.00  0.00    -0.237 OA
ATOM     69  O   UNL A   1      40.879  25.368  37.410  1.00  0.00    -0.237 OA
ATOM     70  O   UNL A   1      43.051  24.528  36.603  1.00  0.00    -0.744 OA
ENDBRANCH  66  67
ENDBRANCH  47  61
BRANCH  48  71
ATOM     71  C   UNL A   1      43.573  25.481  26.517  1.00  0.00    -0.014 A 
ATOM     72  C   UNL A   1      43.820  25.249  25.150  1.00  0.00     0.010 A 
ATOM     73  C   UNL A   1      43.669  24.375  27.387  1.00  0.00     0.010 A 
ATOM     74  C   UNL A   1      44.181  23.969  24.681  1.00  0.00     0.020 A 
ATOM     75  C   UNL A   1      44.026  23.100  26.930  1.00  0.00     0.020 A 
ATOM     76  C   UNL A   1      44.297  22.904  25.579  1.00  0.00     0.054 A 
BRANCH  76  77
ATOM     77  S   UNL A   1      44.901  21.287  25.001  1.00  0.00     0.124 S 
ATOM     78  O   UNL A   1      46.285  21.286  25.465  1.00  0.00    -0.237 OA
ATOM     79  O   UNL A   1      44.008  20.352  25.678  1.00  0.00    -0.237 OA
ATOM     80  O   UNL A   1      44.736  21.356  23.550  1.00  0.00    -0.744 OA
ENDBRANCH  76  77
ENDBRANCH  48  71
BRANCH  60  81
ATOM     81  C   UNL A   1      45.125  31.304  28.468  1.00  0.00    -0.014 A 
ATOM     82  C   UNL A   1      44.273  31.455  27.353  1.00  0.00     0.010 A 
ATOM     83  C   UNL A   1      46.210  32.188  28.599  1.00  0.00     0.010 A 
ATOM     84  C   UNL A   1      44.514  32.452  26.391  1.00  0.00     0.020 A 
ATOM     85  C   UNL A   1      46.446  33.191  27.655  1.00  0.00     0.020 A 
ATOM     86  C   UNL A   1      45.602  33.315  26.551  1.00  0.00     0.054 A 
BRANCH  86  87
ATOM     87  S   UNL A   1      45.889  34.637  25.338  1.00  0.00     0.124 S 
ATOM     88  O   UNL A   1      47.296  34.449  24.993  1.00  0.00    -0.237 OA
ATOM     89  O   UNL A   1      44.933  34.320  24.279  1.00  0.00    -0.237 OA
ATOM     90  O   UNL A   1      45.594  35.861  26.080  1.00  0.00    -0.744 OA
ENDBRANCH  86  87
ENDBRANCH  60  81
ENDBRANCH  34  35
ENDBRANCH  27  29
ENDBRANCH  26  27
ENDBRANCH  25  26
ENDBRANCH  24  25
ENDBRANCH  23  24
ENDBRANCH  22  23
ENDBRANCH   1  22
TORSDOF 25
ENDMDL
MODEL 3
REMARK VINA RESULT:      -8.9      1.874      2.719
REMARK SMILES Cc1cc(C)n([C@@H](C(=O)OCCOCCOCCOCCOC(=O)c2ccc(-c3c4nc(c(-c5ccc(S(=O)(=O)[O-])cc5)c5ccc([nH]5)c(-c5ccc(S(=O)(=O)[O-])cc5)c5nc(c(-c6ccc(S(=O)(=O)[O-])cc6)c6ccc3[nH]6)C=C5)C=C4)cc2)C(C)C)n1
REMARK SMILES IDX 17 1 16 2 15 3 14 4 13 5 12 6 11 7 10 8 8 9 9 10 7 11 6 12
REMARK SMILES IDX 1 13 2 14 3 15 88 16 4 17 5 18 85 19 86 20 87 21 18 22 19 23
REMARK SMILES IDX 20 24 21 25 22 26 23 27 24 28 25 29 26 30 84 31 27 32 83 33
REMARK SMILES IDX 28 34 29 35 30 36 77 37 31 38 82 39 76 40 78 41 32 42 81 43
REMARK SMILES IDX 75 44 74 45 33 47 63 48 44 49 62 50 45 51 48 52 61 53 79 54
REMARK SMILES IDX 46 55 47 56 60 58 80 59 49 60 34 61 35 62 43 63 36 64 42 65
REMARK SMILES IDX 37 66 38 67 39 68 40 69 41 70 64 71 65 72 73 73 66 74 72 75
REMARK SMILES IDX 67 76 68 77 69 78 70 79 71 80 50 81 51 82 59 83 52 84 58 85
REMARK SMILES IDX 53 86 54 87 55 88 56 89 57 90
REMARK H PARENT 78 46 48 57
REMARK Flexibility Score: inf
ROOT
ATOM      1  C   UNL A   1      37.505  21.362  24.752  1.00  0.00     0.188 C 
ENDROOT
BRANCH   1   2
ATOM      2  O   UNL A   1      36.415  20.675  25.328  1.00  0.00    -0.377 OA
BRANCH   2   3
ATOM      3  C   UNL A   1      35.320  21.385  25.852  1.00  0.00     0.188 C 
BRANCH   3   4
ATOM      4  C   UNL A   1      35.490  22.866  26.170  1.00  0.00     0.188 C 
BRANCH   4   5
ATOM      5  O   UNL A   1      34.414  23.587  26.729  1.00  0.00    -0.376 OA
BRANCH   5   6
ATOM      6  C   UNL A   1      33.258  23.795  25.924  1.00  0.00     0.202 C 
BRANCH   6   7
ATOM      7  C   UNL A   1      32.161  24.765  26.423  1.00  0.00     0.261 C 
BRANCH   7   8
ATOM      8  O   UNL A   1      31.680  25.731  25.446  1.00  0.00    -0.462 OA
BRANCH   8   9
ATOM      9  C   UNL A   1      32.266  26.950  25.413  1.00  0.00     0.331 C 
ATOM     10  O   UNL A   1      33.031  27.319  26.306  1.00  0.00    -0.250 OA
BRANCH   9  11
ATOM     11  C   UNL A   1      32.016  27.834  24.171  1.00  0.00     0.219 C 
BRANCH  11  12
ATOM     12  N   UNL A   1      30.623  28.298  23.914  1.00  0.00    -0.255 N 
ATOM     13  C   UNL A   1      28.747  31.110  22.739  1.00  0.00     0.069 C 
ATOM     14  C   UNL A   1      29.244  29.800  23.221  1.00  0.00     0.060 A 
ATOM     15  C   UNL A   1      28.550  28.588  23.171  1.00  0.00     0.048 A 
ATOM     16  N   UNL A   1      30.481  29.642  23.703  1.00  0.00    -0.177 NA
ATOM     17  C   UNL A   1      29.466  27.615  23.514  1.00  0.00     0.037 A 
ATOM     18  C   UNL A   1      29.207  26.154  23.358  1.00  0.00     0.066 C 
ENDBRANCH  11  12
BRANCH  11  19
ATOM     19  C   UNL A   1      32.786  27.373  22.893  1.00  0.00     0.019 C 
ATOM     20  C   UNL A   1      33.706  28.501  22.399  1.00  0.00     0.010 C 
ATOM     21  C   UNL A   1      33.627  26.100  23.036  1.00  0.00     0.010 C 
ENDBRANCH  11  19
ENDBRANCH   9  11
ENDBRANCH   8   9
ENDBRANCH   7   8
ENDBRANCH   6   7
ENDBRANCH   5   6
ENDBRANCH   4   5
ENDBRANCH   3   4
ENDBRANCH   2   3
ENDBRANCH   1   2
BRANCH   1  22
ATOM     22  C   UNL A   1      38.544  21.943  25.706  1.00  0.00     0.188 C 
BRANCH  22  23
ATOM     23  O   UNL A   1      39.305  21.050  26.535  1.00  0.00    -0.376 OA
BRANCH  23  24
ATOM     24  C   UNL A   1      40.124  20.024  25.965  1.00  0.00     0.202 C 
BRANCH  24  25
ATOM     25  C   UNL A   1      41.594  20.099  26.325  1.00  0.00     0.261 C 
BRANCH  25  26
ATOM     26  O   UNL A   1      42.003  21.425  26.042  1.00  0.00    -0.460 OA
BRANCH  26  27
ATOM     27  C   UNL A   1      42.578  22.053  27.087  1.00  0.00     0.338 C 
ATOM     28  O   UNL A   1      42.383  21.830  28.276  1.00  0.00    -0.246 OA
BRANCH  27  29
ATOM     29  C   UNL A   1      43.478  23.107  26.559  1.00  0.00     0.060 A 
ATOM     30  C   UNL A   1      44.419  23.452  27.519  1.00  0.00     0.016 A 
ATOM     31  C   UNL A   1      42.867  24.068  25.739  1.00  0.00     0.016 A 
ATOM     32  C   UNL A   1      44.250  24.686  28.082  1.00  0.00     0.010 A 
ATOM     33  C   UNL A   1      42.684  25.299  26.301  1.00  0.00     0.010 A 
ATOM     34  C   UNL A   1      43.270  25.526  27.541  1.00  0.00    -0.014 A 
BRANCH  34  35
ATOM     35  C   UNL A   1      42.951  26.734  28.251  1.00  0.00     0.031 A 
ATOM     36  C   UNL A   1      44.031  27.718  28.071  1.00  0.00     0.074 A 
ATOM     37  C   UNL A   1      41.785  26.930  28.886  1.00  0.00     0.049 A 
ATOM     38  N   UNL A   1      45.014  27.941  28.878  1.00  0.00    -0.248 NA
ATOM     39  C   UNL A   1      44.225  28.253  26.710  1.00  0.00     0.031 C 
ATOM     40  C   UNL A   1      40.561  26.125  28.876  1.00  0.00     0.029 A 
ATOM     41  N   UNL A   1      41.427  28.000  29.633  1.00  0.00    -0.354 N 
ATOM     42  C   UNL A   1      45.812  28.849  28.204  1.00  0.00     0.074 A 
ATOM     43  C   UNL A   1      45.463  28.730  26.813  1.00  0.00     0.031 C 
ATOM     44  C   UNL A   1      39.539  26.868  29.371  1.00  0.00     0.029 A 
ATOM     45  C   UNL A   1      40.066  28.138  29.847  1.00  0.00     0.049 A 
ATOM     46  H   UNL A   1      42.087  28.632  29.998  1.00  0.00     0.167 HD
ATOM     47  C   UNL A   1      46.417  29.878  28.856  1.00  0.00     0.031 A 
ATOM     48  C   UNL A   1      39.449  29.265  30.296  1.00  0.00     0.031 A 
ATOM     49  C   UNL A   1      46.406  29.672  30.283  1.00  0.00     0.049 A 
ATOM     50  C   UNL A   1      40.507  30.107  30.929  1.00  0.00     0.074 A 
ATOM     51  C   UNL A   1      46.935  28.716  31.127  1.00  0.00     0.029 A 
ATOM     52  N   UNL A   1      45.399  30.294  30.990  1.00  0.00    -0.354 N 
ATOM     53  N   UNL A   1      41.153  29.744  32.005  1.00  0.00    -0.248 NA
ATOM     54  C   UNL A   1      41.207  31.068  30.086  1.00  0.00     0.031 C 
ATOM     55  C   UNL A   1      45.936  28.504  32.121  1.00  0.00     0.029 A 
ATOM     56  C   UNL A   1      44.881  29.391  31.885  1.00  0.00     0.049 A 
ATOM     57  H   UNL A   1      45.103  31.225  30.873  1.00  0.00     0.167 HD
ATOM     58  C   UNL A   1      42.479  30.088  31.770  1.00  0.00     0.074 A 
ATOM     59  C   UNL A   1      42.438  30.969  30.601  1.00  0.00     0.031 C 
ATOM     60  C   UNL A   1      43.506  29.393  32.347  1.00  0.00     0.031 A 
BRANCH  47  61
ATOM     61  C   UNL A   1      46.589  31.240  28.231  1.00  0.00    -0.014 A 
ATOM     62  C   UNL A   1      45.440  31.995  27.939  1.00  0.00     0.010 A 
ATOM     63  C   UNL A   1      47.809  31.704  27.690  1.00  0.00     0.010 A 
ATOM     64  C   UNL A   1      45.505  33.111  27.095  1.00  0.00     0.020 A 
ATOM     65  C   UNL A   1      47.894  32.837  26.887  1.00  0.00     0.020 A 
ATOM     66  C   UNL A   1      46.732  33.515  26.565  1.00  0.00     0.054 A 
BRANCH  66  67
ATOM     67  S   UNL A   1      46.794  34.888  25.395  1.00  0.00     0.124 S 
ATOM     68  O   UNL A   1      45.747  34.522  24.448  1.00  0.00    -0.237 OA
ATOM     69  O   UNL A   1      46.507  36.034  26.253  1.00  0.00    -0.237 OA
ATOM     70  O   UNL A   1      48.158  34.833  24.874  1.00  0.00    -0.744 OA
ENDBRANCH  66  67
ENDBRANCH  47  61
BRANCH  48  71
ATOM     71  C   UNL A   1      38.139  29.811  29.844  1.00  0.00    -0.014 A 
ATOM     72  C   UNL A   1      37.152  30.237  30.753  1.00  0.00     0.010 A 
ATOM     73  C   UNL A   1      37.963  30.162  28.489  1.00  0.00     0.010 A 
ATOM     74  C   UNL A   1      36.052  31.010  30.327  1.00  0.00     0.020 A 
ATOM     75  C   UNL A   1      36.873  30.928  28.056  1.00  0.00     0.020 A 
ATOM     76  C   UNL A   1      35.929  31.365  28.980  1.00  0.00     0.054 A 
BRANCH  76  77
ATOM     77  S   UNL A   1      34.592  32.481  28.451  1.00  0.00     0.124 S 
ATOM     78  O   UNL A   1      35.288  33.401  27.558  1.00  0.00    -0.237 OA
ATOM     79  O   UNL A   1      33.649  31.569  27.809  1.00  0.00    -0.237 OA
ATOM     80  O   UNL A   1      34.121  33.072  29.703  1.00  0.00    -0.744 OA
ENDBRANCH  76  77
ENDBRANCH  48  71
BRANCH  60  81
ATOM     81  C   UNL A   1      43.166  28.378  33.422  1.00  0.00    -0.014 A 
ATOM     82  C   UNL A   1      42.866  27.024  33.158  1.00  0.00     0.010 A 
ATOM     83  C   UNL A   1      43.333  28.773  34.760  1.00  0.00     0.010 A 
ATOM     84  C   UNL A   1      42.721  26.100  34.209  1.00  0.00     0.020 A 
ATOM     85  C   UNL A   1      43.207  27.857  35.807  1.00  0.00     0.020 A 
ATOM     86  C   UNL A   1      42.894  26.526  35.529  1.00  0.00     0.054 A 
BRANCH  86  87
ATOM     87  S   UNL A   1      42.758  25.327  36.887  1.00  0.00     0.124 S 
ATOM     88  O   UNL A   1      41.560  24.574  36.525  1.00  0.00    -0.237 OA
ATOM     89  O   UNL A   1      44.016  24.589  36.798  1.00  0.00    -0.237 OA
ATOM     90  O   UNL A   1      42.623  26.163  38.079  1.00  0.00    -0.744 OA
ENDBRANCH  86  87
ENDBRANCH  60  81
ENDBRANCH  34  35
ENDBRANCH  27  29
ENDBRANCH  26  27
ENDBRANCH  25  26
ENDBRANCH  24  25
ENDBRANCH  23  24
ENDBRANCH  22  23
ENDBRANCH   1  22
TORSDOF 25
ENDMDL
