MODEL 1
REMARK VINA RESULT:      -8.8      0.000      0.000
REMARK SMILES CCc1ccc2c(CC(=O)OCCOCCOCCOCCOC(=O)c3ccc(-c4c5nc(c(-c6ccc(S(=O)(=O)[O-])cc6)c6ccc([nH]6)c(-c6ccc(S(=O)(=O)[O-])cc6)c6nc(c(-c7ccc(S(=O)(=O)[O-])cc7)c7ccc4[nH]7)C=C6)C=C5)cc3)c(C(=O)c3cc(C)ccn3)[nH]c2c1
REMARK SMILES IDX 17 1 16 2 15 3 14 4 13 5 12 6 11 7 9 8 10 9 8 10 7 11 3 12
REMARK SMILES IDX 4 13 98 14 5 15 97 16 6 17 96 18 86 19 2 21 1 22 87 23 88 24
REMARK SMILES IDX 89 25 90 26 95 27 91 28 94 29 92 30 93 31 18 32 19 33 20 34
REMARK SMILES IDX 21 35 22 36 23 37 24 38 25 39 26 40 27 41 85 42 28 43 84 44
REMARK SMILES IDX 29 45 30 46 31 47 78 48 32 49 83 50 77 51 79 52 33 53 82 54
REMARK SMILES IDX 76 55 75 56 34 58 64 59 45 60 63 61 46 62 49 63 62 64 80 65
REMARK SMILES IDX 47 66 48 67 61 69 81 70 50 71 35 72 36 73 44 74 37 75 43 76
REMARK SMILES IDX 38 77 39 78 40 79 41 80 42 81 65 82 66 83 74 84 67 85 73 86
REMARK SMILES IDX 68 87 69 88 70 89 71 90 72 91 51 92 52 93 60 94 53 95 59 96
REMARK SMILES IDX 54 97 55 98 56 99 57 100 58 101
REMARK H PARENT 96 20 79 57 49 68
REMARK Flexibility Score: inf
ROOT
ATOM      1  O   UNL A   1      42.452  39.825  28.590  1.00  0.00    -0.377 OA
ENDROOT
BRANCH   1   2
ATOM      2  C   UNL A   1      41.727  40.559  27.617  1.00  0.00     0.188 C 
BRANCH   2   3
ATOM      3  C   UNL A   1      42.216  40.418  26.157  1.00  0.00     0.188 C 
BRANCH   3   4
ATOM      4  O   UNL A   1      41.704  41.246  25.116  1.00  0.00    -0.376 OA
BRANCH   4   5
ATOM      5  C   UNL A   1      42.611  41.965  24.300  1.00  0.00     0.202 C 
BRANCH   5   6
ATOM      6  C   UNL A   1      42.041  42.693  23.064  1.00  0.00     0.261 C 
BRANCH   6   7
ATOM      7  O   UNL A   1      42.565  42.279  21.778  1.00  0.00    -0.463 OA
BRANCH   7   8
ATOM      8  C   UNL A   1      42.072  42.899  20.681  1.00  0.00     0.310 C 
ATOM      9  O   UNL A   1      41.017  43.535  20.689  1.00  0.00    -0.252 OA
BRANCH   8  10
ATOM     10  C   UNL A   1      42.888  42.792  19.395  1.00  0.00     0.161 C 
BRANCH  10  11
ATOM     11  C   UNL A   1      43.799  43.903  18.891  1.00  0.00     0.000 A 
ATOM     12  C   UNL A   1      43.024  47.597  16.948  1.00  0.00    -0.046 A 
ATOM     13  C   UNL A   1      41.948  46.706  17.033  1.00  0.00     0.004 A 
ATOM     14  C   UNL A   1      44.293  47.172  17.377  1.00  0.00     0.030 A 
ATOM     15  C   UNL A   1      42.090  45.436  17.614  1.00  0.00     0.011 A 
ATOM     16  C   UNL A   1      44.409  45.908  17.972  1.00  0.00     0.046 A 
ATOM     17  C   UNL A   1      43.339  45.039  18.132  1.00  0.00     0.004 A 
ATOM     18  N   UNL A   1      45.511  45.278  18.491  1.00  0.00    -0.352 N 
ATOM     19  C   UNL A   1      45.151  44.161  19.219  1.00  0.00     0.093 A 
ATOM     20  H   UNL A   1      46.437  45.582  18.360  1.00  0.00     0.167 HD
BRANCH  12  21
ATOM     21  C   UNL A   1      42.888  48.989  16.367  1.00  0.00     0.032 C 
ATOM     22  C   UNL A   1      44.069  49.926  16.599  1.00  0.00     0.009 C 
ENDBRANCH  12  21
BRANCH  19  23
ATOM     23  C   UNL A   1      46.055  43.415  20.107  1.00  0.00     0.227 C 
ATOM     24  O   UNL A   1      46.522  42.323  19.786  1.00  0.00    -0.285 OA
BRANCH  23  25
ATOM     25  C   UNL A   1      46.492  43.969  21.444  1.00  0.00     0.113 A 
ATOM     26  C   UNL A   1      45.651  44.053  22.555  1.00  0.00     0.036 A 
ATOM     27  N   UNL A   1      47.798  44.351  21.496  1.00  0.00    -0.253 NA
ATOM     28  C   UNL A   1      46.160  44.590  23.751  1.00  0.00    -0.047 A 
ATOM     29  C   UNL A   1      48.268  44.837  22.663  1.00  0.00     0.112 A 
ATOM     30  C   UNL A   1      45.314  44.747  24.982  1.00  0.00     0.044 C 
ATOM     31  C   UNL A   1      47.491  45.008  23.791  1.00  0.00     0.023 A 
ENDBRANCH  23  25
ENDBRANCH  19  23
ENDBRANCH  10  11
ENDBRANCH   8  10
ENDBRANCH   7   8
ENDBRANCH   6   7
ENDBRANCH   5   6
ENDBRANCH   4   5
ENDBRANCH   3   4
ENDBRANCH   2   3
ENDBRANCH   1   2
BRANCH   1  32
ATOM     32  C   UNL A   1      42.564  40.455  29.852  1.00  0.00     0.188 C 
BRANCH  32  33
ATOM     33  C   UNL A   1      43.582  41.599  29.862  1.00  0.00     0.188 C 
BRANCH  33  34
ATOM     34  O   UNL A   1      44.883  41.187  29.462  1.00  0.00    -0.376 OA
BRANCH  34  35
ATOM     35  C   UNL A   1      46.009  41.722  30.142  1.00  0.00     0.202 C 
BRANCH  35  36
ATOM     36  C   UNL A   1      46.837  40.750  31.002  1.00  0.00     0.261 C 
BRANCH  36  37
ATOM     37  O   UNL A   1      46.557  39.363  30.813  1.00  0.00    -0.460 OA
BRANCH  37  38
ATOM     38  C   UNL A   1      45.762  38.769  31.726  1.00  0.00     0.338 C 
ATOM     39  O   UNL A   1      45.107  39.306  32.600  1.00  0.00    -0.246 OA
BRANCH  38  40
ATOM     40  C   UNL A   1      45.647  37.365  31.308  1.00  0.00     0.060 A 
ATOM     41  C   UNL A   1      45.352  37.098  29.967  1.00  0.00     0.016 A 
ATOM     42  C   UNL A   1      45.904  36.330  32.213  1.00  0.00     0.016 A 
ATOM     43  C   UNL A   1      45.297  35.784  29.524  1.00  0.00     0.010 A 
ATOM     44  C   UNL A   1      45.812  35.012  31.778  1.00  0.00     0.010 A 
ATOM     45  C   UNL A   1      45.476  34.742  30.441  1.00  0.00    -0.014 A 
BRANCH  45  46
ATOM     46  C   UNL A   1      45.055  33.386  30.046  1.00  0.00     0.031 A 
ATOM     47  C   UNL A   1      43.601  33.046  30.204  1.00  0.00     0.074 A 
ATOM     48  C   UNL A   1      45.933  32.519  29.516  1.00  0.00     0.049 A 
ATOM     49  N   UNL A   1      42.976  31.936  29.924  1.00  0.00    -0.248 NA
ATOM     50  C   UNL A   1      42.733  34.107  30.750  1.00  0.00     0.031 C 
ATOM     51  C   UNL A   1      47.352  32.789  29.281  1.00  0.00     0.029 A 
ATOM     52  N   UNL A   1      45.755  31.235  29.079  1.00  0.00    -0.354 N 
ATOM     53  C   UNL A   1      41.648  32.162  30.266  1.00  0.00     0.074 A 
ATOM     54  C   UNL A   1      41.558  33.501  30.797  1.00  0.00     0.031 C 
ATOM     55  C   UNL A   1      47.918  31.692  28.745  1.00  0.00     0.029 A 
ATOM     56  C   UNL A   1      46.910  30.642  28.631  1.00  0.00     0.049 A 
ATOM     57  H   UNL A   1      44.881  30.780  29.083  1.00  0.00     0.167 HD
ATOM     58  C   UNL A   1      40.597  31.319  30.144  1.00  0.00     0.031 A 
ATOM     59  C   UNL A   1      47.122  29.382  28.203  1.00  0.00     0.031 A 
ATOM     60  C   UNL A   1      40.717  29.982  29.632  1.00  0.00     0.049 A 
ATOM     61  C   UNL A   1      45.948  28.440  28.142  1.00  0.00     0.074 A 
ATOM     62  C   UNL A   1      39.726  29.036  29.457  1.00  0.00     0.029 A 
ATOM     63  N   UNL A   1      41.909  29.402  29.224  1.00  0.00    -0.354 N 
ATOM     64  N   UNL A   1      44.690  28.670  28.445  1.00  0.00    -0.248 NA
ATOM     65  C   UNL A   1      46.215  27.074  27.674  1.00  0.00     0.031 C 
ATOM     66  C   UNL A   1      40.331  27.859  29.003  1.00  0.00     0.029 A 
ATOM     67  C   UNL A   1      41.687  28.097  28.827  1.00  0.00     0.049 A 
ATOM     68  H   UNL A   1      42.785  29.852  29.219  1.00  0.00     0.167 HD
ATOM     69  C   UNL A   1      44.012  27.485  28.178  1.00  0.00     0.074 A 
ATOM     70  C   UNL A   1      44.998  26.549  27.674  1.00  0.00     0.031 C 
ATOM     71  C   UNL A   1      42.696  27.193  28.332  1.00  0.00     0.031 A 
BRANCH  58  72
ATOM     72  C   UNL A   1      39.255  31.805  30.621  1.00  0.00    -0.014 A 
ATOM     73  C   UNL A   1      38.794  31.536  31.923  1.00  0.00     0.010 A 
ATOM     74  C   UNL A   1      38.444  32.558  29.752  1.00  0.00     0.010 A 
ATOM     75  C   UNL A   1      37.535  31.982  32.335  1.00  0.00     0.020 A 
ATOM     76  C   UNL A   1      37.197  33.031  30.170  1.00  0.00     0.020 A 
ATOM     77  C   UNL A   1      36.745  32.729  31.455  1.00  0.00     0.054 A 
BRANCH  77  78
ATOM     78  S   UNL A   1      35.130  33.321  32.026  1.00  0.00     0.124 S 
ATOM     79  O   UNL A   1      35.102  32.842  33.406  1.00  0.00    -0.237 OA
ATOM     80  O   UNL A   1      35.246  34.768  31.866  1.00  0.00    -0.237 OA
ATOM     81  O   UNL A   1      34.182  32.671  31.124  1.00  0.00    -0.744 OA
ENDBRANCH  77  78
ENDBRANCH  58  72
BRANCH  59  82
ATOM     82  C   UNL A   1      48.495  28.940  27.832  1.00  0.00    -0.014 A 
ATOM     83  C   UNL A   1      48.928  28.959  26.494  1.00  0.00     0.010 A 
ATOM     84  C   UNL A   1      49.385  28.495  28.829  1.00  0.00     0.010 A 
ATOM     85  C   UNL A   1      50.216  28.524  26.160  1.00  0.00     0.020 A 
ATOM     86  C   UNL A   1      50.683  28.090  28.502  1.00  0.00     0.020 A 
ATOM     87  C   UNL A   1      51.085  28.095  27.166  1.00  0.00     0.054 A 
BRANCH  87  88
ATOM     88  S   UNL A   1      52.764  27.575  26.713  1.00  0.00     0.124 S 
ATOM     89  O   UNL A   1      53.372  27.341  28.019  1.00  0.00    -0.237 OA
ATOM     90  O   UNL A   1      52.517  26.382  25.907  1.00  0.00    -0.237 OA
ATOM     91  O   UNL A   1      53.290  28.720  25.974  1.00  0.00    -0.744 OA
ENDBRANCH  87  88
ENDBRANCH  59  82
BRANCH  71  92
ATOM     92  C   UNL A   1      42.241  25.819  27.918  1.00  0.00    -0.014 A 
ATOM     93  C   UNL A   1      42.422  24.706  28.757  1.00  0.00     0.010 A 
ATOM     94  C   UNL A   1      41.562  25.657  26.697  1.00  0.00     0.010 A 
ATOM     95  C   UNL A   1      41.961  23.448  28.366  1.00  0.00     0.020 A 
ATOM     96  C   UNL A   1      41.070  24.407  26.317  1.00  0.00     0.020 A 
ATOM     97  C   UNL A   1      41.286  23.307  27.149  1.00  0.00     0.054 A 
BRANCH  97  98
ATOM     98  S   UNL A   1      40.658  21.671  26.686  1.00  0.00     0.124 S 
ATOM     99  O   UNL A   1      41.673  21.213  25.741  1.00  0.00    -0.237 OA
ATOM    100  O   UNL A   1      40.626  20.967  27.965  1.00  0.00    -0.237 OA
ATOM    101  O   UNL A   1      39.348  21.954  26.104  1.00  0.00    -0.744 OA
ENDBRANCH  97  98
ENDBRANCH  71  92
ENDBRANCH  45  46
ENDBRANCH  38  40
ENDBRANCH  37  38
ENDBRANCH  36  37
ENDBRANCH  35  36
ENDBRANCH  34  35
ENDBRANCH  33  34
ENDBRANCH  32  33
ENDBRANCH   1  32
TORSDOF 27
ENDMDL
MODEL 2
REMARK VINA RESULT:      -8.0      6.937     16.494
REMARK SMILES CCc1ccc2c(CC(=O)OCCOCCOCCOCCOC(=O)c3ccc(-c4c5nc(c(-c6ccc(S(=O)(=O)[O-])cc6)c6ccc([nH]6)c(-c6ccc(S(=O)(=O)[O-])cc6)c6nc(c(-c7ccc(S(=O)(=O)[O-])cc7)c7ccc4[nH]7)C=C6)C=C5)cc3)c(C(=O)c3cc(C)ccn3)[nH]c2c1
REMARK SMILES IDX 17 1 16 2 15 3 14 4 13 5 12 6 11 7 9 8 10 9 8 10 7 11 3 12
REMARK SMILES IDX 4 13 98 14 5 15 97 16 6 17 96 18 86 19 2 21 1 22 87 23 88 24
REMARK SMILES IDX 89 25 90 26 95 27 91 28 94 29 92 30 93 31 18 32 19 33 20 34
REMARK SMILES IDX 21 35 22 36 23 37 24 38 25 39 26 40 27 41 85 42 28 43 84 44
REMARK SMILES IDX 29 45 30 46 31 47 78 48 32 49 83 50 77 51 79 52 33 53 82 54
REMARK SMILES IDX 76 55 75 56 34 58 64 59 45 60 63 61 46 62 49 63 62 64 80 65
REMARK SMILES IDX 47 66 48 67 61 69 81 70 50 71 35 72 36 73 44 74 37 75 43 76
REMARK SMILES IDX 38 77 39 78 40 79 41 80 42 81 65 82 66 83 74 84 67 85 73 86
REMARK SMILES IDX 68 87 69 88 70 89 71 90 72 91 51 92 52 93 60 94 53 95 59 96
REMARK SMILES IDX 54 97 55 98 56 99 57 100 58 101
REMARK H PARENT 96 20 79 57 49 68
REMARK Flexibility Score: inf
ROOT
ATOM      1  O   UNL A   1      36.306  30.180  28.431  1.00  0.00    -0.377 OA
ENDROOT
BRANCH   1   2
ATOM      2  C   UNL A   1      35.080  30.055  27.730  1.00  0.00     0.188 C 
BRANCH   2   3
ATOM      3  C   UNL A   1      34.944  28.815  26.815  1.00  0.00     0.188 C 
BRANCH   3   4
ATOM      4  O   UNL A   1      33.702  28.471  26.207  1.00  0.00    -0.376 OA
BRANCH   4   5
ATOM      5  C   UNL A   1      33.348  27.104  26.094  1.00  0.00     0.202 C 
BRANCH   5   6
ATOM      6  C   UNL A   1      33.593  26.411  24.737  1.00  0.00     0.261 C 
BRANCH   6   7
ATOM      7  O   UNL A   1      32.822  25.211  24.482  1.00  0.00    -0.463 OA
BRANCH   7   8
ATOM      8  C   UNL A   1      33.513  24.077  24.216  1.00  0.00     0.310 C 
ATOM      9  O   UNL A   1      33.919  23.789  23.089  1.00  0.00    -0.252 OA
BRANCH   8  10
ATOM     10  C   UNL A   1      33.790  23.140  25.389  1.00  0.00     0.161 C 
BRANCH  10  11
ATOM     11  C   UNL A   1      34.603  21.860  25.259  1.00  0.00     0.000 A 
ATOM     12  C   UNL A   1      33.507  17.812  24.602  1.00  0.00    -0.046 A 
ATOM     13  C   UNL A   1      32.465  18.689  24.924  1.00  0.00     0.004 A 
ATOM     14  C   UNL A   1      34.831  18.282  24.649  1.00  0.00     0.030 A 
ATOM     15  C   UNL A   1      32.706  20.043  25.207  1.00  0.00     0.011 A 
ATOM     16  C   UNL A   1      35.048  19.642  24.912  1.00  0.00     0.046 A 
ATOM     17  C   UNL A   1      34.023  20.543  25.162  1.00  0.00     0.004 A 
ATOM     18  N   UNL A   1      36.221  20.348  24.985  1.00  0.00    -0.352 N 
ATOM     19  C   UNL A   1      35.986  21.708  25.001  1.00  0.00     0.093 A 
ATOM     20  H   UNL A   1      37.115  19.937  25.022  1.00  0.00     0.167 HD
BRANCH  12  21
ATOM     21  C   UNL A   1      33.270  16.357  24.251  1.00  0.00     0.032 C 
ATOM     22  C   UNL A   1      33.525  15.351  25.370  1.00  0.00     0.009 C 
ENDBRANCH  12  21
BRANCH  19  23
ATOM     23  C   UNL A   1      37.020  22.737  24.820  1.00  0.00     0.227 C 
ATOM     24  O   UNL A   1      36.990  23.528  23.879  1.00  0.00    -0.285 OA
BRANCH  23  25
ATOM     25  C   UNL A   1      38.155  22.904  25.805  1.00  0.00     0.113 A 
ATOM     26  C   UNL A   1      38.376  24.075  26.532  1.00  0.00     0.036 A 
ATOM     27  N   UNL A   1      38.934  21.799  25.961  1.00  0.00    -0.253 NA
ATOM     28  C   UNL A   1      39.466  24.125  27.420  1.00  0.00    -0.047 A 
ATOM     29  C   UNL A   1      39.956  21.864  26.839  1.00  0.00     0.112 A 
ATOM     30  C   UNL A   1      39.795  25.357  28.215  1.00  0.00     0.044 C 
ATOM     31  C   UNL A   1      40.281  23.000  27.555  1.00  0.00     0.023 A 
ENDBRANCH  23  25
ENDBRANCH  19  23
ENDBRANCH  10  11
ENDBRANCH   8  10
ENDBRANCH   7   8
ENDBRANCH   6   7
ENDBRANCH   5   6
ENDBRANCH   4   5
ENDBRANCH   3   4
ENDBRANCH   2   3
ENDBRANCH   1   2
BRANCH   1  32
ATOM     32  C   UNL A   1      37.324  29.288  28.017  1.00  0.00     0.188 C 
BRANCH  32  33
ATOM     33  C   UNL A   1      38.444  29.137  29.051  1.00  0.00     0.188 C 
BRANCH  33  34
ATOM     34  O   UNL A   1      38.185  28.114  30.005  1.00  0.00    -0.376 OA
BRANCH  34  35
ATOM     35  C   UNL A   1      38.527  28.346  31.363  1.00  0.00     0.202 C 
BRANCH  35  36
ATOM     36  C   UNL A   1      37.434  28.938  32.270  1.00  0.00     0.261 C 
BRANCH  36  37
ATOM     37  O   UNL A   1      36.912  30.205  31.867  1.00  0.00    -0.460 OA
BRANCH  37  38
ATOM     38  C   UNL A   1      37.201  31.264  32.650  1.00  0.00     0.338 C 
ATOM     39  O   UNL A   1      36.625  31.616  33.663  1.00  0.00    -0.246 OA
BRANCH  38  40
ATOM     40  C   UNL A   1      38.497  31.772  32.180  1.00  0.00     0.060 A 
ATOM     41  C   UNL A   1      38.543  32.407  30.934  1.00  0.00     0.016 A 
ATOM     42  C   UNL A   1      39.631  31.688  32.993  1.00  0.00     0.016 A 
ATOM     43  C   UNL A   1      39.737  32.953  30.486  1.00  0.00     0.010 A 
ATOM     44  C   UNL A   1      40.838  32.202  32.528  1.00  0.00     0.010 A 
ATOM     45  C   UNL A   1      40.894  32.805  31.260  1.00  0.00    -0.014 A 
BRANCH  45  46
ATOM     46  C   UNL A   1      42.198  33.053  30.619  1.00  0.00     0.031 A 
ATOM     47  C   UNL A   1      42.784  31.937  29.803  1.00  0.00     0.074 A 
ATOM     48  C   UNL A   1      42.800  34.249  30.722  1.00  0.00     0.049 A 
ATOM     49  N   UNL A   1      43.903  31.901  29.134  1.00  0.00    -0.248 NA
ATOM     50  C   UNL A   1      41.996  30.692  29.728  1.00  0.00     0.031 C 
ATOM     51  C   UNL A   1      42.272  35.402  31.453  1.00  0.00     0.029 A 
ATOM     52  N   UNL A   1      43.988  34.689  30.205  1.00  0.00    -0.354 N 
ATOM     53  C   UNL A   1      43.957  30.632  28.568  1.00  0.00     0.074 A 
ATOM     54  C   UNL A   1      42.775  29.919  28.990  1.00  0.00     0.031 C 
ATOM     55  C   UNL A   1      43.144  36.421  31.341  1.00  0.00     0.029 A 
ATOM     56  C   UNL A   1      44.297  35.979  30.562  1.00  0.00     0.049 A 
ATOM     57  H   UNL A   1      44.566  34.134  29.632  1.00  0.00     0.167 HD
ATOM     58  C   UNL A   1      44.913  30.114  27.765  1.00  0.00     0.031 A 
ATOM     59  C   UNL A   1      45.402  36.704  30.301  1.00  0.00     0.031 A 
ATOM     60  C   UNL A   1      46.093  30.838  27.377  1.00  0.00     0.049 A 
ATOM     61  C   UNL A   1      46.487  36.078  29.462  1.00  0.00     0.074 A 
ATOM     62  C   UNL A   1      47.130  30.421  26.566  1.00  0.00     0.029 A 
ATOM     63  N   UNL A   1      46.391  32.129  27.788  1.00  0.00    -0.354 N 
ATOM     64  N   UNL A   1      46.518  34.885  28.910  1.00  0.00    -0.248 NA
ATOM     65  C   UNL A   1      47.679  36.894  29.200  1.00  0.00     0.031 C 
ATOM     66  C   UNL A   1      48.089  31.439  26.540  1.00  0.00     0.029 A 
ATOM     67  C   UNL A   1      47.614  32.516  27.274  1.00  0.00     0.049 A 
ATOM     68  H   UNL A   1      45.817  32.687  28.362  1.00  0.00     0.167 HD
ATOM     69  C   UNL A   1      47.720  34.820  28.215  1.00  0.00     0.074 A 
ATOM     70  C   UNL A   1      48.377  36.098  28.403  1.00  0.00     0.031 C 
ATOM     71  C   UNL A   1      48.238  33.799  27.485  1.00  0.00     0.031 A 
BRANCH  58  72
ATOM     72  C   UNL A   1      44.743  28.690  27.308  1.00  0.00    -0.014 A 
ATOM     73  C   UNL A   1      44.077  28.375  26.109  1.00  0.00     0.010 A 
ATOM     74  C   UNL A   1      45.274  27.646  28.087  1.00  0.00     0.010 A 
ATOM     75  C   UNL A   1      43.916  27.044  25.716  1.00  0.00     0.020 A 
ATOM     76  C   UNL A   1      45.142  26.315  27.683  1.00  0.00     0.020 A 
ATOM     77  C   UNL A   1      44.452  26.021  26.506  1.00  0.00     0.054 A 
BRANCH  77  78
ATOM     78  S   UNL A   1      44.256  24.305  25.957  1.00  0.00     0.124 S 
ATOM     79  O   UNL A   1      44.870  24.340  24.631  1.00  0.00    -0.237 OA
ATOM     80  O   UNL A   1      44.996  23.559  26.971  1.00  0.00    -0.237 OA
ATOM     81  O   UNL A   1      42.809  24.099  25.966  1.00  0.00    -0.744 OA
ENDBRANCH  77  78
ENDBRANCH  58  72
BRANCH  59  82
ATOM     82  C   UNL A   1      45.546  38.076  30.861  1.00  0.00    -0.014 A 
ATOM     83  C   UNL A   1      46.169  38.292  32.103  1.00  0.00     0.010 A 
ATOM     84  C   UNL A   1      45.057  39.185  30.144  1.00  0.00     0.010 A 
ATOM     85  C   UNL A   1      46.282  39.586  32.624  1.00  0.00     0.020 A 
ATOM     86  C   UNL A   1      45.196  40.482  30.647  1.00  0.00     0.020 A 
ATOM     87  C   UNL A   1      45.797  40.672  31.891  1.00  0.00     0.054 A 
BRANCH  87  88
ATOM     88  S   UNL A   1      45.991  42.345  32.568  1.00  0.00     0.124 S 
ATOM     89  O   UNL A   1      46.177  43.142  31.359  1.00  0.00    -0.237 OA
ATOM     90  O   UNL A   1      44.727  42.548  33.272  1.00  0.00    -0.237 OA
ATOM     91  O   UNL A   1      47.165  42.232  33.430  1.00  0.00    -0.744 OA
ENDBRANCH  87  88
ENDBRANCH  59  82
BRANCH  71  92
ATOM     92  C   UNL A   1      49.561  34.037  26.807  1.00  0.00    -0.014 A 
ATOM     93  C   UNL A   1      49.630  34.561  25.505  1.00  0.00     0.010 A 
ATOM     94  C   UNL A   1      50.752  33.794  27.516  1.00  0.00     0.010 A 
ATOM     95  C   UNL A   1      50.869  34.806  24.910  1.00  0.00     0.020 A 
ATOM     96  C   UNL A   1      51.992  34.069  26.937  1.00  0.00     0.020 A 
ATOM     97  C   UNL A   1      52.042  34.559  25.632  1.00  0.00     0.054 A 
BRANCH  97  98
ATOM     98  S   UNL A   1      53.637  34.928  24.852  1.00  0.00     0.124 S 
ATOM     99  O   UNL A   1      53.425  34.452  23.489  1.00  0.00    -0.237 OA
ATOM    100  O   UNL A   1      53.740  36.377  25.005  1.00  0.00    -0.237 OA
ATOM    101  O   UNL A   1      54.595  34.155  25.640  1.00  0.00    -0.744 OA
ENDBRANCH  97  98
ENDBRANCH  71  92
ENDBRANCH  45  46
ENDBRANCH  38  40
ENDBRANCH  37  38
ENDBRANCH  36  37
ENDBRANCH  35  36
ENDBRANCH  34  35
ENDBRANCH  33  34
ENDBRANCH  32  33
ENDBRANCH   1  32
TORSDOF 27
ENDMDL
MODEL 3
REMARK VINA RESULT:      -7.7      2.945      9.248
REMARK SMILES CCc1ccc2c(CC(=O)OCCOCCOCCOCCOC(=O)c3ccc(-c4c5nc(c(-c6ccc(S(=O)(=O)[O-])cc6)c6ccc([nH]6)c(-c6ccc(S(=O)(=O)[O-])cc6)c6nc(c(-c7ccc(S(=O)(=O)[O-])cc7)c7ccc4[nH]7)C=C6)C=C5)cc3)c(C(=O)c3cc(C)ccn3)[nH]c2c1
REMARK SMILES IDX 17 1 16 2 15 3 14 4 13 5 12 6 11 7 9 8 10 9 8 10 7 11 3 12
REMARK SMILES IDX 4 13 98 14 5 15 97 16 6 17 96 18 86 19 2 21 1 22 87 23 88 24
REMARK SMILES IDX 89 25 90 26 95 27 91 28 94 29 92 30 93 31 18 32 19 33 20 34
REMARK SMILES IDX 21 35 22 36 23 37 24 38 25 39 26 40 27 41 85 42 28 43 84 44
REMARK SMILES IDX 29 45 30 46 31 47 78 48 32 49 83 50 77 51 79 52 33 53 82 54
REMARK SMILES IDX 76 55 75 56 34 58 64 59 45 60 63 61 46 62 49 63 62 64 80 65
REMARK SMILES IDX 47 66 48 67 61 69 81 70 50 71 35 72 36 73 44 74 37 75 43 76
REMARK SMILES IDX 38 77 39 78 40 79 41 80 42 81 65 82 66 83 74 84 67 85 73 86
REMARK SMILES IDX 68 87 69 88 70 89 71 90 72 91 51 92 52 93 60 94 53 95 59 96
REMARK SMILES IDX 54 97 55 98 56 99 57 100 58 101
REMARK H PARENT 96 20 79 57 49 68
REMARK Flexibility Score: inf
ROOT
ATOM      1  O   UNL A   1      48.585  41.803  33.201  1.00  0.00    -0.377 OA
ENDROOT
BRANCH   1   2
ATOM      2  C   UNL A   1      48.435  42.918  32.339  1.00  0.00     0.188 C 
BRANCH   2   3
ATOM      3  C   UNL A   1      47.013  43.158  31.782  1.00  0.00     0.188 C 
BRANCH   3   4
ATOM      4  O   UNL A   1      46.710  42.965  30.403  1.00  0.00    -0.376 OA
BRANCH   4   5
ATOM      5  C   UNL A   1      47.771  42.919  29.466  1.00  0.00     0.202 C 
BRANCH   5   6
ATOM      6  C   UNL A   1      47.768  43.961  28.328  1.00  0.00     0.261 C 
BRANCH   6   7
ATOM      7  O   UNL A   1      47.117  43.564  27.096  1.00  0.00    -0.463 OA
BRANCH   7   8
ATOM      8  C   UNL A   1      45.784  43.337  27.146  1.00  0.00     0.310 C 
ATOM      9  O   UNL A   1      44.996  44.098  27.711  1.00  0.00    -0.252 OA
BRANCH   8  10
ATOM     10  C   UNL A   1      45.265  42.077  26.456  1.00  0.00     0.161 C 
BRANCH  10  11
ATOM     11  C   UNL A   1      43.985  42.046  25.633  1.00  0.00     0.000 A 
ATOM     12  C   UNL A   1      42.990  43.579  21.802  1.00  0.00    -0.046 A 
ATOM     13  C   UNL A   1      44.199  44.024  22.350  1.00  0.00     0.004 A 
ATOM     14  C   UNL A   1      42.139  42.783  22.587  1.00  0.00     0.030 A 
ATOM     15  C   UNL A   1      44.616  43.623  23.629  1.00  0.00     0.011 A 
ATOM     16  C   UNL A   1      42.585  42.376  23.854  1.00  0.00     0.046 A 
ATOM     17  C   UNL A   1      43.812  42.747  24.385  1.00  0.00     0.004 A 
ATOM     18  N   UNL A   1      41.969  41.588  24.791  1.00  0.00    -0.352 N 
ATOM     19  C   UNL A   1      42.851  41.213  25.785  1.00  0.00     0.093 A 
ATOM     20  H   UNL A   1      41.021  41.326  24.760  1.00  0.00     0.167 HD
BRANCH  12  21
ATOM     21  C   UNL A   1      42.537  43.961  20.408  1.00  0.00     0.032 C 
ATOM     22  C   UNL A   1      41.342  43.185  19.860  1.00  0.00     0.009 C 
ENDBRANCH  12  21
BRANCH  19  23
ATOM     23  C   UNL A   1      42.583  40.175  26.791  1.00  0.00     0.227 C 
ATOM     24  O   UNL A   1      42.604  38.978  26.508  1.00  0.00    -0.285 OA
BRANCH  23  25
ATOM     25  C   UNL A   1      42.309  40.521  28.236  1.00  0.00     0.113 A 
ATOM     26  C   UNL A   1      43.297  40.553  29.222  1.00  0.00     0.036 A 
ATOM     27  N   UNL A   1      41.013  40.842  28.503  1.00  0.00    -0.253 NA
ATOM     28  C   UNL A   1      42.930  40.884  30.539  1.00  0.00    -0.047 A 
ATOM     29  C   UNL A   1      40.693  41.184  29.768  1.00  0.00     0.112 A 
ATOM     30  C   UNL A   1      43.924  40.909  31.665  1.00  0.00     0.044 C 
ATOM     31  C   UNL A   1      41.595  41.184  30.814  1.00  0.00     0.023 A 
ENDBRANCH  23  25
ENDBRANCH  19  23
ENDBRANCH  10  11
ENDBRANCH   8  10
ENDBRANCH   7   8
ENDBRANCH   6   7
ENDBRANCH   5   6
ENDBRANCH   4   5
ENDBRANCH   3   4
ENDBRANCH   2   3
ENDBRANCH   1   2
BRANCH   1  32
ATOM     32  C   UNL A   1      49.924  41.421  33.456  1.00  0.00     0.188 C 
BRANCH  32  33
ATOM     33  C   UNL A   1      50.343  40.162  32.690  1.00  0.00     0.188 C 
BRANCH  33  34
ATOM     34  O   UNL A   1      49.416  39.796  31.675  1.00  0.00    -0.376 OA
BRANCH  34  35
ATOM     35  C   UNL A   1      48.524  38.720  31.920  1.00  0.00     0.202 C 
BRANCH  35  36
ATOM     36  C   UNL A   1      47.296  38.601  31.000  1.00  0.00     0.261 C 
BRANCH  36  37
ATOM     37  O   UNL A   1      47.081  37.316  30.416  1.00  0.00    -0.460 OA
BRANCH  37  38
ATOM     38  C   UNL A   1      47.882  36.967  29.389  1.00  0.00     0.338 C 
ATOM     39  O   UNL A   1      48.796  37.613  28.909  1.00  0.00    -0.246 OA
BRANCH  38  40
ATOM     40  C   UNL A   1      47.596  35.552  29.117  1.00  0.00     0.060 A 
ATOM     41  C   UNL A   1      46.968  35.226  27.910  1.00  0.00     0.016 A 
ATOM     42  C   UNL A   1      48.014  34.559  30.008  1.00  0.00     0.016 A 
ATOM     43  C   UNL A   1      46.738  33.895  27.594  1.00  0.00     0.010 A 
ATOM     44  C   UNL A   1      47.750  33.226  29.708  1.00  0.00     0.010 A 
ATOM     45  C   UNL A   1      47.083  32.900  28.516  1.00  0.00    -0.014 A 
BRANCH  45  46
ATOM     46  C   UNL A   1      46.509  31.554  28.337  1.00  0.00     0.031 A 
ATOM     47  C   UNL A   1      47.385  30.514  27.702  1.00  0.00     0.074 A 
ATOM     48  C   UNL A   1      45.273  31.269  28.778  1.00  0.00     0.049 A 
ATOM     49  N   UNL A   1      47.127  29.261  27.442  1.00  0.00    -0.248 NA
ATOM     50  C   UNL A   1      48.741  30.944  27.310  1.00  0.00     0.031 C 
ATOM     51  C   UNL A   1      44.376  32.208  29.452  1.00  0.00     0.029 A 
ATOM     52  N   UNL A   1      44.562  30.100  28.725  1.00  0.00    -0.354 N 
ATOM     53  C   UNL A   1      48.281  28.760  26.851  1.00  0.00     0.074 A 
ATOM     54  C   UNL A   1      49.231  29.844  26.765  1.00  0.00     0.031 C 
ATOM     55  C   UNL A   1      43.226  31.575  29.744  1.00  0.00     0.029 A 
ATOM     56  C   UNL A   1      43.297  30.203  29.250  1.00  0.00     0.049 A 
ATOM     57  H   UNL A   1      44.924  29.265  28.347  1.00  0.00     0.167 HD
ATOM     58  C   UNL A   1      48.521  27.501  26.420  1.00  0.00     0.031 A 
ATOM     59  C   UNL A   1      42.308  29.290  29.300  1.00  0.00     0.031 A 
ATOM     60  C   UNL A   1      47.550  26.445  26.496  1.00  0.00     0.049 A 
ATOM     61  C   UNL A   1      42.577  27.913  28.748  1.00  0.00     0.074 A 
ATOM     62  C   UNL A   1      47.677  25.129  26.096  1.00  0.00     0.029 A 
ATOM     63  N   UNL A   1      46.266  26.594  27.000  1.00  0.00    -0.354 N 
ATOM     64  N   UNL A   1      43.680  27.440  28.213  1.00  0.00    -0.248 NA
ATOM     65  C   UNL A   1      41.476  26.944  28.814  1.00  0.00     0.031 C 
ATOM     66  C   UNL A   1      46.444  24.498  26.297  1.00  0.00     0.029 A 
ATOM     67  C   UNL A   1      45.575  25.402  26.891  1.00  0.00     0.049 A 
ATOM     68  H   UNL A   1      45.900  27.427  27.377  1.00  0.00     0.167 HD
ATOM     69  C   UNL A   1      43.413  26.111  27.903  1.00  0.00     0.074 A 
ATOM     70  C   UNL A   1      42.051  25.853  28.327  1.00  0.00     0.031 C 
ATOM     71  C   UNL A   1      44.217  25.184  27.323  1.00  0.00     0.031 A 
BRANCH  58  72
ATOM     72  C   UNL A   1      49.857  27.225  25.784  1.00  0.00    -0.014 A 
ATOM     73  C   UNL A   1      50.045  27.322  24.392  1.00  0.00     0.010 A 
ATOM     74  C   UNL A   1      50.950  26.874  26.597  1.00  0.00     0.010 A 
ATOM     75  C   UNL A   1      51.291  27.042  23.825  1.00  0.00     0.020 A 
ATOM     76  C   UNL A   1      52.205  26.622  26.037  1.00  0.00     0.020 A 
ATOM     77  C   UNL A   1      52.364  26.695  24.652  1.00  0.00     0.054 A 
BRANCH  77  78
ATOM     78  S   UNL A   1      53.977  26.367  23.892  1.00  0.00     0.124 S 
ATOM     79  O   UNL A   1      53.620  26.195  22.486  1.00  0.00    -0.237 OA
ATOM     80  O   UNL A   1      54.730  27.578  24.205  1.00  0.00    -0.237 OA
ATOM     81  O   UNL A   1      54.440  25.156  24.567  1.00  0.00    -0.744 OA
ENDBRANCH  77  78
ENDBRANCH  58  72
BRANCH  59  82
ATOM     82  C   UNL A   1      40.978  29.657  29.860  1.00  0.00    -0.014 A 
ATOM     83  C   UNL A   1      39.945  30.130  29.032  1.00  0.00     0.010 A 
ATOM     84  C   UNL A   1      40.738  29.532  31.242  1.00  0.00     0.010 A 
ATOM     85  C   UNL A   1      38.707  30.487  29.576  1.00  0.00     0.020 A 
ATOM     86  C   UNL A   1      39.491  29.858  31.785  1.00  0.00     0.020 A 
ATOM     87  C   UNL A   1      38.487  30.346  30.949  1.00  0.00     0.054 A 
BRANCH  87  88
ATOM     88  S   UNL A   1      36.860  30.777  31.627  1.00  0.00     0.124 S 
ATOM     89  O   UNL A   1      36.417  31.824  30.711  1.00  0.00    -0.237 OA
ATOM     90  O   UNL A   1      36.137  29.510  31.537  1.00  0.00    -0.237 OA
ATOM     91  O   UNL A   1      37.161  31.220  32.987  1.00  0.00    -0.744 OA
ENDBRANCH  87  88
ENDBRANCH  59  82
BRANCH  71  92
ATOM     92  C   UNL A   1      43.656  23.798  27.147  1.00  0.00    -0.014 A 
ATOM     93  C   UNL A   1      43.239  23.034  28.251  1.00  0.00     0.010 A 
ATOM     94  C   UNL A   1      43.483  23.285  25.849  1.00  0.00     0.010 A 
ATOM     95  C   UNL A   1      42.690  21.764  28.059  1.00  0.00     0.020 A 
ATOM     96  C   UNL A   1      42.904  22.030  25.652  1.00  0.00     0.020 A 
ATOM     97  C   UNL A   1      42.525  21.272  26.761  1.00  0.00     0.054 A 
BRANCH  97  98
ATOM     98  S   UNL A   1      41.768  19.639  26.539  1.00  0.00     0.124 S 
ATOM     99  O   UNL A   1      40.344  19.953  26.612  1.00  0.00    -0.237 OA
ATOM    100  O   UNL A   1      42.257  19.237  25.223  1.00  0.00    -0.237 OA
ATOM    101  O   UNL A   1      42.293  18.859  27.657  1.00  0.00    -0.744 OA
ENDBRANCH  97  98
ENDBRANCH  71  92
ENDBRANCH  45  46
ENDBRANCH  38  40
ENDBRANCH  37  38
ENDBRANCH  36  37
ENDBRANCH  35  36
ENDBRANCH  34  35
ENDBRANCH  33  34
ENDBRANCH  32  33
ENDBRANCH   1  32
TORSDOF 27
ENDMDL
