MODEL 1
REMARK VINA RESULT:      -7.9      0.000      0.000
REMARK SMILES CCC[C@H]([NH2+]Cc1nc(C(C)(C)C)cs1)C(=O)OCCOCCOCCOCCOC(=O)c1ccc(-c2c3nc(c(-c4ccc(S(=O)(=O)[O-])cc4)c4ccc([nH]4)c(-c4ccc(S(=O)(=O)[O-])cc4)c4nc(c(-c5ccc(S(=O)(=O)[O-])cc5)c5ccc2[nH]5)C=C4)C=C3)cc1
REMARK SMILES IDX 23 1 22 2 21 3 20 4 19 5 18 6 16 7 17 8 4 9 3 10 2 11 1 12
REMARK SMILES IDX 5 13 6 16 7 17 8 18 15 19 9 20 14 21 10 22 11 23 12 24 13 25
REMARK SMILES IDX 24 26 25 27 26 28 27 29 28 30 29 31 30 32 31 33 32 34 33 35
REMARK SMILES IDX 34 36 92 37 35 38 91 39 36 40 37 41 38 42 85 43 39 44 90 45
REMARK SMILES IDX 84 46 86 47 40 48 89 49 83 50 82 51 41 53 71 54 52 55 70 56
REMARK SMILES IDX 53 57 56 58 69 59 87 60 54 61 55 62 68 64 88 65 57 66 42 67
REMARK SMILES IDX 43 68 51 69 44 70 50 71 45 72 46 73 47 74 48 75 49 76 72 77
REMARK SMILES IDX 73 78 81 79 74 80 80 81 75 82 76 83 77 84 78 85 79 86 58 87
REMARK SMILES IDX 59 88 67 89 60 90 66 91 61 92 62 93 63 94 64 95 65 96
REMARK H PARENT 5 14 5 15 86 52 56 63
REMARK Flexibility Score: inf
ROOT
ATOM      1  C   UNL A   1      39.589  23.778  26.949  1.00  0.00     0.188 C 
ENDROOT
BRANCH   1   2
ATOM      2  C   UNL A   1      38.161  23.931  26.425  1.00  0.00     0.188 C 
BRANCH   2   3
ATOM      3  O   UNL A   1      37.797  23.212  25.249  1.00  0.00    -0.376 OA
BRANCH   3   4
ATOM      4  C   UNL A   1      36.596  22.441  25.227  1.00  0.00     0.202 C 
BRANCH   4   5
ATOM      5  C   UNL A   1      35.249  23.088  24.826  1.00  0.00     0.261 C 
BRANCH   5   6
ATOM      6  O   UNL A   1      35.263  24.484  24.436  1.00  0.00    -0.459 OA
BRANCH   6   7
ATOM      7  C   UNL A   1      34.200  24.866  23.694  1.00  0.00     0.364 C 
ATOM      8  O   UNL A   1      34.138  24.591  22.493  1.00  0.00    -0.245 OA
BRANCH   7   9
ATOM      9  C   UNL A   1      33.012  25.584  24.387  1.00  0.00     0.293 C 
BRANCH   9  10
ATOM     10  C   UNL A   1      33.489  26.221  25.721  1.00  0.00     0.077 C 
BRANCH  10  11
ATOM     11  C   UNL A   1      33.778  27.733  25.749  1.00  0.00     0.003 C 
ATOM     12  C   UNL A   1      32.976  28.522  26.776  1.00  0.00     0.004 C 
ENDBRANCH  10  11
ENDBRANCH   9  10
BRANCH   9  13
ATOM     13  N   UNL A   1      31.700  24.920  24.710  1.00  0.00    -0.329 N 
ATOM     14  H   UNL A   1      31.910  24.070  25.232  1.00  0.00     0.347 HD
ATOM     15  H   UNL A   1      31.253  24.784  23.804  1.00  0.00     0.347 HD
BRANCH  13  16
ATOM     16  C   UNL A   1      30.722  25.676  25.487  1.00  0.00     0.330 C 
BRANCH  16  17
ATOM     17  C   UNL A   1      29.859  26.671  24.710  1.00  0.00     0.147 A 
ATOM     18  N   UNL A   1      30.240  27.835  24.196  1.00  0.00    -0.240 NA
ATOM     19  S   UNL A   1      28.275  26.165  24.241  1.00  0.00    -0.121 S 
ATOM     20  C   UNL A   1      29.233  28.365  23.367  1.00  0.00     0.057 A 
ATOM     21  C   UNL A   1      28.114  27.557  23.270  1.00  0.00     0.091 A 
BRANCH  20  22
ATOM     22  C   UNL A   1      29.384  29.737  22.697  1.00  0.00     0.005 C 
ATOM     23  C   UNL A   1      28.206  30.057  21.749  1.00  0.00     0.017 C 
ATOM     24  C   UNL A   1      29.409  30.841  23.776  1.00  0.00     0.017 C 
ATOM     25  C   UNL A   1      30.680  29.831  21.871  1.00  0.00     0.017 C 
ENDBRANCH  20  22
ENDBRANCH  16  17
ENDBRANCH  13  16
ENDBRANCH   9  13
ENDBRANCH   7   9
ENDBRANCH   6   7
ENDBRANCH   5   6
ENDBRANCH   4   5
ENDBRANCH   3   4
ENDBRANCH   2   3
ENDBRANCH   1   2
BRANCH   1  26
ATOM     26  O   UNL A   1      40.022  22.439  26.825  1.00  0.00    -0.377 OA
BRANCH  26  27
ATOM     27  C   UNL A   1      41.403  22.106  26.773  1.00  0.00     0.188 C 
BRANCH  27  28
ATOM     28  C   UNL A   1      42.289  22.631  27.898  1.00  0.00     0.188 C 
BRANCH  28  29
ATOM     29  O   UNL A   1      43.368  23.482  27.501  1.00  0.00    -0.376 OA
BRANCH  29  30
ATOM     30  C   UNL A   1      43.747  23.485  26.127  1.00  0.00     0.202 C 
BRANCH  30  31
ATOM     31  C   UNL A   1      43.656  24.842  25.433  1.00  0.00     0.261 C 
BRANCH  31  32
ATOM     32  O   UNL A   1      42.384  25.480  25.614  1.00  0.00    -0.460 OA
BRANCH  32  33
ATOM     33  C   UNL A   1      42.428  26.833  25.616  1.00  0.00     0.338 C 
ATOM     34  O   UNL A   1      42.264  27.575  24.665  1.00  0.00    -0.246 OA
BRANCH  33  35
ATOM     35  C   UNL A   1      42.554  27.327  26.997  1.00  0.00     0.060 A 
ATOM     36  C   UNL A   1      41.714  26.767  27.966  1.00  0.00     0.016 A 
ATOM     37  C   UNL A   1      43.387  28.403  27.309  1.00  0.00     0.016 A 
ATOM     38  C   UNL A   1      41.647  27.332  29.234  1.00  0.00     0.010 A 
ATOM     39  C   UNL A   1      43.316  28.973  28.581  1.00  0.00     0.010 A 
ATOM     40  C   UNL A   1      42.403  28.474  29.526  1.00  0.00    -0.014 A 
BRANCH  40  41
ATOM     41  C   UNL A   1      42.072  29.252  30.742  1.00  0.00     0.031 A 
ATOM     42  C   UNL A   1      40.829  30.102  30.734  1.00  0.00     0.074 A 
ATOM     43  C   UNL A   1      42.822  29.140  31.850  1.00  0.00     0.049 A 
ATOM     44  N   UNL A   1      40.322  30.836  31.690  1.00  0.00    -0.248 NA
ATOM     45  C   UNL A   1      40.054  30.129  29.481  1.00  0.00     0.031 C 
ATOM     46  C   UNL A   1      44.016  28.305  31.981  1.00  0.00     0.029 A 
ATOM     47  N   UNL A   1      42.680  29.725  33.081  1.00  0.00    -0.354 N 
ATOM     48  C   UNL A   1      39.176  31.415  31.154  1.00  0.00     0.074 A 
ATOM     49  C   UNL A   1      39.082  30.978  29.780  1.00  0.00     0.031 C 
ATOM     50  C   UNL A   1      44.497  28.428  33.231  1.00  0.00     0.029 A 
ATOM     51  C   UNL A   1      43.662  29.371  33.973  1.00  0.00     0.049 A 
ATOM     52  H   UNL A   1      41.945  30.341  33.304  1.00  0.00     0.167 HD
ATOM     53  C   UNL A   1      38.277  32.230  31.757  1.00  0.00     0.031 A 
ATOM     54  C   UNL A   1      43.868  29.772  35.243  1.00  0.00     0.031 A 
ATOM     55  C   UNL A   1      38.389  32.671  33.121  1.00  0.00     0.049 A 
ATOM     56  C   UNL A   1      42.889  30.728  35.872  1.00  0.00     0.074 A 
ATOM     57  C   UNL A   1      37.535  33.494  33.835  1.00  0.00     0.029 A 
ATOM     58  N   UNL A   1      39.423  32.328  33.981  1.00  0.00    -0.354 N 
ATOM     59  N   UNL A   1      41.803  31.257  35.357  1.00  0.00    -0.248 NA
ATOM     60  C   UNL A   1      43.155  31.126  37.260  1.00  0.00     0.031 C 
ATOM     61  C   UNL A   1      38.085  33.696  35.105  1.00  0.00     0.029 A 
ATOM     62  C   UNL A   1      39.243  32.941  35.208  1.00  0.00     0.049 A 
ATOM     63  H   UNL A   1      40.175  31.734  33.750  1.00  0.00     0.167 HD
ATOM     64  C   UNL A   1      41.241  32.029  36.370  1.00  0.00     0.074 A 
ATOM     65  C   UNL A   1      42.097  31.877  37.529  1.00  0.00     0.031 C 
ATOM     66  C   UNL A   1      40.116  32.789  36.346  1.00  0.00     0.031 A 
BRANCH  53  67
ATOM     67  C   UNL A   1      37.122  32.727  30.926  1.00  0.00    -0.014 A 
ATOM     68  C   UNL A   1      37.266  33.810  30.040  1.00  0.00     0.010 A 
ATOM     69  C   UNL A   1      35.874  32.084  31.018  1.00  0.00     0.010 A 
ATOM     70  C   UNL A   1      36.176  34.268  29.294  1.00  0.00     0.020 A 
ATOM     71  C   UNL A   1      34.788  32.518  30.252  1.00  0.00     0.020 A 
ATOM     72  C   UNL A   1      34.942  33.619  29.407  1.00  0.00     0.054 A 
BRANCH  72  73
ATOM     73  S   UNL A   1      33.547  34.222  28.416  1.00  0.00     0.124 S 
ATOM     74  O   UNL A   1      33.087  32.996  27.767  1.00  0.00    -0.237 OA
ATOM     75  O   UNL A   1      32.649  34.772  29.428  1.00  0.00    -0.237 OA
ATOM     76  O   UNL A   1      34.155  35.206  27.525  1.00  0.00    -0.744 OA
ENDBRANCH  72  73
ENDBRANCH  53  67
BRANCH  54  77
ATOM     77  C   UNL A   1      45.048  29.271  35.998  1.00  0.00    -0.014 A 
ATOM     78  C   UNL A   1      45.000  28.043  36.681  1.00  0.00     0.010 A 
ATOM     79  C   UNL A   1      46.237  30.023  36.029  1.00  0.00     0.010 A 
ATOM     80  C   UNL A   1      46.112  27.585  37.394  1.00  0.00     0.020 A 
ATOM     81  C   UNL A   1      47.361  29.555  36.715  1.00  0.00     0.020 A 
ATOM     82  C   UNL A   1      47.287  28.342  37.402  1.00  0.00     0.054 A 
BRANCH  82  83
ATOM     83  S   UNL A   1      48.736  27.700  38.288  1.00  0.00     0.124 S 
ATOM     84  O   UNL A   1      49.718  28.756  38.067  1.00  0.00    -0.237 OA
ATOM     85  O   UNL A   1      48.236  27.575  39.654  1.00  0.00    -0.237 OA
ATOM     86  O   UNL A   1      49.013  26.434  37.615  1.00  0.00    -0.744 OA
ENDBRANCH  82  83
ENDBRANCH  54  77
BRANCH  66  87
ATOM     87  C   UNL A   1      39.732  33.482  37.628  1.00  0.00    -0.014 A 
ATOM     88  C   UNL A   1      40.059  34.830  37.861  1.00  0.00     0.010 A 
ATOM     89  C   UNL A   1      39.015  32.772  38.610  1.00  0.00     0.010 A 
ATOM     90  C   UNL A   1      39.733  35.435  39.079  1.00  0.00     0.020 A 
ATOM     91  C   UNL A   1      38.657  33.384  39.813  1.00  0.00     0.020 A 
ATOM     92  C   UNL A   1      39.040  34.705  40.049  1.00  0.00     0.054 A 
BRANCH  92  93
ATOM     93  S   UNL A   1      38.631  35.510  41.621  1.00  0.00     0.124 S 
ATOM     94  O   UNL A   1      38.839  36.920  41.302  1.00  0.00    -0.237 OA
ATOM     95  O   UNL A   1      37.242  35.112  41.833  1.00  0.00    -0.237 OA
ATOM     96  O   UNL A   1      39.587  34.935  42.564  1.00  0.00    -0.744 OA
ENDBRANCH  92  93
ENDBRANCH  66  87
ENDBRANCH  40  41
ENDBRANCH  33  35
ENDBRANCH  32  33
ENDBRANCH  31  32
ENDBRANCH  30  31
ENDBRANCH  29  30
ENDBRANCH  28  29
ENDBRANCH  27  28
ENDBRANCH  26  27
ENDBRANCH   1  26
TORSDOF 29
ENDMDL
MODEL 2
REMARK VINA RESULT:      -6.5      3.679      5.662
REMARK SMILES CCC[C@H]([NH2+]Cc1nc(C(C)(C)C)cs1)C(=O)OCCOCCOCCOCCOC(=O)c1ccc(-c2c3nc(c(-c4ccc(S(=O)(=O)[O-])cc4)c4ccc([nH]4)c(-c4ccc(S(=O)(=O)[O-])cc4)c4nc(c(-c5ccc(S(=O)(=O)[O-])cc5)c5ccc2[nH]5)C=C4)C=C3)cc1
REMARK SMILES IDX 23 1 22 2 21 3 20 4 19 5 18 6 16 7 17 8 4 9 3 10 2 11 1 12
REMARK SMILES IDX 5 13 6 16 7 17 8 18 15 19 9 20 14 21 10 22 11 23 12 24 13 25
REMARK SMILES IDX 24 26 25 27 26 28 27 29 28 30 29 31 30 32 31 33 32 34 33 35
REMARK SMILES IDX 34 36 92 37 35 38 91 39 36 40 37 41 38 42 85 43 39 44 90 45
REMARK SMILES IDX 84 46 86 47 40 48 89 49 83 50 82 51 41 53 71 54 52 55 70 56
REMARK SMILES IDX 53 57 56 58 69 59 87 60 54 61 55 62 68 64 88 65 57 66 42 67
REMARK SMILES IDX 43 68 51 69 44 70 50 71 45 72 46 73 47 74 48 75 49 76 72 77
REMARK SMILES IDX 73 78 81 79 74 80 80 81 75 82 76 83 77 84 78 85 79 86 58 87
REMARK SMILES IDX 59 88 67 89 60 90 66 91 61 92 62 93 63 94 64 95 65 96
REMARK H PARENT 5 14 5 15 86 52 56 63
REMARK Flexibility Score: inf
ROOT
ATOM      1  C   UNL A   1      38.052  22.782  25.770  1.00  0.00     0.188 C 
ENDROOT
BRANCH   1   2
ATOM      2  C   UNL A   1      36.532  22.904  25.665  1.00  0.00     0.188 C 
BRANCH   2   3
ATOM      3  O   UNL A   1      35.878  22.234  24.591  1.00  0.00    -0.376 OA
BRANCH   3   4
ATOM      4  C   UNL A   1      34.496  22.482  24.330  1.00  0.00     0.202 C 
BRANCH   4   5
ATOM      5  C   UNL A   1      33.942  23.926  24.311  1.00  0.00     0.261 C 
BRANCH   5   6
ATOM      6  O   UNL A   1      34.505  24.850  23.346  1.00  0.00    -0.459 OA
BRANCH   6   7
ATOM      7  C   UNL A   1      33.606  25.688  22.785  1.00  0.00     0.364 C 
ATOM      8  O   UNL A   1      33.264  25.550  21.608  1.00  0.00    -0.245 OA
BRANCH   7   9
ATOM      9  C   UNL A   1      32.939  26.780  23.663  1.00  0.00     0.293 C 
BRANCH   9  10
ATOM     10  C   UNL A   1      32.165  27.780  22.761  1.00  0.00     0.077 C 
BRANCH  10  11
ATOM     11  C   UNL A   1      30.700  27.466  22.407  1.00  0.00     0.003 C 
ATOM     12  C   UNL A   1      29.697  28.541  22.807  1.00  0.00     0.004 C 
ENDBRANCH  10  11
ENDBRANCH   9  10
BRANCH   9  13
ATOM     13  N   UNL A   1      33.682  27.634  24.656  1.00  0.00    -0.329 N 
ATOM     14  H   UNL A   1      34.505  28.005  24.180  1.00  0.00     0.347 HD
ATOM     15  H   UNL A   1      33.869  27.009  25.440  1.00  0.00     0.347 HD
BRANCH  13  16
ATOM     16  C   UNL A   1      32.978  28.764  25.251  1.00  0.00     0.330 C 
BRANCH  16  17
ATOM     17  C   UNL A   1      33.680  29.468  26.413  1.00  0.00     0.147 A 
ATOM     18  N   UNL A   1      34.928  29.283  26.827  1.00  0.00    -0.240 NA
ATOM     19  S   UNL A   1      32.872  30.806  27.148  1.00  0.00    -0.121 S 
ATOM     20  C   UNL A   1      35.287  30.260  27.774  1.00  0.00     0.057 A 
ATOM     21  C   UNL A   1      34.281  31.176  28.033  1.00  0.00     0.091 A 
BRANCH  20  22
ATOM     22  C   UNL A   1      36.655  30.242  28.469  1.00  0.00     0.005 C 
ATOM     23  C   UNL A   1      37.113  31.656  28.894  1.00  0.00     0.017 C 
ATOM     24  C   UNL A   1      36.573  29.389  29.753  1.00  0.00     0.017 C 
ATOM     25  C   UNL A   1      37.750  29.655  27.560  1.00  0.00     0.017 C 
ENDBRANCH  20  22
ENDBRANCH  16  17
ENDBRANCH  13  16
ENDBRANCH   9  13
ENDBRANCH   7   9
ENDBRANCH   6   7
ENDBRANCH   5   6
ENDBRANCH   4   5
ENDBRANCH   3   4
ENDBRANCH   2   3
ENDBRANCH   1   2
BRANCH   1  26
ATOM     26  O   UNL A   1      38.435  21.426  25.872  1.00  0.00    -0.377 OA
BRANCH  26  27
ATOM     27  C   UNL A   1      39.781  21.050  26.128  1.00  0.00     0.188 C 
BRANCH  27  28
ATOM     28  C   UNL A   1      40.491  21.744  27.286  1.00  0.00     0.188 C 
BRANCH  28  29
ATOM     29  O   UNL A   1      41.883  21.455  27.433  1.00  0.00    -0.376 OA
BRANCH  29  30
ATOM     30  C   UNL A   1      42.598  21.006  26.284  1.00  0.00     0.202 C 
BRANCH  30  31
ATOM     31  C   UNL A   1      43.554  22.029  25.676  1.00  0.00     0.261 C 
BRANCH  31  32
ATOM     32  O   UNL A   1      42.952  23.318  25.490  1.00  0.00    -0.460 OA
BRANCH  32  33
ATOM     33  C   UNL A   1      43.813  24.358  25.578  1.00  0.00     0.338 C 
ATOM     34  O   UNL A   1      44.233  25.045  24.664  1.00  0.00    -0.246 OA
BRANCH  33  35
ATOM     35  C   UNL A   1      44.074  24.673  26.993  1.00  0.00     0.060 A 
ATOM     36  C   UNL A   1      42.969  24.861  27.830  1.00  0.00     0.016 A 
ATOM     37  C   UNL A   1      45.371  24.901  27.457  1.00  0.00     0.016 A 
ATOM     38  C   UNL A   1      43.152  25.356  29.116  1.00  0.00     0.010 A 
ATOM     39  C   UNL A   1      45.554  25.402  28.747  1.00  0.00     0.010 A 
ATOM     40  C   UNL A   1      44.440  25.684  29.557  1.00  0.00    -0.014 A 
BRANCH  40  41
ATOM     41  C   UNL A   1      44.582  26.513  30.776  1.00  0.00     0.031 A 
ATOM     42  C   UNL A   1      44.338  27.995  30.670  1.00  0.00     0.074 A 
ATOM     43  C   UNL A   1      44.847  25.942  31.963  1.00  0.00     0.049 A 
ATOM     44  N   UNL A   1      44.368  28.908  31.606  1.00  0.00    -0.248 NA
ATOM     45  C   UNL A   1      44.017  28.518  29.330  1.00  0.00     0.031 C 
ATOM     46  C   UNL A   1      45.051  24.511  32.185  1.00  0.00     0.029 A 
ATOM     47  N   UNL A   1      44.979  26.501  33.207  1.00  0.00    -0.354 N 
ATOM     48  C   UNL A   1      44.076  30.110  30.969  1.00  0.00     0.074 A 
ATOM     49  C   UNL A   1      43.910  29.817  29.563  1.00  0.00     0.031 C 
ATOM     50  C   UNL A   1      45.277  24.303  33.494  1.00  0.00     0.029 A 
ATOM     51  C   UNL A   1      45.264  25.587  34.191  1.00  0.00     0.049 A 
ATOM     52  H   UNL A   1      44.880  27.466  33.378  1.00  0.00     0.167 HD
ATOM     53  C   UNL A   1      43.949  31.346  31.509  1.00  0.00     0.031 A 
ATOM     54  C   UNL A   1      45.497  25.771  35.505  1.00  0.00     0.031 A 
ATOM     55  C   UNL A   1      44.132  31.628  32.908  1.00  0.00     0.049 A 
ATOM     56  C   UNL A   1      45.412  27.164  36.072  1.00  0.00     0.074 A 
ATOM     57  C   UNL A   1      44.025  32.842  33.564  1.00  0.00     0.029 A 
ATOM     58  N   UNL A   1      44.465  30.684  33.868  1.00  0.00    -0.354 N 
ATOM     59  N   UNL A   1      45.124  28.289  35.461  1.00  0.00    -0.248 NA
ATOM     60  C   UNL A   1      45.667  27.306  37.511  1.00  0.00     0.031 C 
ATOM     61  C   UNL A   1      44.352  32.640  34.909  1.00  0.00     0.029 A 
ATOM     62  C   UNL A   1      44.592  31.290  35.106  1.00  0.00     0.049 A 
ATOM     63  H   UNL A   1      44.593  29.722  33.693  1.00  0.00     0.167 HD
ATOM     64  C   UNL A   1      45.134  29.270  36.448  1.00  0.00     0.074 A 
ATOM     65  C   UNL A   1      45.436  28.598  37.696  1.00  0.00     0.031 C 
ATOM     66  C   UNL A   1      44.909  30.604  36.335  1.00  0.00     0.031 A 
BRANCH  53  67
ATOM     67  C   UNL A   1      43.638  32.486  30.573  1.00  0.00    -0.014 A 
ATOM     68  C   UNL A   1      44.639  33.082  29.784  1.00  0.00     0.010 A 
ATOM     69  C   UNL A   1      42.316  32.955  30.467  1.00  0.00     0.010 A 
ATOM     70  C   UNL A   1      44.331  34.152  28.938  1.00  0.00     0.020 A 
ATOM     71  C   UNL A   1      41.998  34.005  29.600  1.00  0.00     0.020 A 
ATOM     72  C   UNL A   1      43.012  34.608  28.853  1.00  0.00     0.054 A 
BRANCH  72  73
ATOM     73  S   UNL A   1      42.637  35.987  27.735  1.00  0.00     0.124 S 
ATOM     74  O   UNL A   1      43.634  35.801  26.684  1.00  0.00    -0.237 OA
ATOM     75  O   UNL A   1      41.255  35.716  27.346  1.00  0.00    -0.237 OA
ATOM     76  O   UNL A   1      42.825  37.171  28.569  1.00  0.00    -0.744 OA
ENDBRANCH  72  73
ENDBRANCH  53  67
BRANCH  54  77
ATOM     77  C   UNL A   1      45.834  24.607  36.369  1.00  0.00    -0.014 A 
ATOM     78  C   UNL A   1      44.924  24.133  37.330  1.00  0.00     0.010 A 
ATOM     79  C   UNL A   1      47.075  23.958  36.226  1.00  0.00     0.010 A 
ATOM     80  C   UNL A   1      45.253  23.044  38.142  1.00  0.00     0.020 A 
ATOM     81  C   UNL A   1      47.396  22.850  37.015  1.00  0.00     0.020 A 
ATOM     82  C   UNL A   1      46.486  22.406  37.976  1.00  0.00     0.054 A 
BRANCH  82  83
ATOM     83  S   UNL A   1      46.868  20.959  39.003  1.00  0.00     0.124 S 
ATOM     84  O   UNL A   1      48.311  20.836  38.828  1.00  0.00    -0.237 OA
ATOM     85  O   UNL A   1      46.424  21.389  40.326  1.00  0.00    -0.237 OA
ATOM     86  O   UNL A   1      46.070  19.894  38.401  1.00  0.00    -0.744 OA
ENDBRANCH  82  83
ENDBRANCH  54  77
BRANCH  66  87
ATOM     87  C   UNL A   1      44.944  31.414  37.605  1.00  0.00    -0.014 A 
ATOM     88  C   UNL A   1      43.777  31.665  38.349  1.00  0.00     0.010 A 
ATOM     89  C   UNL A   1      46.174  31.919  38.069  1.00  0.00     0.010 A 
ATOM     90  C   UNL A   1      43.830  32.460  39.498  1.00  0.00     0.020 A 
ATOM     91  C   UNL A   1      46.236  32.683  39.236  1.00  0.00     0.020 A 
ATOM     92  C   UNL A   1      45.058  32.970  39.929  1.00  0.00     0.054 A 
BRANCH  92  93
ATOM     93  S   UNL A   1      45.101  34.000  41.420  1.00  0.00     0.124 S 
ATOM     94  O   UNL A   1      44.498  33.118  42.415  1.00  0.00    -0.237 OA
ATOM     95  O   UNL A   1      46.529  34.258  41.591  1.00  0.00    -0.237 OA
ATOM     96  O   UNL A   1      44.303  35.170  41.057  1.00  0.00    -0.744 OA
ENDBRANCH  92  93
ENDBRANCH  66  87
ENDBRANCH  40  41
ENDBRANCH  33  35
ENDBRANCH  32  33
ENDBRANCH  31  32
ENDBRANCH  30  31
ENDBRANCH  29  30
ENDBRANCH  28  29
ENDBRANCH  27  28
ENDBRANCH  26  27
ENDBRANCH   1  26
TORSDOF 29
ENDMDL
MODEL 3
REMARK VINA RESULT:      -6.5      7.575     13.744
REMARK SMILES CCC[C@H]([NH2+]Cc1nc(C(C)(C)C)cs1)C(=O)OCCOCCOCCOCCOC(=O)c1ccc(-c2c3nc(c(-c4ccc(S(=O)(=O)[O-])cc4)c4ccc([nH]4)c(-c4ccc(S(=O)(=O)[O-])cc4)c4nc(c(-c5ccc(S(=O)(=O)[O-])cc5)c5ccc2[nH]5)C=C4)C=C3)cc1
REMARK SMILES IDX 23 1 22 2 21 3 20 4 19 5 18 6 16 7 17 8 4 9 3 10 2 11 1 12
REMARK SMILES IDX 5 13 6 16 7 17 8 18 15 19 9 20 14 21 10 22 11 23 12 24 13 25
REMARK SMILES IDX 24 26 25 27 26 28 27 29 28 30 29 31 30 32 31 33 32 34 33 35
REMARK SMILES IDX 34 36 92 37 35 38 91 39 36 40 37 41 38 42 85 43 39 44 90 45
REMARK SMILES IDX 84 46 86 47 40 48 89 49 83 50 82 51 41 53 71 54 52 55 70 56
REMARK SMILES IDX 53 57 56 58 69 59 87 60 54 61 55 62 68 64 88 65 57 66 42 67
REMARK SMILES IDX 43 68 51 69 44 70 50 71 45 72 46 73 47 74 48 75 49 76 72 77
REMARK SMILES IDX 73 78 81 79 74 80 80 81 75 82 76 83 77 84 78 85 79 86 58 87
REMARK SMILES IDX 59 88 67 89 60 90 66 91 61 92 62 93 63 94 64 95 65 96
REMARK H PARENT 5 14 5 15 86 52 56 63
REMARK Flexibility Score: inf
ROOT
ATOM      1  C   UNL A   1      46.974  24.934  25.764  1.00  0.00     0.188 C 
ENDROOT
BRANCH   1   2
ATOM      2  C   UNL A   1      47.868  25.311  24.582  1.00  0.00     0.188 C 
BRANCH   2   3
ATOM      3  O   UNL A   1      47.425  26.348  23.710  1.00  0.00    -0.376 OA
BRANCH   3   4
ATOM      4  C   UNL A   1      48.276  27.461  23.433  1.00  0.00     0.202 C 
BRANCH   4   5
ATOM      5  C   UNL A   1      48.828  27.697  22.008  1.00  0.00     0.261 C 
BRANCH   5   6
ATOM      6  O   UNL A   1      49.698  26.683  21.446  1.00  0.00    -0.459 OA
BRANCH   6   7
ATOM      7  C   UNL A   1      51.007  27.014  21.437  1.00  0.00     0.364 C 
ATOM      8  O   UNL A   1      51.647  27.087  22.490  1.00  0.00    -0.245 OA
BRANCH   7   9
ATOM      9  C   UNL A   1      51.727  27.219  20.078  1.00  0.00     0.293 C 
BRANCH   9  10
ATOM     10  C   UNL A   1      51.259  28.552  19.432  1.00  0.00     0.077 C 
BRANCH  10  11
ATOM     11  C   UNL A   1      51.494  29.864  20.203  1.00  0.00     0.003 C 
ATOM     12  C   UNL A   1      51.921  31.047  19.344  1.00  0.00     0.004 C 
ENDBRANCH  10  11
ENDBRANCH   9  10
BRANCH   9  13
ATOM     13  N   UNL A   1      51.719  26.211  18.959  1.00  0.00    -0.329 N 
ATOM     14  H   UNL A   1      52.689  25.953  18.777  1.00  0.00     0.347 HD
ATOM     15  H   UNL A   1      51.235  26.682  18.195  1.00  0.00     0.347 HD
BRANCH  13  16
ATOM     16  C   UNL A   1      50.969  24.975  19.157  1.00  0.00     0.330 C 
BRANCH  16  17
ATOM     17  C   UNL A   1      51.517  23.729  18.458  1.00  0.00     0.147 A 
ATOM     18  N   UNL A   1      52.581  23.654  17.668  1.00  0.00    -0.240 NA
ATOM     19  S   UNL A   1      50.837  22.201  18.893  1.00  0.00    -0.121 S 
ATOM     20  C   UNL A   1      52.901  22.311  17.392  1.00  0.00     0.057 A 
ATOM     21  C   UNL A   1      52.058  21.403  18.010  1.00  0.00     0.091 A 
BRANCH  20  22
ATOM     22  C   UNL A   1      54.050  21.937  16.446  1.00  0.00     0.005 C 
ATOM     23  C   UNL A   1      53.599  20.954  15.341  1.00  0.00     0.017 C 
ATOM     24  C   UNL A   1      54.573  23.204  15.739  1.00  0.00     0.017 C 
ATOM     25  C   UNL A   1      55.219  21.279  17.201  1.00  0.00     0.017 C 
ENDBRANCH  20  22
ENDBRANCH  16  17
ENDBRANCH  13  16
ENDBRANCH   9  13
ENDBRANCH   7   9
ENDBRANCH   6   7
ENDBRANCH   5   6
ENDBRANCH   4   5
ENDBRANCH   3   4
ENDBRANCH   2   3
ENDBRANCH   1   2
BRANCH   1  26
ATOM     26  O   UNL A   1      46.826  23.532  25.846  1.00  0.00    -0.377 OA
BRANCH  26  27
ATOM     27  C   UNL A   1      45.867  22.838  25.061  1.00  0.00     0.188 C 
BRANCH  27  28
ATOM     28  C   UNL A   1      45.135  21.675  25.722  1.00  0.00     0.188 C 
BRANCH  28  29
ATOM     29  O   UNL A   1      43.974  21.194  25.039  1.00  0.00    -0.376 OA
BRANCH  29  30
ATOM     30  C   UNL A   1      43.071  20.359  25.761  1.00  0.00     0.202 C 
BRANCH  30  31
ATOM     31  C   UNL A   1      42.033  21.101  26.600  1.00  0.00     0.261 C 
BRANCH  31  32
ATOM     32  O   UNL A   1      41.280  22.058  25.842  1.00  0.00    -0.460 OA
BRANCH  32  33
ATOM     33  C   UNL A   1      40.552  22.920  26.590  1.00  0.00     0.338 C 
ATOM     34  O   UNL A   1      39.414  22.763  26.994  1.00  0.00    -0.246 OA
BRANCH  33  35
ATOM     35  C   UNL A   1      41.393  24.055  27.004  1.00  0.00     0.060 A 
ATOM     36  C   UNL A   1      41.713  24.165  28.362  1.00  0.00     0.016 A 
ATOM     37  C   UNL A   1      41.753  25.057  26.101  1.00  0.00     0.016 A 
ATOM     38  C   UNL A   1      42.327  25.317  28.837  1.00  0.00     0.010 A 
ATOM     39  C   UNL A   1      42.367  26.216  26.579  1.00  0.00     0.010 A 
ATOM     40  C   UNL A   1      42.602  26.371  27.957  1.00  0.00    -0.014 A 
BRANCH  40  41
ATOM     41  C   UNL A   1      42.936  27.698  28.522  1.00  0.00     0.031 A 
ATOM     42  C   UNL A   1      44.386  28.091  28.626  1.00  0.00     0.074 A 
ATOM     43  C   UNL A   1      41.964  28.561  28.860  1.00  0.00     0.049 A 
ATOM     44  N   UNL A   1      44.912  29.210  29.051  1.00  0.00    -0.248 NA
ATOM     45  C   UNL A   1      45.375  27.088  28.194  1.00  0.00     0.031 C 
ATOM     46  C   UNL A   1      40.528  28.300  28.751  1.00  0.00     0.029 A 
ATOM     47  N   UNL A   1      42.040  29.836  29.355  1.00  0.00    -0.354 N 
ATOM     48  C   UNL A   1      46.289  29.045  28.944  1.00  0.00     0.074 A 
ATOM     49  C   UNL A   1      46.519  27.706  28.449  1.00  0.00     0.031 C 
ATOM     50  C   UNL A   1      39.856  29.390  29.163  1.00  0.00     0.029 A 
ATOM     51  C   UNL A   1      40.814  30.408  29.592  1.00  0.00     0.049 A 
ATOM     52  H   UNL A   1      42.893  30.298  29.526  1.00  0.00     0.167 HD
ATOM     53  C   UNL A   1      47.273  29.932  29.222  1.00  0.00     0.031 A 
ATOM     54  C   UNL A   1      40.503  31.613  30.105  1.00  0.00     0.031 A 
ATOM     55  C   UNL A   1      47.034  31.258  29.728  1.00  0.00     0.049 A 
ATOM     56  C   UNL A   1      41.617  32.560  30.467  1.00  0.00     0.074 A 
ATOM     57  C   UNL A   1      47.956  32.241  30.042  1.00  0.00     0.029 A 
ATOM     58  N   UNL A   1      45.779  31.786  29.998  1.00  0.00    -0.354 N 
ATOM     59  N   UNL A   1      42.914  32.395  30.348  1.00  0.00    -0.248 NA
ATOM     60  C   UNL A   1      41.222  33.864  31.015  1.00  0.00     0.031 C 
ATOM     61  C   UNL A   1      47.261  33.340  30.558  1.00  0.00     0.029 A 
ATOM     62  C   UNL A   1      45.903  33.070  30.498  1.00  0.00     0.049 A 
ATOM     63  H   UNL A   1      44.926  31.314  29.855  1.00  0.00     0.167 HD
ATOM     64  C   UNL A   1      43.489  33.587  30.780  1.00  0.00     0.074 A 
ATOM     65  C   UNL A   1      42.396  34.467  31.142  1.00  0.00     0.031 C 
ATOM     66  C   UNL A   1      44.801  33.925  30.866  1.00  0.00     0.031 A 
BRANCH  53  67
ATOM     67  C   UNL A   1      48.697  29.478  29.024  1.00  0.00    -0.014 A 
ATOM     68  C   UNL A   1      49.294  29.466  27.750  1.00  0.00     0.010 A 
ATOM     69  C   UNL A   1      49.458  29.074  30.137  1.00  0.00     0.010 A 
ATOM     70  C   UNL A   1      50.609  29.021  27.587  1.00  0.00     0.020 A 
ATOM     71  C   UNL A   1      50.783  28.656  29.983  1.00  0.00     0.020 A 
ATOM     72  C   UNL A   1      51.345  28.616  28.706  1.00  0.00     0.054 A 
BRANCH  72  73
ATOM     73  S   UNL A   1      53.055  28.058  28.469  1.00  0.00     0.124 S 
ATOM     74  O   UNL A   1      52.861  26.745  27.858  1.00  0.00    -0.237 OA
ATOM     75  O   UNL A   1      53.607  29.085  27.588  1.00  0.00    -0.237 OA
ATOM     76  O   UNL A   1      53.604  28.040  29.821  1.00  0.00    -0.744 OA
ENDBRANCH  72  73
ENDBRANCH  53  67
BRANCH  54  77
ATOM     77  C   UNL A   1      39.077  31.988  30.308  1.00  0.00    -0.014 A 
ATOM     78  C   UNL A   1      38.373  32.709  29.328  1.00  0.00     0.010 A 
ATOM     79  C   UNL A   1      38.411  31.615  31.490  1.00  0.00     0.010 A 
ATOM     80  C   UNL A   1      37.036  33.063  29.531  1.00  0.00     0.020 A 
ATOM     81  C   UNL A   1      37.066  31.941  31.686  1.00  0.00     0.020 A 
ATOM     82  C   UNL A   1      36.390  32.672  30.708  1.00  0.00     0.054 A 
BRANCH  82  83
ATOM     83  S   UNL A   1      34.638  33.094  30.926  1.00  0.00     0.124 S 
ATOM     84  O   UNL A   1      34.326  32.449  32.196  1.00  0.00    -0.237 OA
ATOM     85  O   UNL A   1      34.669  34.554  30.946  1.00  0.00    -0.237 OA
ATOM     86  O   UNL A   1      33.998  32.509  29.750  1.00  0.00    -0.744 OA
ENDBRANCH  82  83
ENDBRANCH  54  77
BRANCH  66  87
ATOM     87  C   UNL A   1      45.118  35.322  31.334  1.00  0.00    -0.014 A 
ATOM     88  C   UNL A   1      45.289  35.619  32.698  1.00  0.00     0.010 A 
ATOM     89  C   UNL A   1      45.261  36.353  30.386  1.00  0.00     0.010 A 
ATOM     90  C   UNL A   1      45.536  36.932  33.110  1.00  0.00     0.020 A 
ATOM     91  C   UNL A   1      45.542  37.660  30.791  1.00  0.00     0.020 A 
ATOM     92  C   UNL A   1      45.653  37.944  32.153  1.00  0.00     0.054 A 
BRANCH  92  93
ATOM     93  S   UNL A   1      45.969  39.641  32.711  1.00  0.00     0.124 S 
ATOM     94  O   UNL A   1      45.707  39.542  34.144  1.00  0.00    -0.237 OA
ATOM     95  O   UNL A   1      47.366  39.846  32.339  1.00  0.00    -0.237 OA
ATOM     96  O   UNL A   1      45.007  40.439  31.954  1.00  0.00    -0.744 OA
ENDBRANCH  92  93
ENDBRANCH  66  87
ENDBRANCH  40  41
ENDBRANCH  33  35
ENDBRANCH  32  33
ENDBRANCH  31  32
ENDBRANCH  30  31
ENDBRANCH  29  30
ENDBRANCH  28  29
ENDBRANCH  27  28
ENDBRANCH  26  27
ENDBRANCH   1  26
TORSDOF 29
ENDMDL
