MODEL 1
REMARK VINA RESULT:      -7.4      0.000      0.000
REMARK SMILES C[C@H](O)[C@H](C)Oc1ccc(Br)cc1C(=O)OCCOCCOCCOCCOC(=O)c1ccc(-c2c3nc(c(-c4ccc(S(=O)(=O)[O-])cc4)c4ccc([nH]4)c(-c4ccc(S(=O)(=O)[O-])cc4)c4nc(c(-c5ccc(S(=O)(=O)[O-])cc5)c5ccc2[nH]5)C=C4)C=C3)cc1
REMARK SMILES IDX 21 1 20 2 19 3 18 4 17 5 16 6 14 7 15 8 13 9 7 10 8 11 9 12
REMARK SMILES IDX 12 13 10 14 11 15 6 16 4 17 5 18 2 19 1 20 3 21 22 23 23 24
REMARK SMILES IDX 24 25 25 26 26 27 27 28 28 29 29 30 30 31 31 32 32 33 90 34
REMARK SMILES IDX 33 35 89 36 34 37 35 38 36 39 83 40 37 41 88 42 82 43 84 44
REMARK SMILES IDX 38 45 87 46 81 47 80 48 39 50 69 51 50 52 68 53 51 54 54 55
REMARK SMILES IDX 67 56 85 57 52 58 53 59 66 61 86 62 55 63 40 64 41 65 49 66
REMARK SMILES IDX 42 67 48 68 43 69 44 70 45 71 46 72 47 73 70 74 71 75 79 76
REMARK SMILES IDX 72 77 78 78 73 79 74 80 75 81 76 82 77 83 56 84 57 85 65 86
REMARK SMILES IDX 58 87 64 88 59 89 60 90 61 91 62 92 63 93
REMARK H PARENT 3 22 84 49 54 60
REMARK Flexibility Score: inf
ROOT
ATOM      1  C   UNL A   1      37.959  32.263  36.432  1.00  0.00     0.188 C 
ENDROOT
BRANCH   1   2
ATOM      2  C   UNL A   1      37.647  32.942  37.769  1.00  0.00     0.188 C 
BRANCH   2   3
ATOM      3  O   UNL A   1      36.520  32.475  38.487  1.00  0.00    -0.376 OA
BRANCH   3   4
ATOM      4  C   UNL A   1      36.499  32.601  39.909  1.00  0.00     0.202 C 
BRANCH   4   5
ATOM      5  C   UNL A   1      36.942  31.454  40.835  1.00  0.00     0.261 C 
BRANCH   5   6
ATOM      6  O   UNL A   1      36.347  31.470  42.149  1.00  0.00    -0.460 OA
BRANCH   6   7
ATOM      7  C   UNL A   1      36.983  32.253  43.058  1.00  0.00     0.342 C 
ATOM      8  O   UNL A   1      36.666  33.391  43.377  1.00  0.00    -0.246 OA
BRANCH   7   9
ATOM      9  C   UNL A   1      37.993  31.517  43.850  1.00  0.00     0.103 A 
ATOM     10  C   UNL A   1      37.691  30.791  45.011  1.00  0.00     0.134 A 
ATOM     11  C   UNL A   1      38.666  29.932  45.525  1.00  0.00     0.048 A 
ATOM     12  C   UNL A   1      39.948  29.875  44.967  1.00  0.00     0.019 A 
ATOM     13  C   UNL A   1      39.279  31.459  43.283  1.00  0.00     0.035 A 
ATOM     14  C   UNL A   1      40.255  30.659  43.862  1.00  0.00     0.019 A 
ATOM     15  Br  UNL A   1      41.992  30.606  43.121  1.00  0.00    -0.051 Br
BRANCH  10  16
ATOM     16  O   UNL A   1      36.444  30.928  45.531  1.00  0.00    -0.487 OA
BRANCH  16  17
ATOM     17  C   UNL A   1      35.473  29.863  45.544  1.00  0.00     0.198 C 
ATOM     18  C   UNL A   1      35.606  28.958  46.770  1.00  0.00     0.056 C 
BRANCH  17  19
ATOM     19  C   UNL A   1      34.007  30.224  45.163  1.00  0.00     0.151 C 
ATOM     20  C   UNL A   1      33.015  29.105  45.439  1.00  0.00     0.042 C 
BRANCH  19  21
ATOM     21  O   UNL A   1      33.859  30.659  43.807  1.00  0.00    -0.390 OA
ATOM     22  H   UNL A   1      32.933  30.562  43.535  1.00  0.00     0.211 HD
ENDBRANCH  19  21
ENDBRANCH  17  19
ENDBRANCH  16  17
ENDBRANCH  10  16
ENDBRANCH   7   9
ENDBRANCH   6   7
ENDBRANCH   5   6
ENDBRANCH   4   5
ENDBRANCH   3   4
ENDBRANCH   2   3
ENDBRANCH   1   2
BRANCH   1  23
ATOM     23  O   UNL A   1      37.039  32.470  35.374  1.00  0.00    -0.377 OA
BRANCH  23  24
ATOM     24  C   UNL A   1      36.397  33.738  35.241  1.00  0.00     0.188 C 
BRANCH  24  25
ATOM     25  C   UNL A   1      36.088  34.265  33.838  1.00  0.00     0.188 C 
BRANCH  25  26
ATOM     26  O   UNL A   1      37.157  34.285  32.888  1.00  0.00    -0.376 OA
BRANCH  26  27
ATOM     27  C   UNL A   1      37.672  33.047  32.405  1.00  0.00     0.202 C 
BRANCH  27  28
ATOM     28  C   UNL A   1      36.751  32.305  31.438  1.00  0.00     0.261 C 
BRANCH  28  29
ATOM     29  O   UNL A   1      36.513  30.957  31.868  1.00  0.00    -0.460 OA
BRANCH  29  30
ATOM     30  C   UNL A   1      36.720  30.012  30.922  1.00  0.00     0.338 C 
ATOM     31  O   UNL A   1      35.884  29.307  30.387  1.00  0.00    -0.246 OA
BRANCH  30  32
ATOM     32  C   UNL A   1      38.136  30.030  30.511  1.00  0.00     0.060 A 
ATOM     33  C   UNL A   1      38.421  30.148  29.146  1.00  0.00     0.016 A 
ATOM     34  C   UNL A   1      39.162  29.834  31.440  1.00  0.00     0.016 A 
ATOM     35  C   UNL A   1      39.728  29.996  28.694  1.00  0.00     0.010 A 
ATOM     36  C   UNL A   1      40.472  29.681  30.986  1.00  0.00     0.010 A 
ATOM     37  C   UNL A   1      40.750  29.710  29.608  1.00  0.00    -0.014 A 
BRANCH  37  38
ATOM     38  C   UNL A   1      42.067  29.253  29.111  1.00  0.00     0.031 A 
ATOM     39  C   UNL A   1      43.198  30.245  29.053  1.00  0.00     0.074 A 
ATOM     40  C   UNL A   1      42.257  27.975  28.740  1.00  0.00     0.049 A 
ATOM     41  N   UNL A   1      44.422  30.082  28.626  1.00  0.00    -0.248 NA
ATOM     42  C   UNL A   1      42.906  31.605  29.540  1.00  0.00     0.031 C 
ATOM     43  C   UNL A   1      41.247  26.919  28.796  1.00  0.00     0.029 A 
ATOM     44  N   UNL A   1      43.371  27.352  28.240  1.00  0.00    -0.354 N 
ATOM     45  C   UNL A   1      45.042  31.317  28.780  1.00  0.00     0.074 A 
ATOM     46  C   UNL A   1      44.052  32.227  29.310  1.00  0.00     0.031 C 
ATOM     47  C   UNL A   1      41.787  25.776  28.342  1.00  0.00     0.029 A 
ATOM     48  C   UNL A   1      43.167  26.029  27.931  1.00  0.00     0.049 A 
ATOM     49  H   UNL A   1      44.233  27.809  28.114  1.00  0.00     0.167 HD
ATOM     50  C   UNL A   1      46.325  31.659  28.512  1.00  0.00     0.031 A 
ATOM     51  C   UNL A   1      43.997  25.132  27.364  1.00  0.00     0.031 A 
ATOM     52  C   UNL A   1      47.299  30.749  27.972  1.00  0.00     0.049 A 
ATOM     53  C   UNL A   1      45.398  25.553  27.006  1.00  0.00     0.074 A 
ATOM     54  C   UNL A   1      48.629  30.987  27.674  1.00  0.00     0.029 A 
ATOM     55  N   UNL A   1      47.045  29.426  27.640  1.00  0.00    -0.354 N 
ATOM     56  N   UNL A   1      45.979  26.718  27.179  1.00  0.00    -0.248 NA
ATOM     57  C   UNL A   1      46.258  24.537  26.386  1.00  0.00     0.031 C 
ATOM     58  C   UNL A   1      49.162  29.826  27.106  1.00  0.00     0.029 A 
ATOM     59  C   UNL A   1      48.185  28.843  27.114  1.00  0.00     0.049 A 
ATOM     60  H   UNL A   1      46.182  28.969  27.761  1.00  0.00     0.167 HD
ATOM     61  C   UNL A   1      47.281  26.564  26.716  1.00  0.00     0.074 A 
ATOM     62  C   UNL A   1      47.406  25.192  26.267  1.00  0.00     0.031 C 
ATOM     63  C   UNL A   1      48.286  27.475  26.670  1.00  0.00     0.031 A 
BRANCH  50  64
ATOM     64  C   UNL A   1      46.730  33.089  28.760  1.00  0.00    -0.014 A 
ATOM     65  C   UNL A   1      47.255  33.497  30.000  1.00  0.00     0.010 A 
ATOM     66  C   UNL A   1      46.606  34.036  27.727  1.00  0.00     0.010 A 
ATOM     67  C   UNL A   1      47.605  34.833  30.216  1.00  0.00     0.020 A 
ATOM     68  C   UNL A   1      46.983  35.367  27.929  1.00  0.00     0.020 A 
ATOM     69  C   UNL A   1      47.464  35.760  29.179  1.00  0.00     0.054 A 
BRANCH  69  70
ATOM     70  S   UNL A   1      47.939  37.485  29.482  1.00  0.00     0.124 S 
ATOM     71  O   UNL A   1      47.459  37.693  30.846  1.00  0.00    -0.237 OA
ATOM     72  O   UNL A   1      49.391  37.448  29.327  1.00  0.00    -0.237 OA
ATOM     73  O   UNL A   1      47.223  38.229  28.449  1.00  0.00    -0.744 OA
ENDBRANCH  69  70
ENDBRANCH  50  64
BRANCH  51  74
ATOM     74  C   UNL A   1      43.516  23.750  27.089  1.00  0.00    -0.014 A 
ATOM     75  C   UNL A   1      43.375  22.818  28.131  1.00  0.00     0.010 A 
ATOM     76  C   UNL A   1      43.185  23.363  25.776  1.00  0.00     0.010 A 
ATOM     77  C   UNL A   1      42.920  21.523  27.866  1.00  0.00     0.020 A 
ATOM     78  C   UNL A   1      42.704  22.078  25.511  1.00  0.00     0.020 A 
ATOM     79  C   UNL A   1      42.583  21.163  26.557  1.00  0.00     0.054 A 
BRANCH  79  80
ATOM     80  S   UNL A   1      41.940  19.495  26.247  1.00  0.00     0.124 S 
ATOM     81  O   UNL A   1      40.505  19.738  26.141  1.00  0.00    -0.237 OA
ATOM     82  O   UNL A   1      42.613  19.125  25.004  1.00  0.00    -0.237 OA
ATOM     83  O   UNL A   1      42.362  18.741  27.425  1.00  0.00    -0.744 OA
ENDBRANCH  79  80
ENDBRANCH  51  74
BRANCH  63  84
ATOM     84  C   UNL A   1      49.622  27.009  26.150  1.00  0.00    -0.014 A 
ATOM     85  C   UNL A   1      50.535  26.334  26.978  1.00  0.00     0.010 A 
ATOM     86  C   UNL A   1      49.939  27.198  24.792  1.00  0.00     0.010 A 
ATOM     87  C   UNL A   1      51.756  25.886  26.466  1.00  0.00     0.020 A 
ATOM     88  C   UNL A   1      51.145  26.725  24.269  1.00  0.00     0.020 A 
ATOM     89  C   UNL A   1      52.053  26.084  25.113  1.00  0.00     0.054 A 
BRANCH  89  90
ATOM     90  S   UNL A   1      53.624  25.455  24.464  1.00  0.00     0.124 S 
ATOM     91  O   UNL A   1      53.552  25.848  23.060  1.00  0.00    -0.237 OA
ATOM     92  O   UNL A   1      54.612  26.171  25.267  1.00  0.00    -0.237 OA
ATOM     93  O   UNL A   1      53.551  24.017  24.713  1.00  0.00    -0.744 OA
ENDBRANCH  89  90
ENDBRANCH  63  84
ENDBRANCH  37  38
ENDBRANCH  30  32
ENDBRANCH  29  30
ENDBRANCH  28  29
ENDBRANCH  27  28
ENDBRANCH  26  27
ENDBRANCH  25  26
ENDBRANCH  24  25
ENDBRANCH  23  24
ENDBRANCH   1  23
TORSDOF 27
ENDMDL
MODEL 2
REMARK VINA RESULT:      -7.3      6.362     13.711
REMARK SMILES C[C@H](O)[C@H](C)Oc1ccc(Br)cc1C(=O)OCCOCCOCCOCCOC(=O)c1ccc(-c2c3nc(c(-c4ccc(S(=O)(=O)[O-])cc4)c4ccc([nH]4)c(-c4ccc(S(=O)(=O)[O-])cc4)c4nc(c(-c5ccc(S(=O)(=O)[O-])cc5)c5ccc2[nH]5)C=C4)C=C3)cc1
REMARK SMILES IDX 21 1 20 2 19 3 18 4 17 5 16 6 14 7 15 8 13 9 7 10 8 11 9 12
REMARK SMILES IDX 12 13 10 14 11 15 6 16 4 17 5 18 2 19 1 20 3 21 22 23 23 24
REMARK SMILES IDX 24 25 25 26 26 27 27 28 28 29 29 30 30 31 31 32 32 33 90 34
REMARK SMILES IDX 33 35 89 36 34 37 35 38 36 39 83 40 37 41 88 42 82 43 84 44
REMARK SMILES IDX 38 45 87 46 81 47 80 48 39 50 69 51 50 52 68 53 51 54 54 55
REMARK SMILES IDX 67 56 85 57 52 58 53 59 66 61 86 62 55 63 40 64 41 65 49 66
REMARK SMILES IDX 42 67 48 68 43 69 44 70 45 71 46 72 47 73 70 74 71 75 79 76
REMARK SMILES IDX 72 77 78 78 73 79 74 80 75 81 76 82 77 83 56 84 57 85 65 86
REMARK SMILES IDX 58 87 64 88 59 89 60 90 61 91 62 92 63 93
REMARK H PARENT 3 22 84 49 54 60
REMARK Flexibility Score: inf
ROOT
ATOM      1  C   UNL A   1      35.872  29.882  27.631  1.00  0.00     0.188 C 
ENDROOT
BRANCH   1   2
ATOM      2  C   UNL A   1      34.492  29.356  28.035  1.00  0.00     0.188 C 
BRANCH   2   3
ATOM      3  O   UNL A   1      33.506  29.275  27.023  1.00  0.00    -0.376 OA
BRANCH   3   4
ATOM      4  C   UNL A   1      33.906  28.980  25.684  1.00  0.00     0.202 C 
BRANCH   4   5
ATOM      5  C   UNL A   1      33.492  27.675  24.978  1.00  0.00     0.261 C 
BRANCH   5   6
ATOM      6  O   UNL A   1      34.227  26.504  25.388  1.00  0.00    -0.460 OA
BRANCH   6   7
ATOM      7  C   UNL A   1      33.899  25.362  24.731  1.00  0.00     0.342 C 
ATOM      8  O   UNL A   1      33.553  25.277  23.560  1.00  0.00    -0.246 OA
BRANCH   7   9
ATOM      9  C   UNL A   1      34.236  24.139  25.493  1.00  0.00     0.103 A 
ATOM     10  C   UNL A   1      33.391  23.565  26.454  1.00  0.00     0.134 A 
ATOM     11  C   UNL A   1      33.694  22.283  26.918  1.00  0.00     0.048 A 
ATOM     12  C   UNL A   1      34.865  21.628  26.522  1.00  0.00     0.019 A 
ATOM     13  C   UNL A   1      35.412  23.482  25.089  1.00  0.00     0.035 A 
ATOM     14  C   UNL A   1      35.732  22.243  25.628  1.00  0.00     0.019 A 
ATOM     15  Br  UNL A   1      37.328  21.374  25.111  1.00  0.00    -0.051 Br
BRANCH  10  16
ATOM     16  O   UNL A   1      32.296  24.274  26.832  1.00  0.00    -0.487 OA
BRANCH  16  17
ATOM     17  C   UNL A   1      31.027  24.189  26.152  1.00  0.00     0.198 C 
ATOM     18  C   UNL A   1      30.210  22.968  26.579  1.00  0.00     0.056 C 
BRANCH  17  19
ATOM     19  C   UNL A   1      30.202  25.501  26.007  1.00  0.00     0.151 C 
ATOM     20  C   UNL A   1      30.010  25.942  24.564  1.00  0.00     0.042 C 
BRANCH  19  21
ATOM     21  O   UNL A   1      30.729  26.595  26.766  1.00  0.00    -0.390 OA
ATOM     22  H   UNL A   1      30.674  27.409  26.242  1.00  0.00     0.211 HD
ENDBRANCH  19  21
ENDBRANCH  17  19
ENDBRANCH  16  17
ENDBRANCH  10  16
ENDBRANCH   7   9
ENDBRANCH   6   7
ENDBRANCH   5   6
ENDBRANCH   4   5
ENDBRANCH   3   4
ENDBRANCH   2   3
ENDBRANCH   1   2
BRANCH   1  23
ATOM     23  O   UNL A   1      36.998  29.269  28.234  1.00  0.00    -0.377 OA
BRANCH  23  24
ATOM     24  C   UNL A   1      37.461  29.745  29.498  1.00  0.00     0.188 C 
BRANCH  24  25
ATOM     25  C   UNL A   1      37.635  28.746  30.644  1.00  0.00     0.188 C 
BRANCH  25  26
ATOM     26  O   UNL A   1      36.941  29.014  31.866  1.00  0.00    -0.376 OA
BRANCH  26  27
ATOM     27  C   UNL A   1      37.107  30.285  32.488  1.00  0.00     0.202 C 
BRANCH  27  28
ATOM     28  C   UNL A   1      38.343  30.406  33.377  1.00  0.00     0.261 C 
BRANCH  28  29
ATOM     29  O   UNL A   1      38.001  30.855  34.696  1.00  0.00    -0.460 OA
BRANCH  29  30
ATOM     30  C   UNL A   1      37.798  32.189  34.809  1.00  0.00     0.338 C 
ATOM     31  O   UNL A   1      36.840  32.749  35.309  1.00  0.00    -0.246 OA
BRANCH  30  32
ATOM     32  C   UNL A   1      38.995  32.911  34.340  1.00  0.00     0.060 A 
ATOM     33  C   UNL A   1      38.840  33.825  33.292  1.00  0.00     0.016 A 
ATOM     34  C   UNL A   1      40.262  32.621  34.854  1.00  0.00     0.016 A 
ATOM     35  C   UNL A   1      39.961  34.400  32.702  1.00  0.00     0.010 A 
ATOM     36  C   UNL A   1      41.386  33.197  34.261  1.00  0.00     0.010 A 
ATOM     37  C   UNL A   1      41.240  34.047  33.150  1.00  0.00    -0.014 A 
BRANCH  37  38
ATOM     38  C   UNL A   1      42.424  34.414  32.341  1.00  0.00     0.031 A 
ATOM     39  C   UNL A   1      42.868  33.476  31.250  1.00  0.00     0.074 A 
ATOM     40  C   UNL A   1      43.076  35.568  32.559  1.00  0.00     0.049 A 
ATOM     41  N   UNL A   1      43.889  33.571  30.440  1.00  0.00    -0.248 NA
ATOM     42  C   UNL A   1      42.051  32.266  31.049  1.00  0.00     0.031 C 
ATOM     43  C   UNL A   1      42.708  36.571  33.557  1.00  0.00     0.029 A 
ATOM     44  N   UNL A   1      44.189  36.088  31.950  1.00  0.00    -0.354 N 
ATOM     45  C   UNL A   1      43.845  32.432  29.644  1.00  0.00     0.074 A 
ATOM     46  C   UNL A   1      42.717  31.645  30.087  1.00  0.00     0.031 C 
ATOM     47  C   UNL A   1      43.586  37.588  33.496  1.00  0.00     0.029 A 
ATOM     48  C   UNL A   1      44.594  37.289  32.481  1.00  0.00     0.049 A 
ATOM     49  H   UNL A   1      44.653  35.644  31.205  1.00  0.00     0.167 HD
ATOM     50  C   UNL A   1      44.668  32.078  28.627  1.00  0.00     0.031 A 
ATOM     51  C   UNL A   1      45.668  38.049  32.192  1.00  0.00     0.031 A 
ATOM     52  C   UNL A   1      45.796  32.862  28.203  1.00  0.00     0.049 A 
ATOM     53  C   UNL A   1      46.611  37.600  31.106  1.00  0.00     0.074 A 
ATOM     54  C   UNL A   1      46.688  32.604  27.176  1.00  0.00     0.029 A 
ATOM     55  N   UNL A   1      46.195  34.056  28.787  1.00  0.00    -0.354 N 
ATOM     56  N   UNL A   1      46.545  36.532  30.344  1.00  0.00    -0.248 NA
ATOM     57  C   UNL A   1      47.768  38.463  30.834  1.00  0.00     0.031 C 
ATOM     58  C   UNL A   1      47.660  33.609  27.180  1.00  0.00     0.029 A 
ATOM     59  C   UNL A   1      47.334  34.531  28.163  1.00  0.00     0.049 A 
ATOM     60  H   UNL A   1      45.734  34.499  29.536  1.00  0.00     0.167 HD
ATOM     61  C   UNL A   1      47.635  36.613  29.484  1.00  0.00     0.074 A 
ATOM     62  C   UNL A   1      48.336  37.838  29.811  1.00  0.00     0.031 C 
ATOM     63  C   UNL A   1      48.019  35.752  28.507  1.00  0.00     0.031 A 
BRANCH  50  64
ATOM     64  C   UNL A   1      44.397  30.766  27.938  1.00  0.00    -0.014 A 
ATOM     65  C   UNL A   1      45.131  29.608  28.253  1.00  0.00     0.010 A 
ATOM     66  C   UNL A   1      43.376  30.686  26.973  1.00  0.00     0.010 A 
ATOM     67  C   UNL A   1      44.879  28.406  27.585  1.00  0.00     0.020 A 
ATOM     68  C   UNL A   1      43.100  29.478  26.325  1.00  0.00     0.020 A 
ATOM     69  C   UNL A   1      43.866  28.350  26.623  1.00  0.00     0.054 A 
BRANCH  69  70
ATOM     70  S   UNL A   1      43.549  26.774  25.782  1.00  0.00     0.124 S 
ATOM     71  O   UNL A   1      44.863  26.465  25.219  1.00  0.00    -0.237 OA
ATOM     72  O   UNL A   1      43.117  25.909  26.877  1.00  0.00    -0.237 OA
ATOM     73  O   UNL A   1      42.515  27.103  24.805  1.00  0.00    -0.744 OA
ENDBRANCH  69  70
ENDBRANCH  50  64
BRANCH  51  74
ATOM     74  C   UNL A   1      45.913  39.305  32.951  1.00  0.00    -0.014 A 
ATOM     75  C   UNL A   1      45.372  40.526  32.513  1.00  0.00     0.010 A 
ATOM     76  C   UNL A   1      46.682  39.282  34.130  1.00  0.00     0.010 A 
ATOM     77  C   UNL A   1      45.604  41.702  33.233  1.00  0.00     0.020 A 
ATOM     78  C   UNL A   1      46.892  40.450  34.868  1.00  0.00     0.020 A 
ATOM     79  C   UNL A   1      46.360  41.655  34.409  1.00  0.00     0.054 A 
BRANCH  79  80
ATOM     80  S   UNL A   1      46.597  43.183  35.358  1.00  0.00     0.124 S 
ATOM     81  O   UNL A   1      45.231  43.511  35.750  1.00  0.00    -0.237 OA
ATOM     82  O   UNL A   1      47.479  42.747  36.438  1.00  0.00    -0.237 OA
ATOM     83  O   UNL A   1      47.208  44.093  34.393  1.00  0.00    -0.744 OA
ENDBRANCH  79  80
ENDBRANCH  51  74
BRANCH  63  84
ATOM     84  C   UNL A   1      49.233  36.123  27.695  1.00  0.00    -0.014 A 
ATOM     85  C   UNL A   1      49.140  36.987  26.591  1.00  0.00     0.010 A 
ATOM     86  C   UNL A   1      50.498  35.643  28.084  1.00  0.00     0.010 A 
ATOM     87  C   UNL A   1      50.285  37.338  25.870  1.00  0.00     0.020 A 
ATOM     88  C   UNL A   1      51.649  36.016  27.385  1.00  0.00     0.020 A 
ATOM     89  C   UNL A   1      51.532  36.851  26.272  1.00  0.00     0.054 A 
BRANCH  89  90
ATOM     90  S   UNL A   1      53.006  37.357  25.347  1.00  0.00     0.124 S 
ATOM     91  O   UNL A   1      52.678  36.924  23.991  1.00  0.00    -0.237 OA
ATOM     92  O   UNL A   1      53.036  38.802  25.555  1.00  0.00    -0.237 OA
ATOM     93  O   UNL A   1      54.091  36.618  25.991  1.00  0.00    -0.744 OA
ENDBRANCH  89  90
ENDBRANCH  63  84
ENDBRANCH  37  38
ENDBRANCH  30  32
ENDBRANCH  29  30
ENDBRANCH  28  29
ENDBRANCH  27  28
ENDBRANCH  26  27
ENDBRANCH  25  26
ENDBRANCH  24  25
ENDBRANCH  23  24
ENDBRANCH   1  23
TORSDOF 27
ENDMDL
MODEL 3
REMARK VINA RESULT:      -7.3      7.215     16.369
REMARK SMILES C[C@H](O)[C@H](C)Oc1ccc(Br)cc1C(=O)OCCOCCOCCOCCOC(=O)c1ccc(-c2c3nc(c(-c4ccc(S(=O)(=O)[O-])cc4)c4ccc([nH]4)c(-c4ccc(S(=O)(=O)[O-])cc4)c4nc(c(-c5ccc(S(=O)(=O)[O-])cc5)c5ccc2[nH]5)C=C4)C=C3)cc1
REMARK SMILES IDX 21 1 20 2 19 3 18 4 17 5 16 6 14 7 15 8 13 9 7 10 8 11 9 12
REMARK SMILES IDX 12 13 10 14 11 15 6 16 4 17 5 18 2 19 1 20 3 21 22 23 23 24
REMARK SMILES IDX 24 25 25 26 26 27 27 28 28 29 29 30 30 31 31 32 32 33 90 34
REMARK SMILES IDX 33 35 89 36 34 37 35 38 36 39 83 40 37 41 88 42 82 43 84 44
REMARK SMILES IDX 38 45 87 46 81 47 80 48 39 50 69 51 50 52 68 53 51 54 54 55
REMARK SMILES IDX 67 56 85 57 52 58 53 59 66 61 86 62 55 63 40 64 41 65 49 66
REMARK SMILES IDX 42 67 48 68 43 69 44 70 45 71 46 72 47 73 70 74 71 75 79 76
REMARK SMILES IDX 72 77 78 78 73 79 74 80 75 81 76 82 77 83 56 84 57 85 65 86
REMARK SMILES IDX 58 87 64 88 59 89 60 90 61 91 62 92 63 93
REMARK H PARENT 3 22 84 49 54 60
REMARK Flexibility Score: inf
ROOT
ATOM      1  C   UNL A   1      37.063  30.057  27.949  1.00  0.00     0.188 C 
ENDROOT
BRANCH   1   2
ATOM      2  C   UNL A   1      35.549  29.874  28.092  1.00  0.00     0.188 C 
BRANCH   2   3
ATOM      3  O   UNL A   1      34.736  30.341  27.032  1.00  0.00    -0.376 OA
BRANCH   3   4
ATOM      4  C   UNL A   1      33.409  30.786  27.316  1.00  0.00     0.202 C 
BRANCH   4   5
ATOM      5  C   UNL A   1      32.204  30.358  26.458  1.00  0.00     0.261 C 
BRANCH   5   6
ATOM      6  O   UNL A   1      32.462  29.267  25.551  1.00  0.00    -0.460 OA
BRANCH   6   7
ATOM      7  C   UNL A   1      31.864  28.093  25.880  1.00  0.00     0.342 C 
ATOM      8  O   UNL A   1      31.345  27.825  26.956  1.00  0.00    -0.246 OA
BRANCH   7   9
ATOM      9  C   UNL A   1      31.659  27.202  24.718  1.00  0.00     0.103 A 
ATOM     10  C   UNL A   1      30.659  27.400  23.754  1.00  0.00     0.134 A 
ATOM     11  C   UNL A   1      30.723  26.654  22.574  1.00  0.00     0.048 A 
ATOM     12  C   UNL A   1      31.691  25.658  22.398  1.00  0.00     0.019 A 
ATOM     13  C   UNL A   1      32.636  26.206  24.542  1.00  0.00     0.035 A 
ATOM     14  C   UNL A   1      32.628  25.422  23.396  1.00  0.00     0.019 A 
ATOM     15  Br  UNL A   1      33.920  24.062  23.174  1.00  0.00    -0.051 Br
BRANCH  10  16
ATOM     16  O   UNL A   1      29.720  28.348  24.007  1.00  0.00    -0.487 OA
BRANCH  16  17
ATOM     17  C   UNL A   1      29.524  29.507  23.173  1.00  0.00     0.198 C 
ATOM     18  C   UNL A   1      30.642  29.690  22.145  1.00  0.00     0.056 C 
BRANCH  17  19
ATOM     19  C   UNL A   1      28.090  29.758  22.621  1.00  0.00     0.151 C 
ATOM     20  C   UNL A   1      27.061  28.758  23.125  1.00  0.00     0.042 C 
BRANCH  19  21
ATOM     21  O   UNL A   1      28.030  29.812  21.191  1.00  0.00    -0.390 OA
ATOM     22  H   UNL A   1      27.736  30.693  20.912  1.00  0.00     0.211 HD
ENDBRANCH  19  21
ENDBRANCH  17  19
ENDBRANCH  16  17
ENDBRANCH  10  16
ENDBRANCH   7   9
ENDBRANCH   6   7
ENDBRANCH   5   6
ENDBRANCH   4   5
ENDBRANCH   3   4
ENDBRANCH   2   3
ENDBRANCH   1   2
BRANCH   1  23
ATOM     23  O   UNL A   1      37.890  29.060  28.523  1.00  0.00    -0.377 OA
BRANCH  23  24
ATOM     24  C   UNL A   1      39.290  29.302  28.654  1.00  0.00     0.188 C 
BRANCH  24  25
ATOM     25  C   UNL A   1      40.250  28.110  28.629  1.00  0.00     0.188 C 
BRANCH  25  26
ATOM     26  O   UNL A   1      41.641  28.376  28.834  1.00  0.00    -0.376 OA
BRANCH  26  27
ATOM     27  C   UNL A   1      42.311  29.262  27.941  1.00  0.00     0.202 C 
BRANCH  27  28
ATOM     28  C   UNL A   1      43.142  30.348  28.620  1.00  0.00     0.261 C 
BRANCH  28  29
ATOM     29  O   UNL A   1      44.491  30.362  28.131  1.00  0.00    -0.460 OA
BRANCH  29  30
ATOM     30  C   UNL A   1      45.394  29.748  28.932  1.00  0.00     0.338 C 
ATOM     31  O   UNL A   1      46.375  29.115  28.588  1.00  0.00    -0.246 OA
BRANCH  30  32
ATOM     32  C   UNL A   1      45.096  30.063  30.341  1.00  0.00     0.060 A 
ATOM     33  C   UNL A   1      44.527  29.057  31.130  1.00  0.00     0.016 A 
ATOM     34  C   UNL A   1      45.279  31.352  30.849  1.00  0.00     0.016 A 
ATOM     35  C   UNL A   1      44.070  29.355  32.411  1.00  0.00     0.010 A 
ATOM     36  C   UNL A   1      44.820  31.650  32.132  1.00  0.00     0.010 A 
ATOM     37  C   UNL A   1      44.168  30.665  32.895  1.00  0.00    -0.014 A 
BRANCH  37  38
ATOM     38  C   UNL A   1      43.421  31.050  34.114  1.00  0.00     0.031 A 
ATOM     39  C   UNL A   1      41.999  31.520  33.968  1.00  0.00     0.074 A 
ATOM     40  C   UNL A   1      43.992  30.960  35.327  1.00  0.00     0.049 A 
ATOM     41  N   UNL A   1      41.165  31.937  34.884  1.00  0.00    -0.248 NA
ATOM     42  C   UNL A   1      41.444  31.523  32.602  1.00  0.00     0.031 C 
ATOM     43  C   UNL A   1      45.346  30.477  35.591  1.00  0.00     0.029 A 
ATOM     44  N   UNL A   1      43.497  31.278  36.567  1.00  0.00    -0.354 N 
ATOM     45  C   UNL A   1      39.994  32.263  34.208  1.00  0.00     0.074 A 
ATOM     46  C   UNL A   1      40.235  32.026  32.802  1.00  0.00     0.031 C 
ATOM     47  C   UNL A   1      45.578  30.534  36.914  1.00  0.00     0.029 A 
ATOM     48  C   UNL A   1      44.403  31.091  37.583  1.00  0.00     0.049 A 
ATOM     49  H   UNL A   1      42.583  31.607  36.713  1.00  0.00     0.167 HD
ATOM     50  C   UNL A   1      38.822  32.712  34.714  1.00  0.00     0.031 A 
ATOM     51  C   UNL A   1      44.299  31.357  38.899  1.00  0.00     0.031 A 
ATOM     52  C   UNL A   1      38.597  32.957  36.114  1.00  0.00     0.049 A 
ATOM     53  C   UNL A   1      43.009  31.925  39.431  1.00  0.00     0.074 A 
ATOM     54  C   UNL A   1      37.444  33.399  36.737  1.00  0.00     0.029 A 
ATOM     55  N   UNL A   1      39.550  32.788  37.108  1.00  0.00    -0.354 N 
ATOM     56  N   UNL A   1      41.902  32.206  38.785  1.00  0.00    -0.248 NA
ATOM     57  C   UNL A   1      42.952  32.201  40.873  1.00  0.00     0.031 C 
ATOM     58  C   UNL A   1      37.718  33.556  38.099  1.00  0.00     0.029 A 
ATOM     59  C   UNL A   1      39.020  33.145  38.336  1.00  0.00     0.049 A 
ATOM     60  H   UNL A   1      40.467  32.463  36.962  1.00  0.00     0.167 HD
ATOM     61  C   UNL A   1      41.007  32.664  39.746  1.00  0.00     0.074 A 
ATOM     62  C   UNL A   1      41.699  32.610  41.019  1.00  0.00     0.031 C 
ATOM     63  C   UNL A   1      39.727  33.087  39.591  1.00  0.00     0.031 A 
BRANCH  50  64
ATOM     64  C   UNL A   1      37.709  33.005  33.741  1.00  0.00    -0.014 A 
ATOM     65  C   UNL A   1      36.753  32.029  33.405  1.00  0.00     0.010 A 
ATOM     66  C   UNL A   1      37.605  34.287  33.170  1.00  0.00     0.010 A 
ATOM     67  C   UNL A   1      35.742  32.315  32.483  1.00  0.00     0.020 A 
ATOM     68  C   UNL A   1      36.578  34.587  32.271  1.00  0.00     0.020 A 
ATOM     69  C   UNL A   1      35.663  33.593  31.920  1.00  0.00     0.054 A 
BRANCH  69  70
ATOM     70  S   UNL A   1      34.332  33.943  30.738  1.00  0.00     0.124 S 
ATOM     71  O   UNL A   1      34.995  34.844  29.798  1.00  0.00    -0.237 OA
ATOM     72  O   UNL A   1      34.011  32.617  30.216  1.00  0.00    -0.237 OA
ATOM     73  O   UNL A   1      33.291  34.556  31.558  1.00  0.00    -0.744 OA
ENDBRANCH  69  70
ENDBRANCH  50  64
BRANCH  51  74
ATOM     74  C   UNL A   1      45.456  31.100  39.800  1.00  0.00    -0.014 A 
ATOM     75  C   UNL A   1      46.407  32.104  40.052  1.00  0.00     0.010 A 
ATOM     76  C   UNL A   1      45.603  29.846  40.424  1.00  0.00     0.010 A 
ATOM     77  C   UNL A   1      47.489  31.856  40.901  1.00  0.00     0.020 A 
ATOM     78  C   UNL A   1      46.668  29.604  41.295  1.00  0.00     0.020 A 
ATOM     79  C   UNL A   1      47.610  30.608  41.521  1.00  0.00     0.054 A 
BRANCH  79  80
ATOM     80  S   UNL A   1      48.989  30.330  42.666  1.00  0.00     0.124 S 
ATOM     81  O   UNL A   1      48.510  30.978  43.882  1.00  0.00    -0.237 OA
ATOM     82  O   UNL A   1      49.069  28.872  42.714  1.00  0.00    -0.237 OA
ATOM     83  O   UNL A   1      50.117  30.987  42.009  1.00  0.00    -0.744 OA
ENDBRANCH  79  80
ENDBRANCH  51  74
BRANCH  63  84
ATOM     84  C   UNL A   1      38.975  33.491  40.833  1.00  0.00    -0.014 A 
ATOM     85  C   UNL A   1      38.977  34.819  41.291  1.00  0.00     0.010 A 
ATOM     86  C   UNL A   1      38.204  32.532  41.517  1.00  0.00     0.010 A 
ATOM     87  C   UNL A   1      38.249  35.175  42.431  1.00  0.00     0.020 A 
ATOM     88  C   UNL A   1      37.451  32.889  42.637  1.00  0.00     0.020 A 
ATOM     89  C   UNL A   1      37.489  34.207  43.096  1.00  0.00     0.054 A 
BRANCH  89  90
ATOM     90  S   UNL A   1      36.519  34.703  44.544  1.00  0.00     0.124 S 
ATOM     91  O   UNL A   1      35.150  34.543  44.063  1.00  0.00    -0.237 OA
ATOM     92  O   UNL A   1      36.945  33.742  45.560  1.00  0.00    -0.237 OA
ATOM     93  O   UNL A   1      36.937  36.083  44.786  1.00  0.00    -0.744 OA
ENDBRANCH  89  90
ENDBRANCH  63  84
ENDBRANCH  37  38
ENDBRANCH  30  32
ENDBRANCH  29  30
ENDBRANCH  28  29
ENDBRANCH  27  28
ENDBRANCH  26  27
ENDBRANCH  25  26
ENDBRANCH  24  25
ENDBRANCH  23  24
ENDBRANCH   1  23
TORSDOF 27
ENDMDL
