MODEL 1
REMARK VINA RESULT:      -7.2      0.000      0.000
REMARK SMILES CS(=O)(=O)c1ccc(/C=C(/C(=O)OCCOCCOCCOCCOC(=O)c2ccc(-c3c4nc(c(-c5ccc(S(=O)(=O)[O-])cc5)c5ccc([nH]5)c(-c5ccc(S(=O)(=O)[O-])cc5)c5nc(c(-c6ccc(S(=O)(=O)[O-])cc6)c6ccc3[nH]6)C=C5)C=C4)cc2)c2ccc(-c3ccc(S(C)(=O)=O)cc3)cc2)cc1
REMARK SMILES IDX 19 1 18 2 17 3 16 4 15 5 14 6 13 7 11 8 12 9 10 10 9 11 8 12
REMARK SMILES IDX 5 13 6 14 105 15 7 16 104 17 2 18 1 19 3 20 4 21 88 22 89 23
REMARK SMILES IDX 103 24 90 25 102 26 91 27 92 28 93 29 101 30 94 31 100 32
REMARK SMILES IDX 95 33 96 34 97 35 98 36 99 37 20 38 21 39 22 40 23 41 24 42
REMARK SMILES IDX 25 43 26 44 27 45 28 46 29 47 87 48 30 49 86 50 31 51 32 52
REMARK SMILES IDX 33 53 80 54 34 55 85 56 79 57 81 58 35 59 84 60 78 61 77 62
REMARK SMILES IDX 36 64 66 65 47 66 65 67 48 68 51 69 64 70 82 71 49 72 50 73
REMARK SMILES IDX 63 75 83 76 52 77 37 78 38 79 46 80 39 81 45 82 40 83 41 84
REMARK SMILES IDX 42 85 43 86 44 87 67 88 68 89 76 90 69 91 75 92 70 93 71 94
REMARK SMILES IDX 72 95 73 96 74 97 53 98 54 99 62 100 55 101 61 102 56 103
REMARK SMILES IDX 57 104 58 105 59 106 60 107
REMARK H PARENT 81 63 51 74
REMARK Flexibility Score: inf
ROOT
ATOM      1  O   UNL A   1      37.754  33.781  30.184  1.00  0.00    -0.377 OA
ENDROOT
BRANCH   1   2
ATOM      2  C   UNL A   1      39.133  33.620  29.904  1.00  0.00     0.188 C 
BRANCH   2   3
ATOM      3  C   UNL A   1      39.962  34.821  29.391  1.00  0.00     0.188 C 
BRANCH   3   4
ATOM      4  O   UNL A   1      41.248  34.928  29.975  1.00  0.00    -0.376 OA
BRANCH   4   5
ATOM      5  C   UNL A   1      42.212  33.948  29.633  1.00  0.00     0.202 C 
BRANCH   5   6
ATOM      6  C   UNL A   1      43.296  34.313  28.606  1.00  0.00     0.261 C 
BRANCH   6   7
ATOM      7  O   UNL A   1      43.454  35.711  28.319  1.00  0.00    -0.460 OA
BRANCH   7   8
ATOM      8  C   UNL A   1      44.501  36.351  28.892  1.00  0.00     0.338 C 
ATOM      9  O   UNL A   1      45.150  35.936  29.839  1.00  0.00    -0.246 OA
BRANCH   8  10
ATOM     10  C   UNL A   1      44.870  37.572  28.093  1.00  0.00     0.067 C 
ATOM     11  C   UNL A   1      43.970  38.581  27.972  1.00  0.00     0.024 C 
BRANCH  11  12
ATOM     12  C   UNL A   1      44.178  39.953  27.446  1.00  0.00    -0.025 A 
ATOM     13  C   UNL A   1      45.175  42.472  26.724  1.00  0.00     0.067 A 
ATOM     14  C   UNL A   1      45.001  41.494  25.749  1.00  0.00     0.021 A 
ATOM     15  C   UNL A   1      44.735  42.254  28.029  1.00  0.00     0.021 A 
ATOM     16  C   UNL A   1      44.454  40.261  26.107  1.00  0.00     0.009 A 
ATOM     17  C   UNL A   1      44.231  40.999  28.382  1.00  0.00     0.009 A 
BRANCH  13  18
ATOM     18  S   UNL A   1      46.106  43.930  26.336  1.00  0.00     0.175 S 
ATOM     19  C   UNL A   1      45.691  44.256  24.649  1.00  0.00     0.163 C 
ATOM     20  O   UNL A   1      47.514  43.582  26.390  1.00  0.00    -0.224 OA
ATOM     21  O   UNL A   1      45.586  45.013  27.149  1.00  0.00    -0.224 OA
ENDBRANCH  13  18
ENDBRANCH  11  12
BRANCH  10  22
ATOM     22  C   UNL A   1      46.221  37.612  27.499  1.00  0.00    -0.011 A 
ATOM     23  C   UNL A   1      47.252  38.326  28.133  1.00  0.00     0.009 A 
ATOM     24  C   UNL A   1      46.528  36.856  26.370  1.00  0.00     0.009 A 
ATOM     25  C   UNL A   1      48.562  38.288  27.653  1.00  0.00     0.009 A 
ATOM     26  C   UNL A   1      47.847  36.798  25.909  1.00  0.00     0.009 A 
ATOM     27  C   UNL A   1      48.886  37.515  26.534  1.00  0.00    -0.018 A 
BRANCH  27  28
ATOM     28  C   UNL A   1      50.266  37.452  26.024  1.00  0.00    -0.018 A 
ATOM     29  C   UNL A   1      51.341  38.050  26.711  1.00  0.00     0.010 A 
ATOM     30  C   UNL A   1      50.545  36.767  24.830  1.00  0.00     0.010 A 
ATOM     31  C   UNL A   1      52.650  37.945  26.233  1.00  0.00     0.021 A 
ATOM     32  C   UNL A   1      51.846  36.653  24.344  1.00  0.00     0.021 A 
ATOM     33  C   UNL A   1      52.894  37.244  25.050  1.00  0.00     0.067 A 
BRANCH  33  34
ATOM     34  S   UNL A   1      54.558  37.055  24.469  1.00  0.00     0.175 S 
ATOM     35  C   UNL A   1      55.272  38.662  24.694  1.00  0.00     0.163 C 
ATOM     36  O   UNL A   1      55.224  36.132  25.367  1.00  0.00    -0.224 OA
ATOM     37  O   UNL A   1      54.506  36.800  23.041  1.00  0.00    -0.224 OA
ENDBRANCH  33  34
ENDBRANCH  27  28
ENDBRANCH  10  22
ENDBRANCH   8  10
ENDBRANCH   7   8
ENDBRANCH   6   7
ENDBRANCH   5   6
ENDBRANCH   4   5
ENDBRANCH   3   4
ENDBRANCH   2   3
ENDBRANCH   1   2
BRANCH   1  38
ATOM     38  C   UNL A   1      37.335  33.979  31.528  1.00  0.00     0.188 C 
BRANCH  38  39
ATOM     39  C   UNL A   1      35.941  34.579  31.827  1.00  0.00     0.188 C 
BRANCH  39  40
ATOM     40  O   UNL A   1      34.859  33.933  31.171  1.00  0.00    -0.376 OA
BRANCH  40  41
ATOM     41  C   UNL A   1      34.492  34.404  29.887  1.00  0.00     0.202 C 
BRANCH  41  42
ATOM     42  C   UNL A   1      34.101  33.354  28.837  1.00  0.00     0.261 C 
BRANCH  42  43
ATOM     43  O   UNL A   1      34.311  31.982  29.202  1.00  0.00    -0.460 OA
BRANCH  43  44
ATOM     44  C   UNL A   1      34.709  31.132  28.230  1.00  0.00     0.338 C 
ATOM     45  O   UNL A   1      34.208  30.992  27.126  1.00  0.00    -0.246 OA
BRANCH  44  46
ATOM     46  C   UNL A   1      35.993  30.541  28.660  1.00  0.00     0.060 A 
ATOM     47  C   UNL A   1      36.019  29.704  29.784  1.00  0.00     0.016 A 
ATOM     48  C   UNL A   1      37.159  30.786  27.931  1.00  0.00     0.016 A 
ATOM     49  C   UNL A   1      37.220  29.126  30.194  1.00  0.00     0.010 A 
ATOM     50  C   UNL A   1      38.365  30.228  28.360  1.00  0.00     0.010 A 
ATOM     51  C   UNL A   1      38.406  29.420  29.511  1.00  0.00    -0.014 A 
BRANCH  51  52
ATOM     52  C   UNL A   1      39.711  29.045  30.107  1.00  0.00     0.031 A 
ATOM     53  C   UNL A   1      40.186  29.808  31.313  1.00  0.00     0.074 A 
ATOM     54  C   UNL A   1      40.448  28.039  29.605  1.00  0.00     0.049 A 
ATOM     55  N   UNL A   1      41.299  29.683  31.987  1.00  0.00    -0.248 NA
ATOM     56  C   UNL A   1      39.284  30.855  31.824  1.00  0.00     0.031 C 
ATOM     57  C   UNL A   1      40.074  27.199  28.469  1.00  0.00     0.029 A 
ATOM     58  N   UNL A   1      41.675  27.560  29.991  1.00  0.00    -0.354 N 
ATOM     59  C   UNL A   1      41.238  30.641  32.994  1.00  0.00     0.074 A 
ATOM     60  C   UNL A   1      39.993  31.358  32.824  1.00  0.00     0.031 C 
ATOM     61  C   UNL A   1      41.060  26.311  28.243  1.00  0.00     0.029 A 
ATOM     62  C   UNL A   1      42.146  26.543  29.193  1.00  0.00     0.049 A 
ATOM     63  H   UNL A   1      42.172  27.910  30.766  1.00  0.00     0.167 HD
ATOM     64  C   UNL A   1      42.137  30.899  33.973  1.00  0.00     0.031 A 
ATOM     65  C   UNL A   1      43.327  25.893  29.215  1.00  0.00     0.031 A 
ATOM     66  C   UNL A   1      43.382  30.195  34.125  1.00  0.00     0.049 A 
ATOM     67  C   UNL A   1      44.346  26.247  30.268  1.00  0.00     0.074 A 
ATOM     68  C   UNL A   1      44.352  30.367  35.097  1.00  0.00     0.029 A 
ATOM     69  N   UNL A   1      43.838  29.198  33.276  1.00  0.00    -0.354 N 
ATOM     70  N   UNL A   1      44.260  27.130  31.235  1.00  0.00    -0.248 NA
ATOM     71  C   UNL A   1      45.616  25.510  30.239  1.00  0.00     0.031 C 
ATOM     72  C   UNL A   1      45.426  29.524  34.794  1.00  0.00     0.029 A 
ATOM     73  C   UNL A   1      45.092  28.770  33.680  1.00  0.00     0.049 A 
ATOM     74  H   UNL A   1      43.344  28.845  32.501  1.00  0.00     0.167 HD
ATOM     75  C   UNL A   1      45.454  27.035  31.945  1.00  0.00     0.074 A 
ATOM     76  C   UNL A   1      46.235  25.996  31.306  1.00  0.00     0.031 C 
ATOM     77  C   UNL A   1      45.864  27.739  33.030  1.00  0.00     0.031 A 
BRANCH  64  78
ATOM     78  C   UNL A   1      41.824  32.023  34.925  1.00  0.00    -0.014 A 
ATOM     79  C   UNL A   1      42.215  33.347  34.655  1.00  0.00     0.010 A 
ATOM     80  C   UNL A   1      41.097  31.752  36.099  1.00  0.00     0.010 A 
ATOM     81  C   UNL A   1      41.921  34.371  35.559  1.00  0.00     0.020 A 
ATOM     82  C   UNL A   1      40.772  32.778  36.991  1.00  0.00     0.020 A 
ATOM     83  C   UNL A   1      41.201  34.080  36.723  1.00  0.00     0.054 A 
BRANCH  83  84
ATOM     84  S   UNL A   1      40.815  35.431  37.868  1.00  0.00     0.124 S 
ATOM     85  O   UNL A   1      40.123  36.377  36.996  1.00  0.00    -0.237 OA
ATOM     86  O   UNL A   1      39.980  34.772  38.868  1.00  0.00    -0.237 OA
ATOM     87  O   UNL A   1      42.125  35.869  38.344  1.00  0.00    -0.744 OA
ENDBRANCH  83  84
ENDBRANCH  64  78
BRANCH  65  88
ATOM     88  C   UNL A   1      43.620  24.855  28.188  1.00  0.00    -0.014 A 
ATOM     89  C   UNL A   1      44.303  25.182  27.003  1.00  0.00     0.010 A 
ATOM     90  C   UNL A   1      43.219  23.522  28.397  1.00  0.00     0.010 A 
ATOM     91  C   UNL A   1      44.570  24.201  26.044  1.00  0.00     0.020 A 
ATOM     92  C   UNL A   1      43.513  22.531  27.455  1.00  0.00     0.020 A 
ATOM     93  C   UNL A   1      44.180  22.879  26.280  1.00  0.00     0.054 A 
BRANCH  93  94
ATOM     94  S   UNL A   1      44.598  21.610  25.052  1.00  0.00     0.124 S 
ATOM     95  O   UNL A   1      45.936  21.209  25.472  1.00  0.00    -0.237 OA
ATOM     96  O   UNL A   1      43.545  20.619  25.257  1.00  0.00    -0.237 OA
ATOM     97  O   UNL A   1      44.528  22.327  23.780  1.00  0.00    -0.744 OA
ENDBRANCH  93  94
ENDBRANCH  65  88
BRANCH  77  98
ATOM     98  C   UNL A   1      47.206  27.391  33.623  1.00  0.00    -0.014 A 
ATOM     99  C   UNL A   1      47.340  26.386  34.597  1.00  0.00     0.010 A 
ATOM    100  C   UNL A   1      48.361  28.045  33.153  1.00  0.00     0.010 A 
ATOM    101  C   UNL A   1      48.599  26.066  35.115  1.00  0.00     0.020 A 
ATOM    102  C   UNL A   1      49.624  27.705  33.643  1.00  0.00     0.020 A 
ATOM    103  C   UNL A   1      49.733  26.728  34.633  1.00  0.00     0.054 A 
BRANCH 103 104
ATOM    104  S   UNL A   1      51.359  26.267  35.295  1.00  0.00     0.124 S 
ATOM    105  O   UNL A   1      52.254  27.131  34.531  1.00  0.00    -0.237 OA
ATOM    106  O   UNL A   1      51.229  26.591  36.713  1.00  0.00    -0.237 OA
ATOM    107  O   UNL A   1      51.464  24.841  34.993  1.00  0.00    -0.744 OA
ENDBRANCH 103 104
ENDBRANCH  77  98
ENDBRANCH  51  52
ENDBRANCH  44  46
ENDBRANCH  43  44
ENDBRANCH  42  43
ENDBRANCH  41  42
ENDBRANCH  40  41
ENDBRANCH  39  40
ENDBRANCH  38  39
ENDBRANCH   1  38
TORSDOF 28
ENDMDL
MODEL 2
REMARK VINA RESULT:      -7.2      3.964      9.964
REMARK SMILES CS(=O)(=O)c1ccc(/C=C(/C(=O)OCCOCCOCCOCCOC(=O)c2ccc(-c3c4nc(c(-c5ccc(S(=O)(=O)[O-])cc5)c5ccc([nH]5)c(-c5ccc(S(=O)(=O)[O-])cc5)c5nc(c(-c6ccc(S(=O)(=O)[O-])cc6)c6ccc3[nH]6)C=C5)C=C4)cc2)c2ccc(-c3ccc(S(C)(=O)=O)cc3)cc2)cc1
REMARK SMILES IDX 19 1 18 2 17 3 16 4 15 5 14 6 13 7 11 8 12 9 10 10 9 11 8 12
REMARK SMILES IDX 5 13 6 14 105 15 7 16 104 17 2 18 1 19 3 20 4 21 88 22 89 23
REMARK SMILES IDX 103 24 90 25 102 26 91 27 92 28 93 29 101 30 94 31 100 32
REMARK SMILES IDX 95 33 96 34 97 35 98 36 99 37 20 38 21 39 22 40 23 41 24 42
REMARK SMILES IDX 25 43 26 44 27 45 28 46 29 47 87 48 30 49 86 50 31 51 32 52
REMARK SMILES IDX 33 53 80 54 34 55 85 56 79 57 81 58 35 59 84 60 78 61 77 62
REMARK SMILES IDX 36 64 66 65 47 66 65 67 48 68 51 69 64 70 82 71 49 72 50 73
REMARK SMILES IDX 63 75 83 76 52 77 37 78 38 79 46 80 39 81 45 82 40 83 41 84
REMARK SMILES IDX 42 85 43 86 44 87 67 88 68 89 76 90 69 91 75 92 70 93 71 94
REMARK SMILES IDX 72 95 73 96 74 97 53 98 54 99 62 100 55 101 61 102 56 103
REMARK SMILES IDX 57 104 58 105 59 106 60 107
REMARK H PARENT 81 63 51 74
REMARK Flexibility Score: inf
ROOT
ATOM      1  O   UNL A   1      47.404  39.465  31.295  1.00  0.00    -0.377 OA
ENDROOT
BRANCH   1   2
ATOM      2  C   UNL A   1      46.798  39.852  30.075  1.00  0.00     0.188 C 
BRANCH   2   3
ATOM      3  C   UNL A   1      47.301  39.254  28.739  1.00  0.00     0.188 C 
BRANCH   3   4
ATOM      4  O   UNL A   1      48.332  38.295  28.886  1.00  0.00    -0.376 OA
BRANCH   4   5
ATOM      5  C   UNL A   1      48.245  37.110  28.115  1.00  0.00     0.202 C 
BRANCH   5   6
ATOM      6  C   UNL A   1      46.898  36.752  27.468  1.00  0.00     0.261 C 
BRANCH   6   7
ATOM      7  O   UNL A   1      45.899  36.206  28.344  1.00  0.00    -0.460 OA
BRANCH   7   8
ATOM      8  C   UNL A   1      44.611  36.255  27.928  1.00  0.00     0.338 C 
ATOM      9  O   UNL A   1      44.200  36.901  26.977  1.00  0.00    -0.246 OA
BRANCH   8  10
ATOM     10  C   UNL A   1      43.774  35.267  28.694  1.00  0.00     0.067 C 
ATOM     11  C   UNL A   1      42.877  35.724  29.604  1.00  0.00     0.024 C 
BRANCH  11  12
ATOM     12  C   UNL A   1      41.798  34.979  30.300  1.00  0.00    -0.025 A 
ATOM     13  C   UNL A   1      39.964  33.071  31.224  1.00  0.00     0.067 A 
ATOM     14  C   UNL A   1      41.021  33.463  32.040  1.00  0.00     0.021 A 
ATOM     15  C   UNL A   1      39.734  33.715  30.009  1.00  0.00     0.021 A 
ATOM     16  C   UNL A   1      41.899  34.452  31.594  1.00  0.00     0.009 A 
ATOM     17  C   UNL A   1      40.647  34.671  29.556  1.00  0.00     0.009 A 
BRANCH  13  18
ATOM     18  S   UNL A   1      39.009  31.642  31.664  1.00  0.00     0.175 S 
ATOM     19  C   UNL A   1      39.232  31.512  33.412  1.00  0.00     0.163 C 
ATOM     20  O   UNL A   1      39.635  30.488  31.046  1.00  0.00    -0.224 OA
ATOM     21  O   UNL A   1      37.615  31.949  31.406  1.00  0.00    -0.224 OA
ENDBRANCH  13  18
ENDBRANCH  11  12
BRANCH  10  22
ATOM     22  C   UNL A   1      43.965  33.834  28.390  1.00  0.00    -0.011 A 
ATOM     23  C   UNL A   1      43.820  32.870  29.402  1.00  0.00     0.009 A 
ATOM     24  C   UNL A   1      44.174  33.404  27.082  1.00  0.00     0.009 A 
ATOM     25  C   UNL A   1      43.884  31.505  29.118  1.00  0.00     0.009 A 
ATOM     26  C   UNL A   1      44.209  32.035  26.797  1.00  0.00     0.009 A 
ATOM     27  C   UNL A   1      44.072  31.061  27.806  1.00  0.00    -0.018 A 
BRANCH  27  28
ATOM     28  C   UNL A   1      44.127  29.624  27.488  1.00  0.00    -0.018 A 
ATOM     29  C   UNL A   1      43.151  28.722  27.953  1.00  0.00     0.010 A 
ATOM     30  C   UNL A   1      45.163  29.120  26.683  1.00  0.00     0.010 A 
ATOM     31  C   UNL A   1      43.197  27.368  27.607  1.00  0.00     0.021 A 
ATOM     32  C   UNL A   1      45.218  27.774  26.328  1.00  0.00     0.021 A 
ATOM     33  C   UNL A   1      44.233  26.904  26.793  1.00  0.00     0.067 A 
BRANCH  33  34
ATOM     34  S   UNL A   1      44.263  25.201  26.300  1.00  0.00     0.175 S 
ATOM     35  C   UNL A   1      42.793  25.013  25.329  1.00  0.00     0.163 C 
ATOM     36  O   UNL A   1      45.409  25.026  25.429  1.00  0.00    -0.224 OA
ATOM     37  O   UNL A   1      44.102  24.388  27.492  1.00  0.00    -0.224 OA
ENDBRANCH  33  34
ENDBRANCH  27  28
ENDBRANCH  10  22
ENDBRANCH   8  10
ENDBRANCH   7   8
ENDBRANCH   6   7
ENDBRANCH   5   6
ENDBRANCH   4   5
ENDBRANCH   3   4
ENDBRANCH   2   3
ENDBRANCH   1   2
BRANCH   1  38
ATOM     38  C   UNL A   1      48.088  40.440  32.072  1.00  0.00     0.188 C 
BRANCH  38  39
ATOM     39  C   UNL A   1      48.628  41.726  31.404  1.00  0.00     0.188 C 
BRANCH  39  40
ATOM     40  O   UNL A   1      48.098  42.937  31.925  1.00  0.00    -0.376 OA
BRANCH  40  41
ATOM     41  C   UNL A   1      46.701  43.146  31.813  1.00  0.00     0.202 C 
BRANCH  41  42
ATOM     42  C   UNL A   1      45.965  43.659  33.059  1.00  0.00     0.261 C 
BRANCH  42  43
ATOM     43  O   UNL A   1      45.670  42.685  34.071  1.00  0.00    -0.460 OA
BRANCH  43  44
ATOM     44  C   UNL A   1      44.368  42.416  34.316  1.00  0.00     0.338 C 
ATOM     45  O   UNL A   1      43.453  43.221  34.383  1.00  0.00    -0.246 OA
BRANCH  44  46
ATOM     46  C   UNL A   1      44.208  40.948  34.287  1.00  0.00     0.060 A 
ATOM     47  C   UNL A   1      44.812  40.173  35.287  1.00  0.00     0.016 A 
ATOM     48  C   UNL A   1      43.432  40.345  33.296  1.00  0.00     0.016 A 
ATOM     49  C   UNL A   1      44.658  38.788  35.283  1.00  0.00     0.010 A 
ATOM     50  C   UNL A   1      43.301  38.955  33.278  1.00  0.00     0.010 A 
ATOM     51  C   UNL A   1      43.939  38.168  34.254  1.00  0.00    -0.014 A 
BRANCH  51  52
ATOM     52  C   UNL A   1      44.014  36.697  34.087  1.00  0.00     0.031 A 
ATOM     53  C   UNL A   1      43.107  35.840  34.926  1.00  0.00     0.074 A 
ATOM     54  C   UNL A   1      44.851  36.134  33.199  1.00  0.00     0.049 A 
ATOM     55  N   UNL A   1      43.011  34.537  34.978  1.00  0.00    -0.248 NA
ATOM     56  C   UNL A   1      42.184  36.549  35.830  1.00  0.00     0.031 C 
ATOM     57  C   UNL A   1      45.747  36.859  32.300  1.00  0.00     0.029 A 
ATOM     58  N   UNL A   1      45.085  34.811  32.915  1.00  0.00    -0.354 N 
ATOM     59  C   UNL A   1      42.030  34.270  35.927  1.00  0.00     0.074 A 
ATOM     60  C   UNL A   1      41.581  35.543  36.445  1.00  0.00     0.031 C 
ATOM     61  C   UNL A   1      46.443  35.969  31.569  1.00  0.00     0.029 A 
ATOM     62  C   UNL A   1      46.068  34.615  31.973  1.00  0.00     0.049 A 
ATOM     63  H   UNL A   1      44.596  34.072  33.344  1.00  0.00     0.167 HD
ATOM     64  C   UNL A   1      41.544  33.071  36.328  1.00  0.00     0.031 A 
ATOM     65  C   UNL A   1      46.617  33.474  31.508  1.00  0.00     0.031 A 
ATOM     66  C   UNL A   1      42.009  31.807  35.823  1.00  0.00     0.049 A 
ATOM     67  C   UNL A   1      46.113  32.150  32.025  1.00  0.00     0.074 A 
ATOM     68  C   UNL A   1      41.566  30.537  36.150  1.00  0.00     0.029 A 
ATOM     69  N   UNL A   1      43.029  31.649  34.897  1.00  0.00    -0.354 N 
ATOM     70  N   UNL A   1      45.160  31.911  32.895  1.00  0.00    -0.248 NA
ATOM     71  C   UNL A   1      46.752  30.941  31.488  1.00  0.00     0.031 C 
ATOM     72  C   UNL A   1      42.368  29.610  35.476  1.00  0.00     0.029 A 
ATOM     73  C   UNL A   1      43.256  30.302  34.668  1.00  0.00     0.049 A 
ATOM     74  H   UNL A   1      43.519  32.386  34.465  1.00  0.00     0.167 HD
ATOM     75  C   UNL A   1      45.068  30.525  32.988  1.00  0.00     0.074 A 
ATOM     76  C   UNL A   1      46.049  29.981  32.073  1.00  0.00     0.031 C 
ATOM     77  C   UNL A   1      44.243  29.773  33.759  1.00  0.00     0.031 A 
BRANCH  64  78
ATOM     78  C   UNL A   1      40.488  33.074  37.402  1.00  0.00    -0.014 A 
ATOM     79  C   UNL A   1      39.118  33.031  37.087  1.00  0.00     0.010 A 
ATOM     80  C   UNL A   1      40.878  33.087  38.754  1.00  0.00     0.010 A 
ATOM     81  C   UNL A   1      38.157  33.044  38.102  1.00  0.00     0.020 A 
ATOM     82  C   UNL A   1      39.922  33.067  39.773  1.00  0.00     0.020 A 
ATOM     83  C   UNL A   1      38.566  33.062  39.439  1.00  0.00     0.054 A 
BRANCH  83  84
ATOM     84  S   UNL A   1      37.298  33.057  40.736  1.00  0.00     0.124 S 
ATOM     85  O   UNL A   1      37.719  31.929  41.563  1.00  0.00    -0.237 OA
ATOM     86  O   UNL A   1      37.458  34.376  41.343  1.00  0.00    -0.237 OA
ATOM     87  O   UNL A   1      36.051  32.858  40.002  1.00  0.00    -0.744 OA
ENDBRANCH  83  84
ENDBRANCH  64  78
BRANCH  65  88
ATOM     88  C   UNL A   1      47.725  33.535  30.516  1.00  0.00    -0.014 A 
ATOM     89  C   UNL A   1      49.054  33.744  30.927  1.00  0.00     0.010 A 
ATOM     90  C   UNL A   1      47.454  33.376  29.144  1.00  0.00     0.010 A 
ATOM     91  C   UNL A   1      50.086  33.802  29.987  1.00  0.00     0.020 A 
ATOM     92  C   UNL A   1      48.487  33.403  28.203  1.00  0.00     0.020 A 
ATOM     93  C   UNL A   1      49.797  33.624  28.630  1.00  0.00     0.054 A 
BRANCH  93  94
ATOM     94  S   UNL A   1      51.163  33.635  27.435  1.00  0.00     0.124 S 
ATOM     95  O   UNL A   1      50.891  34.849  26.674  1.00  0.00    -0.237 OA
ATOM     96  O   UNL A   1      52.337  33.680  28.304  1.00  0.00    -0.237 OA
ATOM     97  O   UNL A   1      50.988  32.382  26.703  1.00  0.00    -0.744 OA
ENDBRANCH  93  94
ENDBRANCH  65  88
BRANCH  77  98
ATOM     98  C   UNL A   1      44.336  28.273  33.624  1.00  0.00    -0.014 A 
ATOM     99  C   UNL A   1      45.081  27.499  34.530  1.00  0.00     0.010 A 
ATOM    100  C   UNL A   1      43.614  27.625  32.603  1.00  0.00     0.010 A 
ATOM    101  C   UNL A   1      45.132  26.108  34.397  1.00  0.00     0.020 A 
ATOM    102  C   UNL A   1      43.635  26.233  32.487  1.00  0.00     0.020 A 
ATOM    103  C   UNL A   1      44.408  25.484  33.376  1.00  0.00     0.054 A 
BRANCH 103 104
ATOM    104  S   UNL A   1      44.461  23.674  33.249  1.00  0.00     0.124 S 
ATOM    105  O   UNL A   1      45.782  23.370  33.791  1.00  0.00    -0.237 OA
ATOM    106  O   UNL A   1      43.330  23.264  34.077  1.00  0.00    -0.237 OA
ATOM    107  O   UNL A   1      44.304  23.423  31.818  1.00  0.00    -0.744 OA
ENDBRANCH 103 104
ENDBRANCH  77  98
ENDBRANCH  51  52
ENDBRANCH  44  46
ENDBRANCH  43  44
ENDBRANCH  42  43
ENDBRANCH  41  42
ENDBRANCH  40  41
ENDBRANCH  39  40
ENDBRANCH  38  39
ENDBRANCH   1  38
TORSDOF 28
ENDMDL
MODEL 3
REMARK VINA RESULT:      -6.9      5.283     13.766
REMARK SMILES CS(=O)(=O)c1ccc(/C=C(/C(=O)OCCOCCOCCOCCOC(=O)c2ccc(-c3c4nc(c(-c5ccc(S(=O)(=O)[O-])cc5)c5ccc([nH]5)c(-c5ccc(S(=O)(=O)[O-])cc5)c5nc(c(-c6ccc(S(=O)(=O)[O-])cc6)c6ccc3[nH]6)C=C5)C=C4)cc2)c2ccc(-c3ccc(S(C)(=O)=O)cc3)cc2)cc1
REMARK SMILES IDX 19 1 18 2 17 3 16 4 15 5 14 6 13 7 11 8 12 9 10 10 9 11 8 12
REMARK SMILES IDX 5 13 6 14 105 15 7 16 104 17 2 18 1 19 3 20 4 21 88 22 89 23
REMARK SMILES IDX 103 24 90 25 102 26 91 27 92 28 93 29 101 30 94 31 100 32
REMARK SMILES IDX 95 33 96 34 97 35 98 36 99 37 20 38 21 39 22 40 23 41 24 42
REMARK SMILES IDX 25 43 26 44 27 45 28 46 29 47 87 48 30 49 86 50 31 51 32 52
REMARK SMILES IDX 33 53 80 54 34 55 85 56 79 57 81 58 35 59 84 60 78 61 77 62
REMARK SMILES IDX 36 64 66 65 47 66 65 67 48 68 51 69 64 70 82 71 49 72 50 73
REMARK SMILES IDX 63 75 83 76 52 77 37 78 38 79 46 80 39 81 45 82 40 83 41 84
REMARK SMILES IDX 42 85 43 86 44 87 67 88 68 89 76 90 69 91 75 92 70 93 71 94
REMARK SMILES IDX 72 95 73 96 74 97 53 98 54 99 62 100 55 101 61 102 56 103
REMARK SMILES IDX 57 104 58 105 59 106 60 107
REMARK H PARENT 81 63 51 74
REMARK Flexibility Score: inf
ROOT
ATOM      1  O   UNL A   1      47.463  32.571  35.073  1.00  0.00    -0.377 OA
ENDROOT
BRANCH   1   2
ATOM      2  C   UNL A   1      47.736  31.196  34.874  1.00  0.00     0.188 C 
BRANCH   2   3
ATOM      3  C   UNL A   1      48.440  30.380  35.985  1.00  0.00     0.188 C 
BRANCH   3   4
ATOM      4  O   UNL A   1      48.026  29.029  36.062  1.00  0.00    -0.376 OA
BRANCH   4   5
ATOM      5  C   UNL A   1      46.735  28.763  36.581  1.00  0.00     0.202 C 
BRANCH   5   6
ATOM      6  C   UNL A   1      46.040  27.451  36.184  1.00  0.00     0.261 C 
BRANCH   6   7
ATOM      7  O   UNL A   1      45.994  27.157  34.779  1.00  0.00    -0.460 OA
BRANCH   7   8
ATOM      8  C   UNL A   1      45.844  25.861  34.417  1.00  0.00     0.338 C 
ATOM      9  O   UNL A   1      44.795  25.340  34.073  1.00  0.00    -0.246 OA
BRANCH   8  10
ATOM     10  C   UNL A   1      47.185  25.183  34.330  1.00  0.00     0.067 C 
ATOM     11  C   UNL A   1      47.440  24.117  35.130  1.00  0.00     0.024 C 
BRANCH  11  12
ATOM     12  C   UNL A   1      48.572  23.158  35.068  1.00  0.00    -0.025 A 
ATOM     13  C   UNL A   1      50.721  21.528  34.307  1.00  0.00     0.067 A 
ATOM     14  C   UNL A   1      50.954  22.651  35.095  1.00  0.00     0.021 A 
ATOM     15  C   UNL A   1      49.419  21.134  34.006  1.00  0.00     0.021 A 
ATOM     16  C   UNL A   1      49.872  23.428  35.514  1.00  0.00     0.009 A 
ATOM     17  C   UNL A   1      48.349  21.946  34.393  1.00  0.00     0.009 A 
BRANCH  13  18
ATOM     18  S   UNL A   1      52.095  20.695  33.555  1.00  0.00     0.175 S 
ATOM     19  C   UNL A   1      53.505  21.467  34.289  1.00  0.00     0.163 C 
ATOM     20  O   UNL A   1      52.089  21.024  32.142  1.00  0.00    -0.224 OA
ATOM     21  O   UNL A   1      52.060  19.311  33.988  1.00  0.00    -0.224 OA
ENDBRANCH  13  18
ENDBRANCH  11  12
BRANCH  10  22
ATOM     22  C   UNL A   1      48.151  25.710  33.346  1.00  0.00    -0.011 A 
ATOM     23  C   UNL A   1      47.909  25.564  31.969  1.00  0.00     0.009 A 
ATOM     24  C   UNL A   1      49.252  26.457  33.755  1.00  0.00     0.009 A 
ATOM     25  C   UNL A   1      48.747  26.150  31.019  1.00  0.00     0.009 A 
ATOM     26  C   UNL A   1      50.074  27.067  32.801  1.00  0.00     0.009 A 
ATOM     27  C   UNL A   1      49.843  26.920  31.418  1.00  0.00    -0.018 A 
BRANCH  27  28
ATOM     28  C   UNL A   1      50.729  27.558  30.429  1.00  0.00    -0.018 A 
ATOM     29  C   UNL A   1      51.279  28.837  30.639  1.00  0.00     0.010 A 
ATOM     30  C   UNL A   1      51.063  26.881  29.244  1.00  0.00     0.010 A 
ATOM     31  C   UNL A   1      52.151  29.409  29.708  1.00  0.00     0.021 A 
ATOM     32  C   UNL A   1      51.933  27.440  28.309  1.00  0.00     0.021 A 
ATOM     33  C   UNL A   1      52.473  28.703  28.547  1.00  0.00     0.067 A 
BRANCH  33  34
ATOM     34  S   UNL A   1      53.624  29.397  27.390  1.00  0.00     0.175 S 
ATOM     35  C   UNL A   1      55.149  29.456  28.292  1.00  0.00     0.163 C 
ATOM     36  O   UNL A   1      53.772  28.444  26.308  1.00  0.00    -0.224 OA
ATOM     37  O   UNL A   1      53.222  30.767  27.128  1.00  0.00    -0.224 OA
ENDBRANCH  33  34
ENDBRANCH  27  28
ENDBRANCH  10  22
ENDBRANCH   8  10
ENDBRANCH   7   8
ENDBRANCH   6   7
ENDBRANCH   5   6
ENDBRANCH   4   5
ENDBRANCH   3   4
ENDBRANCH   2   3
ENDBRANCH   1   2
BRANCH   1  38
ATOM     38  C   UNL A   1      48.488  33.418  35.577  1.00  0.00     0.188 C 
BRANCH  38  39
ATOM     39  C   UNL A   1      49.389  34.212  34.602  1.00  0.00     0.188 C 
BRANCH  39  40
ATOM     40  O   UNL A   1      50.779  34.145  34.885  1.00  0.00    -0.376 OA
BRANCH  40  41
ATOM     41  C   UNL A   1      51.671  34.707  33.939  1.00  0.00     0.202 C 
BRANCH  41  42
ATOM     42  C   UNL A   1      51.103  35.758  32.974  1.00  0.00     0.261 C 
BRANCH  42  43
ATOM     43  O   UNL A   1      51.550  35.681  31.613  1.00  0.00    -0.460 OA
BRANCH  43  44
ATOM     44  C   UNL A   1      50.657  35.982  30.645  1.00  0.00     0.338 C 
ATOM     45  O   UNL A   1      50.492  37.068  30.112  1.00  0.00    -0.246 OA
BRANCH  44  46
ATOM     46  C   UNL A   1      50.049  34.714  30.195  1.00  0.00     0.060 A 
ATOM     47  C   UNL A   1      48.976  34.751  29.293  1.00  0.00     0.016 A 
ATOM     48  C   UNL A   1      50.562  33.493  30.635  1.00  0.00     0.016 A 
ATOM     49  C   UNL A   1      48.400  33.563  28.847  1.00  0.00     0.010 A 
ATOM     50  C   UNL A   1      49.966  32.304  30.208  1.00  0.00     0.010 A 
ATOM     51  C   UNL A   1      48.863  32.335  29.336  1.00  0.00    -0.014 A 
BRANCH  51  52
ATOM     52  C   UNL A   1      48.077  31.102  29.091  1.00  0.00     0.031 A 
ATOM     53  C   UNL A   1      48.514  30.192  27.976  1.00  0.00     0.074 A 
ATOM     54  C   UNL A   1      47.013  30.786  29.850  1.00  0.00     0.049 A 
ATOM     55  N   UNL A   1      47.973  29.079  27.555  1.00  0.00    -0.248 NA
ATOM     56  C   UNL A   1      49.723  30.593  27.236  1.00  0.00     0.031 C 
ATOM     57  C   UNL A   1      46.519  31.565  30.983  1.00  0.00     0.029 A 
ATOM     58  N   UNL A   1      46.152  29.720  29.770  1.00  0.00    -0.354 N 
ATOM     59  C   UNL A   1      48.766  28.653  26.495  1.00  0.00     0.074 A 
ATOM     60  C   UNL A   1      49.807  29.642  26.319  1.00  0.00     0.031 C 
ATOM     61  C   UNL A   1      45.433  30.954  31.489  1.00  0.00     0.029 A 
ATOM     62  C   UNL A   1      45.135  29.763  30.695  1.00  0.00     0.049 A 
ATOM     63  H   UNL A   1      46.253  28.993  29.114  1.00  0.00     0.167 HD
ATOM     64  C   UNL A   1      48.640  27.538  25.737  1.00  0.00     0.031 A 
ATOM     65  C   UNL A   1      44.074  28.948  30.864  1.00  0.00     0.031 A 
ATOM     66  C   UNL A   1      47.591  26.568  25.905  1.00  0.00     0.049 A 
ATOM     67  C   UNL A   1      43.911  27.752  29.960  1.00  0.00     0.074 A 
ATOM     68  C   UNL A   1      47.388  25.393  25.202  1.00  0.00     0.029 A 
ATOM     69  N   UNL A   1      46.560  26.666  26.827  1.00  0.00    -0.354 N 
ATOM     70  N   UNL A   1      44.688  27.342  28.985  1.00  0.00    -0.248 NA
ATOM     71  C   UNL A   1      42.733  26.903  30.187  1.00  0.00     0.031 C 
ATOM     72  C   UNL A   1      46.195  24.818  25.652  1.00  0.00     0.029 A 
ATOM     73  C   UNL A   1      45.697  25.592  26.688  1.00  0.00     0.049 A 
ATOM     74  H   UNL A   1      46.458  27.391  27.485  1.00  0.00     0.167 HD
ATOM     75  C   UNL A   1      44.107  26.173  28.501  1.00  0.00     0.074 A 
ATOM     76  C   UNL A   1      42.925  25.934  29.303  1.00  0.00     0.031 C 
ATOM     77  C   UNL A   1      44.518  25.369  27.488  1.00  0.00     0.031 A 
BRANCH  64  78
ATOM     78  C   UNL A   1      49.637  27.336  24.627  1.00  0.00    -0.014 A 
ATOM     79  C   UNL A   1      50.930  26.840  24.879  1.00  0.00     0.010 A 
ATOM     80  C   UNL A   1      49.261  27.618  23.301  1.00  0.00     0.010 A 
ATOM     81  C   UNL A   1      51.840  26.671  23.832  1.00  0.00     0.020 A 
ATOM     82  C   UNL A   1      50.157  27.420  22.247  1.00  0.00     0.020 A 
ATOM     83  C   UNL A   1      51.447  26.963  22.522  1.00  0.00     0.054 A 
BRANCH  83  84
ATOM     84  S   UNL A   1      52.642  26.713  21.180  1.00  0.00     0.124 S 
ATOM     85  O   UNL A   1      52.689  28.039  20.569  1.00  0.00    -0.237 OA
ATOM     86  O   UNL A   1      53.847  26.309  21.899  1.00  0.00    -0.237 OA
ATOM     87  O   UNL A   1      52.030  25.672  20.358  1.00  0.00    -0.744 OA
ENDBRANCH  83  84
ENDBRANCH  64  78
BRANCH  65  88
ATOM     88  C   UNL A   1      43.067  29.250  31.918  1.00  0.00    -0.014 A 
ATOM     89  C   UNL A   1      43.195  28.720  33.215  1.00  0.00     0.010 A 
ATOM     90  C   UNL A   1      41.969  30.083  31.629  1.00  0.00     0.010 A 
ATOM     91  C   UNL A   1      42.242  29.008  34.196  1.00  0.00     0.020 A 
ATOM     92  C   UNL A   1      41.031  30.398  32.616  1.00  0.00     0.020 A 
ATOM     93  C   UNL A   1      41.170  29.852  33.892  1.00  0.00     0.054 A 
BRANCH  93  94
ATOM     94  S   UNL A   1      39.983  30.266  35.201  1.00  0.00     0.124 S 
ATOM     95  O   UNL A   1      38.705  30.051  34.534  1.00  0.00    -0.237 OA
ATOM     96  O   UNL A   1      40.324  29.303  36.246  1.00  0.00    -0.237 OA
ATOM     97  O   UNL A   1      40.299  31.657  35.522  1.00  0.00    -0.744 OA
ENDBRANCH  93  94
ENDBRANCH  65  88
BRANCH  77  98
ATOM     98  C   UNL A   1      43.705  24.130  27.206  1.00  0.00    -0.014 A 
ATOM     99  C   UNL A   1      42.955  23.997  26.025  1.00  0.00     0.010 A 
ATOM    100  C   UNL A   1      43.742  23.056  28.116  1.00  0.00     0.010 A 
ATOM    101  C   UNL A   1      42.228  22.829  25.776  1.00  0.00     0.020 A 
ATOM    102  C   UNL A   1      43.045  21.875  27.855  1.00  0.00     0.020 A 
ATOM    103  C   UNL A   1      42.279  21.775  26.693  1.00  0.00     0.054 A 
BRANCH 103 104
ATOM    104  S   UNL A   1      41.357  20.255  26.327  1.00  0.00     0.124 S 
ATOM    105  O   UNL A   1      41.281  19.622  27.641  1.00  0.00    -0.237 OA
ATOM    106  O   UNL A   1      40.094  20.767  25.801  1.00  0.00    -0.237 OA
ATOM    107  O   UNL A   1      42.199  19.565  25.352  1.00  0.00    -0.744 OA
ENDBRANCH 103 104
ENDBRANCH  77  98
ENDBRANCH  51  52
ENDBRANCH  44  46
ENDBRANCH  43  44
ENDBRANCH  42  43
ENDBRANCH  41  42
ENDBRANCH  40  41
ENDBRANCH  39  40
ENDBRANCH  38  39
ENDBRANCH   1  38
TORSDOF 28
ENDMDL
