MODEL 1
REMARK VINA RESULT:      -7.2      0.000      0.000
REMARK SMILES COc1ccc(/C=C/c2cc(OC)cc(OC)c2/C=C/C(=O)OCCOCCOCCOCCOC(=O)c2ccc(-c3c4nc(c(-c5ccc(S(=O)(=O)[O-])cc5)c5ccc([nH]5)c(-c5ccc(S(=O)(=O)[O-])cc5)c5nc(c(-c6ccc(S(=O)(=O)[O-])cc6)c6ccc3[nH]6)C=C5)C=C4)cc2)cc1
REMARK SMILES IDX 28 1 27 2 26 3 25 4 24 5 23 6 21 7 22 8 20 9 19 10 18 11
REMARK SMILES IDX 9 12 10 13 11 14 15 15 14 16 8 17 7 18 6 19 3 20 4 21 99 22
REMARK SMILES IDX 5 23 98 24 2 25 1 26 12 27 13 28 16 29 17 30 29 31 30 32
REMARK SMILES IDX 31 33 32 34 33 35 34 36 35 37 36 38 37 39 38 40 39 41 97 42
REMARK SMILES IDX 40 43 96 44 41 45 42 46 43 47 90 48 44 49 95 50 89 51 91 52
REMARK SMILES IDX 45 53 94 54 88 55 87 56 46 58 76 59 57 60 75 61 58 62 61 63
REMARK SMILES IDX 74 64 92 65 59 66 60 67 73 69 93 70 62 71 47 72 48 73 56 74
REMARK SMILES IDX 49 75 55 76 50 77 51 78 52 79 53 80 54 81 77 82 78 83 86 84
REMARK SMILES IDX 79 85 85 86 80 87 81 88 82 89 83 90 84 91 63 92 64 93 72 94
REMARK SMILES IDX 65 95 71 96 66 97 67 98 68 99 69 100 70 101
REMARK H PARENT 91 57 61 68
REMARK Flexibility Score: inf
ROOT
ATOM      1  C   UNL A   1      36.818  23.699  26.276  1.00  0.00     0.188 C 
ENDROOT
BRANCH   1   2
ATOM      2  C   UNL A   1      35.806  24.230  25.249  1.00  0.00     0.188 C 
BRANCH   2   3
ATOM      3  O   UNL A   1      34.662  24.826  25.827  1.00  0.00    -0.376 OA
BRANCH   3   4
ATOM      4  C   UNL A   1      34.039  25.948  25.219  1.00  0.00     0.202 C 
BRANCH   4   5
ATOM      5  C   UNL A   1      33.621  27.227  25.972  1.00  0.00     0.261 C 
BRANCH   5   6
ATOM      6  O   UNL A   1      34.475  28.366  25.835  1.00  0.00    -0.460 OA
BRANCH   6   7
ATOM      7  C   UNL A   1      34.328  29.371  26.719  1.00  0.00     0.330 C 
ATOM      8  O   UNL A   1      33.564  30.318  26.616  1.00  0.00    -0.247 OA
BRANCH   7   9
ATOM      9  C   UNL A   1      35.138  29.138  27.939  1.00  0.00     0.094 C 
ATOM     10  C   UNL A   1      36.331  29.704  28.188  1.00  0.00     0.020 C 
BRANCH  10  11
ATOM     11  C   UNL A   1      37.143  29.414  29.387  1.00  0.00     0.024 A 
ATOM     12  C   UNL A   1      36.845  30.103  30.594  1.00  0.00    -0.011 A 
ATOM     13  C   UNL A   1      37.541  29.790  31.774  1.00  0.00     0.055 A 
ATOM     14  C   UNL A   1      38.561  28.844  31.782  1.00  0.00     0.123 A 
ATOM     15  C   UNL A   1      38.209  28.487  29.398  1.00  0.00     0.130 A 
ATOM     16  C   UNL A   1      38.897  28.207  30.591  1.00  0.00     0.093 A 
BRANCH  12  17
ATOM     17  C   UNL A   1      35.885  31.219  30.700  1.00  0.00     0.009 C 
ATOM     18  C   UNL A   1      36.087  32.444  30.192  1.00  0.00     0.009 C 
BRANCH  18  19
ATOM     19  C   UNL A   1      35.194  33.592  30.404  1.00  0.00    -0.025 A 
ATOM     20  C   UNL A   1      33.400  35.721  30.696  1.00  0.00     0.118 A 
ATOM     21  C   UNL A   1      34.067  35.222  31.809  1.00  0.00     0.047 A 
ATOM     22  C   UNL A   1      33.660  35.208  29.427  1.00  0.00     0.047 A 
ATOM     23  C   UNL A   1      34.947  34.149  31.666  1.00  0.00     0.012 A 
ATOM     24  C   UNL A   1      34.548  34.141  29.286  1.00  0.00     0.012 A 
BRANCH  20  25
ATOM     25  O   UNL A   1      32.498  36.722  30.912  1.00  0.00    -0.497 OA
ATOM     26  C   UNL A   1      32.852  37.480  32.071  1.00  0.00     0.278 C 
ENDBRANCH  20  25
ENDBRANCH  18  19
ENDBRANCH  12  17
BRANCH  14  27
ATOM     27  O   UNL A   1      39.141  28.631  33.001  1.00  0.00    -0.497 OA
ATOM     28  C   UNL A   1      39.938  29.687  33.522  1.00  0.00     0.278 C 
ENDBRANCH  14  27
BRANCH  15  29
ATOM     29  O   UNL A   1      38.637  27.703  28.355  1.00  0.00    -0.496 OA
ATOM     30  C   UNL A   1      40.022  27.387  28.298  1.00  0.00     0.278 C 
ENDBRANCH  15  29
ENDBRANCH  10  11
ENDBRANCH   7   9
ENDBRANCH   6   7
ENDBRANCH   5   6
ENDBRANCH   4   5
ENDBRANCH   3   4
ENDBRANCH   2   3
ENDBRANCH   1   2
BRANCH   1  31
ATOM     31  O   UNL A   1      38.119  23.489  25.765  1.00  0.00    -0.377 OA
BRANCH  31  32
ATOM     32  C   UNL A   1      39.119  22.945  26.626  1.00  0.00     0.188 C 
BRANCH  32  33
ATOM     33  C   UNL A   1      40.626  23.285  26.492  1.00  0.00     0.188 C 
BRANCH  33  34
ATOM     34  O   UNL A   1      41.518  22.422  27.184  1.00  0.00    -0.376 OA
BRANCH  34  35
ATOM     35  C   UNL A   1      42.759  22.954  27.614  1.00  0.00     0.202 C 
BRANCH  35  36
ATOM     36  C   UNL A   1      43.387  24.019  26.703  1.00  0.00     0.261 C 
BRANCH  36  37
ATOM     37  O   UNL A   1      43.224  25.376  27.140  1.00  0.00    -0.460 OA
BRANCH  37  38
ATOM     38  C   UNL A   1      42.894  26.282  26.188  1.00  0.00     0.338 C 
ATOM     39  O   UNL A   1      42.198  26.096  25.213  1.00  0.00    -0.246 OA
BRANCH  38  40
ATOM     40  C   UNL A   1      43.364  27.606  26.648  1.00  0.00     0.060 A 
ATOM     41  C   UNL A   1      44.334  27.662  27.656  1.00  0.00     0.016 A 
ATOM     42  C   UNL A   1      42.853  28.779  26.088  1.00  0.00     0.016 A 
ATOM     43  C   UNL A   1      44.768  28.897  28.136  1.00  0.00     0.010 A 
ATOM     44  C   UNL A   1      43.274  30.016  26.586  1.00  0.00     0.010 A 
ATOM     45  C   UNL A   1      44.205  30.079  27.638  1.00  0.00    -0.014 A 
BRANCH  45  46
ATOM     46  C   UNL A   1      44.429  31.354  28.365  1.00  0.00     0.031 A 
ATOM     47  C   UNL A   1      45.609  32.202  27.965  1.00  0.00     0.074 A 
ATOM     48  C   UNL A   1      43.582  31.779  29.320  1.00  0.00     0.049 A 
ATOM     49  N   UNL A   1      46.012  33.349  28.449  1.00  0.00    -0.248 NA
ATOM     50  C   UNL A   1      46.450  31.684  26.870  1.00  0.00     0.031 C 
ATOM     51  C   UNL A   1      42.382  31.075  29.771  1.00  0.00     0.029 A 
ATOM     52  N   UNL A   1      43.609  32.919  30.084  1.00  0.00    -0.354 N 
ATOM     53  C   UNL A   1      47.154  33.682  27.729  1.00  0.00     0.074 A 
ATOM     54  C   UNL A   1      47.399  32.604  26.797  1.00  0.00     0.031 C 
ATOM     55  C   UNL A   1      41.782  31.805  30.730  1.00  0.00     0.029 A 
ATOM     56  C   UNL A   1      42.569  33.011  30.980  1.00  0.00     0.049 A 
ATOM     57  H   UNL A   1      44.307  33.609  29.998  1.00  0.00     0.167 HD
ATOM     58  C   UNL A   1      47.929  34.789  27.830  1.00  0.00     0.031 A 
ATOM     59  C   UNL A   1      42.299  33.953  31.905  1.00  0.00     0.031 A 
ATOM     60  C   UNL A   1      47.693  35.852  28.771  1.00  0.00     0.049 A 
ATOM     61  C   UNL A   1      43.230  35.125  32.062  1.00  0.00     0.074 A 
ATOM     62  C   UNL A   1      48.411  37.022  28.943  1.00  0.00     0.029 A 
ATOM     63  N   UNL A   1      46.669  35.869  29.706  1.00  0.00    -0.354 N 
ATOM     64  N   UNL A   1      44.301  35.431  31.370  1.00  0.00    -0.248 NA
ATOM     65  C   UNL A   1      42.910  36.080  33.134  1.00  0.00     0.031 C 
ATOM     66  C   UNL A   1      47.863  37.715  30.027  1.00  0.00     0.029 A 
ATOM     67  C   UNL A   1      46.756  37.015  30.479  1.00  0.00     0.049 A 
ATOM     68  H   UNL A   1      45.982  35.171  29.805  1.00  0.00     0.167 HD
ATOM     69  C   UNL A   1      44.765  36.631  31.903  1.00  0.00     0.074 A 
ATOM     70  C   UNL A   1      43.851  36.998  32.965  1.00  0.00     0.031 C 
ATOM     71  C   UNL A   1      45.844  37.366  31.539  1.00  0.00     0.031 A 
BRANCH  58  72
ATOM     72  C   UNL A   1      49.132  34.885  26.926  1.00  0.00    -0.014 A 
ATOM     73  C   UNL A   1      50.376  34.346  27.300  1.00  0.00     0.010 A 
ATOM     74  C   UNL A   1      49.002  35.489  25.662  1.00  0.00     0.010 A 
ATOM     75  C   UNL A   1      51.477  34.444  26.443  1.00  0.00     0.020 A 
ATOM     76  C   UNL A   1      50.090  35.562  24.790  1.00  0.00     0.020 A 
ATOM     77  C   UNL A   1      51.326  35.052  25.193  1.00  0.00     0.054 A 
BRANCH  77  78
ATOM     78  S   UNL A   1      52.764  35.141  24.091  1.00  0.00     0.124 S 
ATOM     79  O   UNL A   1      52.848  33.769  23.595  1.00  0.00    -0.237 OA
ATOM     80  O   UNL A   1      52.352  36.139  23.108  1.00  0.00    -0.237 OA
ATOM     81  O   UNL A   1      53.854  35.551  24.972  1.00  0.00    -0.744 OA
ENDBRANCH  77  78
ENDBRANCH  58  72
BRANCH  59  82
ATOM     82  C   UNL A   1      41.115  33.825  32.797  1.00  0.00    -0.014 A 
ATOM     83  C   UNL A   1      41.230  33.259  34.080  1.00  0.00     0.010 A 
ATOM     84  C   UNL A   1      39.850  34.222  32.337  1.00  0.00     0.010 A 
ATOM     85  C   UNL A   1      40.100  33.103  34.895  1.00  0.00     0.020 A 
ATOM     86  C   UNL A   1      38.725  34.059  33.146  1.00  0.00     0.020 A 
ATOM     87  C   UNL A   1      38.854  33.516  34.423  1.00  0.00     0.054 A 
BRANCH  87  88
ATOM     88  S   UNL A   1      37.401  33.433  35.507  1.00  0.00     0.124 S 
ATOM     89  O   UNL A   1      36.424  34.229  34.771  1.00  0.00    -0.237 OA
ATOM     90  O   UNL A   1      37.133  31.999  35.573  1.00  0.00    -0.237 OA
ATOM     91  O   UNL A   1      37.883  34.023  36.755  1.00  0.00    -0.744 OA
ENDBRANCH  87  88
ENDBRANCH  59  82
BRANCH  71  92
ATOM     92  C   UNL A   1      46.070  38.670  32.260  1.00  0.00    -0.014 A 
ATOM     93  C   UNL A   1      46.974  38.774  33.333  1.00  0.00     0.010 A 
ATOM     94  C   UNL A   1      45.385  39.821  31.831  1.00  0.00     0.010 A 
ATOM     95  C   UNL A   1      47.152  39.995  33.991  1.00  0.00     0.020 A 
ATOM     96  C   UNL A   1      45.586  41.051  32.462  1.00  0.00     0.020 A 
ATOM     97  C   UNL A   1      46.455  41.125  33.551  1.00  0.00     0.054 A 
BRANCH  97  98
ATOM     98  S   UNL A   1      46.722  42.703  34.405  1.00  0.00     0.124 S 
ATOM     99  O   UNL A   1      47.979  42.459  35.108  1.00  0.00    -0.237 OA
ATOM    100  O   UNL A   1      46.796  43.656  33.300  1.00  0.00    -0.237 OA
ATOM    101  O   UNL A   1      45.546  42.838  35.260  1.00  0.00    -0.744 OA
ENDBRANCH  97  98
ENDBRANCH  71  92
ENDBRANCH  45  46
ENDBRANCH  38  40
ENDBRANCH  37  38
ENDBRANCH  36  37
ENDBRANCH  35  36
ENDBRANCH  34  35
ENDBRANCH  33  34
ENDBRANCH  32  33
ENDBRANCH  31  32
ENDBRANCH   1  31
TORSDOF 29
ENDMDL
MODEL 2
REMARK VINA RESULT:      -7.1      0.690      7.678
REMARK SMILES COc1ccc(/C=C/c2cc(OC)cc(OC)c2/C=C/C(=O)OCCOCCOCCOCCOC(=O)c2ccc(-c3c4nc(c(-c5ccc(S(=O)(=O)[O-])cc5)c5ccc([nH]5)c(-c5ccc(S(=O)(=O)[O-])cc5)c5nc(c(-c6ccc(S(=O)(=O)[O-])cc6)c6ccc3[nH]6)C=C5)C=C4)cc2)cc1
REMARK SMILES IDX 28 1 27 2 26 3 25 4 24 5 23 6 21 7 22 8 20 9 19 10 18 11
REMARK SMILES IDX 9 12 10 13 11 14 15 15 14 16 8 17 7 18 6 19 3 20 4 21 99 22
REMARK SMILES IDX 5 23 98 24 2 25 1 26 12 27 13 28 16 29 17 30 29 31 30 32
REMARK SMILES IDX 31 33 32 34 33 35 34 36 35 37 36 38 37 39 38 40 39 41 97 42
REMARK SMILES IDX 40 43 96 44 41 45 42 46 43 47 90 48 44 49 95 50 89 51 91 52
REMARK SMILES IDX 45 53 94 54 88 55 87 56 46 58 76 59 57 60 75 61 58 62 61 63
REMARK SMILES IDX 74 64 92 65 59 66 60 67 73 69 93 70 62 71 47 72 48 73 56 74
REMARK SMILES IDX 49 75 55 76 50 77 51 78 52 79 53 80 54 81 77 82 78 83 86 84
REMARK SMILES IDX 79 85 85 86 80 87 81 88 82 89 83 90 84 91 63 92 64 93 72 94
REMARK SMILES IDX 65 95 71 96 66 97 67 98 68 99 69 100 70 101
REMARK H PARENT 91 57 61 68
REMARK Flexibility Score: inf
ROOT
ATOM      1  C   UNL A   1      36.909  23.653  26.387  1.00  0.00     0.188 C 
ENDROOT
BRANCH   1   2
ATOM      2  C   UNL A   1      35.854  24.103  25.364  1.00  0.00     0.188 C 
BRANCH   2   3
ATOM      3  O   UNL A   1      34.699  24.674  25.945  1.00  0.00    -0.376 OA
BRANCH   3   4
ATOM      4  C   UNL A   1      33.972  25.691  25.272  1.00  0.00     0.202 C 
BRANCH   4   5
ATOM      5  C   UNL A   1      33.534  27.021  25.919  1.00  0.00     0.261 C 
BRANCH   5   6
ATOM      6  O   UNL A   1      34.333  28.173  25.637  1.00  0.00    -0.460 OA
BRANCH   6   7
ATOM      7  C   UNL A   1      34.180  29.253  26.426  1.00  0.00     0.330 C 
ATOM      8  O   UNL A   1      33.316  30.109  26.316  1.00  0.00    -0.247 OA
BRANCH   7   9
ATOM      9  C   UNL A   1      35.133  29.232  27.561  1.00  0.00     0.094 C 
ATOM     10  C   UNL A   1      36.293  29.907  27.601  1.00  0.00     0.020 C 
BRANCH  10  11
ATOM     11  C   UNL A   1      37.252  29.827  28.721  1.00  0.00     0.024 A 
ATOM     12  C   UNL A   1      37.021  30.628  29.873  1.00  0.00    -0.011 A 
ATOM     13  C   UNL A   1      37.865  30.513  30.991  1.00  0.00     0.055 A 
ATOM     14  C   UNL A   1      38.964  29.659  30.983  1.00  0.00     0.123 A 
ATOM     15  C   UNL A   1      38.395  28.996  28.709  1.00  0.00     0.130 A 
ATOM     16  C   UNL A   1      39.229  28.915  29.837  1.00  0.00     0.093 A 
BRANCH  12  17
ATOM     17  C   UNL A   1      35.979  31.667  29.969  1.00  0.00     0.009 C 
ATOM     18  C   UNL A   1      36.118  32.821  30.640  1.00  0.00     0.009 C 
BRANCH  18  19
ATOM     19  C   UNL A   1      35.041  33.801  30.845  1.00  0.00    -0.025 A 
ATOM     20  C   UNL A   1      33.093  35.755  31.313  1.00  0.00     0.118 A 
ATOM     21  C   UNL A   1      33.083  35.042  30.120  1.00  0.00     0.047 A 
ATOM     22  C   UNL A   1      34.030  35.466  32.302  1.00  0.00     0.047 A 
ATOM     23  C   UNL A   1      34.065  34.080  29.879  1.00  0.00     0.012 A 
ATOM     24  C   UNL A   1      35.006  34.497  32.063  1.00  0.00     0.012 A 
BRANCH  20  25
ATOM     25  O   UNL A   1      32.151  36.732  31.458  1.00  0.00    -0.497 OA
ATOM     26  C   UNL A   1      31.393  36.530  32.652  1.00  0.00     0.278 C 
ENDBRANCH  20  25
ENDBRANCH  18  19
ENDBRANCH  12  17
BRANCH  14  27
ATOM     27  O   UNL A   1      39.688  29.638  32.142  1.00  0.00    -0.497 OA
ATOM     28  C   UNL A   1      40.226  28.382  32.536  1.00  0.00     0.278 C 
ENDBRANCH  14  27
BRANCH  15  29
ATOM     29  O   UNL A   1      38.780  28.131  27.714  1.00  0.00    -0.496 OA
ATOM     30  C   UNL A   1      39.782  27.173  28.032  1.00  0.00     0.278 C 
ENDBRANCH  15  29
ENDBRANCH  10  11
ENDBRANCH   7   9
ENDBRANCH   6   7
ENDBRANCH   5   6
ENDBRANCH   4   5
ENDBRANCH   3   4
ENDBRANCH   2   3
ENDBRANCH   1   2
BRANCH   1  31
ATOM     31  O   UNL A   1      38.208  23.483  25.856  1.00  0.00    -0.377 OA
BRANCH  31  32
ATOM     32  C   UNL A   1      39.250  23.024  26.716  1.00  0.00     0.188 C 
BRANCH  32  33
ATOM     33  C   UNL A   1      40.738  23.416  26.525  1.00  0.00     0.188 C 
BRANCH  33  34
ATOM     34  O   UNL A   1      41.684  22.603  27.205  1.00  0.00    -0.376 OA
BRANCH  34  35
ATOM     35  C   UNL A   1      42.921  23.187  27.575  1.00  0.00     0.202 C 
BRANCH  35  36
ATOM     36  C   UNL A   1      43.454  24.283  26.640  1.00  0.00     0.261 C 
BRANCH  36  37
ATOM     37  O   UNL A   1      43.253  25.629  27.093  1.00  0.00    -0.460 OA
BRANCH  37  38
ATOM     38  C   UNL A   1      42.792  26.513  26.175  1.00  0.00     0.338 C 
ATOM     39  O   UNL A   1      41.985  26.300  25.296  1.00  0.00    -0.246 OA
BRANCH  38  40
ATOM     40  C   UNL A   1      43.292  27.853  26.553  1.00  0.00     0.060 A 
ATOM     41  C   UNL A   1      44.440  27.941  27.350  1.00  0.00     0.016 A 
ATOM     42  C   UNL A   1      42.635  29.007  26.122  1.00  0.00     0.016 A 
ATOM     43  C   UNL A   1      44.911  29.190  27.754  1.00  0.00     0.010 A 
ATOM     44  C   UNL A   1      43.098  30.257  26.545  1.00  0.00     0.010 A 
ATOM     45  C   UNL A   1      44.216  30.351  27.394  1.00  0.00    -0.014 A 
BRANCH  45  46
ATOM     46  C   UNL A   1      44.529  31.629  28.081  1.00  0.00     0.031 A 
ATOM     47  C   UNL A   1      43.647  32.054  29.227  1.00  0.00     0.074 A 
ATOM     48  C   UNL A   1      45.595  32.373  27.735  1.00  0.00     0.049 A 
ATOM     49  N   UNL A   1      43.716  33.122  29.979  1.00  0.00    -0.248 NA
ATOM     50  C   UNL A   1      42.535  31.149  29.572  1.00  0.00     0.031 C 
ATOM     51  C   UNL A   1      46.550  32.054  26.673  1.00  0.00     0.029 A 
ATOM     52  N   UNL A   1      46.054  33.559  28.252  1.00  0.00    -0.354 N 
ATOM     53  C   UNL A   1      42.655  33.024  30.873  1.00  0.00     0.074 A 
ATOM     54  C   UNL A   1      41.940  31.809  30.552  1.00  0.00     0.031 C 
ATOM     55  C   UNL A   1      47.487  33.020  26.624  1.00  0.00     0.029 A 
ATOM     56  C   UNL A   1      47.182  34.037  27.629  1.00  0.00     0.049 A 
ATOM     57  H   UNL A   1      45.615  34.024  29.002  1.00  0.00     0.167 HD
ATOM     58  C   UNL A   1      42.309  33.867  31.875  1.00  0.00     0.031 A 
ATOM     59  C   UNL A   1      47.875  35.173  27.837  1.00  0.00     0.031 A 
ATOM     60  C   UNL A   1      43.013  35.085  32.180  1.00  0.00     0.049 A 
ATOM     61  C   UNL A   1      47.413  36.140  28.894  1.00  0.00     0.074 A 
ATOM     62  C   UNL A   1      42.750  36.000  33.185  1.00  0.00     0.029 A 
ATOM     63  N   UNL A   1      44.108  35.564  31.479  1.00  0.00    -0.354 N 
ATOM     64  N   UNL A   1      46.414  36.031  29.736  1.00  0.00    -0.248 NA
ATOM     65  C   UNL A   1      48.178  37.389  29.023  1.00  0.00     0.031 C 
ATOM     66  C   UNL A   1      43.644  37.067  33.047  1.00  0.00     0.029 A 
ATOM     67  C   UNL A   1      44.513  36.778  32.008  1.00  0.00     0.049 A 
ATOM     68  H   UNL A   1      44.535  35.108  30.717  1.00  0.00     0.167 HD
ATOM     69  C   UNL A   1      46.450  37.183  30.517  1.00  0.00     0.074 A 
ATOM     70  C   UNL A   1      47.576  37.968  30.052  1.00  0.00     0.031 C 
ATOM     71  C   UNL A   1      45.631  37.554  31.531  1.00  0.00     0.031 A 
BRANCH  58  72
ATOM     72  C   UNL A   1      41.088  33.521  32.689  1.00  0.00    -0.014 A 
ATOM     73  C   UNL A   1      39.805  33.951  32.307  1.00  0.00     0.010 A 
ATOM     74  C   UNL A   1      41.225  32.715  33.834  1.00  0.00     0.010 A 
ATOM     75  C   UNL A   1      38.687  33.615  33.076  1.00  0.00     0.020 A 
ATOM     76  C   UNL A   1      40.107  32.350  34.588  1.00  0.00     0.020 A 
ATOM     77  C   UNL A   1      38.846  32.815  34.212  1.00  0.00     0.054 A 
BRANCH  77  78
ATOM     78  S   UNL A   1      37.374  32.371  35.175  1.00  0.00     0.124 S 
ATOM     79  O   UNL A   1      37.729  31.045  35.674  1.00  0.00    -0.237 OA
ATOM     80  O   UNL A   1      37.321  33.427  36.183  1.00  0.00    -0.237 OA
ATOM     81  O   UNL A   1      36.294  32.397  34.192  1.00  0.00    -0.744 OA
ENDBRANCH  77  78
ENDBRANCH  58  72
BRANCH  59  82
ATOM     82  C   UNL A   1      49.067  35.500  27.008  1.00  0.00    -0.014 A 
ATOM     83  C   UNL A   1      48.928  36.076  25.731  1.00  0.00     0.010 A 
ATOM     84  C   UNL A   1      50.351  35.181  27.477  1.00  0.00     0.010 A 
ATOM     85  C   UNL A   1      50.055  36.339  24.941  1.00  0.00     0.020 A 
ATOM     86  C   UNL A   1      51.472  35.436  26.685  1.00  0.00     0.020 A 
ATOM     87  C   UNL A   1      51.323  36.025  25.431  1.00  0.00     0.054 A 
BRANCH  87  88
ATOM     88  S   UNL A   1      52.800  36.467  24.474  1.00  0.00     0.124 S 
ATOM     89  O   UNL A   1      52.955  37.883  24.787  1.00  0.00    -0.237 OA
ATOM     90  O   UNL A   1      53.818  35.577  25.027  1.00  0.00    -0.237 OA
ATOM     91  O   UNL A   1      52.407  36.166  23.097  1.00  0.00    -0.744 OA
ENDBRANCH  87  88
ENDBRANCH  59  82
BRANCH  71  92
ATOM     92  C   UNL A   1      45.951  38.842  32.246  1.00  0.00    -0.014 A 
ATOM     93  C   UNL A   1      45.784  40.092  31.624  1.00  0.00     0.010 A 
ATOM     94  C   UNL A   1      46.398  38.796  33.579  1.00  0.00     0.010 A 
ATOM     95  C   UNL A   1      46.101  41.270  32.308  1.00  0.00     0.020 A 
ATOM     96  C   UNL A   1      46.683  39.971  34.278  1.00  0.00     0.020 A 
ATOM     97  C   UNL A   1      46.550  41.200  33.631  1.00  0.00     0.054 A 
BRANCH  97  98
ATOM     98  S   UNL A   1      46.932  42.743  34.506  1.00  0.00     0.124 S 
ATOM     99  O   UNL A   1      45.766  42.898  35.373  1.00  0.00    -0.237 OA
ATOM    100  O   UNL A   1      48.184  42.422  35.188  1.00  0.00    -0.237 OA
ATOM    101  O   UNL A   1      47.047  43.729  33.435  1.00  0.00    -0.744 OA
ENDBRANCH  97  98
ENDBRANCH  71  92
ENDBRANCH  45  46
ENDBRANCH  38  40
ENDBRANCH  37  38
ENDBRANCH  36  37
ENDBRANCH  35  36
ENDBRANCH  34  35
ENDBRANCH  33  34
ENDBRANCH  32  33
ENDBRANCH  31  32
ENDBRANCH   1  31
TORSDOF 29
ENDMDL
MODEL 3
REMARK VINA RESULT:      -6.8      6.642     11.802
REMARK SMILES COc1ccc(/C=C/c2cc(OC)cc(OC)c2/C=C/C(=O)OCCOCCOCCOCCOC(=O)c2ccc(-c3c4nc(c(-c5ccc(S(=O)(=O)[O-])cc5)c5ccc([nH]5)c(-c5ccc(S(=O)(=O)[O-])cc5)c5nc(c(-c6ccc(S(=O)(=O)[O-])cc6)c6ccc3[nH]6)C=C5)C=C4)cc2)cc1
REMARK SMILES IDX 28 1 27 2 26 3 25 4 24 5 23 6 21 7 22 8 20 9 19 10 18 11
REMARK SMILES IDX 9 12 10 13 11 14 15 15 14 16 8 17 7 18 6 19 3 20 4 21 99 22
REMARK SMILES IDX 5 23 98 24 2 25 1 26 12 27 13 28 16 29 17 30 29 31 30 32
REMARK SMILES IDX 31 33 32 34 33 35 34 36 35 37 36 38 37 39 38 40 39 41 97 42
REMARK SMILES IDX 40 43 96 44 41 45 42 46 43 47 90 48 44 49 95 50 89 51 91 52
REMARK SMILES IDX 45 53 94 54 88 55 87 56 46 58 76 59 57 60 75 61 58 62 61 63
REMARK SMILES IDX 74 64 92 65 59 66 60 67 73 69 93 70 62 71 47 72 48 73 56 74
REMARK SMILES IDX 49 75 55 76 50 77 51 78 52 79 53 80 54 81 77 82 78 83 86 84
REMARK SMILES IDX 79 85 85 86 80 87 81 88 82 89 83 90 84 91 63 92 64 93 72 94
REMARK SMILES IDX 65 95 71 96 66 97 67 98 68 99 69 100 70 101
REMARK H PARENT 91 57 61 68
REMARK Flexibility Score: inf
ROOT
ATOM      1  C   UNL A   1      43.934  25.428  25.395  1.00  0.00     0.188 C 
ENDROOT
BRANCH   1   2
ATOM      2  C   UNL A   1      42.452  25.072  25.589  1.00  0.00     0.188 C 
BRANCH   2   3
ATOM      3  O   UNL A   1      41.975  25.297  26.901  1.00  0.00    -0.376 OA
BRANCH   3   4
ATOM      4  C   UNL A   1      40.605  25.584  27.139  1.00  0.00     0.202 C 
BRANCH   4   5
ATOM      5  C   UNL A   1      39.487  24.523  27.174  1.00  0.00     0.261 C 
BRANCH   5   6
ATOM      6  O   UNL A   1      38.294  24.815  26.440  1.00  0.00    -0.460 OA
BRANCH   6   7
ATOM      7  C   UNL A   1      37.538  23.779  26.031  1.00  0.00     0.330 C 
ATOM      8  O   UNL A   1      37.813  22.595  26.148  1.00  0.00    -0.247 OA
BRANCH   7   9
ATOM      9  C   UNL A   1      36.228  24.239  25.511  1.00  0.00     0.094 C 
ATOM     10  C   UNL A   1      35.063  24.139  26.171  1.00  0.00     0.020 C 
BRANCH  10  11
ATOM     11  C   UNL A   1      33.762  24.557  25.609  1.00  0.00     0.024 A 
ATOM     12  C   UNL A   1      32.819  23.553  25.258  1.00  0.00    -0.011 A 
ATOM     13  C   UNL A   1      31.540  23.918  24.801  1.00  0.00     0.055 A 
ATOM     14  C   UNL A   1      31.185  25.253  24.636  1.00  0.00     0.123 A 
ATOM     15  C   UNL A   1      33.406  25.907  25.396  1.00  0.00     0.130 A 
ATOM     16  C   UNL A   1      32.124  26.239  24.923  1.00  0.00     0.093 A 
BRANCH  12  17
ATOM     17  C   UNL A   1      33.105  22.106  25.256  1.00  0.00     0.009 C 
ATOM     18  C   UNL A   1      33.247  21.363  24.148  1.00  0.00     0.009 C 
BRANCH  18  19
ATOM     19  C   UNL A   1      33.405  19.901  24.139  1.00  0.00    -0.025 A 
ATOM     20  C   UNL A   1      33.641  17.117  23.981  1.00  0.00     0.118 A 
ATOM     21  C   UNL A   1      34.618  17.856  24.638  1.00  0.00     0.047 A 
ATOM     22  C   UNL A   1      32.516  17.744  23.451  1.00  0.00     0.047 A 
ATOM     23  C   UNL A   1      34.510  19.246  24.701  1.00  0.00     0.012 A 
ATOM     24  C   UNL A   1      32.405  19.133  23.524  1.00  0.00     0.012 A 
BRANCH  20  25
ATOM     25  O   UNL A   1      33.842  15.770  23.890  1.00  0.00    -0.497 OA
ATOM     26  C   UNL A   1      34.730  15.321  24.916  1.00  0.00     0.278 C 
ENDBRANCH  20  25
ENDBRANCH  18  19
ENDBRANCH  12  17
BRANCH  14  27
ATOM     27  O   UNL A   1      29.907  25.460  24.198  1.00  0.00    -0.497 OA
ATOM     28  C   UNL A   1      29.552  26.799  23.876  1.00  0.00     0.278 C 
ENDBRANCH  14  27
BRANCH  15  29
ATOM     29  O   UNL A   1      34.155  27.019  25.692  1.00  0.00    -0.496 OA
ATOM     30  C   UNL A   1      33.603  27.954  26.611  1.00  0.00     0.278 C 
ENDBRANCH  15  29
ENDBRANCH  10  11
ENDBRANCH   7   9
ENDBRANCH   6   7
ENDBRANCH   5   6
ENDBRANCH   4   5
ENDBRANCH   3   4
ENDBRANCH   2   3
ENDBRANCH   1   2
BRANCH   1  31
ATOM     31  O   UNL A   1      44.619  24.608  24.470  1.00  0.00    -0.377 OA
BRANCH  31  32
ATOM     32  C   UNL A   1      45.815  23.950  24.884  1.00  0.00     0.188 C 
BRANCH  32  33
ATOM     33  C   UNL A   1      46.030  23.413  26.323  1.00  0.00     0.188 C 
BRANCH  33  34
ATOM     34  O   UNL A   1      47.173  23.910  27.004  1.00  0.00    -0.376 OA
BRANCH  34  35
ATOM     35  C   UNL A   1      46.972  24.846  28.049  1.00  0.00     0.202 C 
BRANCH  35  36
ATOM     36  C   UNL A   1      45.553  24.906  28.635  1.00  0.00     0.261 C 
BRANCH  36  37
ATOM     37  O   UNL A   1      45.403  25.729  29.800  1.00  0.00    -0.460 OA
BRANCH  37  38
ATOM     38  C   UNL A   1      44.696  26.875  29.643  1.00  0.00     0.338 C 
ATOM     39  O   UNL A   1      44.110  27.241  28.647  1.00  0.00    -0.246 OA
BRANCH  38  40
ATOM     40  C   UNL A   1      44.587  27.519  30.969  1.00  0.00     0.060 A 
ATOM     41  C   UNL A   1      43.985  26.807  32.014  1.00  0.00     0.016 A 
ATOM     42  C   UNL A   1      45.076  28.810  31.178  1.00  0.00     0.016 A 
ATOM     43  C   UNL A   1      43.834  27.404  33.265  1.00  0.00     0.010 A 
ATOM     44  C   UNL A   1      44.904  29.414  32.427  1.00  0.00     0.010 A 
ATOM     45  C   UNL A   1      44.249  28.727  33.465  1.00  0.00    -0.014 A 
BRANCH  45  46
ATOM     46  C   UNL A   1      43.801  29.455  34.679  1.00  0.00     0.031 A 
ATOM     47  C   UNL A   1      42.498  30.209  34.615  1.00  0.00     0.074 A 
ATOM     48  C   UNL A   1      44.502  29.410  35.826  1.00  0.00     0.049 A 
ATOM     49  N   UNL A   1      41.900  30.918  35.537  1.00  0.00    -0.248 NA
ATOM     50  C   UNL A   1      41.770  30.157  33.333  1.00  0.00     0.031 C 
ATOM     51  C   UNL A   1      45.755  28.683  36.033  1.00  0.00     0.029 A 
ATOM     52  N   UNL A   1      44.248  29.994  37.043  1.00  0.00    -0.354 N 
ATOM     53  C   UNL A   1      40.737  31.403  34.947  1.00  0.00     0.074 A 
ATOM     54  C   UNL A   1      40.728  30.935  33.579  1.00  0.00     0.031 C 
ATOM     55  C   UNL A   1      46.157  28.860  37.306  1.00  0.00     0.029 A 
ATOM     56  C   UNL A   1      45.207  29.733  37.994  1.00  0.00     0.049 A 
ATOM     57  H   UNL A   1      43.453  30.548  37.219  1.00  0.00     0.167 HD
ATOM     58  C   UNL A   1      39.762  32.167  35.495  1.00  0.00     0.031 A 
ATOM     59  C   UNL A   1      45.311  30.166  39.265  1.00  0.00     0.031 A 
ATOM     60  C   UNL A   1      39.784  32.647  36.852  1.00  0.00     0.049 A 
ATOM     61  C   UNL A   1      44.262  31.093  39.820  1.00  0.00     0.074 A 
ATOM     62  C   UNL A   1      38.837  33.415  37.507  1.00  0.00     0.029 A 
ATOM     63  N   UNL A   1      40.808  32.416  37.757  1.00  0.00    -0.354 N 
ATOM     64  N   UNL A   1      43.165  31.537  39.254  1.00  0.00    -0.248 NA
ATOM     65  C   UNL A   1      44.472  31.577  41.193  1.00  0.00     0.031 C 
ATOM     66  C   UNL A   1      39.321  33.706  38.786  1.00  0.00     0.029 A 
ATOM     67  C   UNL A   1      40.531  33.054  38.956  1.00  0.00     0.049 A 
ATOM     68  H   UNL A   1      41.613  31.878  37.576  1.00  0.00     0.167 HD
ATOM     69  C   UNL A   1      42.539  32.328  40.213  1.00  0.00     0.074 A 
ATOM     70  C   UNL A   1      43.374  32.291  41.396  1.00  0.00     0.031 C 
ATOM     71  C   UNL A   1      41.374  33.016  40.125  1.00  0.00     0.031 A 
BRANCH  58  72
ATOM     72  C   UNL A   1      38.609  32.567  34.611  1.00  0.00    -0.014 A 
ATOM     73  C   UNL A   1      38.532  33.850  34.040  1.00  0.00     0.010 A 
ATOM     74  C   UNL A   1      37.606  31.627  34.314  1.00  0.00     0.010 A 
ATOM     75  C   UNL A   1      37.453  34.197  33.221  1.00  0.00     0.020 A 
ATOM     76  C   UNL A   1      36.543  31.959  33.471  1.00  0.00     0.020 A 
ATOM     77  C   UNL A   1      36.465  33.248  32.941  1.00  0.00     0.054 A 
BRANCH  77  78
ATOM     78  S   UNL A   1      35.093  33.717  31.852  1.00  0.00     0.124 S 
ATOM     79  O   UNL A   1      35.745  33.758  30.545  1.00  0.00    -0.237 OA
ATOM     80  O   UNL A   1      34.144  32.624  32.046  1.00  0.00    -0.237 OA
ATOM     81  O   UNL A   1      34.663  35.012  32.372  1.00  0.00    -0.744 OA
ENDBRANCH  77  78
ENDBRANCH  58  72
BRANCH  59  82
ATOM     82  C   UNL A   1      46.469  29.771  40.112  1.00  0.00    -0.014 A 
ATOM     83  C   UNL A   1      47.625  30.571  40.181  1.00  0.00     0.010 A 
ATOM     84  C   UNL A   1      46.438  28.555  40.811  1.00  0.00     0.010 A 
ATOM     85  C   UNL A   1      48.727  30.167  40.946  1.00  0.00     0.020 A 
ATOM     86  C   UNL A   1      47.539  28.150  41.567  1.00  0.00     0.020 A 
ATOM     87  C   UNL A   1      48.670  28.960  41.643  1.00  0.00     0.054 A 
BRANCH  87  88
ATOM     88  S   UNL A   1      50.039  28.478  42.734  1.00  0.00     0.124 S 
ATOM     89  O   UNL A   1      50.635  27.365  42.003  1.00  0.00    -0.237 OA
ATOM     90  O   UNL A   1      50.840  29.698  42.800  1.00  0.00    -0.237 OA
ATOM     91  O   UNL A   1      49.362  28.122  43.980  1.00  0.00    -0.744 OA
ENDBRANCH  87  88
ENDBRANCH  59  82
BRANCH  71  92
ATOM     92  C   UNL A   1      40.903  33.744  41.357  1.00  0.00    -0.014 A 
ATOM     93  C   UNL A   1      41.218  35.096  41.581  1.00  0.00     0.010 A 
ATOM     94  C   UNL A   1      40.101  33.065  42.293  1.00  0.00     0.010 A 
ATOM     95  C   UNL A   1      40.777  35.742  42.741  1.00  0.00     0.020 A 
ATOM     96  C   UNL A   1      39.629  33.716  43.435  1.00  0.00     0.020 A 
ATOM     97  C   UNL A   1      39.987  35.045  43.661  1.00  0.00     0.054 A 
BRANCH  97  98
ATOM     98  S   UNL A   1      39.407  35.911  45.146  1.00  0.00     0.124 S 
ATOM     99  O   UNL A   1      40.568  36.726  45.495  1.00  0.00    -0.237 OA
ATOM    100  O   UNL A   1      38.247  36.651  44.652  1.00  0.00    -0.237 OA
ATOM    101  O   UNL A   1      39.100  34.832  46.080  1.00  0.00    -0.744 OA
ENDBRANCH  97  98
ENDBRANCH  71  92
ENDBRANCH  45  46
ENDBRANCH  38  40
ENDBRANCH  37  38
ENDBRANCH  36  37
ENDBRANCH  35  36
ENDBRANCH  34  35
ENDBRANCH  33  34
ENDBRANCH  32  33
ENDBRANCH  31  32
ENDBRANCH   1  31
TORSDOF 29
ENDMDL
