MODEL 1
REMARK VINA RESULT:     -10.1      0.000      0.000
REMARK SMILES O=C(Cn1cc(C(=O)C(F)(F)F)c2ccccc21)OCCOCCOCCOCCOC(=O)c1ccc(-c2c3nc(c(-c4ccc(S(=O)(=O)[O-])cc4)c4ccc([nH]4)c(-c4ccc(S(=O)(=O)[O-])cc4)c4nc(c(-c5ccc(S(=O)(=O)[O-])cc5)c5ccc2[nH]5)C=C4)C=C3)cc1
REMARK SMILES IDX 25 1 24 2 23 3 22 4 21 5 20 6 19 7 2 8 1 9 3 10 4 11 5 12
REMARK SMILES IDX 18 13 6 14 13 15 17 16 14 17 16 18 15 19 7 20 8 21 9 22
REMARK SMILES IDX 10 23 11 24 12 25 26 26 27 27 28 28 29 29 30 30 31 31 32 32
REMARK SMILES IDX 33 33 34 34 35 35 93 36 36 37 92 38 37 39 38 40 39 41 86 42
REMARK SMILES IDX 40 43 91 44 85 45 87 46 41 47 90 48 84 49 83 50 42 52 72 53
REMARK SMILES IDX 53 54 71 55 54 56 57 57 70 58 88 59 55 60 56 61 69 63 89 64
REMARK SMILES IDX 58 65 43 66 44 67 52 68 45 69 51 70 46 71 47 72 48 73 49 74
REMARK SMILES IDX 50 75 73 76 74 77 82 78 75 79 81 80 76 81 77 82 78 83 79 84
REMARK SMILES IDX 80 85 59 86 60 87 68 88 61 89 67 90 62 91 63 92 64 93 65 94
REMARK SMILES IDX 66 95
REMARK H PARENT 87 51 57 62
REMARK Flexibility Score: inf
ROOT
ATOM      1  O   UNL A   1      33.625  20.290  26.278  1.00  0.00    -0.377 OA
ENDROOT
BRANCH   1   2
ATOM      2  C   UNL A   1      33.183  19.755  25.040  1.00  0.00     0.188 C 
BRANCH   2   3
ATOM      3  C   UNL A   1      32.184  20.677  24.368  1.00  0.00     0.188 C 
BRANCH   3   4
ATOM      4  O   UNL A   1      32.566  21.452  23.245  1.00  0.00    -0.376 OA
BRANCH   4   5
ATOM      5  C   UNL A   1      32.609  22.864  23.161  1.00  0.00     0.202 C 
BRANCH   5   6
ATOM      6  C   UNL A   1      33.023  23.782  24.309  1.00  0.00     0.261 C 
BRANCH   6   7
ATOM      7  O   UNL A   1      32.213  23.887  25.486  1.00  0.00    -0.462 OA
BRANCH   7   8
ATOM      8  C   UNL A   1      31.115  24.590  25.806  1.00  0.00     0.326 C 
ATOM      9  O   UNL A   1      30.619  24.383  26.920  1.00  0.00    -0.250 OA
BRANCH   8  10
ATOM     10  C   UNL A   1      30.305  25.320  24.783  1.00  0.00     0.244 C 
BRANCH  10  11
ATOM     11  N   UNL A   1      30.658  26.639  24.274  1.00  0.00    -0.335 N 
ATOM     12  C   UNL A   1      30.180  27.196  23.116  1.00  0.00     0.099 A 
ATOM     13  C   UNL A   1      31.073  27.663  25.121  1.00  0.00     0.049 A 
ATOM     14  C   UNL A   1      30.207  28.568  23.232  1.00  0.00     0.053 A 
ATOM     15  C   UNL A   1      30.895  28.868  24.437  1.00  0.00     0.011 A 
ATOM     16  C   UNL A   1      31.533  27.635  26.449  1.00  0.00     0.027 A 
ATOM     17  C   UNL A   1      31.273  30.072  25.062  1.00  0.00     0.011 A 
ATOM     18  C   UNL A   1      31.870  28.844  27.060  1.00  0.00     0.002 A 
ATOM     19  C   UNL A   1      31.769  30.045  26.368  1.00  0.00     0.001 A 
BRANCH  14  20
ATOM     20  C   UNL A   1      29.514  29.511  22.360  1.00  0.00     0.268 C 
ATOM     21  O   UNL A   1      30.070  30.009  21.381  1.00  0.00    -0.284 OA
BRANCH  20  22
ATOM     22  C   UNL A   1      28.156  29.984  22.891  1.00  0.00     0.454 C 
ATOM     23  F   UNL A   1      27.384  28.978  23.395  1.00  0.00    -0.163 F 
ATOM     24  F   UNL A   1      28.295  30.878  23.920  1.00  0.00    -0.163 F 
ATOM     25  F   UNL A   1      27.388  30.620  21.961  1.00  0.00    -0.163 F 
ENDBRANCH  20  22
ENDBRANCH  14  20
ENDBRANCH  10  11
ENDBRANCH   8  10
ENDBRANCH   7   8
ENDBRANCH   6   7
ENDBRANCH   5   6
ENDBRANCH   4   5
ENDBRANCH   3   4
ENDBRANCH   2   3
ENDBRANCH   1   2
BRANCH   1  26
ATOM     26  C   UNL A   1      34.641  21.274  26.147  1.00  0.00     0.188 C 
BRANCH  26  27
ATOM     27  C   UNL A   1      35.673  20.966  25.045  1.00  0.00     0.188 C 
BRANCH  27  28
ATOM     28  O   UNL A   1      37.072  20.982  25.334  1.00  0.00    -0.376 OA
BRANCH  28  29
ATOM     29  C   UNL A   1      37.833  19.817  25.064  1.00  0.00     0.202 C 
BRANCH  29  30
ATOM     30  C   UNL A   1      39.352  20.039  25.033  1.00  0.00     0.261 C 
BRANCH  30  31
ATOM     31  O   UNL A   1      40.050  19.030  25.777  1.00  0.00    -0.460 OA
BRANCH  31  32
ATOM     32  C   UNL A   1      41.384  19.226  25.966  1.00  0.00     0.338 C 
ATOM     33  O   UNL A   1      42.284  18.530  25.572  1.00  0.00    -0.246 OA
BRANCH  32  34
ATOM     34  C   UNL A   1      41.555  20.600  26.512  1.00  0.00     0.060 A 
ATOM     35  C   UNL A   1      42.491  21.498  25.991  1.00  0.00     0.016 A 
ATOM     36  C   UNL A   1      40.878  20.907  27.701  1.00  0.00     0.016 A 
ATOM     37  C   UNL A   1      42.801  22.654  26.707  1.00  0.00     0.010 A 
ATOM     38  C   UNL A   1      41.180  22.076  28.406  1.00  0.00     0.010 A 
ATOM     39  C   UNL A   1      42.164  22.945  27.930  1.00  0.00    -0.014 A 
BRANCH  39  40
ATOM     40  C   UNL A   1      42.446  24.260  28.539  1.00  0.00     0.031 A 
ATOM     41  C   UNL A   1      41.417  25.301  28.251  1.00  0.00     0.074 A 
ATOM     42  C   UNL A   1      43.365  24.586  29.472  1.00  0.00     0.049 A 
ATOM     43  N   UNL A   1      41.562  26.458  27.691  1.00  0.00    -0.248 NA
ATOM     44  C   UNL A   1      40.029  24.954  28.596  1.00  0.00     0.031 C 
ATOM     45  C   UNL A   1      44.202  23.683  30.258  1.00  0.00     0.029 A 
ATOM     46  N   UNL A   1      43.646  25.822  30.006  1.00  0.00    -0.354 N 
ATOM     47  C   UNL A   1      40.308  27.061  27.756  1.00  0.00     0.074 A 
ATOM     48  C   UNL A   1      39.382  26.049  28.204  1.00  0.00     0.031 C 
ATOM     49  C   UNL A   1      44.709  24.362  31.312  1.00  0.00     0.029 A 
ATOM     50  C   UNL A   1      44.358  25.770  31.195  1.00  0.00     0.049 A 
ATOM     51  H   UNL A   1      43.366  26.667  29.583  1.00  0.00     0.167 HD
ATOM     52  C   UNL A   1      40.108  28.399  27.619  1.00  0.00     0.031 A 
ATOM     53  C   UNL A   1      44.595  26.779  32.069  1.00  0.00     0.031 A 
ATOM     54  C   UNL A   1      41.222  29.083  27.034  1.00  0.00     0.049 A 
ATOM     55  C   UNL A   1      44.374  28.082  31.397  1.00  0.00     0.074 A 
ATOM     56  C   UNL A   1      41.884  29.020  25.826  1.00  0.00     0.029 A 
ATOM     57  N   UNL A   1      42.007  29.836  27.872  1.00  0.00    -0.354 N 
ATOM     58  N   UNL A   1      45.114  28.556  30.434  1.00  0.00    -0.248 NA
ATOM     59  C   UNL A   1      43.141  28.815  31.646  1.00  0.00     0.031 C 
ATOM     60  C   UNL A   1      43.222  29.417  26.101  1.00  0.00     0.029 A 
ATOM     61  C   UNL A   1      43.313  29.698  27.467  1.00  0.00     0.049 A 
ATOM     62  H   UNL A   1      41.690  30.379  28.629  1.00  0.00     0.167 HD
ATOM     63  C   UNL A   1      44.283  29.405  29.721  1.00  0.00     0.074 A 
ATOM     64  C   UNL A   1      43.144  29.637  30.596  1.00  0.00     0.031 C 
ATOM     65  C   UNL A   1      44.443  29.605  28.381  1.00  0.00     0.031 A 
BRANCH  52  66
ATOM     66  C   UNL A   1      38.979  29.127  28.303  1.00  0.00    -0.014 A 
ATOM     67  C   UNL A   1      39.003  29.406  29.686  1.00  0.00     0.010 A 
ATOM     68  C   UNL A   1      37.975  29.751  27.539  1.00  0.00     0.010 A 
ATOM     69  C   UNL A   1      38.041  30.209  30.296  1.00  0.00     0.020 A 
ATOM     70  C   UNL A   1      37.033  30.604  28.135  1.00  0.00     0.020 A 
ATOM     71  C   UNL A   1      37.064  30.814  29.514  1.00  0.00     0.054 A 
BRANCH  71  72
ATOM     72  S   UNL A   1      35.911  31.951  30.323  1.00  0.00     0.124 S 
ATOM     73  O   UNL A   1      35.700  31.296  31.610  1.00  0.00    -0.237 OA
ATOM     74  O   UNL A   1      36.674  33.196  30.366  1.00  0.00    -0.237 OA
ATOM     75  O   UNL A   1      34.759  31.962  29.426  1.00  0.00    -0.744 OA
ENDBRANCH  71  72
ENDBRANCH  52  66
BRANCH  53  76
ATOM     76  C   UNL A   1      44.770  26.675  33.543  1.00  0.00    -0.014 A 
ATOM     77  C   UNL A   1      43.837  27.286  34.405  1.00  0.00     0.010 A 
ATOM     78  C   UNL A   1      45.966  26.194  34.111  1.00  0.00     0.010 A 
ATOM     79  C   UNL A   1      44.093  27.446  35.769  1.00  0.00     0.020 A 
ATOM     80  C   UNL A   1      46.238  26.363  35.482  1.00  0.00     0.020 A 
ATOM     81  C   UNL A   1      45.306  27.011  36.295  1.00  0.00     0.054 A 
BRANCH  81  82
ATOM     82  S   UNL A   1      45.659  27.389  38.035  1.00  0.00     0.124 S 
ATOM     83  O   UNL A   1      44.534  28.250  38.393  1.00  0.00    -0.237 OA
ATOM     84  O   UNL A   1      45.652  26.064  38.652  1.00  0.00    -0.237 OA
ATOM     85  O   UNL A   1      46.962  28.048  37.993  1.00  0.00    -0.744 OA
ENDBRANCH  81  82
ENDBRANCH  53  76
BRANCH  65  86
ATOM     86  C   UNL A   1      45.795  29.359  27.746  1.00  0.00    -0.014 A 
ATOM     87  C   UNL A   1      46.072  28.063  27.260  1.00  0.00     0.010 A 
ATOM     88  C   UNL A   1      46.841  30.295  27.775  1.00  0.00     0.010 A 
ATOM     89  C   UNL A   1      47.363  27.698  26.866  1.00  0.00     0.020 A 
ATOM     90  C   UNL A   1      48.125  29.945  27.346  1.00  0.00     0.020 A 
ATOM     91  C   UNL A   1      48.387  28.641  26.925  1.00  0.00     0.054 A 
BRANCH  91  92
ATOM     92  S   UNL A   1      50.082  28.126  26.542  1.00  0.00     0.124 S 
ATOM     93  O   UNL A   1      49.967  26.670  26.546  1.00  0.00    -0.237 OA
ATOM     94  O   UNL A   1      50.309  28.733  25.235  1.00  0.00    -0.237 OA
ATOM     95  O   UNL A   1      50.868  28.688  27.642  1.00  0.00    -0.744 OA
ENDBRANCH  91  92
ENDBRANCH  65  86
ENDBRANCH  39  40
ENDBRANCH  32  34
ENDBRANCH  31  32
ENDBRANCH  30  31
ENDBRANCH  29  30
ENDBRANCH  28  29
ENDBRANCH  27  28
ENDBRANCH  26  27
ENDBRANCH   1  26
TORSDOF 26
ENDMDL
MODEL 2
REMARK VINA RESULT:      -9.8      1.507      2.099
REMARK SMILES O=C(Cn1cc(C(=O)C(F)(F)F)c2ccccc21)OCCOCCOCCOCCOC(=O)c1ccc(-c2c3nc(c(-c4ccc(S(=O)(=O)[O-])cc4)c4ccc([nH]4)c(-c4ccc(S(=O)(=O)[O-])cc4)c4nc(c(-c5ccc(S(=O)(=O)[O-])cc5)c5ccc2[nH]5)C=C4)C=C3)cc1
REMARK SMILES IDX 25 1 24 2 23 3 22 4 21 5 20 6 19 7 2 8 1 9 3 10 4 11 5 12
REMARK SMILES IDX 18 13 6 14 13 15 17 16 14 17 16 18 15 19 7 20 8 21 9 22
REMARK SMILES IDX 10 23 11 24 12 25 26 26 27 27 28 28 29 29 30 30 31 31 32 32
REMARK SMILES IDX 33 33 34 34 35 35 93 36 36 37 92 38 37 39 38 40 39 41 86 42
REMARK SMILES IDX 40 43 91 44 85 45 87 46 41 47 90 48 84 49 83 50 42 52 72 53
REMARK SMILES IDX 53 54 71 55 54 56 57 57 70 58 88 59 55 60 56 61 69 63 89 64
REMARK SMILES IDX 58 65 43 66 44 67 52 68 45 69 51 70 46 71 47 72 48 73 49 74
REMARK SMILES IDX 50 75 73 76 74 77 82 78 75 79 81 80 76 81 77 82 78 83 79 84
REMARK SMILES IDX 80 85 59 86 60 87 68 88 61 89 67 90 62 91 63 92 64 93 65 94
REMARK SMILES IDX 66 95
REMARK H PARENT 87 51 57 62
REMARK Flexibility Score: inf
ROOT
ATOM      1  O   UNL A   1      33.641  20.042  25.895  1.00  0.00    -0.377 OA
ENDROOT
BRANCH   1   2
ATOM      2  C   UNL A   1      33.623  19.304  24.682  1.00  0.00     0.188 C 
BRANCH   2   3
ATOM      3  C   UNL A   1      32.277  19.414  23.993  1.00  0.00     0.188 C 
BRANCH   3   4
ATOM      4  O   UNL A   1      32.182  19.951  22.685  1.00  0.00    -0.376 OA
BRANCH   4   5
ATOM      5  C   UNL A   1      31.891  21.291  22.335  1.00  0.00     0.202 C 
BRANCH   5   6
ATOM      6  C   UNL A   1      32.835  22.468  22.572  1.00  0.00     0.261 C 
BRANCH   6   7
ATOM      7  O   UNL A   1      32.594  23.391  23.642  1.00  0.00    -0.462 OA
BRANCH   7   8
ATOM      8  C   UNL A   1      31.551  23.631  24.451  1.00  0.00     0.326 C 
ATOM      9  O   UNL A   1      31.205  22.717  25.209  1.00  0.00    -0.250 OA
BRANCH   8  10
ATOM     10  C   UNL A   1      30.616  24.778  24.235  1.00  0.00     0.244 C 
BRANCH  10  11
ATOM     11  N   UNL A   1      30.882  26.129  24.713  1.00  0.00    -0.335 N 
ATOM     12  C   UNL A   1      32.045  26.545  25.307  1.00  0.00     0.099 A 
ATOM     13  C   UNL A   1      30.241  27.238  24.168  1.00  0.00     0.049 A 
ATOM     14  C   UNL A   1      32.206  27.895  25.086  1.00  0.00     0.053 A 
ATOM     15  C   UNL A   1      31.006  28.361  24.488  1.00  0.00     0.011 A 
ATOM     16  C   UNL A   1      29.086  27.338  23.372  1.00  0.00     0.027 A 
ATOM     17  C   UNL A   1      30.557  29.633  24.081  1.00  0.00     0.011 A 
ATOM     18  C   UNL A   1      28.680  28.606  22.952  1.00  0.00     0.002 A 
ATOM     19  C   UNL A   1      29.389  29.742  23.324  1.00  0.00     0.001 A 
BRANCH  14  20
ATOM     20  C   UNL A   1      33.438  28.651  25.283  1.00  0.00     0.268 C 
ATOM     21  O   UNL A   1      34.345  28.629  24.450  1.00  0.00    -0.284 OA
BRANCH  20  22
ATOM     22  C   UNL A   1      33.589  29.267  26.677  1.00  0.00     0.454 C 
ATOM     23  F   UNL A   1      33.998  30.570  26.660  1.00  0.00    -0.163 F 
ATOM     24  F   UNL A   1      32.401  29.275  27.361  1.00  0.00    -0.163 F 
ATOM     25  F   UNL A   1      34.466  28.607  27.484  1.00  0.00    -0.163 F 
ENDBRANCH  20  22
ENDBRANCH  14  20
ENDBRANCH  10  11
ENDBRANCH   8  10
ENDBRANCH   7   8
ENDBRANCH   6   7
ENDBRANCH   5   6
ENDBRANCH   4   5
ENDBRANCH   3   4
ENDBRANCH   2   3
ENDBRANCH   1   2
BRANCH   1  26
ATOM     26  C   UNL A   1      34.319  21.287  25.799  1.00  0.00     0.188 C 
BRANCH  26  27
ATOM     27  C   UNL A   1      35.560  21.255  24.885  1.00  0.00     0.188 C 
BRANCH  27  28
ATOM     28  O   UNL A   1      36.874  21.220  25.445  1.00  0.00    -0.376 OA
BRANCH  28  29
ATOM     29  C   UNL A   1      37.729  20.142  25.102  1.00  0.00     0.202 C 
BRANCH  29  30
ATOM     30  C   UNL A   1      39.222  20.413  25.332  1.00  0.00     0.261 C 
BRANCH  30  31
ATOM     31  O   UNL A   1      39.959  19.196  25.517  1.00  0.00    -0.460 OA
BRANCH  31  32
ATOM     32  C   UNL A   1      41.262  19.323  25.886  1.00  0.00     0.338 C 
ATOM     33  O   UNL A   1      42.170  18.580  25.617  1.00  0.00    -0.246 OA
BRANCH  32  34
ATOM     34  C   UNL A   1      41.430  20.691  26.452  1.00  0.00     0.060 A 
ATOM     35  C   UNL A   1      42.178  21.678  25.806  1.00  0.00     0.016 A 
ATOM     36  C   UNL A   1      40.971  20.904  27.760  1.00  0.00     0.016 A 
ATOM     37  C   UNL A   1      42.529  22.834  26.502  1.00  0.00     0.010 A 
ATOM     38  C   UNL A   1      41.312  22.072  28.448  1.00  0.00     0.010 A 
ATOM     39  C   UNL A   1      42.118  23.034  27.835  1.00  0.00    -0.014 A 
BRANCH  39  40
ATOM     40  C   UNL A   1      42.410  24.349  28.440  1.00  0.00     0.031 A 
ATOM     41  C   UNL A   1      41.364  25.383  28.190  1.00  0.00     0.074 A 
ATOM     42  C   UNL A   1      43.357  24.679  29.343  1.00  0.00     0.049 A 
ATOM     43  N   UNL A   1      41.482  26.544  27.629  1.00  0.00    -0.248 NA
ATOM     44  C   UNL A   1      39.991  25.025  28.578  1.00  0.00     0.031 C 
ATOM     45  C   UNL A   1      44.226  23.779  30.099  1.00  0.00     0.029 A 
ATOM     46  N   UNL A   1      43.646  25.915  29.873  1.00  0.00    -0.354 N 
ATOM     47  C   UNL A   1      40.226  27.137  27.738  1.00  0.00     0.074 A 
ATOM     48  C   UNL A   1      39.324  26.116  28.212  1.00  0.00     0.031 C 
ATOM     49  C   UNL A   1      44.762  24.458  31.138  1.00  0.00     0.029 A 
ATOM     50  C   UNL A   1      44.397  25.864  31.037  1.00  0.00     0.049 A 
ATOM     51  H   UNL A   1      43.346  26.759  29.463  1.00  0.00     0.167 HD
ATOM     52  C   UNL A   1      40.012  28.473  27.612  1.00  0.00     0.031 A 
ATOM     53  C   UNL A   1      44.654  26.872  31.908  1.00  0.00     0.031 A 
ATOM     54  C   UNL A   1      41.102  29.168  26.994  1.00  0.00     0.049 A 
ATOM     55  C   UNL A   1      44.402  28.176  31.248  1.00  0.00     0.074 A 
ATOM     56  C   UNL A   1      41.725  29.114  25.765  1.00  0.00     0.029 A 
ATOM     57  N   UNL A   1      41.909  29.923  27.808  1.00  0.00    -0.354 N 
ATOM     58  N   UNL A   1      45.107  28.658  30.262  1.00  0.00    -0.248 NA
ATOM     59  C   UNL A   1      43.172  28.898  31.540  1.00  0.00     0.031 C 
ATOM     60  C   UNL A   1      43.068  29.520  25.997  1.00  0.00     0.029 A 
ATOM     61  C   UNL A   1      43.201  29.797  27.361  1.00  0.00     0.049 A 
ATOM     62  H   UNL A   1      41.612  30.461  28.577  1.00  0.00     0.167 HD
ATOM     63  C   UNL A   1      44.246  29.503  29.580  1.00  0.00     0.074 A 
ATOM     64  C   UNL A   1      43.135  29.724  30.493  1.00  0.00     0.031 C 
ATOM     65  C   UNL A   1      44.362  29.709  28.236  1.00  0.00     0.031 A 
BRANCH  52  66
ATOM     66  C   UNL A   1      38.902  29.190  28.336  1.00  0.00    -0.014 A 
ATOM     67  C   UNL A   1      38.983  29.496  29.710  1.00  0.00     0.010 A 
ATOM     68  C   UNL A   1      37.850  29.780  27.608  1.00  0.00     0.010 A 
ATOM     69  C   UNL A   1      38.033  30.290  30.351  1.00  0.00     0.020 A 
ATOM     70  C   UNL A   1      36.919  30.624  28.233  1.00  0.00     0.020 A 
ATOM     71  C   UNL A   1      37.009  30.860  29.605  1.00  0.00     0.054 A 
BRANCH  71  72
ATOM     72  S   UNL A   1      35.871  31.988  30.447  1.00  0.00     0.124 S 
ATOM     73  O   UNL A   1      36.670  33.207  30.534  1.00  0.00    -0.237 OA
ATOM     74  O   UNL A   1      34.739  32.041  29.525  1.00  0.00    -0.237 OA
ATOM     75  O   UNL A   1      35.605  31.318  31.717  1.00  0.00    -0.744 OA
ENDBRANCH  71  72
ENDBRANCH  52  66
BRANCH  53  76
ATOM     76  C   UNL A   1      44.878  26.764  33.374  1.00  0.00    -0.014 A 
ATOM     77  C   UNL A   1      43.797  26.468  34.229  1.00  0.00     0.010 A 
ATOM     78  C   UNL A   1      46.083  27.185  33.969  1.00  0.00     0.010 A 
ATOM     79  C   UNL A   1      43.894  26.616  35.614  1.00  0.00     0.020 A 
ATOM     80  C   UNL A   1      46.186  27.350  35.364  1.00  0.00     0.020 A 
ATOM     81  C   UNL A   1      45.079  27.086  36.173  1.00  0.00     0.054 A 
BRANCH  81  82
ATOM     82  S   UNL A   1      45.101  27.419  37.957  1.00  0.00     0.124 S 
ATOM     83  O   UNL A   1      44.241  28.595  38.058  1.00  0.00    -0.237 OA
ATOM     84  O   UNL A   1      44.542  26.187  38.513  1.00  0.00    -0.237 OA
ATOM     85  O   UNL A   1      46.513  27.649  38.253  1.00  0.00    -0.744 OA
ENDBRANCH  81  82
ENDBRANCH  53  76
BRANCH  65  86
ATOM     86  C   UNL A   1      45.694  29.475  27.557  1.00  0.00    -0.014 A 
ATOM     87  C   UNL A   1      45.751  28.514  26.526  1.00  0.00     0.010 A 
ATOM     88  C   UNL A   1      46.899  30.032  28.014  1.00  0.00     0.010 A 
ATOM     89  C   UNL A   1      46.975  28.082  26.005  1.00  0.00     0.020 A 
ATOM     90  C   UNL A   1      48.123  29.631  27.469  1.00  0.00     0.020 A 
ATOM     91  C   UNL A   1      48.157  28.636  26.492  1.00  0.00     0.054 A 
BRANCH  91  92
ATOM     92  S   UNL A   1      49.743  27.979  25.911  1.00  0.00     0.124 S 
ATOM     93  O   UNL A   1      49.835  26.714  26.638  1.00  0.00    -0.237 OA
ATOM     94  O   UNL A   1      49.528  27.860  24.473  1.00  0.00    -0.237 OA
ATOM     95  O   UNL A   1      50.708  28.999  26.321  1.00  0.00    -0.744 OA
ENDBRANCH  91  92
ENDBRANCH  65  86
ENDBRANCH  39  40
ENDBRANCH  32  34
ENDBRANCH  31  32
ENDBRANCH  30  31
ENDBRANCH  29  30
ENDBRANCH  28  29
ENDBRANCH  27  28
ENDBRANCH  26  27
ENDBRANCH   1  26
TORSDOF 26
ENDMDL
MODEL 3
REMARK VINA RESULT:      -8.6      8.151     13.871
REMARK SMILES O=C(Cn1cc(C(=O)C(F)(F)F)c2ccccc21)OCCOCCOCCOCCOC(=O)c1ccc(-c2c3nc(c(-c4ccc(S(=O)(=O)[O-])cc4)c4ccc([nH]4)c(-c4ccc(S(=O)(=O)[O-])cc4)c4nc(c(-c5ccc(S(=O)(=O)[O-])cc5)c5ccc2[nH]5)C=C4)C=C3)cc1
REMARK SMILES IDX 25 1 24 2 23 3 22 4 21 5 20 6 19 7 2 8 1 9 3 10 4 11 5 12
REMARK SMILES IDX 18 13 6 14 13 15 17 16 14 17 16 18 15 19 7 20 8 21 9 22
REMARK SMILES IDX 10 23 11 24 12 25 26 26 27 27 28 28 29 29 30 30 31 31 32 32
REMARK SMILES IDX 33 33 34 34 35 35 93 36 36 37 92 38 37 39 38 40 39 41 86 42
REMARK SMILES IDX 40 43 91 44 85 45 87 46 41 47 90 48 84 49 83 50 42 52 72 53
REMARK SMILES IDX 53 54 71 55 54 56 57 57 70 58 88 59 55 60 56 61 69 63 89 64
REMARK SMILES IDX 58 65 43 66 44 67 52 68 45 69 51 70 46 71 47 72 48 73 49 74
REMARK SMILES IDX 50 75 73 76 74 77 82 78 75 79 81 80 76 81 77 82 78 83 79 84
REMARK SMILES IDX 80 85 59 86 60 87 68 88 61 89 67 90 62 91 63 92 64 93 65 94
REMARK SMILES IDX 66 95
REMARK H PARENT 87 51 57 62
REMARK Flexibility Score: inf
ROOT
ATOM      1  O   UNL A   1      50.568  20.415  36.153  1.00  0.00    -0.377 OA
ENDROOT
BRANCH   1   2
ATOM      2  C   UNL A   1      50.762  20.653  37.539  1.00  0.00     0.188 C 
BRANCH   2   3
ATOM      3  C   UNL A   1      49.628  21.477  38.118  1.00  0.00     0.188 C 
BRANCH   3   4
ATOM      4  O   UNL A   1      49.881  22.425  39.141  1.00  0.00    -0.376 OA
BRANCH   4   5
ATOM      5  C   UNL A   1      48.922  23.188  39.848  1.00  0.00     0.202 C 
BRANCH   5   6
ATOM      6  C   UNL A   1      47.927  24.142  39.192  1.00  0.00     0.261 C 
BRANCH   6   7
ATOM      7  O   UNL A   1      46.567  23.743  38.978  1.00  0.00    -0.462 OA
BRANCH   7   8
ATOM      8  C   UNL A   1      45.981  22.757  38.283  1.00  0.00     0.326 C 
ATOM      9  O   UNL A   1      45.751  21.702  38.887  1.00  0.00    -0.250 OA
BRANCH   8  10
ATOM     10  C   UNL A   1      45.920  22.756  36.789  1.00  0.00     0.244 C 
BRANCH  10  11
ATOM     11  N   UNL A   1      45.292  23.818  36.012  1.00  0.00    -0.335 N 
ATOM     12  C   UNL A   1      44.040  24.328  36.237  1.00  0.00     0.099 A 
ATOM     13  C   UNL A   1      46.045  24.769  35.330  1.00  0.00     0.049 A 
ATOM     14  C   UNL A   1      43.995  25.627  35.780  1.00  0.00     0.053 A 
ATOM     15  C   UNL A   1      45.211  25.863  35.086  1.00  0.00     0.011 A 
ATOM     16  C   UNL A   1      47.401  24.784  34.962  1.00  0.00     0.027 A 
ATOM     17  C   UNL A   1      45.720  26.965  34.372  1.00  0.00     0.011 A 
ATOM     18  C   UNL A   1      47.892  25.901  34.285  1.00  0.00     0.002 A 
ATOM     19  C   UNL A   1      47.057  26.967  33.968  1.00  0.00     0.001 A 
BRANCH  14  20
ATOM     20  C   UNL A   1      42.963  26.608  36.098  1.00  0.00     0.268 C 
ATOM     21  O   UNL A   1      42.845  27.070  37.234  1.00  0.00    -0.284 OA
BRANCH  20  22
ATOM     22  C   UNL A   1      41.933  26.829  34.986  1.00  0.00     0.454 C 
ATOM     23  F   UNL A   1      41.349  28.062  35.016  1.00  0.00    -0.163 F 
ATOM     24  F   UNL A   1      42.499  26.733  33.741  1.00  0.00    -0.163 F 
ATOM     25  F   UNL A   1      40.911  25.927  34.988  1.00  0.00    -0.163 F 
ENDBRANCH  20  22
ENDBRANCH  14  20
ENDBRANCH  10  11
ENDBRANCH   8  10
ENDBRANCH   7   8
ENDBRANCH   6   7
ENDBRANCH   5   6
ENDBRANCH   4   5
ENDBRANCH   3   4
ENDBRANCH   2   3
ENDBRANCH   1   2
BRANCH   1  26
ATOM     26  C   UNL A   1      51.763  20.095  35.454  1.00  0.00     0.188 C 
BRANCH  26  27
ATOM     27  C   UNL A   1      51.560  19.863  33.943  1.00  0.00     0.188 C 
BRANCH  27  28
ATOM     28  O   UNL A   1      52.116  20.769  32.988  1.00  0.00    -0.376 OA
BRANCH  28  29
ATOM     29  C   UNL A   1      53.476  21.144  33.122  1.00  0.00     0.202 C 
BRANCH  29  30
ATOM     30  C   UNL A   1      53.766  22.617  32.801  1.00  0.00     0.261 C 
BRANCH  30  31
ATOM     31  O   UNL A   1      52.871  23.497  33.496  1.00  0.00    -0.460 OA
BRANCH  31  32
ATOM     32  C   UNL A   1      53.040  24.830  33.282  1.00  0.00     0.338 C 
ATOM     33  O   UNL A   1      53.958  25.515  33.653  1.00  0.00    -0.246 OA
BRANCH  32  34
ATOM     34  C   UNL A   1      52.028  25.249  32.274  1.00  0.00     0.060 A 
ATOM     35  C   UNL A   1      50.713  24.775  32.296  1.00  0.00     0.016 A 
ATOM     36  C   UNL A   1      52.486  25.990  31.175  1.00  0.00     0.016 A 
ATOM     37  C   UNL A   1      49.895  24.976  31.184  1.00  0.00     0.010 A 
ATOM     38  C   UNL A   1      51.656  26.203  30.070  1.00  0.00     0.010 A 
ATOM     39  C   UNL A   1      50.364  25.674  30.053  1.00  0.00    -0.014 A 
BRANCH  39  40
ATOM     40  C   UNL A   1      49.383  25.967  28.990  1.00  0.00     0.031 A 
ATOM     41  C   UNL A   1      48.249  26.833  29.424  1.00  0.00     0.074 A 
ATOM     42  C   UNL A   1      49.477  25.747  27.661  1.00  0.00     0.049 A 
ATOM     43  N   UNL A   1      46.978  26.596  29.382  1.00  0.00    -0.248 NA
ATOM     44  C   UNL A   1      48.614  28.119  30.041  1.00  0.00     0.031 C 
ATOM     45  C   UNL A   1      50.655  25.326  26.904  1.00  0.00     0.029 A 
ATOM     46  N   UNL A   1      48.543  25.989  26.682  1.00  0.00    -0.354 N 
ATOM     47  C   UNL A   1      46.367  27.769  29.818  1.00  0.00     0.074 A 
ATOM     48  C   UNL A   1      47.415  28.620  30.326  1.00  0.00     0.031 C 
ATOM     49  C   UNL A   1      50.441  25.569  25.591  1.00  0.00     0.029 A 
ATOM     50  C   UNL A   1      49.069  26.018  25.399  1.00  0.00     0.049 A 
ATOM     51  H   UNL A   1      47.587  26.129  26.874  1.00  0.00     0.167 HD
ATOM     52  C   UNL A   1      45.063  28.071  29.582  1.00  0.00     0.031 A 
ATOM     53  C   UNL A   1      48.467  26.443  24.260  1.00  0.00     0.031 A 
ATOM     54  C   UNL A   1      44.280  26.939  29.186  1.00  0.00     0.049 A 
ATOM     55  C   UNL A   1      46.997  26.472  24.456  1.00  0.00     0.074 A 
ATOM     56  C   UNL A   1      43.936  25.736  29.766  1.00  0.00     0.029 A 
ATOM     57  N   UNL A   1      43.936  26.846  27.860  1.00  0.00    -0.354 N 
ATOM     58  N   UNL A   1      46.249  25.418  24.626  1.00  0.00    -0.248 NA
ATOM     59  C   UNL A   1      46.335  27.746  24.697  1.00  0.00     0.031 C 
ATOM     60  C   UNL A   1      43.748  24.829  28.686  1.00  0.00     0.029 A 
ATOM     61  C   UNL A   1      43.993  25.523  27.498  1.00  0.00     0.049 A 
ATOM     62  H   UNL A   1      43.690  27.597  27.273  1.00  0.00     0.167 HD
ATOM     63  C   UNL A   1      45.150  25.865  25.341  1.00  0.00     0.074 A 
ATOM     64  C   UNL A   1      45.186  27.314  25.221  1.00  0.00     0.031 C 
ATOM     65  C   UNL A   1      44.482  25.051  26.210  1.00  0.00     0.031 A 
BRANCH  52  66
ATOM     66  C   UNL A   1      44.570  29.487  29.434  1.00  0.00    -0.014 A 
ATOM     67  C   UNL A   1      43.672  30.065  30.356  1.00  0.00     0.010 A 
ATOM     68  C   UNL A   1      45.171  30.350  28.498  1.00  0.00     0.010 A 
ATOM     69  C   UNL A   1      43.332  31.416  30.314  1.00  0.00     0.020 A 
ATOM     70  C   UNL A   1      44.876  31.722  28.480  1.00  0.00     0.020 A 
ATOM     71  C   UNL A   1      43.945  32.242  29.379  1.00  0.00     0.054 A 
BRANCH  71  72
ATOM     72  S   UNL A   1      43.575  34.013  29.438  1.00  0.00     0.124 S 
ATOM     73  O   UNL A   1      43.759  34.403  28.044  1.00  0.00    -0.237 OA
ATOM     74  O   UNL A   1      42.197  34.031  29.921  1.00  0.00    -0.237 OA
ATOM     75  O   UNL A   1      44.566  34.536  30.374  1.00  0.00    -0.744 OA
ENDBRANCH  71  72
ENDBRANCH  52  66
BRANCH  53  76
ATOM     76  C   UNL A   1      49.114  27.062  23.074  1.00  0.00    -0.014 A 
ATOM     77  C   UNL A   1      48.679  26.719  21.777  1.00  0.00     0.010 A 
ATOM     78  C   UNL A   1      50.311  27.798  23.186  1.00  0.00     0.010 A 
ATOM     79  C   UNL A   1      49.416  27.060  20.641  1.00  0.00     0.020 A 
ATOM     80  C   UNL A   1      51.067  28.133  22.047  1.00  0.00     0.020 A 
ATOM     81  C   UNL A   1      50.623  27.739  20.783  1.00  0.00     0.054 A 
BRANCH  81  82
ATOM     82  S   UNL A   1      51.622  28.012  19.293  1.00  0.00     0.124 S 
ATOM     83  O   UNL A   1      52.851  27.291  19.614  1.00  0.00    -0.237 OA
ATOM     84  O   UNL A   1      50.799  27.407  18.248  1.00  0.00    -0.237 OA
ATOM     85  O   UNL A   1      51.752  29.465  19.219  1.00  0.00    -0.744 OA
ENDBRANCH  81  82
ENDBRANCH  53  76
BRANCH  65  86
ATOM     86  C   UNL A   1      44.560  23.549  26.035  1.00  0.00    -0.014 A 
ATOM     87  C   UNL A   1      45.833  22.968  25.860  1.00  0.00     0.010 A 
ATOM     88  C   UNL A   1      43.428  22.735  25.862  1.00  0.00     0.010 A 
ATOM     89  C   UNL A   1      45.973  21.632  25.473  1.00  0.00     0.020 A 
ATOM     90  C   UNL A   1      43.565  21.388  25.513  1.00  0.00     0.020 A 
ATOM     91  C   UNL A   1      44.832  20.852  25.289  1.00  0.00     0.054 A 
BRANCH  91  92
ATOM     92  S   UNL A   1      45.013  19.163  24.659  1.00  0.00     0.124 S 
ATOM     93  O   UNL A   1      46.430  18.898  24.894  1.00  0.00    -0.237 OA
ATOM     94  O   UNL A   1      44.087  18.410  25.500  1.00  0.00    -0.237 OA
ATOM     95  O   UNL A   1      44.631  19.279  23.251  1.00  0.00    -0.744 OA
ENDBRANCH  91  92
ENDBRANCH  65  86
ENDBRANCH  39  40
ENDBRANCH  32  34
ENDBRANCH  31  32
ENDBRANCH  30  31
ENDBRANCH  29  30
ENDBRANCH  28  29
ENDBRANCH  27  28
ENDBRANCH  26  27
ENDBRANCH   1  26
TORSDOF 26
ENDMDL
