MODEL 1
REMARK VINA RESULT:      -9.2      0.000      0.000
REMARK SMILES COc1cc(Cl)c2c(c1)C=C(C(=O)OCCOCCOCCOCCOC(=O)c1ccc(-c3c4nc(c(-c5ccc(S(=O)(=O)[O-])cc5)c5ccc([nH]5)c(-c5ccc(S(=O)(=O)[O-])cc5)c5nc(c(-c6ccc(S(=O)(=O)[O-])cc6)c6ccc3[nH]6)C=C5)C=C4)cc1)[C@@H](C(F)(F)F)O2
REMARK SMILES IDX 21 1 20 2 19 3 18 4 17 5 16 6 15 7 14 8 12 9 13 10 11 11
REMARK SMILES IDX 3 12 4 13 9 14 5 15 8 16 6 17 7 18 10 19 94 20 89 21 2 22
REMARK SMILES IDX 1 23 90 24 91 25 92 26 93 27 22 28 23 29 24 30 25 31 26 32
REMARK SMILES IDX 27 33 28 34 29 35 30 36 88 37 31 38 87 39 32 40 33 41 34 42
REMARK SMILES IDX 81 43 35 44 86 45 80 46 82 47 36 48 85 49 79 50 78 51 37 53
REMARK SMILES IDX 67 54 48 55 66 56 49 57 52 58 65 59 83 60 50 61 51 62 64 64
REMARK SMILES IDX 84 65 53 66 38 67 39 68 47 69 40 70 46 71 41 72 42 73 43 74
REMARK SMILES IDX 44 75 45 76 68 77 69 78 77 79 70 80 76 81 71 82 72 83 73 84
REMARK SMILES IDX 74 85 75 86 54 87 55 88 63 89 56 90 62 91 57 92 58 93 59 94
REMARK SMILES IDX 60 95 61 96
REMARK H PARENT 82 52 52 63
REMARK Flexibility Score: inf
ROOT
ATOM      1  C   UNL A   1      34.019  28.802  25.725  1.00  0.00     0.188 C 
ENDROOT
BRANCH   1   2
ATOM      2  O   UNL A   1      33.155  27.712  25.408  1.00  0.00    -0.377 OA
BRANCH   2   3
ATOM      3  C   UNL A   1      31.788  27.835  25.759  1.00  0.00     0.188 C 
BRANCH   3   4
ATOM      4  C   UNL A   1      30.885  28.139  24.548  1.00  0.00     0.188 C 
BRANCH   4   5
ATOM      5  O   UNL A   1      31.568  28.293  23.319  1.00  0.00    -0.376 OA
BRANCH   5   6
ATOM      6  C   UNL A   1      31.597  27.280  22.325  1.00  0.00     0.202 C 
BRANCH   6   7
ATOM      7  C   UNL A   1      31.500  25.759  22.557  1.00  0.00     0.261 C 
BRANCH   7   8
ATOM      8  O   UNL A   1      32.543  25.125  23.292  1.00  0.00    -0.460 OA
BRANCH   8   9
ATOM      9  C   UNL A   1      32.200  24.445  24.399  1.00  0.00     0.338 C 
ATOM     10  O   UNL A   1      31.167  24.551  25.036  1.00  0.00    -0.246 OA
BRANCH   9  11
ATOM     11  C   UNL A   1      33.220  23.395  24.607  1.00  0.00     0.087 C 
ATOM     12  C   UNL A   1      37.750  22.259  25.709  1.00  0.00     0.121 A 
ATOM     13  C   UNL A   1      37.511  20.924  25.394  1.00  0.00     0.070 A 
ATOM     14  C   UNL A   1      36.713  23.187  25.683  1.00  0.00     0.058 A 
ATOM     15  C   UNL A   1      36.223  20.524  25.033  1.00  0.00     0.087 A 
ATOM     16  C   UNL A   1      35.436  22.796  25.266  1.00  0.00     0.022 A 
ATOM     17  Cl  UNL A   1      35.970  18.862  24.636  1.00  0.00    -0.080 Cl
ATOM     18  C   UNL A   1      35.177  21.456  24.966  1.00  0.00     0.146 A 
ATOM     19  C   UNL A   1      34.405  23.799  25.079  1.00  0.00     0.027 C 
ATOM     20  O   UNL A   1      33.937  21.005  24.606  1.00  0.00    -0.474 OA
ATOM     21  C   UNL A   1      32.864  21.952  24.353  1.00  0.00     0.316 C 
BRANCH  12  22
ATOM     22  O   UNL A   1      38.983  22.710  26.091  1.00  0.00    -0.497 OA
ATOM     23  C   UNL A   1      39.902  21.630  26.269  1.00  0.00     0.278 C 
ENDBRANCH  12  22
BRANCH  21  24
ATOM     24  C   UNL A   1      32.352  21.733  22.924  1.00  0.00     0.430 C 
ATOM     25  F   UNL A   1      31.092  22.202  22.771  1.00  0.00    -0.167 F 
ATOM     26  F   UNL A   1      33.124  22.362  22.009  1.00  0.00    -0.167 F 
ATOM     27  F   UNL A   1      32.338  20.416  22.604  1.00  0.00    -0.167 F 
ENDBRANCH  21  24
ENDBRANCH   9  11
ENDBRANCH   8   9
ENDBRANCH   7   8
ENDBRANCH   6   7
ENDBRANCH   5   6
ENDBRANCH   4   5
ENDBRANCH   3   4
ENDBRANCH   2   3
ENDBRANCH   1   2
BRANCH   1  28
ATOM     28  C   UNL A   1      34.476  29.064  27.182  1.00  0.00     0.188 C 
BRANCH  28  29
ATOM     29  O   UNL A   1      33.793  30.136  27.821  1.00  0.00    -0.376 OA
BRANCH  29  30
ATOM     30  C   UNL A   1      32.732  30.762  27.119  1.00  0.00     0.202 C 
BRANCH  30  31
ATOM     31  C   UNL A   1      32.727  32.298  27.129  1.00  0.00     0.261 C 
BRANCH  31  32
ATOM     32  O   UNL A   1      33.877  32.927  27.708  1.00  0.00    -0.460 OA
BRANCH  32  33
ATOM     33  C   UNL A   1      33.668  33.832  28.688  1.00  0.00     0.338 C 
ATOM     34  O   UNL A   1      32.699  34.559  28.825  1.00  0.00    -0.246 OA
BRANCH  33  35
ATOM     35  C   UNL A   1      34.744  33.656  29.681  1.00  0.00     0.060 A 
ATOM     36  C   UNL A   1      35.954  34.347  29.517  1.00  0.00     0.016 A 
ATOM     37  C   UNL A   1      34.549  32.817  30.780  1.00  0.00     0.016 A 
ATOM     38  C   UNL A   1      36.984  34.178  30.440  1.00  0.00     0.010 A 
ATOM     39  C   UNL A   1      35.597  32.614  31.680  1.00  0.00     0.010 A 
ATOM     40  C   UNL A   1      36.828  33.265  31.491  1.00  0.00    -0.014 A 
BRANCH  40  41
ATOM     41  C   UNL A   1      38.026  32.775  32.208  1.00  0.00     0.031 A 
ATOM     42  C   UNL A   1      38.923  31.811  31.479  1.00  0.00     0.074 A 
ATOM     43  C   UNL A   1      38.324  33.171  33.457  1.00  0.00     0.049 A 
ATOM     44  N   UNL A   1      39.989  31.189  31.904  1.00  0.00    -0.248 NA
ATOM     45  C   UNL A   1      38.567  31.515  30.080  1.00  0.00     0.031 C 
ATOM     46  C   UNL A   1      37.575  34.150  34.241  1.00  0.00     0.029 A 
ATOM     47  N   UNL A   1      39.349  32.784  34.286  1.00  0.00    -0.354 N 
ATOM     48  C   UNL A   1      40.431  30.431  30.828  1.00  0.00     0.074 A 
ATOM     49  C   UNL A   1      39.509  30.651  29.737  1.00  0.00     0.031 C 
ATOM     50  C   UNL A   1      38.162  34.282  35.444  1.00  0.00     0.029 A 
ATOM     51  C   UNL A   1      39.305  33.371  35.526  1.00  0.00     0.049 A 
ATOM     52  H   UNL A   1      40.048  32.147  34.015  1.00  0.00     0.167 HD
ATOM     53  C   UNL A   1      41.510  29.620  30.752  1.00  0.00     0.031 A 
ATOM     54  C   UNL A   1      40.084  33.178  36.610  1.00  0.00     0.031 A 
ATOM     55  C   UNL A   1      42.409  29.378  31.844  1.00  0.00     0.049 A 
ATOM     56  C   UNL A   1      41.218  32.187  36.540  1.00  0.00     0.074 A 
ATOM     57  C   UNL A   1      43.527  28.563  31.869  1.00  0.00     0.029 A 
ATOM     58  N   UNL A   1      42.286  29.936  33.106  1.00  0.00    -0.354 N 
ATOM     59  N   UNL A   1      41.619  31.466  35.521  1.00  0.00    -0.248 NA
ATOM     60  C   UNL A   1      41.999  31.981  37.769  1.00  0.00     0.031 C 
ATOM     61  C   UNL A   1      44.050  28.587  33.164  1.00  0.00     0.029 A 
ATOM     62  C   UNL A   1      43.291  29.462  33.929  1.00  0.00     0.049 A 
ATOM     63  H   UNL A   1      41.589  30.575  33.376  1.00  0.00     0.167 HD
ATOM     64  C   UNL A   1      42.705  30.727  35.980  1.00  0.00     0.074 A 
ATOM     65  C   UNL A   1      42.905  31.097  37.366  1.00  0.00     0.031 C 
ATOM     66  C   UNL A   1      43.467  29.827  35.311  1.00  0.00     0.031 A 
BRANCH  53  67
ATOM     67  C   UNL A   1      41.754  28.913  29.450  1.00  0.00    -0.014 A 
ATOM     68  C   UNL A   1      41.252  27.619  29.225  1.00  0.00     0.010 A 
ATOM     69  C   UNL A   1      42.460  29.568  28.425  1.00  0.00     0.010 A 
ATOM     70  C   UNL A   1      41.471  26.983  28.001  1.00  0.00     0.020 A 
ATOM     71  C   UNL A   1      42.661  28.943  27.192  1.00  0.00     0.020 A 
ATOM     72  C   UNL A   1      42.168  27.653  26.989  1.00  0.00     0.054 A 
BRANCH  72  73
ATOM     73  S   UNL A   1      42.414  26.806  25.406  1.00  0.00     0.124 S 
ATOM     74  O   UNL A   1      42.661  27.921  24.496  1.00  0.00    -0.237 OA
ATOM     75  O   UNL A   1      43.567  25.953  25.683  1.00  0.00    -0.237 OA
ATOM     76  O   UNL A   1      41.153  26.099  25.189  1.00  0.00    -0.744 OA
ENDBRANCH  72  73
ENDBRANCH  53  67
BRANCH  54  77
ATOM     77  C   UNL A   1      39.801  33.937  37.856  1.00  0.00    -0.014 A 
ATOM     78  C   UNL A   1      39.098  33.335  38.913  1.00  0.00     0.010 A 
ATOM     79  C   UNL A   1      40.287  35.249  38.015  1.00  0.00     0.010 A 
ATOM     80  C   UNL A   1      38.908  34.021  40.116  1.00  0.00     0.020 A 
ATOM     81  C   UNL A   1      40.116  35.931  39.223  1.00  0.00     0.020 A 
ATOM     82  C   UNL A   1      39.433  35.307  40.270  1.00  0.00     0.054 A 
BRANCH  82  83
ATOM     83  S   UNL A   1      39.248  36.135  41.874  1.00  0.00     0.124 S 
ATOM     84  O   UNL A   1      40.434  35.680  42.595  1.00  0.00    -0.237 OA
ATOM     85  O   UNL A   1      39.243  37.544  41.491  1.00  0.00    -0.237 OA
ATOM     86  O   UNL A   1      37.977  35.625  42.381  1.00  0.00    -0.744 OA
ENDBRANCH  82  83
ENDBRANCH  54  77
BRANCH  66  87
ATOM     87  C   UNL A   1      44.595  29.165  36.055  1.00  0.00    -0.014 A 
ATOM     88  C   UNL A   1      44.359  28.053  36.882  1.00  0.00     0.010 A 
ATOM     89  C   UNL A   1      45.919  29.589  35.834  1.00  0.00     0.010 A 
ATOM     90  C   UNL A   1      45.427  27.385  37.486  1.00  0.00     0.020 A 
ATOM     91  C   UNL A   1      46.991  28.908  36.418  1.00  0.00     0.020 A 
ATOM     92  C   UNL A   1      46.736  27.811  37.243  1.00  0.00     0.054 A 
BRANCH  92  93
ATOM     93  S   UNL A   1      48.102  26.895  38.008  1.00  0.00     0.124 S 
ATOM     94  O   UNL A   1      48.870  26.459  36.846  1.00  0.00    -0.237 OA
ATOM     95  O   UNL A   1      48.739  27.916  38.835  1.00  0.00    -0.237 OA
ATOM     96  O   UNL A   1      47.435  25.825  38.746  1.00  0.00    -0.744 OA
ENDBRANCH  92  93
ENDBRANCH  66  87
ENDBRANCH  40  41
ENDBRANCH  33  35
ENDBRANCH  32  33
ENDBRANCH  31  32
ENDBRANCH  30  31
ENDBRANCH  29  30
ENDBRANCH  28  29
ENDBRANCH   1  28
TORSDOF 25
ENDMDL
MODEL 2
REMARK VINA RESULT:      -8.2      4.447      9.594
REMARK SMILES COc1cc(Cl)c2c(c1)C=C(C(=O)OCCOCCOCCOCCOC(=O)c1ccc(-c3c4nc(c(-c5ccc(S(=O)(=O)[O-])cc5)c5ccc([nH]5)c(-c5ccc(S(=O)(=O)[O-])cc5)c5nc(c(-c6ccc(S(=O)(=O)[O-])cc6)c6ccc3[nH]6)C=C5)C=C4)cc1)[C@@H](C(F)(F)F)O2
REMARK SMILES IDX 21 1 20 2 19 3 18 4 17 5 16 6 15 7 14 8 12 9 13 10 11 11
REMARK SMILES IDX 3 12 4 13 9 14 5 15 8 16 6 17 7 18 10 19 94 20 89 21 2 22
REMARK SMILES IDX 1 23 90 24 91 25 92 26 93 27 22 28 23 29 24 30 25 31 26 32
REMARK SMILES IDX 27 33 28 34 29 35 30 36 88 37 31 38 87 39 32 40 33 41 34 42
REMARK SMILES IDX 81 43 35 44 86 45 80 46 82 47 36 48 85 49 79 50 78 51 37 53
REMARK SMILES IDX 67 54 48 55 66 56 49 57 52 58 65 59 83 60 50 61 51 62 64 64
REMARK SMILES IDX 84 65 53 66 38 67 39 68 47 69 40 70 46 71 41 72 42 73 43 74
REMARK SMILES IDX 44 75 45 76 68 77 69 78 77 79 70 80 76 81 71 82 72 83 73 84
REMARK SMILES IDX 74 85 75 86 54 87 55 88 63 89 56 90 62 91 57 92 58 93 59 94
REMARK SMILES IDX 60 95 61 96
REMARK H PARENT 82 52 52 63
REMARK Flexibility Score: inf
ROOT
ATOM      1  C   UNL A   1      43.677  23.550  26.323  1.00  0.00     0.188 C 
ENDROOT
BRANCH   1   2
ATOM      2  O   UNL A   1      42.392  24.094  26.024  1.00  0.00    -0.377 OA
BRANCH   2   3
ATOM      3  C   UNL A   1      42.150  25.442  26.384  1.00  0.00     0.188 C 
BRANCH   3   4
ATOM      4  C   UNL A   1      40.735  25.918  26.001  1.00  0.00     0.188 C 
BRANCH   4   5
ATOM      5  O   UNL A   1      39.755  25.738  27.004  1.00  0.00    -0.376 OA
BRANCH   5   6
ATOM      6  C   UNL A   1      39.020  24.533  27.151  1.00  0.00     0.202 C 
BRANCH   6   7
ATOM      7  C   UNL A   1      38.109  23.875  26.095  1.00  0.00     0.261 C 
BRANCH   7   8
ATOM      8  O   UNL A   1      36.772  23.555  26.468  1.00  0.00    -0.460 OA
BRANCH   8   9
ATOM      9  C   UNL A   1      35.975  23.020  25.528  1.00  0.00     0.338 C 
ATOM     10  O   UNL A   1      36.170  21.998  24.894  1.00  0.00    -0.246 OA
BRANCH   9  11
ATOM     11  C   UNL A   1      34.712  23.789  25.527  1.00  0.00     0.087 C 
ATOM     12  C   UNL A   1      32.509  28.029  25.081  1.00  0.00     0.121 A 
ATOM     13  C   UNL A   1      31.299  27.460  25.466  1.00  0.00     0.070 A 
ATOM     14  C   UNL A   1      33.639  27.234  24.909  1.00  0.00     0.058 A 
ATOM     15  C   UNL A   1      31.228  26.085  25.696  1.00  0.00     0.087 A 
ATOM     16  C   UNL A   1      33.581  25.866  25.194  1.00  0.00     0.022 A 
ATOM     17  Cl  UNL A   1      29.710  25.421  26.185  1.00  0.00    -0.080 Cl
ATOM     18  C   UNL A   1      32.367  25.278  25.562  1.00  0.00     0.146 A 
ATOM     19  C   UNL A   1      34.798  25.077  25.175  1.00  0.00     0.027 C 
ATOM     20  O   UNL A   1      32.237  23.938  25.800  1.00  0.00    -0.474 OA
ATOM     21  C   UNL A   1      33.416  23.089  25.846  1.00  0.00     0.316 C 
BRANCH  12  22
ATOM     22  O   UNL A   1      32.639  29.365  24.820  1.00  0.00    -0.497 OA
ATOM     23  C   UNL A   1      31.771  30.145  25.644  1.00  0.00     0.278 C 
ENDBRANCH  12  22
BRANCH  21  24
ATOM     24  C   UNL A   1      33.461  22.397  27.215  1.00  0.00     0.430 C 
ATOM     25  F   UNL A   1      34.321  23.018  28.055  1.00  0.00    -0.167 F 
ATOM     26  F   UNL A   1      32.252  22.389  27.818  1.00  0.00    -0.167 F 
ATOM     27  F   UNL A   1      33.864  21.108  27.099  1.00  0.00    -0.167 F 
ENDBRANCH  21  24
ENDBRANCH   9  11
ENDBRANCH   8   9
ENDBRANCH   7   8
ENDBRANCH   6   7
ENDBRANCH   5   6
ENDBRANCH   4   5
ENDBRANCH   3   4
ENDBRANCH   2   3
ENDBRANCH   1   2
BRANCH   1  28
ATOM     28  C   UNL A   1      44.028  22.084  25.971  1.00  0.00     0.188 C 
BRANCH  28  29
ATOM     29  O   UNL A   1      45.401  21.873  25.659  1.00  0.00    -0.376 OA
BRANCH  29  30
ATOM     30  C   UNL A   1      45.858  22.262  24.375  1.00  0.00     0.202 C 
BRANCH  30  31
ATOM     31  C   UNL A   1      46.899  23.390  24.339  1.00  0.00     0.261 C 
BRANCH  31  32
ATOM     32  O   UNL A   1      46.378  24.726  24.307  1.00  0.00    -0.460 OA
BRANCH  32  33
ATOM     33  C   UNL A   1      47.266  25.743  24.305  1.00  0.00     0.338 C 
ATOM     34  O   UNL A   1      48.221  25.885  23.562  1.00  0.00    -0.246 OA
BRANCH  33  35
ATOM     35  C   UNL A   1      46.766  26.760  25.249  1.00  0.00     0.060 A 
ATOM     36  C   UNL A   1      47.677  27.471  26.043  1.00  0.00     0.016 A 
ATOM     37  C   UNL A   1      45.396  27.016  25.337  1.00  0.00     0.016 A 
ATOM     38  C   UNL A   1      47.216  28.424  26.949  1.00  0.00     0.010 A 
ATOM     39  C   UNL A   1      44.932  27.940  26.276  1.00  0.00     0.010 A 
ATOM     40  C   UNL A   1      45.839  28.617  27.109  1.00  0.00    -0.014 A 
BRANCH  40  41
ATOM     41  C   UNL A   1      45.338  29.295  28.325  1.00  0.00     0.031 A 
ATOM     42  C   UNL A   1      45.233  28.473  29.582  1.00  0.00     0.074 A 
ATOM     43  C   UNL A   1      44.997  30.595  28.332  1.00  0.00     0.049 A 
ATOM     44  N   UNL A   1      44.767  28.809  30.755  1.00  0.00    -0.248 NA
ATOM     45  C   UNL A   1      45.725  27.086  29.501  1.00  0.00     0.031 C 
ATOM     46  C   UNL A   1      45.118  31.512  27.201  1.00  0.00     0.029 A 
ATOM     47  N   UNL A   1      44.469  31.365  29.339  1.00  0.00    -0.354 N 
ATOM     48  C   UNL A   1      44.910  27.679  31.549  1.00  0.00     0.074 A 
ATOM     49  C   UNL A   1      45.486  26.641  30.724  1.00  0.00     0.031 C 
ATOM     50  C   UNL A   1      44.669  32.723  27.576  1.00  0.00     0.029 A 
ATOM     51  C   UNL A   1      44.196  32.656  28.959  1.00  0.00     0.049 A 
ATOM     52  H   UNL A   1      44.303  31.023  30.247  1.00  0.00     0.167 HD
ATOM     53  C   UNL A   1      44.591  27.516  32.853  1.00  0.00     0.031 A 
ATOM     54  C   UNL A   1      43.611  33.660  29.643  1.00  0.00     0.031 A 
ATOM     55  C   UNL A   1      43.993  28.537  33.664  1.00  0.00     0.049 A 
ATOM     56  C   UNL A   1      43.162  33.427  31.062  1.00  0.00     0.074 A 
ATOM     57  C   UNL A   1      43.622  28.466  34.995  1.00  0.00     0.029 A 
ATOM     58  N   UNL A   1      43.665  29.808  33.220  1.00  0.00    -0.354 N 
ATOM     59  N   UNL A   1      43.290  32.350  31.800  1.00  0.00    -0.248 NA
ATOM     60  C   UNL A   1      42.483  34.542  31.739  1.00  0.00     0.031 C 
ATOM     61  C   UNL A   1      43.019  29.678  35.341  1.00  0.00     0.029 A 
ATOM     62  C   UNL A   1      43.069  30.523  34.242  1.00  0.00     0.049 A 
ATOM     63  H   UNL A   1      43.833  30.151  32.313  1.00  0.00     0.167 HD
ATOM     64  C   UNL A   1      42.719  32.660  33.030  1.00  0.00     0.074 A 
ATOM     65  C   UNL A   1      42.253  34.028  32.942  1.00  0.00     0.031 C 
ATOM     66  C   UNL A   1      42.595  31.880  34.133  1.00  0.00     0.031 A 
BRANCH  53  67
ATOM     67  C   UNL A   1      44.856  26.173  33.467  1.00  0.00    -0.014 A 
ATOM     68  C   UNL A   1      43.905  25.140  33.387  1.00  0.00     0.010 A 
ATOM     69  C   UNL A   1      46.088  25.928  34.100  1.00  0.00     0.010 A 
ATOM     70  C   UNL A   1      44.175  23.890  33.947  1.00  0.00     0.020 A 
ATOM     71  C   UNL A   1      46.371  24.671  34.641  1.00  0.00     0.020 A 
ATOM     72  C   UNL A   1      45.410  23.662  34.564  1.00  0.00     0.054 A 
BRANCH  72  73
ATOM     73  S   UNL A   1      45.735  22.020  35.261  1.00  0.00     0.124 S 
ATOM     74  O   UNL A   1      45.673  22.278  36.697  1.00  0.00    -0.237 OA
ATOM     75  O   UNL A   1      44.636  21.226  34.717  1.00  0.00    -0.237 OA
ATOM     76  O   UNL A   1      47.062  21.681  34.750  1.00  0.00    -0.744 OA
ENDBRANCH  72  73
ENDBRANCH  53  67
BRANCH  54  77
ATOM     77  C   UNL A   1      43.409  34.974  28.978  1.00  0.00    -0.014 A 
ATOM     78  C   UNL A   1      42.305  35.184  28.135  1.00  0.00     0.010 A 
ATOM     79  C   UNL A   1      44.289  36.043  29.235  1.00  0.00     0.010 A 
ATOM     80  C   UNL A   1      42.071  36.444  27.579  1.00  0.00     0.020 A 
ATOM     81  C   UNL A   1      44.047  37.310  28.696  1.00  0.00     0.020 A 
ATOM     82  C   UNL A   1      42.932  37.504  27.877  1.00  0.00     0.054 A 
BRANCH  82  83
ATOM     83  S   UNL A   1      42.548  39.149  27.214  1.00  0.00     0.124 S 
ATOM     84  O   UNL A   1      41.260  38.927  26.563  1.00  0.00    -0.237 OA
ATOM     85  O   UNL A   1      42.513  39.965  28.424  1.00  0.00    -0.237 OA
ATOM     86  O   UNL A   1      43.663  39.426  26.312  1.00  0.00    -0.744 OA
ENDBRANCH  82  83
ENDBRANCH  54  77
BRANCH  66  87
ATOM     87  C   UNL A   1      41.929  32.471  35.346  1.00  0.00    -0.014 A 
ATOM     88  C   UNL A   1      40.534  32.402  35.507  1.00  0.00     0.010 A 
ATOM     89  C   UNL A   1      42.717  32.999  36.386  1.00  0.00     0.010 A 
ATOM     90  C   UNL A   1      39.938  32.862  36.683  1.00  0.00     0.020 A 
ATOM     91  C   UNL A   1      42.125  33.439  37.573  1.00  0.00     0.020 A 
ATOM     92  C   UNL A   1      40.738  33.369  37.712  1.00  0.00     0.054 A 
BRANCH  92  93
ATOM     93  S   UNL A   1      39.935  33.920  39.243  1.00  0.00     0.124 S 
ATOM     94  O   UNL A   1      38.713  34.543  38.743  1.00  0.00    -0.237 OA
ATOM     95  O   UNL A   1      39.749  32.665  39.968  1.00  0.00    -0.237 OA
ATOM     96  O   UNL A   1      40.903  34.841  39.834  1.00  0.00    -0.744 OA
ENDBRANCH  92  93
ENDBRANCH  66  87
ENDBRANCH  40  41
ENDBRANCH  33  35
ENDBRANCH  32  33
ENDBRANCH  31  32
ENDBRANCH  30  31
ENDBRANCH  29  30
ENDBRANCH  28  29
ENDBRANCH   1  28
TORSDOF 25
ENDMDL
MODEL 3
REMARK VINA RESULT:      -8.2     11.007     15.869
REMARK SMILES COc1cc(Cl)c2c(c1)C=C(C(=O)OCCOCCOCCOCCOC(=O)c1ccc(-c3c4nc(c(-c5ccc(S(=O)(=O)[O-])cc5)c5ccc([nH]5)c(-c5ccc(S(=O)(=O)[O-])cc5)c5nc(c(-c6ccc(S(=O)(=O)[O-])cc6)c6ccc3[nH]6)C=C5)C=C4)cc1)[C@@H](C(F)(F)F)O2
REMARK SMILES IDX 21 1 20 2 19 3 18 4 17 5 16 6 15 7 14 8 12 9 13 10 11 11
REMARK SMILES IDX 3 12 4 13 9 14 5 15 8 16 6 17 7 18 10 19 94 20 89 21 2 22
REMARK SMILES IDX 1 23 90 24 91 25 92 26 93 27 22 28 23 29 24 30 25 31 26 32
REMARK SMILES IDX 27 33 28 34 29 35 30 36 88 37 31 38 87 39 32 40 33 41 34 42
REMARK SMILES IDX 81 43 35 44 86 45 80 46 82 47 36 48 85 49 79 50 78 51 37 53
REMARK SMILES IDX 67 54 48 55 66 56 49 57 52 58 65 59 83 60 50 61 51 62 64 64
REMARK SMILES IDX 84 65 53 66 38 67 39 68 47 69 40 70 46 71 41 72 42 73 43 74
REMARK SMILES IDX 44 75 45 76 68 77 69 78 77 79 70 80 76 81 71 82 72 83 73 84
REMARK SMILES IDX 74 85 75 86 54 87 55 88 63 89 56 90 62 91 57 92 58 93 59 94
REMARK SMILES IDX 60 95 61 96
REMARK H PARENT 82 52 52 63
REMARK Flexibility Score: inf
ROOT
ATOM      1  C   UNL A   1      44.889  39.913  26.136  1.00  0.00     0.188 C 
ENDROOT
BRANCH   1   2
ATOM      2  O   UNL A   1      43.703  40.634  26.464  1.00  0.00    -0.377 OA
BRANCH   2   3
ATOM      3  C   UNL A   1      42.513  39.889  26.657  1.00  0.00     0.188 C 
BRANCH   3   4
ATOM      4  C   UNL A   1      41.327  40.435  25.838  1.00  0.00     0.188 C 
BRANCH   4   5
ATOM      5  O   UNL A   1      41.548  41.695  25.236  1.00  0.00    -0.376 OA
BRANCH   5   6
ATOM      6  C   UNL A   1      41.681  41.862  23.833  1.00  0.00     0.202 C 
BRANCH   6   7
ATOM      7  C   UNL A   1      41.924  43.188  23.083  1.00  0.00     0.261 C 
BRANCH   7   8
ATOM      8  O   UNL A   1      41.772  43.194  21.666  1.00  0.00    -0.460 OA
BRANCH   8   9
ATOM      9  C   UNL A   1      42.780  42.697  20.931  1.00  0.00     0.338 C 
ATOM     10  O   UNL A   1      43.079  41.524  20.790  1.00  0.00    -0.246 OA
BRANCH   9  11
ATOM     11  C   UNL A   1      43.357  43.817  20.156  1.00  0.00     0.087 C 
ATOM     12  C   UNL A   1      46.217  47.668  20.052  1.00  0.00     0.121 A 
ATOM     13  C   UNL A   1      45.778  47.982  18.769  1.00  0.00     0.070 A 
ATOM     14  C   UNL A   1      45.793  46.499  20.677  1.00  0.00     0.058 A 
ATOM     15  C   UNL A   1      44.893  47.121  18.117  1.00  0.00     0.087 A 
ATOM     16  C   UNL A   1      44.863  45.667  20.045  1.00  0.00     0.022 A 
ATOM     17  Cl  UNL A   1      44.361  47.554  16.531  1.00  0.00    -0.080 Cl
ATOM     18  C   UNL A   1      44.428  45.959  18.749  1.00  0.00     0.146 A 
ATOM     19  C   UNL A   1      44.299  44.542  20.768  1.00  0.00     0.027 C 
ATOM     20  O   UNL A   1      43.563  45.155  18.061  1.00  0.00    -0.474 OA
ATOM     21  C   UNL A   1      42.919  44.037  18.730  1.00  0.00     0.316 C 
BRANCH  12  22
ATOM     22  O   UNL A   1      47.100  48.457  20.736  1.00  0.00    -0.497 OA
ATOM     23  C   UNL A   1      48.279  48.709  19.968  1.00  0.00     0.278 C 
ENDBRANCH  12  22
BRANCH  21  24
ATOM     24  C   UNL A   1      41.400  44.217  18.620  1.00  0.00     0.430 C 
ATOM     25  F   UNL A   1      41.049  44.748  17.427  1.00  0.00    -0.167 F 
ATOM     26  F   UNL A   1      40.741  43.043  18.742  1.00  0.00    -0.167 F 
ATOM     27  F   UNL A   1      40.933  45.044  19.587  1.00  0.00    -0.167 F 
ENDBRANCH  21  24
ENDBRANCH   9  11
ENDBRANCH   8   9
ENDBRANCH   7   8
ENDBRANCH   6   7
ENDBRANCH   5   6
ENDBRANCH   4   5
ENDBRANCH   3   4
ENDBRANCH   2   3
ENDBRANCH   1   2
BRANCH   1  28
ATOM     28  C   UNL A   1      45.282  38.626  26.904  1.00  0.00     0.188 C 
BRANCH  28  29
ATOM     29  O   UNL A   1      45.804  38.863  28.206  1.00  0.00    -0.376 OA
BRANCH  29  30
ATOM     30  C   UNL A   1      46.911  39.739  28.330  1.00  0.00     0.202 C 
BRANCH  30  31
ATOM     31  C   UNL A   1      48.299  39.083  28.313  1.00  0.00     0.261 C 
BRANCH  31  32
ATOM     32  O   UNL A   1      48.317  37.650  28.271  1.00  0.00    -0.460 OA
BRANCH  32  33
ATOM     33  C   UNL A   1      48.241  36.989  29.446  1.00  0.00     0.338 C 
ATOM     34  O   UNL A   1      48.244  37.473  30.565  1.00  0.00    -0.246 OA
BRANCH  33  35
ATOM     35  C   UNL A   1      47.962  35.575  29.133  1.00  0.00     0.060 A 
ATOM     36  C   UNL A   1      47.189  35.258  28.007  1.00  0.00     0.016 A 
ATOM     37  C   UNL A   1      48.476  34.565  29.949  1.00  0.00     0.016 A 
ATOM     38  C   UNL A   1      46.906  33.927  27.708  1.00  0.00     0.010 A 
ATOM     39  C   UNL A   1      48.157  33.234  29.674  1.00  0.00     0.010 A 
ATOM     40  C   UNL A   1      47.340  32.916  28.575  1.00  0.00    -0.014 A 
BRANCH  40  41
ATOM     41  C   UNL A   1      46.708  31.580  28.504  1.00  0.00     0.031 A 
ATOM     42  C   UNL A   1      47.499  30.476  27.854  1.00  0.00     0.074 A 
ATOM     43  C   UNL A   1      45.484  31.338  29.002  1.00  0.00     0.049 A 
ATOM     44  N   UNL A   1      47.150  29.241  27.610  1.00  0.00    -0.248 NA
ATOM     45  C   UNL A   1      48.869  30.813  27.428  1.00  0.00     0.031 C 
ATOM     46  C   UNL A   1      44.650  32.303  29.714  1.00  0.00     0.029 A 
ATOM     47  N   UNL A   1      44.730  30.191  28.977  1.00  0.00    -0.354 N 
ATOM     48  C   UNL A   1      48.254  28.656  27.003  1.00  0.00     0.074 A 
ATOM     49  C   UNL A   1      49.277  29.672  26.897  1.00  0.00     0.031 C 
ATOM     50  C   UNL A   1      43.492  31.709  30.052  1.00  0.00     0.029 A 
ATOM     51  C   UNL A   1      43.490  30.334  29.549  1.00  0.00     0.049 A 
ATOM     52  H   UNL A   1      45.049  29.346  28.585  1.00  0.00     0.167 HD
ATOM     53  C   UNL A   1      48.406  27.384  26.572  1.00  0.00     0.031 A 
ATOM     54  C   UNL A   1      42.465  29.462  29.636  1.00  0.00     0.031 A 
ATOM     55  C   UNL A   1      47.381  26.383  26.650  1.00  0.00     0.049 A 
ATOM     56  C   UNL A   1      42.614  28.082  29.051  1.00  0.00     0.074 A 
ATOM     57  C   UNL A   1      47.434  25.067  26.230  1.00  0.00     0.029 A 
ATOM     58  N   UNL A   1      46.113  26.591  27.171  1.00  0.00    -0.354 N 
ATOM     59  N   UNL A   1      43.658  27.543  28.469  1.00  0.00    -0.248 NA
ATOM     60  C   UNL A   1      41.444  27.194  29.130  1.00  0.00     0.031 C 
ATOM     61  C   UNL A   1      46.179  24.492  26.447  1.00  0.00     0.029 A 
ATOM     62  C   UNL A   1      45.364  25.435  27.056  1.00  0.00     0.049 A 
ATOM     63  H   UNL A   1      45.795  27.435  27.564  1.00  0.00     0.167 HD
ATOM     64  C   UNL A   1      43.277  26.251  28.120  1.00  0.00     0.074 A 
ATOM     65  C   UNL A   1      41.909  26.085  28.567  1.00  0.00     0.031 C 
ATOM     66  C   UNL A   1      43.998  25.291  27.490  1.00  0.00     0.031 A 
BRANCH  53  67
ATOM     67  C   UNL A   1      49.721  27.018  25.948  1.00  0.00    -0.014 A 
ATOM     68  C   UNL A   1      50.158  27.639  24.764  1.00  0.00     0.010 A 
ATOM     69  C   UNL A   1      50.548  26.068  26.574  1.00  0.00     0.010 A 
ATOM     70  C   UNL A   1      51.393  27.301  24.207  1.00  0.00     0.020 A 
ATOM     71  C   UNL A   1      51.794  25.745  26.032  1.00  0.00     0.020 A 
ATOM     72  C   UNL A   1      52.207  26.361  24.849  1.00  0.00     0.054 A 
BRANCH  72  73
ATOM     73  S   UNL A   1      53.813  25.963  24.109  1.00  0.00     0.124 S 
ATOM     74  O   UNL A   1      54.117  24.669  24.714  1.00  0.00    -0.237 OA
ATOM     75  O   UNL A   1      53.502  25.934  22.683  1.00  0.00    -0.237 OA
ATOM     76  O   UNL A   1      54.676  27.062  24.537  1.00  0.00    -0.744 OA
ENDBRANCH  72  73
ENDBRANCH  53  67
BRANCH  54  77
ATOM     77  C   UNL A   1      41.203  29.887  30.296  1.00  0.00    -0.014 A 
ATOM     78  C   UNL A   1      40.128  30.374  29.533  1.00  0.00     0.010 A 
ATOM     79  C   UNL A   1      41.047  29.746  31.689  1.00  0.00     0.010 A 
ATOM     80  C   UNL A   1      38.913  30.692  30.147  1.00  0.00     0.020 A 
ATOM     81  C   UNL A   1      39.827  30.044  32.303  1.00  0.00     0.020 A 
ATOM     82  C   UNL A   1      38.764  30.507  31.524  1.00  0.00     0.054 A 
BRANCH  82  83
ATOM     83  S   UNL A   1      37.146  30.841  32.276  1.00  0.00     0.124 S 
ATOM     84  O   UNL A   1      37.509  31.213  33.640  1.00  0.00    -0.237 OA
ATOM     85  O   UNL A   1      36.639  31.924  31.438  1.00  0.00    -0.237 OA
ATOM     86  O   UNL A   1      36.436  29.572  32.144  1.00  0.00    -0.744 OA
ENDBRANCH  82  83
ENDBRANCH  54  77
BRANCH  66  87
ATOM     87  C   UNL A   1      43.335  23.964  27.234  1.00  0.00    -0.014 A 
ATOM     88  C   UNL A   1      43.216  23.008  28.258  1.00  0.00     0.010 A 
ATOM     89  C   UNL A   1      42.727  23.717  25.989  1.00  0.00     0.010 A 
ATOM     90  C   UNL A   1      42.510  21.824  28.038  1.00  0.00     0.020 A 
ATOM     91  C   UNL A   1      42.000  22.543  25.773  1.00  0.00     0.020 A 
ATOM     92  C   UNL A   1      41.899  21.603  26.799  1.00  0.00     0.054 A 
BRANCH  92  93
ATOM     93  S   UNL A   1      40.954  20.073  26.560  1.00  0.00     0.124 S 
ATOM     94  O   UNL A   1      40.807  19.584  27.928  1.00  0.00    -0.237 OA
ATOM     95  O   UNL A   1      39.728  20.558  25.931  1.00  0.00    -0.237 OA
ATOM     96  O   UNL A   1      41.813  19.262  25.701  1.00  0.00    -0.744 OA
ENDBRANCH  92  93
ENDBRANCH  66  87
ENDBRANCH  40  41
ENDBRANCH  33  35
ENDBRANCH  32  33
ENDBRANCH  31  32
ENDBRANCH  30  31
ENDBRANCH  29  30
ENDBRANCH  28  29
ENDBRANCH   1  28
TORSDOF 25
ENDMDL
