MODEL 1
REMARK VINA RESULT:      -6.0      0.000      0.000
REMARK SMILES CC(=O)N[C@@H]1[C@H](Oc2ccc(C)c(C)c2)O[C@H]2COC(C)(C)O[C@@H]2[C@H]1O[C@@H](C)C(=O)OCCOCCOCCOCCOC(=O)c1ccc(-c2c3nc(c(-c4ccc(S(=O)(=O)[O-])cc4)c4ccc([nH]4)c(-c4ccc(S(=O)(=O)[O-])cc4)c4nc(c(-c5ccc(S(=O)(=O)[O-])cc5)c5ccc2[nH]5)C=C4)C=C3)cc1
REMARK SMILES IDX 36 1 35 2 34 3 33 4 32 5 31 6 29 7 30 8 27 9 28 10 26 11
REMARK SMILES IDX 25 12 5 13 6 14 16 15 24 16 17 17 23 18 18 19 20 20 19 21
REMARK SMILES IDX 21 22 22 23 4 24 1 25 2 26 3 27 7 29 8 30 9 31 15 32 10 33
REMARK SMILES IDX 13 34 11 35 14 36 12 37 37 38 38 39 39 40 40 41 41 42 42 43
REMARK SMILES IDX 43 44 44 45 45 46 46 47 47 48 105 49 48 50 104 51 49 52
REMARK SMILES IDX 50 53 51 54 98 55 52 56 103 57 97 58 99 59 53 60 102 61
REMARK SMILES IDX 96 62 95 63 54 65 84 66 65 67 83 68 66 69 69 70 82 71 100 72
REMARK SMILES IDX 67 73 68 74 81 76 101 77 70 78 55 79 56 80 64 81 57 82 63 83
REMARK SMILES IDX 58 84 59 85 60 86 61 87 62 88 85 89 86 90 94 91 87 92 93 93
REMARK SMILES IDX 88 94 89 95 90 96 91 97 92 98 71 99 72 100 80 101 73 102
REMARK SMILES IDX 79 103 74 104 75 105 76 106 77 107 78 108
REMARK H PARENT 4 28 99 64 69 75
REMARK Flexibility Score: inf
ROOT
ATOM      1  C   UNL A   1      51.539  27.265  27.134  1.00  0.00     0.188 C 
ENDROOT
BRANCH   1   2
ATOM      2  C   UNL A   1      51.743  25.747  27.252  1.00  0.00     0.188 C 
BRANCH   2   3
ATOM      3  O   UNL A   1      50.521  25.014  27.278  1.00  0.00    -0.376 OA
BRANCH   3   4
ATOM      4  C   UNL A   1      49.327  25.775  27.191  1.00  0.00     0.202 C 
BRANCH   4   5
ATOM      5  C   UNL A   1      48.097  24.962  26.788  1.00  0.00     0.261 C 
BRANCH   5   6
ATOM      6  O   UNL A   1      46.885  25.455  27.370  1.00  0.00    -0.461 OA
BRANCH   6   7
ATOM      7  C   UNL A   1      46.061  26.265  26.653  1.00  0.00     0.335 C 
ATOM      8  O   UNL A   1      45.799  26.113  25.467  1.00  0.00    -0.249 OA
BRANCH   7   9
ATOM      9  C   UNL A   1      45.422  27.331  27.589  1.00  0.00     0.225 C 
ATOM     10  C   UNL A   1      46.385  28.448  27.982  1.00  0.00     0.051 C 
BRANCH   9  11
ATOM     11  O   UNL A   1      44.597  26.876  28.665  1.00  0.00    -0.358 OA
BRANCH  11  12
ATOM     12  C   UNL A   1      43.166  26.814  28.522  1.00  0.00     0.180 C 
ATOM     13  C   UNL A   1      42.637  28.281  28.420  1.00  0.00     0.182 C 
ATOM     14  C   UNL A   1      41.088  28.330  28.195  1.00  0.00     0.333 C 
ATOM     15  O   UNL A   1      40.677  27.463  27.123  1.00  0.00    -0.332 OA
ATOM     16  C   UNL A   1      42.663  26.003  27.304  1.00  0.00     0.184 C 
ATOM     17  C   UNL A   1      41.150  26.131  27.232  1.00  0.00     0.180 C 
ATOM     18  O   UNL A   1      43.011  24.631  27.496  1.00  0.00    -0.342 OA
ATOM     19  C   UNL A   1      40.660  25.245  26.103  1.00  0.00     0.198 C 
ATOM     20  C   UNL A   1      42.353  23.659  26.679  1.00  0.00     0.163 C 
ATOM     21  O   UNL A   1      40.969  23.899  26.449  1.00  0.00    -0.348 OA
ATOM     22  C   UNL A   1      42.437  22.371  27.502  1.00  0.00     0.075 C 
ATOM     23  C   UNL A   1      43.073  23.444  25.354  1.00  0.00     0.075 C 
BRANCH  13  24
ATOM     24  N   UNL A   1      43.090  29.134  29.532  1.00  0.00    -0.345 N 
ATOM     25  C   UNL A   1      43.714  31.109  28.184  1.00  0.00     0.114 C 
ATOM     26  C   UNL A   1      43.503  30.431  29.509  1.00  0.00     0.217 C 
ATOM     27  O   UNL A   1      43.740  31.005  30.571  1.00  0.00    -0.275 OA
ATOM     28  H   UNL A   1      43.095  28.705  30.418  1.00  0.00     0.164 HD
ENDBRANCH  13  24
BRANCH  14  29
ATOM     29  O   UNL A   1      40.251  28.369  29.389  1.00  0.00    -0.463 OA
BRANCH  29  30
ATOM     30  C   UNL A   1      39.366  29.399  29.476  1.00  0.00     0.123 A 
ATOM     31  C   UNL A   1      38.091  29.262  28.948  1.00  0.00     0.047 A 
ATOM     32  C   UNL A   1      39.740  30.596  30.074  1.00  0.00     0.050 A 
ATOM     33  C   UNL A   1      37.322  30.401  28.725  1.00  0.00     0.007 A 
ATOM     34  C   UNL A   1      38.977  31.759  29.859  1.00  0.00    -0.045 A 
ATOM     35  C   UNL A   1      37.804  31.669  29.083  1.00  0.00    -0.048 A 
ATOM     36  C   UNL A   1      39.538  33.061  30.366  1.00  0.00     0.045 C 
ATOM     37  C   UNL A   1      37.054  32.883  28.610  1.00  0.00     0.044 C 
ENDBRANCH  29  30
ENDBRANCH  14  29
ENDBRANCH  11  12
ENDBRANCH   9  11
ENDBRANCH   7   9
ENDBRANCH   6   7
ENDBRANCH   5   6
ENDBRANCH   4   5
ENDBRANCH   3   4
ENDBRANCH   2   3
ENDBRANCH   1   2
BRANCH   1  38
ATOM     38  O   UNL A   1      52.629  28.080  26.736  1.00  0.00    -0.377 OA
BRANCH  38  39
ATOM     39  C   UNL A   1      52.394  28.977  25.665  1.00  0.00     0.188 C 
BRANCH  39  40
ATOM     40  C   UNL A   1      53.675  29.466  24.959  1.00  0.00     0.188 C 
BRANCH  40  41
ATOM     41  O   UNL A   1      53.654  30.028  23.650  1.00  0.00    -0.376 OA
BRANCH  41  42
ATOM     42  C   UNL A   1      52.547  30.792  23.203  1.00  0.00     0.202 C 
BRANCH  42  43
ATOM     43  C   UNL A   1      52.290  32.189  23.789  1.00  0.00     0.261 C 
BRANCH  43  44
ATOM     44  O   UNL A   1      51.277  32.283  24.798  1.00  0.00    -0.460 OA
BRANCH  44  45
ATOM     45  C   UNL A   1      51.671  32.902  25.937  1.00  0.00     0.338 C 
ATOM     46  O   UNL A   1      52.536  33.747  26.060  1.00  0.00    -0.246 OA
BRANCH  45  47
ATOM     47  C   UNL A   1      50.795  32.475  27.046  1.00  0.00     0.060 A 
ATOM     48  C   UNL A   1      49.667  31.706  26.738  1.00  0.00     0.016 A 
ATOM     49  C   UNL A   1      51.023  32.913  28.353  1.00  0.00     0.016 A 
ATOM     50  C   UNL A   1      48.738  31.404  27.732  1.00  0.00     0.010 A 
ATOM     51  C   UNL A   1      50.076  32.632  29.344  1.00  0.00     0.010 A 
ATOM     52  C   UNL A   1      48.912  31.911  29.025  1.00  0.00    -0.014 A 
BRANCH  52  53
ATOM     53  C   UNL A   1      47.770  31.875  29.968  1.00  0.00     0.031 A 
ATOM     54  C   UNL A   1      46.776  33.007  29.932  1.00  0.00     0.074 A 
ATOM     55  C   UNL A   1      47.584  30.836  30.800  1.00  0.00     0.049 A 
ATOM     56  N   UNL A   1      45.703  33.190  30.655  1.00  0.00    -0.248 NA
ATOM     57  C   UNL A   1      47.026  34.070  28.944  1.00  0.00     0.031 C 
ATOM     58  C   UNL A   1      48.444  29.656  30.889  1.00  0.00     0.029 A 
ATOM     59  N   UNL A   1      46.602  30.610  31.731  1.00  0.00    -0.354 N 
ATOM     60  C   UNL A   1      45.151  34.388  30.214  1.00  0.00     0.074 A 
ATOM     61  C   UNL A   1      46.020  34.900  29.177  1.00  0.00     0.031 C 
ATOM     62  C   UNL A   1      47.951  28.831  31.830  1.00  0.00     0.029 A 
ATOM     63  C   UNL A   1      46.762  29.438  32.429  1.00  0.00     0.049 A 
ATOM     64  H   UNL A   1      45.852  31.231  31.884  1.00  0.00     0.167 HD
ATOM     65  C   UNL A   1      44.021  35.006  30.630  1.00  0.00     0.031 A 
ATOM     66  C   UNL A   1      46.043  28.926  33.448  1.00  0.00     0.031 A 
ATOM     67  C   UNL A   1      43.169  34.510  31.676  1.00  0.00     0.049 A 
ATOM     68  C   UNL A   1      44.841  29.678  33.957  1.00  0.00     0.074 A 
ATOM     69  C   UNL A   1      42.001  35.065  32.171  1.00  0.00     0.029 A 
ATOM     70  N   UNL A   1      43.399  33.349  32.396  1.00  0.00    -0.354 N 
ATOM     71  N   UNL A   1      44.322  30.801  33.520  1.00  0.00    -0.248 NA
ATOM     72  C   UNL A   1      44.125  29.090  35.100  1.00  0.00     0.031 C 
ATOM     73  C   UNL A   1      41.552  34.263  33.225  1.00  0.00     0.029 A 
ATOM     74  C   UNL A   1      42.410  33.182  33.351  1.00  0.00     0.049 A 
ATOM     75  H   UNL A   1      44.153  32.732  32.251  1.00  0.00     0.167 HD
ATOM     76  C   UNL A   1      43.210  31.044  34.319  1.00  0.00     0.074 A 
ATOM     77  C   UNL A   1      43.122  29.944  35.258  1.00  0.00     0.031 C 
ATOM     78  C   UNL A   1      42.340  32.083  34.281  1.00  0.00     0.031 A 
BRANCH  65  79
ATOM     79  C   UNL A   1      43.668  36.312  29.974  1.00  0.00    -0.014 A 
ATOM     80  C   UNL A   1      44.199  37.527  30.444  1.00  0.00     0.010 A 
ATOM     81  C   UNL A   1      42.813  36.322  28.858  1.00  0.00     0.010 A 
ATOM     82  C   UNL A   1      43.849  38.734  29.831  1.00  0.00     0.020 A 
ATOM     83  C   UNL A   1      42.479  37.525  28.229  1.00  0.00     0.020 A 
ATOM     84  C   UNL A   1      42.986  38.725  28.730  1.00  0.00     0.054 A 
BRANCH  84  85
ATOM     85  S   UNL A   1      42.561  40.302  27.943  1.00  0.00     0.124 S 
ATOM     86  O   UNL A   1      42.610  39.953  26.525  1.00  0.00    -0.237 OA
ATOM     87  O   UNL A   1      41.228  40.579  28.475  1.00  0.00    -0.237 OA
ATOM     88  O   UNL A   1      43.610  41.212  28.396  1.00  0.00    -0.744 OA
ENDBRANCH  84  85
ENDBRANCH  65  79
BRANCH  66  89
ATOM     89  C   UNL A   1      46.460  27.644  34.077  1.00  0.00    -0.014 A 
ATOM     90  C   UNL A   1      47.361  27.632  35.156  1.00  0.00     0.010 A 
ATOM     91  C   UNL A   1      45.955  26.423  33.593  1.00  0.00     0.010 A 
ATOM     92  C   UNL A   1      47.755  26.421  35.735  1.00  0.00     0.020 A 
ATOM     93  C   UNL A   1      46.328  25.214  34.183  1.00  0.00     0.020 A 
ATOM     94  C   UNL A   1      47.234  25.220  35.246  1.00  0.00     0.054 A 
BRANCH  94  95
ATOM     95  S   UNL A   1      47.711  23.664  36.048  1.00  0.00     0.124 S 
ATOM     96  O   UNL A   1      47.530  23.983  37.461  1.00  0.00    -0.237 OA
ATOM     97  O   UNL A   1      46.756  22.712  35.487  1.00  0.00    -0.237 OA
ATOM     98  O   UNL A   1      49.095  23.470  35.620  1.00  0.00    -0.744 OA
ENDBRANCH  94  95
ENDBRANCH  66  89
BRANCH  78  99
ATOM     99  C   UNL A   1      41.200  32.074  35.264  1.00  0.00    -0.014 A 
ATOM    100  C   UNL A   1      41.190  32.938  36.373  1.00  0.00     0.010 A 
ATOM    101  C   UNL A   1      40.091  31.237  35.036  1.00  0.00     0.010 A 
ATOM    102  C   UNL A   1      40.102  32.947  37.251  1.00  0.00     0.020 A 
ATOM    103  C   UNL A   1      38.992  31.261  35.897  1.00  0.00     0.020 A 
ATOM    104  C   UNL A   1      39.010  32.108  37.008  1.00  0.00     0.054 A 
BRANCH 104 105
ATOM    105  S   UNL A   1      37.589  32.172  38.133  1.00  0.00     0.124 S 
ATOM    106  O   UNL A   1      36.711  33.123  37.460  1.00  0.00    -0.237 OA
ATOM    107  O   UNL A   1      37.124  30.786  38.144  1.00  0.00    -0.237 OA
ATOM    108  O   UNL A   1      38.165  32.638  39.393  1.00  0.00    -0.744 OA
ENDBRANCH 104 105
ENDBRANCH  78  99
ENDBRANCH  52  53
ENDBRANCH  45  47
ENDBRANCH  44  45
ENDBRANCH  43  44
ENDBRANCH  42  43
ENDBRANCH  41  42
ENDBRANCH  40  41
ENDBRANCH  39  40
ENDBRANCH  38  39
ENDBRANCH   1  38
TORSDOF 28
ENDMDL
MODEL 2
REMARK VINA RESULT:      -5.1      4.214     11.549
REMARK SMILES CC(=O)N[C@@H]1[C@H](Oc2ccc(C)c(C)c2)O[C@H]2COC(C)(C)O[C@@H]2[C@H]1O[C@@H](C)C(=O)OCCOCCOCCOCCOC(=O)c1ccc(-c2c3nc(c(-c4ccc(S(=O)(=O)[O-])cc4)c4ccc([nH]4)c(-c4ccc(S(=O)(=O)[O-])cc4)c4nc(c(-c5ccc(S(=O)(=O)[O-])cc5)c5ccc2[nH]5)C=C4)C=C3)cc1
REMARK SMILES IDX 36 1 35 2 34 3 33 4 32 5 31 6 29 7 30 8 27 9 28 10 26 11
REMARK SMILES IDX 25 12 5 13 6 14 16 15 24 16 17 17 23 18 18 19 20 20 19 21
REMARK SMILES IDX 21 22 22 23 4 24 1 25 2 26 3 27 7 29 8 30 9 31 15 32 10 33
REMARK SMILES IDX 13 34 11 35 14 36 12 37 37 38 38 39 39 40 40 41 41 42 42 43
REMARK SMILES IDX 43 44 44 45 45 46 46 47 47 48 105 49 48 50 104 51 49 52
REMARK SMILES IDX 50 53 51 54 98 55 52 56 103 57 97 58 99 59 53 60 102 61
REMARK SMILES IDX 96 62 95 63 54 65 84 66 65 67 83 68 66 69 69 70 82 71 100 72
REMARK SMILES IDX 67 73 68 74 81 76 101 77 70 78 55 79 56 80 64 81 57 82 63 83
REMARK SMILES IDX 58 84 59 85 60 86 61 87 62 88 85 89 86 90 94 91 87 92 93 93
REMARK SMILES IDX 88 94 89 95 90 96 91 97 92 98 71 99 72 100 80 101 73 102
REMARK SMILES IDX 79 103 74 104 75 105 76 106 77 107 78 108
REMARK H PARENT 4 28 99 64 69 75
REMARK Flexibility Score: inf
ROOT
ATOM      1  C   UNL A   1      48.853  40.494  33.476  1.00  0.00     0.188 C 
ENDROOT
BRANCH   1   2
ATOM      2  C   UNL A   1      50.026  39.787  32.781  1.00  0.00     0.188 C 
BRANCH   2   3
ATOM      3  O   UNL A   1      50.214  40.202  31.430  1.00  0.00    -0.376 OA
BRANCH   3   4
ATOM      4  C   UNL A   1      51.554  40.250  30.966  1.00  0.00     0.202 C 
BRANCH   4   5
ATOM      5  C   UNL A   1      51.685  40.327  29.446  1.00  0.00     0.261 C 
BRANCH   5   6
ATOM      6  O   UNL A   1      52.924  40.905  29.020  1.00  0.00    -0.461 OA
BRANCH   6   7
ATOM      7  C   UNL A   1      53.631  40.339  28.005  1.00  0.00     0.335 C 
ATOM      8  O   UNL A   1      54.610  40.848  27.474  1.00  0.00    -0.249 OA
BRANCH   7   9
ATOM      9  C   UNL A   1      53.079  38.915  27.705  1.00  0.00     0.225 C 
ATOM     10  C   UNL A   1      54.019  37.796  28.147  1.00  0.00     0.051 C 
BRANCH   9  11
ATOM     11  O   UNL A   1      52.464  38.685  26.435  1.00  0.00    -0.358 OA
BRANCH  11  12
ATOM     12  C   UNL A   1      52.152  37.349  25.998  1.00  0.00     0.180 C 
ATOM     13  C   UNL A   1      50.598  37.236  25.890  1.00  0.00     0.182 C 
ATOM     14  C   UNL A   1      50.148  35.834  25.357  1.00  0.00     0.333 C 
ATOM     15  O   UNL A   1      50.865  35.461  24.166  1.00  0.00    -0.332 OA
ATOM     16  C   UNL A   1      52.790  36.934  24.650  1.00  0.00     0.184 C 
ATOM     17  C   UNL A   1      52.275  35.554  24.278  1.00  0.00     0.180 C 
ATOM     18  O   UNL A   1      54.208  36.881  24.815  1.00  0.00    -0.342 OA
ATOM     19  C   UNL A   1      52.990  35.114  23.015  1.00  0.00     0.198 C 
ATOM     20  C   UNL A   1      54.966  36.194  23.815  1.00  0.00     0.163 C 
ATOM     21  O   UNL A   1      54.374  34.997  23.324  1.00  0.00    -0.348 OA
ATOM     22  C   UNL A   1      56.244  35.776  24.548  1.00  0.00     0.075 C 
ATOM     23  C   UNL A   1      55.341  37.106  22.654  1.00  0.00     0.075 C 
BRANCH  13  24
ATOM     24  N   UNL A   1      49.905  37.636  27.128  1.00  0.00    -0.345 N 
ATOM     25  C   UNL A   1      47.885  38.586  26.069  1.00  0.00     0.114 C 
ATOM     26  C   UNL A   1      48.661  38.166  27.285  1.00  0.00     0.217 C 
ATOM     27  O   UNL A   1      48.219  38.332  28.421  1.00  0.00    -0.275 OA
ATOM     28  H   UNL A   1      50.416  37.502  27.959  1.00  0.00     0.164 HD
ENDBRANCH  13  24
BRANCH  14  29
ATOM     29  O   UNL A   1      49.912  34.796  26.353  1.00  0.00    -0.463 OA
BRANCH  29  30
ATOM     30  C   UNL A   1      48.742  34.109  26.248  1.00  0.00     0.123 A 
ATOM     31  C   UNL A   1      47.606  34.746  25.771  1.00  0.00     0.047 A 
ATOM     32  C   UNL A   1      48.675  32.775  26.635  1.00  0.00     0.050 A 
ATOM     33  C   UNL A   1      46.360  34.165  25.989  1.00  0.00     0.007 A 
ATOM     34  C   UNL A   1      47.424  32.171  26.862  1.00  0.00    -0.045 A 
ATOM     35  C   UNL A   1      46.254  32.921  26.631  1.00  0.00    -0.048 A 
ATOM     36  C   UNL A   1      47.420  30.793  27.468  1.00  0.00     0.045 C 
ATOM     37  C   UNL A   1      44.894  32.447  27.058  1.00  0.00     0.044 C 
ENDBRANCH  29  30
ENDBRANCH  14  29
ENDBRANCH  11  12
ENDBRANCH   9  11
ENDBRANCH   7   9
ENDBRANCH   6   7
ENDBRANCH   5   6
ENDBRANCH   4   5
ENDBRANCH   3   4
ENDBRANCH   2   3
ENDBRANCH   1   2
BRANCH   1  38
ATOM     38  O   UNL A   1      48.365  41.713  32.939  1.00  0.00    -0.377 OA
BRANCH  38  39
ATOM     39  C   UNL A   1      47.155  41.644  32.205  1.00  0.00     0.188 C 
BRANCH  39  40
ATOM     40  C   UNL A   1      47.256  42.197  30.769  1.00  0.00     0.188 C 
BRANCH  40  41
ATOM     41  O   UNL A   1      46.341  43.163  30.260  1.00  0.00    -0.376 OA
BRANCH  41  42
ATOM     42  C   UNL A   1      45.114  42.766  29.672  1.00  0.00     0.202 C 
BRANCH  42  43
ATOM     43  C   UNL A   1      44.962  42.755  28.143  1.00  0.00     0.261 C 
BRANCH  43  44
ATOM     44  O   UNL A   1      45.294  41.532  27.476  1.00  0.00    -0.460 OA
BRANCH  44  45
ATOM     45  C   UNL A   1      44.252  40.687  27.292  1.00  0.00     0.338 C 
ATOM     46  O   UNL A   1      43.215  40.908  26.698  1.00  0.00    -0.246 OA
BRANCH  45  47
ATOM     47  C   UNL A   1      44.602  39.362  27.841  1.00  0.00     0.060 A 
ATOM     48  C   UNL A   1      44.495  38.249  26.999  1.00  0.00     0.016 A 
ATOM     49  C   UNL A   1      44.929  39.205  29.191  1.00  0.00     0.016 A 
ATOM     50  C   UNL A   1      44.675  36.967  27.514  1.00  0.00     0.010 A 
ATOM     51  C   UNL A   1      45.083  37.916  29.712  1.00  0.00     0.010 A 
ATOM     52  C   UNL A   1      44.916  36.793  28.882  1.00  0.00    -0.014 A 
BRANCH  52  53
ATOM     53  C   UNL A   1      44.767  35.441  29.470  1.00  0.00     0.031 A 
ATOM     54  C   UNL A   1      46.015  34.652  29.772  1.00  0.00     0.074 A 
ATOM     55  C   UNL A   1      43.558  34.943  29.780  1.00  0.00     0.049 A 
ATOM     56  N   UNL A   1      46.134  33.456  30.286  1.00  0.00    -0.248 NA
ATOM     57  C   UNL A   1      47.298  35.303  29.458  1.00  0.00     0.031 C 
ATOM     58  C   UNL A   1      42.282  35.632  29.587  1.00  0.00     0.029 A 
ATOM     59  N   UNL A   1      43.211  33.735  30.328  1.00  0.00    -0.354 N 
ATOM     60  C   UNL A   1      47.500  33.209  30.354  1.00  0.00     0.074 A 
ATOM     61  C   UNL A   1      48.169  34.369  29.807  1.00  0.00     0.031 C 
ATOM     62  C   UNL A   1      41.288  34.830  30.008  1.00  0.00     0.029 A 
ATOM     63  C   UNL A   1      41.856  33.562  30.470  1.00  0.00     0.049 A 
ATOM     64  H   UNL A   1      43.872  33.055  30.595  1.00  0.00     0.167 HD
ATOM     65  C   UNL A   1      48.143  32.118  30.831  1.00  0.00     0.031 A 
ATOM     66  C   UNL A   1      41.154  32.495  30.901  1.00  0.00     0.031 A 
ATOM     67  C   UNL A   1      47.478  30.955  31.354  1.00  0.00     0.049 A 
ATOM     68  C   UNL A   1      41.888  31.255  31.342  1.00  0.00     0.074 A 
ATOM     69  C   UNL A   1      48.043  29.797  31.861  1.00  0.00     0.029 A 
ATOM     70  N   UNL A   1      46.104  30.798  31.426  1.00  0.00    -0.354 N 
ATOM     71  N   UNL A   1      43.180  31.042  31.415  1.00  0.00    -0.248 NA
ATOM     72  C   UNL A   1      41.065  30.110  31.760  1.00  0.00     0.031 C 
ATOM     73  C   UNL A   1      47.006  28.919  32.193  1.00  0.00     0.029 A 
ATOM     74  C   UNL A   1      45.798  29.551  31.943  1.00  0.00     0.049 A 
ATOM     75  H   UNL A   1      45.442  31.473  31.150  1.00  0.00     0.167 HD
ATOM     76  C   UNL A   1      43.326  29.748  31.904  1.00  0.00     0.074 A 
ATOM     77  C   UNL A   1      41.991  29.231  32.124  1.00  0.00     0.031 C 
ATOM     78  C   UNL A   1      44.463  29.050  32.151  1.00  0.00     0.031 A 
BRANCH  65  79
ATOM     79  C   UNL A   1      49.646  32.120  30.769  1.00  0.00    -0.014 A 
ATOM     80  C   UNL A   1      50.326  31.630  29.640  1.00  0.00     0.010 A 
ATOM     81  C   UNL A   1      50.386  32.642  31.844  1.00  0.00     0.010 A 
ATOM     82  C   UNL A   1      51.724  31.627  29.605  1.00  0.00     0.020 A 
ATOM     83  C   UNL A   1      51.783  32.662  31.803  1.00  0.00     0.020 A 
ATOM     84  C   UNL A   1      52.443  32.137  30.690  1.00  0.00     0.054 A 
BRANCH  84  85
ATOM     85  S   UNL A   1      54.255  32.137  30.613  1.00  0.00     0.124 S 
ATOM     86  O   UNL A   1      54.605  32.989  31.747  1.00  0.00    -0.237 OA
ATOM     87  O   UNL A   1      54.584  30.722  30.767  1.00  0.00    -0.237 OA
ATOM     88  O   UNL A   1      54.547  32.701  29.297  1.00  0.00    -0.744 OA
ENDBRANCH  84  85
ENDBRANCH  65  79
BRANCH  66  89
ATOM     89  C   UNL A   1      39.667  32.542  30.911  1.00  0.00    -0.014 A 
ATOM     90  C   UNL A   1      38.924  31.996  29.850  1.00  0.00     0.010 A 
ATOM     91  C   UNL A   1      38.987  33.137  31.989  1.00  0.00     0.010 A 
ATOM     92  C   UNL A   1      37.527  32.054  29.862  1.00  0.00     0.020 A 
ATOM     93  C   UNL A   1      37.590  33.175  32.016  1.00  0.00     0.020 A 
ATOM     94  C   UNL A   1      36.869  32.641  30.947  1.00  0.00     0.054 A 
BRANCH  94  95
ATOM     95  S   UNL A   1      35.054  32.652  30.974  1.00  0.00     0.124 S 
ATOM     96  O   UNL A   1      34.762  34.078  31.070  1.00  0.00    -0.237 OA
ATOM     97  O   UNL A   1      34.715  32.020  29.702  1.00  0.00    -0.237 OA
ATOM     98  O   UNL A   1      34.727  31.861  32.160  1.00  0.00    -0.744 OA
ENDBRANCH  94  95
ENDBRANCH  66  89
BRANCH  78  99
ATOM     99  C   UNL A   1      44.319  27.660  32.709  1.00  0.00    -0.014 A 
ATOM    100  C   UNL A   1      44.473  26.528  31.889  1.00  0.00     0.010 A 
ATOM    101  C   UNL A   1      44.095  27.483  34.087  1.00  0.00     0.010 A 
ATOM    102  C   UNL A   1      44.379  25.244  32.433  1.00  0.00     0.020 A 
ATOM    103  C   UNL A   1      44.025  26.202  34.638  1.00  0.00     0.020 A 
ATOM    104  C   UNL A   1      44.156  25.089  33.805  1.00  0.00     0.054 A 
BRANCH 104 105
ATOM    105  S   UNL A   1      44.087  23.413  34.496  1.00  0.00     0.124 S 
ATOM    106  O   UNL A   1      42.669  23.091  34.373  1.00  0.00    -0.237 OA
ATOM    107  O   UNL A   1      44.981  22.664  33.616  1.00  0.00    -0.237 OA
ATOM    108  O   UNL A   1      44.571  23.583  35.865  1.00  0.00    -0.744 OA
ENDBRANCH 104 105
ENDBRANCH  78  99
ENDBRANCH  52  53
ENDBRANCH  45  47
ENDBRANCH  44  45
ENDBRANCH  43  44
ENDBRANCH  42  43
ENDBRANCH  41  42
ENDBRANCH  40  41
ENDBRANCH  39  40
ENDBRANCH  38  39
ENDBRANCH   1  38
TORSDOF 28
ENDMDL
MODEL 3
REMARK VINA RESULT:      -4.9      4.293     10.268
REMARK SMILES CC(=O)N[C@@H]1[C@H](Oc2ccc(C)c(C)c2)O[C@H]2COC(C)(C)O[C@@H]2[C@H]1O[C@@H](C)C(=O)OCCOCCOCCOCCOC(=O)c1ccc(-c2c3nc(c(-c4ccc(S(=O)(=O)[O-])cc4)c4ccc([nH]4)c(-c4ccc(S(=O)(=O)[O-])cc4)c4nc(c(-c5ccc(S(=O)(=O)[O-])cc5)c5ccc2[nH]5)C=C4)C=C3)cc1
REMARK SMILES IDX 36 1 35 2 34 3 33 4 32 5 31 6 29 7 30 8 27 9 28 10 26 11
REMARK SMILES IDX 25 12 5 13 6 14 16 15 24 16 17 17 23 18 18 19 20 20 19 21
REMARK SMILES IDX 21 22 22 23 4 24 1 25 2 26 3 27 7 29 8 30 9 31 15 32 10 33
REMARK SMILES IDX 13 34 11 35 14 36 12 37 37 38 38 39 39 40 40 41 41 42 42 43
REMARK SMILES IDX 43 44 44 45 45 46 46 47 47 48 105 49 48 50 104 51 49 52
REMARK SMILES IDX 50 53 51 54 98 55 52 56 103 57 97 58 99 59 53 60 102 61
REMARK SMILES IDX 96 62 95 63 54 65 84 66 65 67 83 68 66 69 69 70 82 71 100 72
REMARK SMILES IDX 67 73 68 74 81 76 101 77 70 78 55 79 56 80 64 81 57 82 63 83
REMARK SMILES IDX 58 84 59 85 60 86 61 87 62 88 85 89 86 90 94 91 87 92 93 93
REMARK SMILES IDX 88 94 89 95 90 96 91 97 92 98 71 99 72 100 80 101 73 102
REMARK SMILES IDX 79 103 74 104 75 105 76 106 77 107 78 108
REMARK H PARENT 4 28 99 64 69 75
REMARK Flexibility Score: inf
ROOT
ATOM      1  C   UNL A   1      41.521  34.306  29.884  1.00  0.00     0.188 C 
ENDROOT
BRANCH   1   2
ATOM      2  C   UNL A   1      40.657  34.269  31.152  1.00  0.00     0.188 C 
BRANCH   2   3
ATOM      3  O   UNL A   1      41.408  34.441  32.352  1.00  0.00    -0.376 OA
BRANCH   3   4
ATOM      4  C   UNL A   1      40.784  34.020  33.554  1.00  0.00     0.202 C 
BRANCH   4   5
ATOM      5  C   UNL A   1      39.437  33.330  33.348  1.00  0.00     0.261 C 
BRANCH   5   6
ATOM      6  O   UNL A   1      39.482  31.924  33.618  1.00  0.00    -0.461 OA
BRANCH   6   7
ATOM      7  C   UNL A   1      38.355  31.262  33.996  1.00  0.00     0.335 C 
ATOM      8  O   UNL A   1      37.879  31.291  35.123  1.00  0.00    -0.249 OA
BRANCH   7   9
ATOM      9  C   UNL A   1      37.711  30.567  32.762  1.00  0.00     0.225 C 
ATOM     10  C   UNL A   1      37.764  29.043  32.829  1.00  0.00     0.051 C 
BRANCH   9  11
ATOM     11  O   UNL A   1      37.995  31.098  31.465  1.00  0.00    -0.358 OA
BRANCH  11  12
ATOM     12  C   UNL A   1      37.605  30.387  30.275  1.00  0.00     0.180 C 
ATOM     13  C   UNL A   1      36.430  31.178  29.615  1.00  0.00     0.182 C 
ATOM     14  C   UNL A   1      35.968  30.524  28.269  1.00  0.00     0.333 C 
ATOM     15  O   UNL A   1      37.081  30.255  27.398  1.00  0.00    -0.332 OA
ATOM     16  C   UNL A   1      38.733  30.182  29.235  1.00  0.00     0.184 C 
ATOM     17  C   UNL A   1      38.135  29.525  28.001  1.00  0.00     0.180 C 
ATOM     18  O   UNL A   1      39.720  29.318  29.798  1.00  0.00    -0.342 OA
ATOM     19  C   UNL A   1      39.267  29.230  27.036  1.00  0.00     0.198 C 
ATOM     20  C   UNL A   1      40.664  28.720  28.906  1.00  0.00     0.163 C 
ATOM     21  O   UNL A   1      40.129  28.286  27.661  1.00  0.00    -0.348 OA
ATOM     22  C   UNL A   1      41.118  27.458  29.646  1.00  0.00     0.075 C 
ATOM     23  C   UNL A   1      41.875  29.614  28.671  1.00  0.00     0.075 C 
BRANCH  13  24
ATOM     24  N   UNL A   1      35.319  31.440  30.546  1.00  0.00    -0.345 N 
ATOM     25  C   UNL A   1      35.897  33.782  31.081  1.00  0.00     0.114 C 
ATOM     26  C   UNL A   1      34.973  32.599  31.170  1.00  0.00     0.217 C 
ATOM     27  O   UNL A   1      33.936  32.639  31.831  1.00  0.00    -0.275 OA
ATOM     28  H   UNL A   1      34.745  30.665  30.747  1.00  0.00     0.164 HD
ENDBRANCH  13  24
BRANCH  14  29
ATOM     29  O   UNL A   1      34.920  29.515  28.355  1.00  0.00    -0.463 OA
BRANCH  29  30
ATOM     30  C   UNL A   1      34.173  29.318  27.234  1.00  0.00     0.123 A 
ATOM     31  C   UNL A   1      33.358  30.335  26.759  1.00  0.00     0.047 A 
ATOM     32  C   UNL A   1      34.208  28.096  26.574  1.00  0.00     0.050 A 
ATOM     33  C   UNL A   1      32.353  30.029  25.845  1.00  0.00     0.007 A 
ATOM     34  C   UNL A   1      33.199  27.767  25.649  1.00  0.00    -0.045 A 
ATOM     35  C   UNL A   1      32.201  28.720  25.364  1.00  0.00    -0.048 A 
ATOM     36  C   UNL A   1      33.178  26.359  25.116  1.00  0.00     0.045 C 
ATOM     37  C   UNL A   1      30.967  28.385  24.574  1.00  0.00     0.044 C 
ENDBRANCH  29  30
ENDBRANCH  14  29
ENDBRANCH  11  12
ENDBRANCH   9  11
ENDBRANCH   7   9
ENDBRANCH   6   7
ENDBRANCH   5   6
ENDBRANCH   4   5
ENDBRANCH   3   4
ENDBRANCH   2   3
ENDBRANCH   1   2
BRANCH   1  38
ATOM     38  O   UNL A   1      42.721  35.063  29.887  1.00  0.00    -0.377 OA
BRANCH  38  39
ATOM     39  C   UNL A   1      42.915  35.951  28.801  1.00  0.00     0.188 C 
BRANCH  39  40
ATOM     40  C   UNL A   1      43.256  37.396  29.220  1.00  0.00     0.188 C 
BRANCH  40  41
ATOM     41  O   UNL A   1      44.570  37.784  29.609  1.00  0.00    -0.376 OA
BRANCH  41  42
ATOM     42  C   UNL A   1      44.863  39.129  29.948  1.00  0.00     0.202 C 
BRANCH  42  43
ATOM     43  C   UNL A   1      44.568  39.647  31.364  1.00  0.00     0.261 C 
BRANCH  43  44
ATOM     44  O   UNL A   1      44.213  38.663  32.344  1.00  0.00    -0.460 OA
BRANCH  44  45
ATOM     45  C   UNL A   1      45.221  38.301  33.172  1.00  0.00     0.338 C 
ATOM     46  O   UNL A   1      45.756  38.977  34.029  1.00  0.00    -0.246 OA
BRANCH  45  47
ATOM     47  C   UNL A   1      45.528  36.872  32.963  1.00  0.00     0.060 A 
ATOM     48  C   UNL A   1      44.502  35.941  33.158  1.00  0.00     0.016 A 
ATOM     49  C   UNL A   1      46.830  36.449  32.681  1.00  0.00     0.016 A 
ATOM     50  C   UNL A   1      44.783  34.577  33.114  1.00  0.00     0.010 A 
ATOM     51  C   UNL A   1      47.115  35.080  32.663  1.00  0.00     0.010 A 
ATOM     52  C   UNL A   1      46.099  34.142  32.919  1.00  0.00    -0.014 A 
BRANCH  52  53
ATOM     53  C   UNL A   1      46.437  32.729  33.210  1.00  0.00     0.031 A 
ATOM     54  C   UNL A   1      46.940  32.383  34.587  1.00  0.00     0.074 A 
ATOM     55  C   UNL A   1      46.253  31.764  32.293  1.00  0.00     0.049 A 
ATOM     56  N   UNL A   1      47.294  31.222  35.072  1.00  0.00    -0.248 NA
ATOM     57  C   UNL A   1      47.049  33.495  35.546  1.00  0.00     0.031 C 
ATOM     58  C   UNL A   1      45.722  31.965  30.945  1.00  0.00     0.029 A 
ATOM     59  N   UNL A   1      46.493  30.416  32.364  1.00  0.00    -0.354 N 
ATOM     60  C   UNL A   1      47.672  31.462  36.388  1.00  0.00     0.074 A 
ATOM     61  C   UNL A   1      47.526  32.882  36.619  1.00  0.00     0.031 C 
ATOM     62  C   UNL A   1      45.680  30.778  30.314  1.00  0.00     0.029 A 
ATOM     63  C   UNL A   1      46.211  29.742  31.201  1.00  0.00     0.049 A 
ATOM     64  H   UNL A   1      46.836  29.972  33.174  1.00  0.00     0.167 HD
ATOM     65  C   UNL A   1      48.099  30.581  37.322  1.00  0.00     0.031 A 
ATOM     66  C   UNL A   1      46.382  28.444  30.883  1.00  0.00     0.031 A 
ATOM     67  C   UNL A   1      48.266  29.173  37.087  1.00  0.00     0.049 A 
ATOM     68  C   UNL A   1      46.946  27.497  31.911  1.00  0.00     0.074 A 
ATOM     69  C   UNL A   1      48.694  28.198  37.971  1.00  0.00     0.029 A 
ATOM     70  N   UNL A   1      48.024  28.542  35.878  1.00  0.00    -0.354 N 
ATOM     71  N   UNL A   1      47.284  27.736  33.156  1.00  0.00    -0.248 NA
ATOM     72  C   UNL A   1      47.151  26.103  31.489  1.00  0.00     0.031 C 
ATOM     73  C   UNL A   1      48.759  26.983  37.280  1.00  0.00     0.029 A 
ATOM     74  C   UNL A   1      48.319  27.194  35.982  1.00  0.00     0.049 A 
ATOM     75  H   UNL A   1      47.691  28.986  35.064  1.00  0.00     0.167 HD
ATOM     76  C   UNL A   1      47.723  26.521  33.671  1.00  0.00     0.074 A 
ATOM     77  C   UNL A   1      47.594  25.545  32.609  1.00  0.00     0.031 C 
ATOM     78  C   UNL A   1      48.190  26.236  34.912  1.00  0.00     0.031 A 
BRANCH  65  79
ATOM     79  C   UNL A   1      48.454  31.131  38.677  1.00  0.00    -0.014 A 
ATOM     80  C   UNL A   1      49.755  31.584  38.959  1.00  0.00     0.010 A 
ATOM     81  C   UNL A   1      47.466  31.217  39.673  1.00  0.00     0.010 A 
ATOM     82  C   UNL A   1      50.071  32.079  40.228  1.00  0.00     0.020 A 
ATOM     83  C   UNL A   1      47.772  31.732  40.936  1.00  0.00     0.020 A 
ATOM     84  C   UNL A   1      49.078  32.144  41.210  1.00  0.00     0.054 A 
BRANCH  84  85
ATOM     85  S   UNL A   1      49.509  32.805  42.843  1.00  0.00     0.124 S 
ATOM     86  O   UNL A   1      50.616  33.702  42.522  1.00  0.00    -0.237 OA
ATOM     87  O   UNL A   1      48.272  33.462  43.261  1.00  0.00    -0.237 OA
ATOM     88  O   UNL A   1      49.872  31.619  43.614  1.00  0.00    -0.744 OA
ENDBRANCH  84  85
ENDBRANCH  65  79
BRANCH  66  89
ATOM     89  C   UNL A   1      46.042  27.965  29.516  1.00  0.00    -0.014 A 
ATOM     90  C   UNL A   1      46.957  28.100  28.458  1.00  0.00     0.010 A 
ATOM     91  C   UNL A   1      44.791  27.370  29.268  1.00  0.00     0.010 A 
ATOM     92  C   UNL A   1      46.625  27.657  27.174  1.00  0.00     0.020 A 
ATOM     93  C   UNL A   1      44.464  26.905  27.992  1.00  0.00     0.020 A 
ATOM     94  C   UNL A   1      45.381  27.060  26.950  1.00  0.00     0.054 A 
BRANCH  94  95
ATOM     95  S   UNL A   1      44.991  26.437  25.291  1.00  0.00     0.124 S 
ATOM     96  O   UNL A   1      44.471  25.104  25.582  1.00  0.00    -0.237 OA
ATOM     97  O   UNL A   1      44.011  27.407  24.810  1.00  0.00    -0.237 OA
ATOM     98  O   UNL A   1      46.280  26.472  24.602  1.00  0.00    -0.744 OA
ENDBRANCH  94  95
ENDBRANCH  66  89
BRANCH  78  99
ATOM     99  C   UNL A   1      48.575  24.810  35.202  1.00  0.00    -0.014 A 
ATOM    100  C   UNL A   1      49.899  24.367  35.036  1.00  0.00     0.010 A 
ATOM    101  C   UNL A   1      47.612  23.920  35.714  1.00  0.00     0.010 A 
ATOM    102  C   UNL A   1      50.247  23.050  35.352  1.00  0.00     0.020 A 
ATOM    103  C   UNL A   1      47.962  22.612  36.054  1.00  0.00     0.020 A 
ATOM    104  C   UNL A   1      49.276  22.181  35.859  1.00  0.00     0.054 A 
BRANCH 104 105
ATOM    105  S   UNL A   1      49.762  20.492  36.308  1.00  0.00     0.124 S 
ATOM    106  O   UNL A   1      48.575  20.010  37.008  1.00  0.00    -0.237 OA
ATOM    107  O   UNL A   1      50.020  19.875  35.009  1.00  0.00    -0.237 OA
ATOM    108  O   UNL A   1      50.945  20.683  37.145  1.00  0.00    -0.744 OA
ENDBRANCH 104 105
ENDBRANCH  78  99
ENDBRANCH  52  53
ENDBRANCH  45  47
ENDBRANCH  44  45
ENDBRANCH  43  44
ENDBRANCH  42  43
ENDBRANCH  41  42
ENDBRANCH  40  41
ENDBRANCH  39  40
ENDBRANCH  38  39
ENDBRANCH   1  38
TORSDOF 28
ENDMDL
