MODEL 1
REMARK VINA RESULT:      -8.6      0.000      0.000
REMARK SMILES C[NH2+][C@]1(C(=O)OCCOCCOCCOCCOC(=O)c2ccc(-c3c4nc(c(-c5ccc(S(=O)(=O)[O-])cc5)c5ccc([nH]5)c(-c5ccc(S(=O)(=O)[O-])cc5)c5nc(c(-c6ccc(S(=O)(=O)[O-])cc6)c6ccc3[nH]6)C=C5)C=C4)cc2)CCC[C@@H](Sc2nccs2)C1
REMARK SMILES IDX 13 1 12 2 11 3 10 4 9 5 8 6 7 7 6 8 4 9 5 10 3 11 81 12
REMARK SMILES IDX 91 13 82 14 84 15 83 16 2 17 1 18 85 21 86 22 87 23 90 24
REMARK SMILES IDX 88 25 89 26 14 27 15 28 16 29 17 30 18 31 19 32 20 33 21 34
REMARK SMILES IDX 22 35 80 36 23 37 79 38 24 39 25 40 26 41 73 42 27 43 78 44
REMARK SMILES IDX 72 45 74 46 28 47 77 48 71 49 70 50 29 52 59 53 40 54 58 55
REMARK SMILES IDX 41 56 44 57 57 58 75 59 42 60 43 61 56 63 76 64 45 65 30 66
REMARK SMILES IDX 31 67 39 68 32 69 38 70 33 71 34 72 35 73 36 74 37 75 60 76
REMARK SMILES IDX 61 77 69 78 62 79 68 80 63 81 64 82 65 83 66 84 67 85 46 86
REMARK SMILES IDX 47 87 55 88 48 89 54 90 49 91 50 92 51 93 52 94 53 95
REMARK H PARENT 2 19 2 20 74 51 44 62
REMARK Flexibility Score: inf
ROOT
ATOM      1  C   UNL A   1      31.405  28.111  25.459  1.00  0.00     0.188 C 
ENDROOT
BRANCH   1   2
ATOM      2  O   UNL A   1      30.436  27.278  24.844  1.00  0.00    -0.377 OA
BRANCH   2   3
ATOM      3  C   UNL A   1      29.805  27.848  23.720  1.00  0.00     0.188 C 
BRANCH   3   4
ATOM      4  C   UNL A   1      30.491  27.550  22.377  1.00  0.00     0.188 C 
BRANCH   4   5
ATOM      5  O   UNL A   1      31.906  27.463  22.267  1.00  0.00    -0.376 OA
BRANCH   5   6
ATOM      6  C   UNL A   1      32.538  26.233  21.947  1.00  0.00     0.202 C 
BRANCH   6   7
ATOM      7  C   UNL A   1      33.902  25.847  22.554  1.00  0.00     0.261 C 
BRANCH   7   8
ATOM      8  O   UNL A   1      34.275  24.462  22.512  1.00  0.00    -0.459 OA
BRANCH   8   9
ATOM      9  C   UNL A   1      33.418  23.652  21.839  1.00  0.00     0.368 C 
ATOM     10  O   UNL A   1      33.300  23.644  20.614  1.00  0.00    -0.245 OA
BRANCH   9  11
ATOM     11  C   UNL A   1      32.596  22.680  22.776  1.00  0.00     0.195 C 
ATOM     12  C   UNL A   1      32.446  21.278  22.150  1.00  0.00     0.081 C 
ATOM     13  C   UNL A   1      33.417  22.526  24.073  1.00  0.00     0.096 C 
ATOM     14  C   UNL A   1      31.906  20.161  23.034  1.00  0.00     0.008 C 
ATOM     15  C   UNL A   1      32.852  21.448  25.008  1.00  0.00     0.061 C 
ATOM     16  C   UNL A   1      32.678  20.078  24.339  1.00  0.00     0.015 C 
BRANCH  11  17
ATOM     17  N   UNL A   1      31.325  23.412  23.070  1.00  0.00    -0.335 N 
ATOM     18  C   UNL A   1      30.839  23.484  24.429  1.00  0.00     0.331 C 
ATOM     19  H   UNL A   1      31.456  24.372  22.751  1.00  0.00     0.347 HD
ATOM     20  H   UNL A   1      30.615  22.857  22.593  1.00  0.00     0.347 HD
ENDBRANCH  11  17
BRANCH  15  21
ATOM     21  S   UNL A   1      33.827  21.305  26.555  1.00  0.00    -0.092 SA
BRANCH  21  22
ATOM     22  C   UNL A   1      35.345  22.066  26.121  1.00  0.00     0.150 A 
ATOM     23  N   UNL A   1      35.574  23.341  26.339  1.00  0.00    -0.238 NA
ATOM     24  S   UNL A   1      36.613  21.202  25.351  1.00  0.00    -0.116 S 
ATOM     25  C   UNL A   1      36.845  23.665  25.903  1.00  0.00     0.124 A 
ATOM     26  C   UNL A   1      37.554  22.636  25.321  1.00  0.00     0.087 A 
ENDBRANCH  21  22
ENDBRANCH  15  21
ENDBRANCH   9  11
ENDBRANCH   8   9
ENDBRANCH   7   8
ENDBRANCH   6   7
ENDBRANCH   5   6
ENDBRANCH   4   5
ENDBRANCH   3   4
ENDBRANCH   2   3
ENDBRANCH   1   2
BRANCH   1  27
ATOM     27  C   UNL A   1      31.494  29.564  24.939  1.00  0.00     0.188 C 
BRANCH  27  28
ATOM     28  O   UNL A   1      30.967  30.550  25.822  1.00  0.00    -0.376 OA
BRANCH  28  29
ATOM     29  C   UNL A   1      31.849  31.445  26.485  1.00  0.00     0.202 C 
BRANCH  29  30
ATOM     30  C   UNL A   1      33.066  30.873  27.240  1.00  0.00     0.261 C 
BRANCH  30  31
ATOM     31  O   UNL A   1      34.290  31.613  27.140  1.00  0.00    -0.460 OA
BRANCH  31  32
ATOM     32  C   UNL A   1      34.740  32.209  28.268  1.00  0.00     0.338 C 
ATOM     33  O   UNL A   1      34.147  33.018  28.947  1.00  0.00    -0.246 OA
BRANCH  32  34
ATOM     34  C   UNL A   1      36.000  31.533  28.662  1.00  0.00     0.060 A 
ATOM     35  C   UNL A   1      35.942  30.183  29.032  1.00  0.00     0.016 A 
ATOM     36  C   UNL A   1      37.222  32.209  28.638  1.00  0.00     0.016 A 
ATOM     37  C   UNL A   1      37.104  29.513  29.415  1.00  0.00     0.010 A 
ATOM     38  C   UNL A   1      38.380  31.546  29.056  1.00  0.00     0.010 A 
ATOM     39  C   UNL A   1      38.317  30.206  29.482  1.00  0.00    -0.014 A 
BRANCH  39  40
ATOM     40  C   UNL A   1      39.454  29.603  30.216  1.00  0.00     0.031 A 
ATOM     41  C   UNL A   1      39.709  30.073  31.624  1.00  0.00     0.074 A 
ATOM     42  C   UNL A   1      40.216  28.637  29.673  1.00  0.00     0.049 A 
ATOM     43  N   UNL A   1      40.656  29.726  32.455  1.00  0.00    -0.248 NA
ATOM     44  C   UNL A   1      38.767  31.069  32.162  1.00  0.00     0.031 C 
ATOM     45  C   UNL A   1      40.029  28.055  28.345  1.00  0.00     0.029 A 
ATOM     46  N   UNL A   1      41.306  27.977  30.181  1.00  0.00    -0.354 N 
ATOM     47  C   UNL A   1      40.429  30.466  33.610  1.00  0.00     0.074 A 
ATOM     48  C   UNL A   1      39.277  31.303  33.362  1.00  0.00     0.031 C 
ATOM     49  C   UNL A   1      40.984  27.130  28.138  1.00  0.00     0.029 A 
ATOM     50  C   UNL A   1      41.868  27.082  29.303  1.00  0.00     0.049 A 
ATOM     51  H   UNL A   1      41.653  28.130  31.091  1.00  0.00     0.167 HD
ATOM     52  C   UNL A   1      41.115  30.446  34.777  1.00  0.00     0.031 A 
ATOM     53  C   UNL A   1      42.983  26.332  29.417  1.00  0.00     0.031 A 
ATOM     54  C   UNL A   1      42.273  29.627  35.013  1.00  0.00     0.049 A 
ATOM     55  C   UNL A   1      43.787  26.395  30.692  1.00  0.00     0.074 A 
ATOM     56  C   UNL A   1      43.039  29.532  36.160  1.00  0.00     0.029 A 
ATOM     57  N   UNL A   1      42.837  28.768  34.081  1.00  0.00    -0.354 N 
ATOM     58  N   UNL A   1      43.554  27.088  31.782  1.00  0.00    -0.248 NA
ATOM     59  C   UNL A   1      45.001  25.568  30.755  1.00  0.00     0.031 C 
ATOM     60  C   UNL A   1      44.106  28.668  35.901  1.00  0.00     0.029 A 
ATOM     61  C   UNL A   1      43.961  28.164  34.618  1.00  0.00     0.049 A 
ATOM     62  H   UNL A   1      42.490  28.613  33.173  1.00  0.00     0.167 HD
ATOM     63  C   UNL A   1      44.572  26.753  32.670  1.00  0.00     0.074 A 
ATOM     64  C   UNL A   1      45.414  25.788  31.995  1.00  0.00     0.031 C 
ATOM     65  C   UNL A   1      44.790  27.202  33.932  1.00  0.00     0.031 A 
BRANCH  52  66
ATOM     66  C   UNL A   1      40.653  31.373  35.871  1.00  0.00    -0.014 A 
ATOM     67  C   UNL A   1      41.530  32.297  36.467  1.00  0.00     0.010 A 
ATOM     68  C   UNL A   1      39.311  31.335  36.290  1.00  0.00     0.010 A 
ATOM     69  C   UNL A   1      41.081  33.141  37.487  1.00  0.00     0.020 A 
ATOM     70  C   UNL A   1      38.850  32.200  37.287  1.00  0.00     0.020 A 
ATOM     71  C   UNL A   1      39.744  33.086  37.890  1.00  0.00     0.054 A 
BRANCH  71  72
ATOM     72  S   UNL A   1      39.185  34.210  39.200  1.00  0.00     0.124 S 
ATOM     73  O   UNL A   1      39.007  35.462  38.467  1.00  0.00    -0.237 OA
ATOM     74  O   UNL A   1      37.955  33.573  39.663  1.00  0.00    -0.237 OA
ATOM     75  O   UNL A   1      40.287  34.203  40.158  1.00  0.00    -0.744 OA
ENDBRANCH  71  72
ENDBRANCH  52  66
BRANCH  53  76
ATOM     76  C   UNL A   1      43.427  25.478  28.279  1.00  0.00    -0.014 A 
ATOM     77  C   UNL A   1      43.067  24.121  28.211  1.00  0.00     0.010 A 
ATOM     78  C   UNL A   1      44.226  26.024  27.257  1.00  0.00     0.010 A 
ATOM     79  C   UNL A   1      43.512  23.322  27.152  1.00  0.00     0.020 A 
ATOM     80  C   UNL A   1      44.646  25.238  26.181  1.00  0.00     0.020 A 
ATOM     81  C   UNL A   1      44.296  23.887  26.141  1.00  0.00     0.054 A 
BRANCH  81  82
ATOM     82  S   UNL A   1      44.820  22.844  24.753  1.00  0.00     0.124 S 
ATOM     83  O   UNL A   1      43.566  22.642  24.035  1.00  0.00    -0.237 OA
ATOM     84  O   UNL A   1      45.805  23.688  24.083  1.00  0.00    -0.237 OA
ATOM     85  O   UNL A   1      45.366  21.656  25.406  1.00  0.00    -0.744 OA
ENDBRANCH  81  82
ENDBRANCH  53  76
BRANCH  65  86
ATOM     86  C   UNL A   1      45.958  26.625  34.690  1.00  0.00    -0.014 A 
ATOM     87  C   UNL A   1      45.832  25.451  35.455  1.00  0.00     0.010 A 
ATOM     88  C   UNL A   1      47.221  27.237  34.583  1.00  0.00     0.010 A 
ATOM     89  C   UNL A   1      46.939  24.920  36.123  1.00  0.00     0.020 A 
ATOM     90  C   UNL A   1      48.338  26.691  35.221  1.00  0.00     0.020 A 
ATOM     91  C   UNL A   1      48.186  25.543  36.000  1.00  0.00     0.054 A 
BRANCH  91  92
ATOM     92  S   UNL A   1      49.615  24.808  36.841  1.00  0.00     0.124 S 
ATOM     93  O   UNL A   1      50.685  25.737  36.490  1.00  0.00    -0.237 OA
ATOM     94  O   UNL A   1      49.203  24.823  38.243  1.00  0.00    -0.237 OA
ATOM     95  O   UNL A   1      49.724  23.478  36.244  1.00  0.00    -0.744 OA
ENDBRANCH  91  92
ENDBRANCH  65  86
ENDBRANCH  39  40
ENDBRANCH  32  34
ENDBRANCH  31  32
ENDBRANCH  30  31
ENDBRANCH  29  30
ENDBRANCH  28  29
ENDBRANCH  27  28
ENDBRANCH   1  27
TORSDOF 26
ENDMDL
MODEL 2
REMARK VINA RESULT:      -8.3      6.803     11.838
REMARK SMILES C[NH2+][C@]1(C(=O)OCCOCCOCCOCCOC(=O)c2ccc(-c3c4nc(c(-c5ccc(S(=O)(=O)[O-])cc5)c5ccc([nH]5)c(-c5ccc(S(=O)(=O)[O-])cc5)c5nc(c(-c6ccc(S(=O)(=O)[O-])cc6)c6ccc3[nH]6)C=C5)C=C4)cc2)CCC[C@@H](Sc2nccs2)C1
REMARK SMILES IDX 13 1 12 2 11 3 10 4 9 5 8 6 7 7 6 8 4 9 5 10 3 11 81 12
REMARK SMILES IDX 91 13 82 14 84 15 83 16 2 17 1 18 85 21 86 22 87 23 90 24
REMARK SMILES IDX 88 25 89 26 14 27 15 28 16 29 17 30 18 31 19 32 20 33 21 34
REMARK SMILES IDX 22 35 80 36 23 37 79 38 24 39 25 40 26 41 73 42 27 43 78 44
REMARK SMILES IDX 72 45 74 46 28 47 77 48 71 49 70 50 29 52 59 53 40 54 58 55
REMARK SMILES IDX 41 56 44 57 57 58 75 59 42 60 43 61 56 63 76 64 45 65 30 66
REMARK SMILES IDX 31 67 39 68 32 69 38 70 33 71 34 72 35 73 36 74 37 75 60 76
REMARK SMILES IDX 61 77 69 78 62 79 68 80 63 81 64 82 65 83 66 84 67 85 46 86
REMARK SMILES IDX 47 87 55 88 48 89 54 90 49 91 50 92 51 93 52 94 53 95
REMARK H PARENT 2 19 2 20 74 51 44 62
REMARK Flexibility Score: inf
ROOT
ATOM      1  C   UNL A   1      42.614  21.136  25.760  1.00  0.00     0.188 C 
ENDROOT
BRANCH   1   2
ATOM      2  O   UNL A   1      41.923  20.153  26.514  1.00  0.00    -0.377 OA
BRANCH   2   3
ATOM      3  C   UNL A   1      40.539  20.383  26.643  1.00  0.00     0.188 C 
BRANCH   3   4
ATOM      4  C   UNL A   1      40.096  21.827  26.358  1.00  0.00     0.188 C 
BRANCH   4   5
ATOM      5  O   UNL A   1      38.734  22.152  26.112  1.00  0.00    -0.376 OA
BRANCH   5   6
ATOM      6  C   UNL A   1      38.294  23.502  26.123  1.00  0.00     0.202 C 
BRANCH   6   7
ATOM      7  C   UNL A   1      36.814  23.869  25.891  1.00  0.00     0.261 C 
BRANCH   7   8
ATOM      8  O   UNL A   1      35.927  22.813  25.495  1.00  0.00    -0.459 OA
BRANCH   8   9
ATOM      9  C   UNL A   1      34.678  22.876  26.024  1.00  0.00     0.368 C 
ATOM     10  O   UNL A   1      34.448  22.999  27.227  1.00  0.00    -0.245 OA
BRANCH   9  11
ATOM     11  C   UNL A   1      33.527  22.811  24.942  1.00  0.00     0.195 C 
ATOM     12  C   UNL A   1      32.135  22.991  25.582  1.00  0.00     0.081 C 
ATOM     13  C   UNL A   1      33.760  23.999  23.985  1.00  0.00     0.096 C 
ATOM     14  C   UNL A   1      30.950  23.209  24.649  1.00  0.00     0.008 C 
ATOM     15  C   UNL A   1      32.605  24.197  22.994  1.00  0.00     0.061 C 
ATOM     16  C   UNL A   1      31.230  24.331  23.665  1.00  0.00     0.015 C 
BRANCH  11  17
ATOM     17  N   UNL A   1      33.758  21.526  24.212  1.00  0.00    -0.335 N 
ATOM     18  C   UNL A   1      33.594  20.269  24.906  1.00  0.00     0.331 C 
ATOM     19  H   UNL A   1      33.114  21.514  23.422  1.00  0.00     0.347 HD
ATOM     20  H   UNL A   1      34.756  21.550  23.998  1.00  0.00     0.347 HD
ENDBRANCH  11  17
BRANCH  15  21
ATOM     21  S   UNL A   1      32.918  25.595  21.850  1.00  0.00    -0.092 SA
BRANCH  21  22
ATOM     22  C   UNL A   1      31.972  26.888  22.560  1.00  0.00     0.150 A 
ATOM     23  N   UNL A   1      30.863  27.324  22.008  1.00  0.00    -0.238 NA
ATOM     24  S   UNL A   1      32.453  27.688  24.000  1.00  0.00    -0.116 S 
ATOM     25  C   UNL A   1      30.328  28.339  22.781  1.00  0.00     0.124 A 
ATOM     26  C   UNL A   1      31.063  28.687  23.893  1.00  0.00     0.087 A 
ENDBRANCH  21  22
ENDBRANCH  15  21
ENDBRANCH   9  11
ENDBRANCH   8   9
ENDBRANCH   7   8
ENDBRANCH   6   7
ENDBRANCH   5   6
ENDBRANCH   4   5
ENDBRANCH   3   4
ENDBRANCH   2   3
ENDBRANCH   1   2
BRANCH   1  27
ATOM     27  C   UNL A   1      44.154  21.008  25.708  1.00  0.00     0.188 C 
BRANCH  27  28
ATOM     28  O   UNL A   1      44.857  22.247  25.682  1.00  0.00    -0.376 OA
BRANCH  28  29
ATOM     29  C   UNL A   1      45.188  22.842  24.435  1.00  0.00     0.202 C 
BRANCH  29  30
ATOM     30  C   UNL A   1      46.587  23.467  24.252  1.00  0.00     0.261 C 
BRANCH  30  31
ATOM     31  O   UNL A   1      47.035  24.352  25.285  1.00  0.00    -0.460 OA
BRANCH  31  32
ATOM     32  C   UNL A   1      47.684  25.474  24.893  1.00  0.00     0.338 C 
ATOM     33  O   UNL A   1      48.462  25.577  23.971  1.00  0.00    -0.246 OA
BRANCH  32  34
ATOM     34  C   UNL A   1      47.106  26.613  25.646  1.00  0.00     0.060 A 
ATOM     35  C   UNL A   1      46.030  27.308  25.078  1.00  0.00     0.016 A 
ATOM     36  C   UNL A   1      47.594  26.972  26.905  1.00  0.00     0.016 A 
ATOM     37  C   UNL A   1      45.463  28.390  25.751  1.00  0.00     0.010 A 
ATOM     38  C   UNL A   1      47.048  28.079  27.562  1.00  0.00     0.010 A 
ATOM     39  C   UNL A   1      46.005  28.814  26.968  1.00  0.00    -0.014 A 
BRANCH  39  40
ATOM     40  C   UNL A   1      45.642  30.150  27.495  1.00  0.00     0.031 A 
ATOM     41  C   UNL A   1      46.611  31.280  27.270  1.00  0.00     0.074 A 
ATOM     42  C   UNL A   1      44.471  30.373  28.117  1.00  0.00     0.049 A 
ATOM     43  N   UNL A   1      46.539  32.526  27.661  1.00  0.00    -0.248 NA
ATOM     44  C   UNL A   1      47.825  30.958  26.501  1.00  0.00     0.031 C 
ATOM     45  C   UNL A   1      43.424  29.376  28.338  1.00  0.00     0.029 A 
ATOM     46  N   UNL A   1      43.969  31.519  28.679  1.00  0.00    -0.354 N 
ATOM     47  C   UNL A   1      47.699  33.132  27.193  1.00  0.00     0.074 A 
ATOM     48  C   UNL A   1      48.472  32.113  26.519  1.00  0.00     0.031 C 
ATOM     49  C   UNL A   1      42.408  29.954  29.003  1.00  0.00     0.029 A 
ATOM     50  C   UNL A   1      42.748  31.349  29.284  1.00  0.00     0.049 A 
ATOM     51  H   UNL A   1      44.441  32.384  28.652  1.00  0.00     0.167 HD
ATOM     52  C   UNL A   1      48.085  34.424  27.309  1.00  0.00     0.031 A 
ATOM     53  C   UNL A   1      42.003  32.212  30.004  1.00  0.00     0.031 A 
ATOM     54  C   UNL A   1      47.322  35.430  27.998  1.00  0.00     0.049 A 
ATOM     55  C   UNL A   1      42.496  33.625  30.201  1.00  0.00     0.074 A 
ATOM     56  C   UNL A   1      47.624  36.769  28.171  1.00  0.00     0.029 A 
ATOM     57  N   UNL A   1      46.111  35.206  28.636  1.00  0.00    -0.354 N 
ATOM     58  N   UNL A   1      43.588  34.190  29.742  1.00  0.00    -0.248 NA
ATOM     59  C   UNL A   1      41.651  34.518  31.007  1.00  0.00     0.031 C 
ATOM     60  C   UNL A   1      46.630  37.339  28.971  1.00  0.00     0.029 A 
ATOM     61  C   UNL A   1      45.669  36.375  29.231  1.00  0.00     0.049 A 
ATOM     62  H   UNL A   1      45.638  34.343  28.662  1.00  0.00     0.167 HD
ATOM     63  C   UNL A   1      43.543  35.512  30.175  1.00  0.00     0.074 A 
ATOM     64  C   UNL A   1      42.311  35.665  30.921  1.00  0.00     0.031 C 
ATOM     65  C   UNL A   1      44.438  36.511  29.971  1.00  0.00     0.031 A 
BRANCH  52  66
ATOM     66  C   UNL A   1      49.413  34.810  26.712  1.00  0.00    -0.014 A 
ATOM     67  C   UNL A   1      49.515  35.261  25.383  1.00  0.00     0.010 A 
ATOM     68  C   UNL A   1      50.574  34.746  27.504  1.00  0.00     0.010 A 
ATOM     69  C   UNL A   1      50.760  35.605  24.847  1.00  0.00     0.020 A 
ATOM     70  C   UNL A   1      51.815  35.121  26.982  1.00  0.00     0.020 A 
ATOM     71  C   UNL A   1      51.901  35.533  25.651  1.00  0.00     0.054 A 
BRANCH  71  72
ATOM     72  S   UNL A   1      53.499  36.009  24.936  1.00  0.00     0.124 S 
ATOM     73  O   UNL A   1      53.113  36.431  23.591  1.00  0.00    -0.237 OA
ATOM     74  O   UNL A   1      53.940  37.079  25.826  1.00  0.00    -0.237 OA
ATOM     75  O   UNL A   1      54.288  34.782  25.000  1.00  0.00    -0.744 OA
ENDBRANCH  71  72
ENDBRANCH  52  66
BRANCH  53  76
ATOM     76  C   UNL A   1      40.725  31.760  30.623  1.00  0.00    -0.014 A 
ATOM     77  C   UNL A   1      40.720  31.041  31.831  1.00  0.00     0.010 A 
ATOM     78  C   UNL A   1      39.498  32.042  29.992  1.00  0.00     0.010 A 
ATOM     79  C   UNL A   1      39.515  30.598  32.388  1.00  0.00     0.020 A 
ATOM     80  C   UNL A   1      38.290  31.629  30.561  1.00  0.00     0.020 A 
ATOM     81  C   UNL A   1      38.308  30.899  31.751  1.00  0.00     0.054 A 
BRANCH  81  82
ATOM     82  S   UNL A   1      36.755  30.357  32.517  1.00  0.00     0.124 S 
ATOM     83  O   UNL A   1      36.251  31.600  33.091  1.00  0.00    -0.237 OA
ATOM     84  O   UNL A   1      36.009  29.836  31.376  1.00  0.00    -0.237 OA
ATOM     85  O   UNL A   1      37.186  29.350  33.485  1.00  0.00    -0.744 OA
ENDBRANCH  81  82
ENDBRANCH  53  76
BRANCH  65  86
ATOM     86  C   UNL A   1      44.105  37.874  30.522  1.00  0.00    -0.014 A 
ATOM     87  C   UNL A   1      43.404  38.826  29.759  1.00  0.00     0.010 A 
ATOM     88  C   UNL A   1      44.447  38.184  31.852  1.00  0.00     0.010 A 
ATOM     89  C   UNL A   1      43.081  40.072  30.305  1.00  0.00     0.020 A 
ATOM     90  C   UNL A   1      44.096  39.415  32.413  1.00  0.00     0.020 A 
ATOM     91  C   UNL A   1      43.428  40.357  31.630  1.00  0.00     0.054 A 
BRANCH  91  92
ATOM     92  S   UNL A   1      42.958  41.964  32.329  1.00  0.00     0.124 S 
ATOM     93  O   UNL A   1      42.140  42.531  31.261  1.00  0.00    -0.237 OA
ATOM     94  O   UNL A   1      42.234  41.584  33.541  1.00  0.00    -0.237 OA
ATOM     95  O   UNL A   1      44.237  42.632  32.557  1.00  0.00    -0.744 OA
ENDBRANCH  91  92
ENDBRANCH  65  86
ENDBRANCH  39  40
ENDBRANCH  32  34
ENDBRANCH  31  32
ENDBRANCH  30  31
ENDBRANCH  29  30
ENDBRANCH  28  29
ENDBRANCH  27  28
ENDBRANCH   1  27
TORSDOF 26
ENDMDL
MODEL 3
REMARK VINA RESULT:      -7.9      1.600      2.147
REMARK SMILES C[NH2+][C@]1(C(=O)OCCOCCOCCOCCOC(=O)c2ccc(-c3c4nc(c(-c5ccc(S(=O)(=O)[O-])cc5)c5ccc([nH]5)c(-c5ccc(S(=O)(=O)[O-])cc5)c5nc(c(-c6ccc(S(=O)(=O)[O-])cc6)c6ccc3[nH]6)C=C5)C=C4)cc2)CCC[C@@H](Sc2nccs2)C1
REMARK SMILES IDX 13 1 12 2 11 3 10 4 9 5 8 6 7 7 6 8 4 9 5 10 3 11 81 12
REMARK SMILES IDX 91 13 82 14 84 15 83 16 2 17 1 18 85 21 86 22 87 23 90 24
REMARK SMILES IDX 88 25 89 26 14 27 15 28 16 29 17 30 18 31 19 32 20 33 21 34
REMARK SMILES IDX 22 35 80 36 23 37 79 38 24 39 25 40 26 41 73 42 27 43 78 44
REMARK SMILES IDX 72 45 74 46 28 47 77 48 71 49 70 50 29 52 59 53 40 54 58 55
REMARK SMILES IDX 41 56 44 57 57 58 75 59 42 60 43 61 56 63 76 64 45 65 30 66
REMARK SMILES IDX 31 67 39 68 32 69 38 70 33 71 34 72 35 73 36 74 37 75 60 76
REMARK SMILES IDX 61 77 69 78 62 79 68 80 63 81 64 82 65 83 66 84 67 85 46 86
REMARK SMILES IDX 47 87 55 88 48 89 54 90 49 91 50 92 51 93 52 94 53 95
REMARK H PARENT 2 19 2 20 74 51 44 62
REMARK Flexibility Score: inf
ROOT
ATOM      1  C   UNL A   1      31.770  27.388  26.063  1.00  0.00     0.188 C 
ENDROOT
BRANCH   1   2
ATOM      2  O   UNL A   1      30.690  26.524  25.749  1.00  0.00    -0.377 OA
BRANCH   2   3
ATOM      3  C   UNL A   1      30.034  26.825  24.539  1.00  0.00     0.188 C 
BRANCH   3   4
ATOM      4  C   UNL A   1      30.512  26.009  23.327  1.00  0.00     0.188 C 
BRANCH   4   5
ATOM      5  O   UNL A   1      31.722  25.262  23.363  1.00  0.00    -0.376 OA
BRANCH   5   6
ATOM      6  C   UNL A   1      31.730  23.874  23.063  1.00  0.00     0.202 C 
BRANCH   6   7
ATOM      7  C   UNL A   1      32.782  22.926  23.672  1.00  0.00     0.261 C 
BRANCH   7   8
ATOM      8  O   UNL A   1      32.586  21.516  23.487  1.00  0.00    -0.459 OA
BRANCH   8   9
ATOM      9  C   UNL A   1      32.292  20.819  24.614  1.00  0.00     0.368 C 
ATOM     10  O   UNL A   1      31.365  21.101  25.374  1.00  0.00    -0.245 OA
BRANCH   9  11
ATOM     11  C   UNL A   1      33.236  19.574  24.853  1.00  0.00     0.195 C 
ATOM     12  C   UNL A   1      33.110  18.538  23.718  1.00  0.00     0.081 C 
ATOM     13  C   UNL A   1      34.682  20.113  24.836  1.00  0.00     0.096 C 
ATOM     14  C   UNL A   1      34.134  17.411  23.669  1.00  0.00     0.008 C 
ATOM     15  C   UNL A   1      35.732  18.993  24.851  1.00  0.00     0.061 C 
ATOM     16  C   UNL A   1      35.549  17.958  23.732  1.00  0.00     0.015 C 
BRANCH  11  17
ATOM     17  N   UNL A   1      32.897  19.093  26.229  1.00  0.00    -0.335 N 
ATOM     18  C   UNL A   1      32.573  17.701  26.440  1.00  0.00     0.331 C 
ATOM     19  H   UNL A   1      33.698  19.304  26.823  1.00  0.00     0.347 HD
ATOM     20  H   UNL A   1      32.022  19.575  26.440  1.00  0.00     0.347 HD
ENDBRANCH  11  17
BRANCH  15  21
ATOM     21  S   UNL A   1      37.440  19.658  24.859  1.00  0.00    -0.092 SA
BRANCH  21  22
ATOM     22  C   UNL A   1      37.177  21.386  24.989  1.00  0.00     0.150 A 
ATOM     23  N   UNL A   1      37.301  22.027  26.128  1.00  0.00    -0.238 NA
ATOM     24  S   UNL A   1      36.706  22.341  23.643  1.00  0.00    -0.116 S 
ATOM     25  C   UNL A   1      37.040  23.371  25.935  1.00  0.00     0.124 A 
ATOM     26  C   UNL A   1      36.682  23.728  24.653  1.00  0.00     0.087 A 
ENDBRANCH  21  22
ENDBRANCH  15  21
ENDBRANCH   9  11
ENDBRANCH   8   9
ENDBRANCH   7   8
ENDBRANCH   6   7
ENDBRANCH   5   6
ENDBRANCH   4   5
ENDBRANCH   3   4
ENDBRANCH   2   3
ENDBRANCH   1   2
BRANCH   1  27
ATOM     27  C   UNL A   1      31.860  28.700  25.251  1.00  0.00     0.188 C 
BRANCH  27  28
ATOM     28  O   UNL A   1      31.408  29.863  25.941  1.00  0.00    -0.376 OA
BRANCH  28  29
ATOM     29  C   UNL A   1      32.354  30.819  26.401  1.00  0.00     0.202 C 
BRANCH  29  30
ATOM     30  C   UNL A   1      33.465  30.365  27.370  1.00  0.00     0.261 C 
BRANCH  30  31
ATOM     31  O   UNL A   1      34.664  31.148  27.385  1.00  0.00    -0.460 OA
BRANCH  31  32
ATOM     32  C   UNL A   1      35.073  31.622  28.585  1.00  0.00     0.338 C 
ATOM     33  O   UNL A   1      34.418  32.270  29.371  1.00  0.00    -0.246 OA
BRANCH  32  34
ATOM     34  C   UNL A   1      36.396  31.018  28.879  1.00  0.00     0.060 A 
ATOM     35  C   UNL A   1      36.436  29.689  29.319  1.00  0.00     0.016 A 
ATOM     36  C   UNL A   1      37.578  31.740  28.695  1.00  0.00     0.016 A 
ATOM     37  C   UNL A   1      37.659  29.087  29.612  1.00  0.00     0.010 A 
ATOM     38  C   UNL A   1      38.801  31.146  29.024  1.00  0.00     0.010 A 
ATOM     39  C   UNL A   1      38.841  29.830  29.520  1.00  0.00    -0.014 A 
BRANCH  39  40
ATOM     40  C   UNL A   1      40.072  29.313  30.161  1.00  0.00     0.031 A 
ATOM     41  C   UNL A   1      40.510  29.948  31.454  1.00  0.00     0.074 A 
ATOM     42  C   UNL A   1      40.763  28.283  29.642  1.00  0.00     0.049 A 
ATOM     43  N   UNL A   1      41.564  29.699  32.186  1.00  0.00    -0.248 NA
ATOM     44  C   UNL A   1      39.640  31.009  31.990  1.00  0.00     0.031 C 
ATOM     45  C   UNL A   1      40.405  27.545  28.432  1.00  0.00     0.029 A 
ATOM     46  N   UNL A   1      41.918  27.682  30.074  1.00  0.00    -0.354 N 
ATOM     47  C   UNL A   1      41.488  30.575  33.263  1.00  0.00     0.074 A 
ATOM     48  C   UNL A   1      40.305  31.383  33.072  1.00  0.00     0.031 C 
ATOM     49  C   UNL A   1      41.332  26.596  28.211  1.00  0.00     0.029 A 
ATOM     50  C   UNL A   1      42.365  26.683  29.243  1.00  0.00     0.049 A 
ATOM     51  H   UNL A   1      42.383  27.942  30.903  1.00  0.00     0.167 HD
ATOM     52  C   UNL A   1      42.325  30.692  34.320  1.00  0.00     0.031 A 
ATOM     53  C   UNL A   1      43.492  25.945  29.295  1.00  0.00     0.031 A 
ATOM     54  C   UNL A   1      43.512  29.899  34.495  1.00  0.00     0.049 A 
ATOM     55  C   UNL A   1      44.461  26.156  30.433  1.00  0.00     0.074 A 
ATOM     56  C   UNL A   1      44.427  29.940  35.531  1.00  0.00     0.029 A 
ATOM     57  N   UNL A   1      43.954  28.930  33.606  1.00  0.00    -0.354 N 
ATOM     58  N   UNL A   1      44.370  26.979  31.453  1.00  0.00    -0.248 NA
ATOM     59  C   UNL A   1      45.680  25.335  30.431  1.00  0.00     0.031 C 
ATOM     60  C   UNL A   1      45.458  29.043  35.237  1.00  0.00     0.029 A 
ATOM     61  C   UNL A   1      45.145  28.388  34.056  1.00  0.00     0.049 A 
ATOM     62  H   UNL A   1      43.489  28.668  32.779  1.00  0.00     0.167 HD
ATOM     63  C   UNL A   1      45.502  26.747  32.229  1.00  0.00     0.074 A 
ATOM     64  C   UNL A   1      46.254  25.701  31.568  1.00  0.00     0.031 C 
ATOM     65  C   UNL A   1      45.883  27.344  33.386  1.00  0.00     0.031 A 
BRANCH  52  66
ATOM     66  C   UNL A   1      42.006  31.748  35.346  1.00  0.00    -0.014 A 
ATOM     67  C   UNL A   1      42.521  33.053  35.239  1.00  0.00     0.010 A 
ATOM     68  C   UNL A   1      41.154  31.435  36.421  1.00  0.00     0.010 A 
ATOM     69  C   UNL A   1      42.218  34.014  36.208  1.00  0.00     0.020 A 
ATOM     70  C   UNL A   1      40.823  32.401  37.374  1.00  0.00     0.020 A 
ATOM     71  C   UNL A   1      41.371  33.681  37.269  1.00  0.00     0.054 A 
BRANCH  71  72
ATOM     72  S   UNL A   1      40.977  34.956  38.498  1.00  0.00     0.124 S 
ATOM     73  O   UNL A   1      41.585  36.145  37.905  1.00  0.00    -0.237 OA
ATOM     74  O   UNL A   1      39.517  34.940  38.516  1.00  0.00    -0.237 OA
ATOM     75  O   UNL A   1      41.619  34.473  39.718  1.00  0.00    -0.744 OA
ENDBRANCH  71  72
ENDBRANCH  52  66
BRANCH  53  76
ATOM     76  C   UNL A   1      43.787  24.955  28.220  1.00  0.00    -0.014 A 
ATOM     77  C   UNL A   1      43.211  23.673  28.240  1.00  0.00     0.010 A 
ATOM     78  C   UNL A   1      44.660  25.295  27.169  1.00  0.00     0.010 A 
ATOM     79  C   UNL A   1      43.517  22.744  27.239  1.00  0.00     0.020 A 
ATOM     80  C   UNL A   1      44.943  24.381  26.151  1.00  0.00     0.020 A 
ATOM     81  C   UNL A   1      44.377  23.105  26.199  1.00  0.00     0.054 A 
BRANCH  81  82
ATOM     82  S   UNL A   1      44.720  21.901  24.887  1.00  0.00     0.124 S 
ATOM     83  O   UNL A   1      46.154  22.077  24.680  1.00  0.00    -0.237 OA
ATOM     84  O   UNL A   1      44.318  20.641  25.507  1.00  0.00    -0.237 OA
ATOM     85  O   UNL A   1      43.869  22.346  23.785  1.00  0.00    -0.744 OA
ENDBRANCH  81  82
ENDBRANCH  53  76
BRANCH  65  86
ATOM     86  C   UNL A   1      47.149  26.855  34.044  1.00  0.00    -0.014 A 
ATOM     87  C   UNL A   1      47.139  25.779  34.950  1.00  0.00     0.010 A 
ATOM     88  C   UNL A   1      48.379  27.446  33.699  1.00  0.00     0.010 A 
ATOM     89  C   UNL A   1      48.332  25.325  35.522  1.00  0.00     0.020 A 
ATOM     90  C   UNL A   1      49.577  26.974  34.242  1.00  0.00     0.020 A 
ATOM     91  C   UNL A   1      49.543  25.926  35.162  1.00  0.00     0.054 A 
BRANCH  91  92
ATOM     92  S   UNL A   1      51.081  25.289  35.885  1.00  0.00     0.124 S 
ATOM     93  O   UNL A   1      50.880  25.552  37.306  1.00  0.00    -0.237 OA
ATOM     94  O   UNL A   1      51.055  23.880  35.496  1.00  0.00    -0.237 OA
ATOM     95  O   UNL A   1      52.123  26.087  35.244  1.00  0.00    -0.744 OA
ENDBRANCH  91  92
ENDBRANCH  65  86
ENDBRANCH  39  40
ENDBRANCH  32  34
ENDBRANCH  31  32
ENDBRANCH  30  31
ENDBRANCH  29  30
ENDBRANCH  28  29
ENDBRANCH  27  28
ENDBRANCH   1  27
TORSDOF 26
ENDMDL
