MODEL 1
REMARK VINA RESULT:      -8.6      0.000      0.000
REMARK SMILES Cc1c(F)cc(C(=O)OCCOCCOCCOCCOC(=O)c2ccc(-c3c4nc(c(-c5ccc(S(=O)(=O)[O-])cc5)c5ccc([nH]5)c(-c5ccc(S(=O)(=O)[O-])cc5)c5nc(c(-c6ccc(S(=O)(=O)[O-])cc6)c6ccc3[nH]6)C=C5)C=C4)cc2)cc1S(=O)(=O)NC#N
REMARK SMILES IDX 15 1 14 2 13 3 12 4 11 5 10 6 9 7 7 8 8 9 6 10 1 11 2 12
REMARK SMILES IDX 3 13 85 14 4 15 5 16 84 17 86 18 87 19 88 20 89 21 90 23
REMARK SMILES IDX 91 24 16 25 17 26 18 27 19 28 20 29 21 30 22 31 23 32 24 33
REMARK SMILES IDX 25 34 83 35 26 36 82 37 27 38 28 39 29 40 76 41 30 42 81 43
REMARK SMILES IDX 75 44 77 45 31 46 80 47 74 48 73 49 32 51 62 52 43 53 61 54
REMARK SMILES IDX 44 55 47 56 60 57 78 58 45 59 46 60 59 62 79 63 48 64 33 65
REMARK SMILES IDX 34 66 42 67 35 68 41 69 36 70 37 71 38 72 39 73 40 74 63 75
REMARK SMILES IDX 64 76 72 77 65 78 71 79 66 80 67 81 68 82 69 83 70 84 49 85
REMARK SMILES IDX 50 86 58 87 51 88 57 89 52 90 53 91 54 92 55 93 56 94
REMARK H PARENT 89 22 77 50 47 61
REMARK Flexibility Score: inf
ROOT
ATOM      1  O   UNL A   1      33.224  33.674  28.052  1.00  0.00    -0.377 OA
ENDROOT
BRANCH   1   2
ATOM      2  C   UNL A   1      33.370  32.352  27.569  1.00  0.00     0.188 C 
BRANCH   2   3
ATOM      3  C   UNL A   1      32.171  31.637  26.909  1.00  0.00     0.188 C 
BRANCH   3   4
ATOM      4  O   UNL A   1      32.470  30.454  26.205  1.00  0.00    -0.376 OA
BRANCH   4   5
ATOM      5  C   UNL A   1      31.469  29.544  25.799  1.00  0.00     0.202 C 
BRANCH   5   6
ATOM      6  C   UNL A   1      31.179  29.166  24.334  1.00  0.00     0.261 C 
BRANCH   6   7
ATOM      7  O   UNL A   1      30.459  27.953  24.089  1.00  0.00    -0.460 OA
BRANCH   7   8
ATOM      8  C   UNL A   1      30.735  27.324  22.926  1.00  0.00     0.338 C 
ATOM      9  O   UNL A   1      30.718  27.812  21.809  1.00  0.00    -0.246 OA
BRANCH   8  10
ATOM     10  C   UNL A   1      31.335  26.003  23.219  1.00  0.00     0.064 A 
ATOM     11  C   UNL A   1      33.380  22.234  23.684  1.00  0.00     0.049 C 
ATOM     12  C   UNL A   1      32.645  23.536  23.647  1.00  0.00     0.005 A 
ATOM     13  C   UNL A   1      32.564  24.132  22.374  1.00  0.00     0.128 A 
ATOM     14  C   UNL A   1      32.012  24.186  24.728  1.00  0.00     0.095 A 
ATOM     15  F   UNL A   1      33.158  23.543  21.325  1.00  0.00    -0.207 F 
ATOM     16  C   UNL A   1      31.914  25.332  22.149  1.00  0.00     0.055 A 
ATOM     17  C   UNL A   1      31.399  25.449  24.504  1.00  0.00     0.038 A 
BRANCH  14  18
ATOM     18  S   UNL A   1      32.118  23.686  26.451  1.00  0.00     0.270 S 
ATOM     19  O   UNL A   1      33.493  23.340  26.723  1.00  0.00    -0.201 OA
ATOM     20  O   UNL A   1      31.480  24.751  27.202  1.00  0.00    -0.201 OA
BRANCH  18  21
ATOM     21  N   UNL A   1      31.158  22.380  26.854  1.00  0.00    -0.215 NA
ATOM     22  H   UNL A   1      31.520  21.468  26.772  1.00  0.00     0.193 HD
BRANCH  21  23
ATOM     23  C   UNL A   1      29.924  22.552  27.279  1.00  0.00     0.191 C 
ATOM     24  N   UNL A   1      28.839  22.588  27.695  1.00  0.00    -0.172 NA
ENDBRANCH  21  23
ENDBRANCH  18  21
ENDBRANCH  14  18
ENDBRANCH   8  10
ENDBRANCH   7   8
ENDBRANCH   6   7
ENDBRANCH   5   6
ENDBRANCH   4   5
ENDBRANCH   3   4
ENDBRANCH   2   3
ENDBRANCH   1   2
BRANCH   1  25
ATOM     25  C   UNL A   1      34.105  34.192  29.043  1.00  0.00     0.188 C 
BRANCH  25  26
ATOM     26  C   UNL A   1      33.676  35.280  30.059  1.00  0.00     0.188 C 
BRANCH  26  27
ATOM     27  O   UNL A   1      33.548  34.836  31.393  1.00  0.00    -0.376 OA
BRANCH  27  28
ATOM     28  C   UNL A   1      34.451  35.277  32.382  1.00  0.00     0.202 C 
BRANCH  28  29
ATOM     29  C   UNL A   1      35.623  34.396  32.843  1.00  0.00     0.261 C 
BRANCH  29  30
ATOM     30  O   UNL A   1      36.353  33.683  31.838  1.00  0.00    -0.460 OA
BRANCH  30  31
ATOM     31  C   UNL A   1      35.983  32.404  31.603  1.00  0.00     0.338 C 
ATOM     32  O   UNL A   1      34.854  31.952  31.642  1.00  0.00    -0.246 OA
BRANCH  31  33
ATOM     33  C   UNL A   1      37.169  31.680  31.093  1.00  0.00     0.060 A 
ATOM     34  C   UNL A   1      37.916  30.881  31.970  1.00  0.00     0.016 A 
ATOM     35  C   UNL A   1      37.530  31.782  29.749  1.00  0.00     0.016 A 
ATOM     36  C   UNL A   1      39.048  30.207  31.512  1.00  0.00     0.010 A 
ATOM     37  C   UNL A   1      38.682  31.130  29.298  1.00  0.00     0.010 A 
ATOM     38  C   UNL A   1      39.464  30.367  30.185  1.00  0.00    -0.014 A 
BRANCH  38  39
ATOM     39  C   UNL A   1      40.810  29.900  29.770  1.00  0.00     0.031 A 
ATOM     40  C   UNL A   1      41.944  30.892  29.781  1.00  0.00     0.074 A 
ATOM     41  C   UNL A   1      41.028  28.624  29.403  1.00  0.00     0.049 A 
ATOM     42  N   UNL A   1      43.182  30.739  29.394  1.00  0.00    -0.248 NA
ATOM     43  C   UNL A   1      41.635  32.239  30.294  1.00  0.00     0.031 C 
ATOM     44  C   UNL A   1      40.027  27.559  29.401  1.00  0.00     0.029 A 
ATOM     45  N   UNL A   1      42.170  28.012  28.948  1.00  0.00    -0.354 N 
ATOM     46  C   UNL A   1      43.795  31.971  29.596  1.00  0.00     0.074 A 
ATOM     47  C   UNL A   1      42.787  32.868  30.115  1.00  0.00     0.031 C 
ATOM     48  C   UNL A   1      40.597  26.426  28.956  1.00  0.00     0.029 A 
ATOM     49  C   UNL A   1      41.988  26.694  28.598  1.00  0.00     0.049 A 
ATOM     50  H   UNL A   1      43.038  28.472  28.879  1.00  0.00     0.167 HD
ATOM     51  C   UNL A   1      45.082  32.321  29.369  1.00  0.00     0.031 A 
ATOM     52  C   UNL A   1      42.838  25.817  28.025  1.00  0.00     0.031 A 
ATOM     53  C   UNL A   1      46.078  31.425  28.844  1.00  0.00     0.049 A 
ATOM     54  C   UNL A   1      44.245  26.259  27.704  1.00  0.00     0.074 A 
ATOM     55  C   UNL A   1      47.416  31.679  28.601  1.00  0.00     0.029 A 
ATOM     56  N   UNL A   1      45.846  30.110  28.471  1.00  0.00    -0.354 N 
ATOM     57  N   UNL A   1      44.820  27.418  27.929  1.00  0.00    -0.248 NA
ATOM     58  C   UNL A   1      45.123  25.270  27.060  1.00  0.00     0.031 C 
ATOM     59  C   UNL A   1      47.974  30.544  28.006  1.00  0.00     0.029 A 
ATOM     60  C   UNL A   1      47.007  29.551  27.965  1.00  0.00     0.049 A 
ATOM     61  H   UNL A   1      44.983  29.643  28.554  1.00  0.00     0.167 HD
ATOM     62  C   UNL A   1      46.135  27.282  27.491  1.00  0.00     0.074 A 
ATOM     63  C   UNL A   1      46.274  25.926  27.004  1.00  0.00     0.031 C 
ATOM     64  C   UNL A   1      47.137  28.196  27.493  1.00  0.00     0.031 A 
BRANCH  51  65
ATOM     65  C   UNL A   1      45.487  33.745  29.649  1.00  0.00    -0.014 A 
ATOM     66  C   UNL A   1      45.363  34.752  28.675  1.00  0.00     0.010 A 
ATOM     67  C   UNL A   1      45.930  34.095  30.939  1.00  0.00     0.010 A 
ATOM     68  C   UNL A   1      45.692  36.075  28.979  1.00  0.00     0.020 A 
ATOM     69  C   UNL A   1      46.227  35.423  31.258  1.00  0.00     0.020 A 
ATOM     70  C   UNL A   1      46.114  36.403  30.272  1.00  0.00     0.054 A 
BRANCH  70  71
ATOM     71  S   UNL A   1      46.473  38.139  30.653  1.00  0.00     0.124 S 
ATOM     72  O   UNL A   1      45.334  38.825  30.046  1.00  0.00    -0.237 OA
ATOM     73  O   UNL A   1      46.503  38.144  32.113  1.00  0.00    -0.237 OA
ATOM     74  O   UNL A   1      47.760  38.381  30.003  1.00  0.00    -0.744 OA
ENDBRANCH  70  71
ENDBRANCH  51  65
BRANCH  52  75
ATOM     75  C   UNL A   1      42.382  24.439  27.682  1.00  0.00    -0.014 A 
ATOM     76  C   UNL A   1      42.580  23.370  28.575  1.00  0.00     0.010 A 
ATOM     77  C   UNL A   1      41.780  24.181  26.436  1.00  0.00     0.010 A 
ATOM     78  C   UNL A   1      42.215  22.068  28.215  1.00  0.00     0.020 A 
ATOM     79  C   UNL A   1      41.378  22.888  26.090  1.00  0.00     0.020 A 
ATOM     80  C   UNL A   1      41.614  21.837  26.975  1.00  0.00     0.054 A 
BRANCH  80  81
ATOM     81  S   UNL A   1      41.124  20.143  26.545  1.00  0.00     0.124 S 
ATOM     82  O   UNL A   1      41.287  19.446  27.817  1.00  0.00    -0.237 OA
ATOM     83  O   UNL A   1      39.747  20.322  26.092  1.00  0.00    -0.237 OA
ATOM     84  O   UNL A   1      42.073  19.767  25.500  1.00  0.00    -0.744 OA
ENDBRANCH  80  81
ENDBRANCH  52  75
BRANCH  64  85
ATOM     85  C   UNL A   1      48.495  27.751  27.010  1.00  0.00    -0.014 A 
ATOM     86  C   UNL A   1      49.446  27.191  27.883  1.00  0.00     0.010 A 
ATOM     87  C   UNL A   1      48.800  27.841  25.639  1.00  0.00     0.010 A 
ATOM     88  C   UNL A   1      50.686  26.765  27.399  1.00  0.00     0.020 A 
ATOM     89  C   UNL A   1      50.023  27.380  25.144  1.00  0.00     0.020 A 
ATOM     90  C   UNL A   1      50.964  26.859  26.031  1.00  0.00     0.054 A 
BRANCH  90  91
ATOM     91  S   UNL A   1      52.563  26.255  25.425  1.00  0.00     0.124 S 
ATOM     92  O   UNL A   1      52.603  24.899  25.965  1.00  0.00    -0.237 OA
ATOM     93  O   UNL A   1      52.410  26.349  23.976  1.00  0.00    -0.237 OA
ATOM     94  O   UNL A   1      53.529  27.185  26.005  1.00  0.00    -0.744 OA
ENDBRANCH  90  91
ENDBRANCH  64  85
ENDBRANCH  38  39
ENDBRANCH  31  33
ENDBRANCH  30  31
ENDBRANCH  29  30
ENDBRANCH  28  29
ENDBRANCH  27  28
ENDBRANCH  26  27
ENDBRANCH  25  26
ENDBRANCH   1  25
TORSDOF 26
ENDMDL
MODEL 2
REMARK VINA RESULT:      -7.6      8.730     15.628
REMARK SMILES Cc1c(F)cc(C(=O)OCCOCCOCCOCCOC(=O)c2ccc(-c3c4nc(c(-c5ccc(S(=O)(=O)[O-])cc5)c5ccc([nH]5)c(-c5ccc(S(=O)(=O)[O-])cc5)c5nc(c(-c6ccc(S(=O)(=O)[O-])cc6)c6ccc3[nH]6)C=C5)C=C4)cc2)cc1S(=O)(=O)NC#N
REMARK SMILES IDX 15 1 14 2 13 3 12 4 11 5 10 6 9 7 7 8 8 9 6 10 1 11 2 12
REMARK SMILES IDX 3 13 85 14 4 15 5 16 84 17 86 18 87 19 88 20 89 21 90 23
REMARK SMILES IDX 91 24 16 25 17 26 18 27 19 28 20 29 21 30 22 31 23 32 24 33
REMARK SMILES IDX 25 34 83 35 26 36 82 37 27 38 28 39 29 40 76 41 30 42 81 43
REMARK SMILES IDX 75 44 77 45 31 46 80 47 74 48 73 49 32 51 62 52 43 53 61 54
REMARK SMILES IDX 44 55 47 56 60 57 78 58 45 59 46 60 59 62 79 63 48 64 33 65
REMARK SMILES IDX 34 66 42 67 35 68 41 69 36 70 37 71 38 72 39 73 40 74 63 75
REMARK SMILES IDX 64 76 72 77 65 78 71 79 66 80 67 81 68 82 69 83 70 84 49 85
REMARK SMILES IDX 50 86 58 87 51 88 57 89 52 90 53 91 54 92 55 93 56 94
REMARK H PARENT 89 22 77 50 47 61
REMARK Flexibility Score: inf
ROOT
ATOM      1  O   UNL A   1      43.882  42.638  22.811  1.00  0.00    -0.377 OA
ENDROOT
BRANCH   1   2
ATOM      2  C   UNL A   1      43.506  42.708  21.448  1.00  0.00     0.188 C 
BRANCH   2   3
ATOM      3  C   UNL A   1      42.162  43.358  21.054  1.00  0.00     0.188 C 
BRANCH   3   4
ATOM      4  O   UNL A   1      41.585  42.900  19.853  1.00  0.00    -0.376 OA
BRANCH   4   5
ATOM      5  C   UNL A   1      40.664  43.676  19.115  1.00  0.00     0.202 C 
BRANCH   5   6
ATOM      6  C   UNL A   1      41.001  45.021  18.442  1.00  0.00     0.261 C 
BRANCH   6   7
ATOM      7  O   UNL A   1      42.020  45.026  17.436  1.00  0.00    -0.460 OA
BRANCH   7   8
ATOM      8  C   UNL A   1      42.267  46.216  16.848  1.00  0.00     0.338 C 
ATOM      9  O   UNL A   1      41.621  46.740  15.956  1.00  0.00    -0.246 OA
BRANCH   8  10
ATOM     10  C   UNL A   1      43.292  46.941  17.632  1.00  0.00     0.064 A 
ATOM     11  C   UNL A   1      45.923  49.378  20.029  1.00  0.00     0.049 C 
ATOM     12  C   UNL A   1      45.087  48.435  19.223  1.00  0.00     0.005 A 
ATOM     13  C   UNL A   1      43.970  49.022  18.601  1.00  0.00     0.128 A 
ATOM     14  C   UNL A   1      45.327  47.062  19.003  1.00  0.00     0.095 A 
ATOM     15  F   UNL A   1      43.709  50.324  18.792  1.00  0.00    -0.207 F 
ATOM     16  C   UNL A   1      43.091  48.305  17.808  1.00  0.00     0.055 A 
ATOM     17  C   UNL A   1      44.388  46.316  18.239  1.00  0.00     0.038 A 
BRANCH  14  18
ATOM     18  S   UNL A   1      46.598  46.083  19.814  1.00  0.00     0.270 S 
ATOM     19  O   UNL A   1      47.760  46.925  19.980  1.00  0.00    -0.201 OA
ATOM     20  O   UNL A   1      45.955  45.503  20.978  1.00  0.00    -0.201 OA
BRANCH  18  21
ATOM     21  N   UNL A   1      47.057  44.713  18.977  1.00  0.00    -0.215 NA
ATOM     22  H   UNL A   1      47.212  44.766  18.006  1.00  0.00     0.193 HD
BRANCH  21  23
ATOM     23  C   UNL A   1      47.216  43.562  19.596  1.00  0.00     0.191 C 
ATOM     24  N   UNL A   1      47.407  42.504  20.038  1.00  0.00    -0.172 NA
ENDBRANCH  21  23
ENDBRANCH  18  21
ENDBRANCH  14  18
ENDBRANCH   8  10
ENDBRANCH   7   8
ENDBRANCH   6   7
ENDBRANCH   5   6
ENDBRANCH   4   5
ENDBRANCH   3   4
ENDBRANCH   2   3
ENDBRANCH   1   2
BRANCH   1  25
ATOM     25  C   UNL A   1      42.920  42.816  23.845  1.00  0.00     0.188 C 
BRANCH  25  26
ATOM     26  C   UNL A   1      41.989  41.675  24.327  1.00  0.00     0.188 C 
BRANCH  26  27
ATOM     27  O   UNL A   1      42.332  41.109  25.574  1.00  0.00    -0.376 OA
BRANCH  27  28
ATOM     28  C   UNL A   1      41.445  40.230  26.228  1.00  0.00     0.202 C 
BRANCH  28  29
ATOM     29  C   UNL A   1      41.964  39.083  27.109  1.00  0.00     0.261 C 
BRANCH  29  30
ATOM     30  O   UNL A   1      42.113  37.794  26.502  1.00  0.00    -0.460 OA
BRANCH  30  31
ATOM     31  C   UNL A   1      42.095  36.722  27.326  1.00  0.00     0.338 C 
ATOM     32  O   UNL A   1      41.167  36.349  28.018  1.00  0.00    -0.246 OA
BRANCH  31  33
ATOM     33  C   UNL A   1      43.341  35.958  27.094  1.00  0.00     0.060 A 
ATOM     34  C   UNL A   1      43.563  35.368  25.842  1.00  0.00     0.016 A 
ATOM     35  C   UNL A   1      44.291  35.838  28.109  1.00  0.00     0.016 A 
ATOM     36  C   UNL A   1      44.723  34.628  25.612  1.00  0.00     0.010 A 
ATOM     37  C   UNL A   1      45.438  35.071  27.887  1.00  0.00     0.010 A 
ATOM     38  C   UNL A   1      45.643  34.435  26.648  1.00  0.00    -0.014 A 
BRANCH  38  39
ATOM     39  C   UNL A   1      46.717  33.420  26.507  1.00  0.00     0.031 A 
ATOM     40  C   UNL A   1      46.330  31.965  26.537  1.00  0.00     0.074 A 
ATOM     41  C   UNL A   1      48.003  33.777  26.342  1.00  0.00     0.049 A 
ATOM     42  N   UNL A   1      47.093  30.904  26.507  1.00  0.00    -0.248 NA
ATOM     43  C   UNL A   1      44.889  31.668  26.619  1.00  0.00     0.031 C 
ATOM     44  C   UNL A   1      48.496  35.150  26.243  1.00  0.00     0.029 A 
ATOM     45  N   UNL A   1      49.135  33.006  26.240  1.00  0.00    -0.354 N 
ATOM     46  C   UNL A   1      46.229  29.817  26.586  1.00  0.00     0.074 A 
ATOM     47  C   UNL A   1      44.888  30.345  26.692  1.00  0.00     0.031 C 
ATOM     48  C   UNL A   1      49.833  35.124  26.104  1.00  0.00     0.029 A 
ATOM     49  C   UNL A   1      50.296  33.739  26.151  1.00  0.00     0.049 A 
ATOM     50  H   UNL A   1      49.117  32.022  26.231  1.00  0.00     0.167 HD
ATOM     51  C   UNL A   1      46.530  28.497  26.570  1.00  0.00     0.031 A 
ATOM     52  C   UNL A   1      51.584  33.336  26.142  1.00  0.00     0.031 A 
ATOM     53  C   UNL A   1      47.868  27.979  26.472  1.00  0.00     0.049 A 
ATOM     54  C   UNL A   1      51.894  31.861  26.211  1.00  0.00     0.074 A 
ATOM     55  C   UNL A   1      48.274  26.657  26.425  1.00  0.00     0.029 A 
ATOM     56  N   UNL A   1      49.017  28.752  26.418  1.00  0.00    -0.354 N 
ATOM     57  N   UNL A   1      51.067  30.843  26.254  1.00  0.00    -0.248 NA
ATOM     58  C   UNL A   1      53.314  31.480  26.220  1.00  0.00     0.031 C 
ATOM     59  C   UNL A   1      49.671  26.630  26.424  1.00  0.00     0.029 A 
ATOM     60  C   UNL A   1      50.134  27.935  26.376  1.00  0.00     0.049 A 
ATOM     61  H   UNL A   1      49.036  29.737  26.411  1.00  0.00     0.167 HD
ATOM     62  C   UNL A   1      51.866  29.702  26.255  1.00  0.00     0.074 A 
ATOM     63  C   UNL A   1      53.239  30.156  26.191  1.00  0.00     0.031 C 
ATOM     64  C   UNL A   1      51.497  28.398  26.302  1.00  0.00     0.031 A 
BRANCH  51  65
ATOM     65  C   UNL A   1      45.396  27.513  26.699  1.00  0.00    -0.014 A 
ATOM     66  C   UNL A   1      44.883  27.141  27.954  1.00  0.00     0.010 A 
ATOM     67  C   UNL A   1      44.784  27.009  25.535  1.00  0.00     0.010 A 
ATOM     68  C   UNL A   1      43.793  26.271  28.044  1.00  0.00     0.020 A 
ATOM     69  C   UNL A   1      43.673  26.166  25.619  1.00  0.00     0.020 A 
ATOM     70  C   UNL A   1      43.191  25.795  26.875  1.00  0.00     0.054 A 
BRANCH  70  71
ATOM     71  S   UNL A   1      41.740  24.717  27.023  1.00  0.00     0.124 S 
ATOM     72  O   UNL A   1      41.522  24.699  28.468  1.00  0.00    -0.237 OA
ATOM     73  O   UNL A   1      40.732  25.434  26.246  1.00  0.00    -0.237 OA
ATOM     74  O   UNL A   1      42.185  23.451  26.446  1.00  0.00    -0.744 OA
ENDBRANCH  70  71
ENDBRANCH  51  65
BRANCH  52  75
ATOM     75  C   UNL A   1      52.687  34.340  26.099  1.00  0.00    -0.014 A 
ATOM     76  C   UNL A   1      53.026  35.089  27.240  1.00  0.00     0.010 A 
ATOM     77  C   UNL A   1      53.382  34.578  24.899  1.00  0.00     0.010 A 
ATOM     78  C   UNL A   1      54.013  36.079  27.172  1.00  0.00     0.020 A 
ATOM     79  C   UNL A   1      54.396  35.538  24.837  1.00  0.00     0.020 A 
ATOM     80  C   UNL A   1      54.693  36.294  25.971  1.00  0.00     0.054 A 
BRANCH  80  81
ATOM     81  S   UNL A   1      55.988  37.564  25.917  1.00  0.00     0.124 S 
ATOM     82  O   UNL A   1      56.123  37.922  27.325  1.00  0.00    -0.237 OA
ATOM     83  O   UNL A   1      57.114  36.836  25.337  1.00  0.00    -0.237 OA
ATOM     84  O   UNL A   1      55.418  38.600  25.059  1.00  0.00    -0.744 OA
ENDBRANCH  80  81
ENDBRANCH  52  75
BRANCH  64  85
ATOM     85  C   UNL A   1      52.586  27.357  26.225  1.00  0.00    -0.014 A 
ATOM     86  C   UNL A   1      53.028  26.835  24.996  1.00  0.00     0.010 A 
ATOM     87  C   UNL A   1      53.221  26.938  27.410  1.00  0.00     0.010 A 
ATOM     88  C   UNL A   1      54.057  25.889  24.959  1.00  0.00     0.020 A 
ATOM     89  C   UNL A   1      54.276  26.023  27.374  1.00  0.00     0.020 A 
ATOM     90  C   UNL A   1      54.677  25.493  26.148  1.00  0.00     0.054 A 
BRANCH  90  91
ATOM     91  S   UNL A   1      56.040  24.300  26.064  1.00  0.00     0.124 S 
ATOM     92  O   UNL A   1      55.339  23.026  26.198  1.00  0.00    -0.237 OA
ATOM     93  O   UNL A   1      56.614  24.565  24.748  1.00  0.00    -0.237 OA
ATOM     94  O   UNL A   1      56.891  24.663  27.195  1.00  0.00    -0.744 OA
ENDBRANCH  90  91
ENDBRANCH  64  85
ENDBRANCH  38  39
ENDBRANCH  31  33
ENDBRANCH  30  31
ENDBRANCH  29  30
ENDBRANCH  28  29
ENDBRANCH  27  28
ENDBRANCH  26  27
ENDBRANCH  25  26
ENDBRANCH   1  25
TORSDOF 26
ENDMDL
MODEL 3
REMARK VINA RESULT:      -7.4      5.200     11.302
REMARK SMILES Cc1c(F)cc(C(=O)OCCOCCOCCOCCOC(=O)c2ccc(-c3c4nc(c(-c5ccc(S(=O)(=O)[O-])cc5)c5ccc([nH]5)c(-c5ccc(S(=O)(=O)[O-])cc5)c5nc(c(-c6ccc(S(=O)(=O)[O-])cc6)c6ccc3[nH]6)C=C5)C=C4)cc2)cc1S(=O)(=O)NC#N
REMARK SMILES IDX 15 1 14 2 13 3 12 4 11 5 10 6 9 7 7 8 8 9 6 10 1 11 2 12
REMARK SMILES IDX 3 13 85 14 4 15 5 16 84 17 86 18 87 19 88 20 89 21 90 23
REMARK SMILES IDX 91 24 16 25 17 26 18 27 19 28 20 29 21 30 22 31 23 32 24 33
REMARK SMILES IDX 25 34 83 35 26 36 82 37 27 38 28 39 29 40 76 41 30 42 81 43
REMARK SMILES IDX 75 44 77 45 31 46 80 47 74 48 73 49 32 51 62 52 43 53 61 54
REMARK SMILES IDX 44 55 47 56 60 57 78 58 45 59 46 60 59 62 79 63 48 64 33 65
REMARK SMILES IDX 34 66 42 67 35 68 41 69 36 70 37 71 38 72 39 73 40 74 63 75
REMARK SMILES IDX 64 76 72 77 65 78 71 79 66 80 67 81 68 82 69 83 70 84 49 85
REMARK SMILES IDX 50 86 58 87 51 88 57 89 52 90 53 91 54 92 55 93 56 94
REMARK H PARENT 89 22 77 50 47 61
REMARK Flexibility Score: inf
ROOT
ATOM      1  O   UNL A   1      44.141  41.906  27.508  1.00  0.00    -0.377 OA
ENDROOT
BRANCH   1   2
ATOM      2  C   UNL A   1      43.939  41.318  26.237  1.00  0.00     0.188 C 
BRANCH   2   3
ATOM      3  C   UNL A   1      42.516  40.916  25.792  1.00  0.00     0.188 C 
BRANCH   3   4
ATOM      4  O   UNL A   1      41.904  39.891  26.539  1.00  0.00    -0.376 OA
BRANCH   4   5
ATOM      5  C   UNL A   1      42.650  38.889  27.198  1.00  0.00     0.202 C 
BRANCH   5   6
ATOM      6  C   UNL A   1      42.283  37.392  27.205  1.00  0.00     0.261 C 
BRANCH   6   7
ATOM      7  O   UNL A   1      42.034  36.773  28.471  1.00  0.00    -0.460 OA
BRANCH   7   8
ATOM      8  C   UNL A   1      42.021  35.423  28.479  1.00  0.00     0.338 C 
ATOM      9  O   UNL A   1      42.251  34.683  27.537  1.00  0.00    -0.246 OA
BRANCH   8  10
ATOM     10  C   UNL A   1      41.953  34.946  29.880  1.00  0.00     0.064 A 
ATOM     11  C   UNL A   1      42.171  33.816  34.036  1.00  0.00     0.049 C 
ATOM     12  C   UNL A   1      41.970  34.189  32.601  1.00  0.00     0.005 A 
ATOM     13  C   UNL A   1      43.150  34.511  31.905  1.00  0.00     0.128 A 
ATOM     14  C   UNL A   1      40.751  34.213  31.892  1.00  0.00     0.095 A 
ATOM     15  F   UNL A   1      44.326  34.503  32.550  1.00  0.00    -0.207 F 
ATOM     16  C   UNL A   1      43.157  34.869  30.569  1.00  0.00     0.055 A 
ATOM     17  C   UNL A   1      40.755  34.641  30.537  1.00  0.00     0.038 A 
BRANCH  14  18
ATOM     18  S   UNL A   1      39.120  33.987  32.614  1.00  0.00     0.270 S 
ATOM     19  O   UNL A   1      38.914  32.569  32.797  1.00  0.00    -0.201 OA
ATOM     20  O   UNL A   1      39.080  34.875  33.761  1.00  0.00    -0.201 OA
BRANCH  18  21
ATOM     21  N   UNL A   1      37.864  34.586  31.691  1.00  0.00    -0.215 NA
ATOM     22  H   UNL A   1      38.042  34.901  30.775  1.00  0.00     0.193 HD
BRANCH  21  23
ATOM     23  C   UNL A   1      36.639  34.642  32.169  1.00  0.00     0.191 C 
ATOM     24  N   UNL A   1      35.586  34.594  32.660  1.00  0.00    -0.172 NA
ENDBRANCH  21  23
ENDBRANCH  18  21
ENDBRANCH  14  18
ENDBRANCH   8  10
ENDBRANCH   7   8
ENDBRANCH   6   7
ENDBRANCH   5   6
ENDBRANCH   4   5
ENDBRANCH   3   4
ENDBRANCH   2   3
ENDBRANCH   1   2
BRANCH   1  25
ATOM     25  C   UNL A   1      45.386  41.772  28.186  1.00  0.00     0.188 C 
BRANCH  25  26
ATOM     26  C   UNL A   1      45.896  40.418  28.738  1.00  0.00     0.188 C 
BRANCH  26  27
ATOM     27  O   UNL A   1      46.527  39.585  27.790  1.00  0.00    -0.376 OA
BRANCH  27  28
ATOM     28  C   UNL A   1      47.865  39.178  27.972  1.00  0.00     0.202 C 
BRANCH  28  29
ATOM     29  C   UNL A   1      48.255  37.692  27.968  1.00  0.00     0.261 C 
BRANCH  29  30
ATOM     30  O   UNL A   1      48.345  37.025  29.232  1.00  0.00    -0.460 OA
BRANCH  30  31
ATOM     31  C   UNL A   1      47.197  36.535  29.751  1.00  0.00     0.338 C 
ATOM     32  O   UNL A   1      46.369  37.148  30.399  1.00  0.00    -0.246 OA
BRANCH  31  33
ATOM     33  C   UNL A   1      47.018  35.162  29.229  1.00  0.00     0.060 A 
ATOM     34  C   UNL A   1      46.015  34.913  28.281  1.00  0.00     0.016 A 
ATOM     35  C   UNL A   1      47.850  34.131  29.666  1.00  0.00     0.016 A 
ATOM     36  C   UNL A   1      45.820  33.620  27.792  1.00  0.00     0.010 A 
ATOM     37  C   UNL A   1      47.633  32.831  29.197  1.00  0.00     0.010 A 
ATOM     38  C   UNL A   1      46.596  32.565  28.284  1.00  0.00    -0.014 A 
BRANCH  38  39
ATOM     39  C   UNL A   1      46.206  31.162  27.997  1.00  0.00     0.031 A 
ATOM     40  C   UNL A   1      44.774  30.759  28.229  1.00  0.00     0.074 A 
ATOM     41  C   UNL A   1      47.096  30.268  27.529  1.00  0.00     0.049 A 
ATOM     42  N   UNL A   1      44.216  29.582  28.120  1.00  0.00    -0.248 NA
ATOM     43  C   UNL A   1      43.848  31.827  28.645  1.00  0.00     0.031 C 
ATOM     44  C   UNL A   1      48.495  30.550  27.214  1.00  0.00     0.029 A 
ATOM     45  N   UNL A   1      46.950  28.932  27.247  1.00  0.00    -0.354 N 
ATOM     46  C   UNL A   1      42.883  29.762  28.473  1.00  0.00     0.074 A 
ATOM     47  C   UNL A   1      42.720  31.155  28.823  1.00  0.00     0.031 C 
ATOM     48  C   UNL A   1      49.083  29.416  26.791  1.00  0.00     0.029 A 
ATOM     49  C   UNL A   1      48.117  28.322  26.849  1.00  0.00     0.049 A 
ATOM     50  H   UNL A   1      46.092  28.455  27.322  1.00  0.00     0.167 HD
ATOM     51  C   UNL A   1      41.886  28.848  28.499  1.00  0.00     0.031 A 
ATOM     52  C   UNL A   1      48.381  27.023  26.594  1.00  0.00     0.031 A 
ATOM     53  C   UNL A   1      42.058  27.461  28.157  1.00  0.00     0.049 A 
ATOM     54  C   UNL A   1      47.269  26.010  26.714  1.00  0.00     0.074 A 
ATOM     55  C   UNL A   1      41.103  26.460  28.130  1.00  0.00     0.029 A 
ATOM     56  N   UNL A   1      43.260  26.876  27.793  1.00  0.00    -0.354 N 
ATOM     57  N   UNL A   1      46.006  26.199  27.018  1.00  0.00    -0.248 NA
ATOM     58  C   UNL A   1      47.616  24.606  26.447  1.00  0.00     0.031 C 
ATOM     59  C   UNL A   1      41.743  25.255  27.829  1.00  0.00     0.029 A 
ATOM     60  C   UNL A   1      43.079  25.520  27.576  1.00  0.00     0.049 A 
ATOM     61  H   UNL A   1      44.117  27.354  27.701  1.00  0.00     0.167 HD
ATOM     62  C   UNL A   1      45.403  24.946  26.939  1.00  0.00     0.074 A 
ATOM     63  C   UNL A   1      46.435  24.011  26.542  1.00  0.00     0.031 C 
ATOM     64  C   UNL A   1      44.113  24.601  27.171  1.00  0.00     0.031 A 
BRANCH  51  65
ATOM     65  C   UNL A   1      40.522  29.303  28.951  1.00  0.00    -0.014 A 
ATOM     66  C   UNL A   1      39.501  29.597  28.030  1.00  0.00     0.010 A 
ATOM     67  C   UNL A   1      40.237  29.364  30.328  1.00  0.00     0.010 A 
ATOM     68  C   UNL A   1      38.229  29.961  28.477  1.00  0.00     0.020 A 
ATOM     69  C   UNL A   1      38.956  29.695  30.779  1.00  0.00     0.020 A 
ATOM     70  C   UNL A   1      37.962  30.000  29.849  1.00  0.00     0.054 A 
BRANCH  70  71
ATOM     71  S   UNL A   1      36.284  30.415  30.396  1.00  0.00     0.124 S 
ATOM     72  O   UNL A   1      35.470  29.888  29.304  1.00  0.00    -0.237 OA
ATOM     73  O   UNL A   1      36.176  29.697  31.663  1.00  0.00    -0.237 OA
ATOM     74  O   UNL A   1      36.303  31.872  30.507  1.00  0.00    -0.744 OA
ENDBRANCH  70  71
ENDBRANCH  51  65
BRANCH  52  75
ATOM     75  C   UNL A   1      49.762  26.590  26.232  1.00  0.00    -0.014 A 
ATOM     76  C   UNL A   1      50.620  26.031  27.196  1.00  0.00     0.010 A 
ATOM     77  C   UNL A   1      50.241  26.773  24.921  1.00  0.00     0.010 A 
ATOM     78  C   UNL A   1      51.937  25.695  26.866  1.00  0.00     0.020 A 
ATOM     79  C   UNL A   1      51.544  26.402  24.577  1.00  0.00     0.020 A 
ATOM     80  C   UNL A   1      52.389  25.881  25.556  1.00  0.00     0.054 A 
BRANCH  80  81
ATOM     81  S   UNL A   1      54.092  25.410  25.146  1.00  0.00     0.124 S 
ATOM     82  O   UNL A   1      54.373  26.257  23.990  1.00  0.00    -0.237 OA
ATOM     83  O   UNL A   1      54.813  25.748  26.370  1.00  0.00    -0.237 OA
ATOM     84  O   UNL A   1      53.994  23.979  24.864  1.00  0.00    -0.744 OA
ENDBRANCH  80  81
ENDBRANCH  52  75
BRANCH  64  85
ATOM     85  C   UNL A   1      43.718  23.162  26.945  1.00  0.00    -0.014 A 
ATOM     86  C   UNL A   1      43.101  22.396  27.950  1.00  0.00     0.010 A 
ATOM     87  C   UNL A   1      43.917  22.587  25.676  1.00  0.00     0.010 A 
ATOM     88  C   UNL A   1      42.725  21.073  27.700  1.00  0.00     0.020 A 
ATOM     89  C   UNL A   1      43.507  21.278  25.410  1.00  0.00     0.020 A 
ATOM     90  C   UNL A   1      42.927  20.524  26.430  1.00  0.00     0.054 A 
BRANCH  90  91
ATOM     91  S   UNL A   1      42.387  18.821  26.121  1.00  0.00     0.124 S 
ATOM     92  O   UNL A   1      43.255  18.421  25.017  1.00  0.00    -0.237 OA
ATOM     93  O   UNL A   1      42.653  18.166  27.398  1.00  0.00    -0.237 OA
ATOM     94  O   UNL A   1      40.972  18.960  25.780  1.00  0.00    -0.744 OA
ENDBRANCH  90  91
ENDBRANCH  64  85
ENDBRANCH  38  39
ENDBRANCH  31  33
ENDBRANCH  30  31
ENDBRANCH  29  30
ENDBRANCH  28  29
ENDBRANCH  27  28
ENDBRANCH  26  27
ENDBRANCH  25  26
ENDBRANCH   1  25
TORSDOF 26
ENDMDL
