MODEL 1
REMARK VINA RESULT:      -9.7      0.000      0.000
REMARK SMILES CN(C(=O)C[C@H]1SC(=O)N(c2cccc(O)c2)C1=O)c1ccccc1C(=O)OCCOCCOCCOCCOC(=O)c1ccc(-c2c3nc(c(-c4ccc(S(=O)(=O)[O-])cc4)c4ccc([nH]4)c(-c4ccc(S(=O)(=O)[O-])cc4)c4nc(c(-c5ccc(S(=O)(=O)[O-])cc5)c5ccc2[nH]5)C=C4)C=C3)cc1
REMARK SMILES IDX 32 1 31 2 30 3 29 4 28 5 26 6 27 7 25 8 20 9 21 10 22 11
REMARK SMILES IDX 24 12 23 13 2 14 1 15 3 16 4 17 5 18 6 19 7 20 18 21 8 22
REMARK SMILES IDX 10 23 19 24 9 25 11 26 12 27 17 28 13 29 15 30 14 31 16 32
REMARK SMILES IDX 33 34 34 35 35 36 36 37 37 38 38 39 39 40 40 41 41 42 42 43
REMARK SMILES IDX 43 44 44 45 102 46 45 47 101 48 46 49 47 50 48 51 95 52
REMARK SMILES IDX 49 53 100 54 94 55 96 56 50 57 99 58 93 59 92 60 51 62 81 63
REMARK SMILES IDX 62 64 80 65 63 66 66 67 79 68 97 69 64 70 65 71 78 73 98 74
REMARK SMILES IDX 67 75 52 76 53 77 61 78 54 79 60 80 55 81 56 82 57 83 58 84
REMARK SMILES IDX 59 85 82 86 83 87 91 88 84 89 90 90 85 91 86 92 87 93 88 94
REMARK SMILES IDX 89 95 68 96 69 97 77 98 70 99 76 100 71 101 72 102 73 103
REMARK SMILES IDX 74 104 75 105
REMARK H PARENT 16 33 96 61 66 72
REMARK Flexibility Score: inf
ROOT
ATOM      1  C   UNL A   1      32.815  33.502  28.009  1.00  0.00     0.188 C 
ENDROOT
BRANCH   1   2
ATOM      2  O   UNL A   1      32.400  32.420  27.184  1.00  0.00    -0.376 OA
BRANCH   2   3
ATOM      3  C   UNL A   1      33.229  31.289  26.938  1.00  0.00     0.202 C 
BRANCH   3   4
ATOM      4  C   UNL A   1      32.763  29.874  27.300  1.00  0.00     0.261 C 
BRANCH   4   5
ATOM      5  O   UNL A   1      31.709  29.410  26.447  1.00  0.00    -0.460 OA
BRANCH   5   6
ATOM      6  C   UNL A   1      31.999  29.318  25.131  1.00  0.00     0.340 C 
ATOM      7  O   UNL A   1      33.109  29.204  24.639  1.00  0.00    -0.246 OA
BRANCH   6   8
ATOM      8  C   UNL A   1      30.754  29.139  24.351  1.00  0.00     0.083 A 
ATOM      9  C   UNL A   1      30.184  27.910  23.954  1.00  0.00     0.058 A 
ATOM     10  C   UNL A   1      29.008  27.974  23.176  1.00  0.00     0.027 A 
ATOM     11  C   UNL A   1      28.444  29.190  22.776  1.00  0.00     0.002 A 
ATOM     12  C   UNL A   1      30.188  30.362  23.927  1.00  0.00     0.018 A 
ATOM     13  C   UNL A   1      29.042  30.387  23.139  1.00  0.00     0.001 A 
BRANCH   9  14
ATOM     14  N   UNL A   1      30.687  26.603  24.324  1.00  0.00    -0.315 N 
ATOM     15  C   UNL A   1      30.452  26.183  25.707  1.00  0.00     0.153 C 
BRANCH  14  16
ATOM     16  C   UNL A   1      31.357  25.818  23.367  1.00  0.00     0.228 C 
ATOM     17  O   UNL A   1      30.880  24.797  22.861  1.00  0.00    -0.274 OA
BRANCH  16  18
ATOM     18  C   UNL A   1      32.710  26.279  22.842  1.00  0.00     0.125 C 
BRANCH  18  19
ATOM     19  C   UNL A   1      33.900  25.593  23.515  1.00  0.00     0.156 C 
ATOM     20  S   UNL A   1      33.967  25.773  25.310  1.00  0.00    -0.050 SA
ATOM     21  C   UNL A   1      33.834  24.092  23.283  1.00  0.00     0.248 C 
ATOM     22  C   UNL A   1      33.562  24.114  25.628  1.00  0.00     0.293 C 
ATOM     23  N   UNL A   1      33.663  23.398  24.466  1.00  0.00    -0.240 N 
ATOM     24  O   UNL A   1      33.912  23.610  22.157  1.00  0.00    -0.273 OA
ATOM     25  O   UNL A   1      33.217  23.754  26.730  1.00  0.00    -0.261 OA
BRANCH  23  26
ATOM     26  C   UNL A   1      33.676  21.995  24.524  1.00  0.00     0.056 A 
ATOM     27  C   UNL A   1      32.509  21.251  24.340  1.00  0.00     0.027 A 
ATOM     28  C   UNL A   1      34.886  21.354  24.809  1.00  0.00     0.073 A 
ATOM     29  C   UNL A   1      32.562  19.859  24.437  1.00  0.00     0.006 A 
ATOM     30  C   UNL A   1      34.931  19.969  24.848  1.00  0.00     0.117 A 
ATOM     31  C   UNL A   1      33.777  19.215  24.683  1.00  0.00     0.046 A 
BRANCH  30  32
ATOM     32  O   UNL A   1      36.147  19.378  25.019  1.00  0.00    -0.508 OA
ATOM     33  H   UNL A   1      36.314  18.534  24.650  1.00  0.00     0.293 HD
ENDBRANCH  30  32
ENDBRANCH  23  26
ENDBRANCH  18  19
ENDBRANCH  16  18
ENDBRANCH  14  16
ENDBRANCH   9  14
ENDBRANCH   6   8
ENDBRANCH   5   6
ENDBRANCH   4   5
ENDBRANCH   3   4
ENDBRANCH   2   3
ENDBRANCH   1   2
BRANCH   1  34
ATOM     34  C   UNL A   1      34.145  34.218  27.726  1.00  0.00     0.188 C 
BRANCH  34  35
ATOM     35  O   UNL A   1      35.295  33.603  28.275  1.00  0.00    -0.377 OA
BRANCH  35  36
ATOM     36  C   UNL A   1      35.285  33.450  29.679  1.00  0.00     0.188 C 
BRANCH  36  37
ATOM     37  C   UNL A   1      35.106  32.008  30.170  1.00  0.00     0.188 C 
BRANCH  37  38
ATOM     38  O   UNL A   1      35.329  31.627  31.524  1.00  0.00    -0.376 OA
BRANCH  38  39
ATOM     39  C   UNL A   1      35.124  32.551  32.576  1.00  0.00     0.202 C 
BRANCH  39  40
ATOM     40  C   UNL A   1      36.266  32.748  33.586  1.00  0.00     0.261 C 
BRANCH  40  41
ATOM     41  O   UNL A   1      37.514  32.102  33.286  1.00  0.00    -0.460 OA
BRANCH  41  42
ATOM     42  C   UNL A   1      38.263  32.719  32.342  1.00  0.00     0.338 C 
ATOM     43  O   UNL A   1      38.373  33.921  32.161  1.00  0.00    -0.246 OA
BRANCH  42  44
ATOM     44  C   UNL A   1      39.049  31.732  31.568  1.00  0.00     0.060 A 
ATOM     45  C   UNL A   1      39.970  30.936  32.260  1.00  0.00     0.016 A 
ATOM     46  C   UNL A   1      38.992  31.691  30.171  1.00  0.00     0.016 A 
ATOM     47  C   UNL A   1      40.892  30.161  31.557  1.00  0.00     0.010 A 
ATOM     48  C   UNL A   1      39.933  30.927  29.466  1.00  0.00     0.010 A 
ATOM     49  C   UNL A   1      40.925  30.208  30.157  1.00  0.00    -0.014 A 
BRANCH  49  50
ATOM     50  C   UNL A   1      42.141  29.715  29.457  1.00  0.00     0.031 A 
ATOM     51  C   UNL A   1      43.361  30.596  29.439  1.00  0.00     0.074 A 
ATOM     52  C   UNL A   1      42.191  28.490  28.905  1.00  0.00     0.049 A 
ATOM     53  N   UNL A   1      44.551  30.350  28.955  1.00  0.00    -0.248 NA
ATOM     54  C   UNL A   1      43.213  31.939  30.025  1.00  0.00     0.031 C 
ATOM     55  C   UNL A   1      41.071  27.560  28.835  1.00  0.00     0.029 A 
ATOM     56  N   UNL A   1      43.231  27.809  28.320  1.00  0.00    -0.354 N 
ATOM     57  C   UNL A   1      45.285  31.513  29.155  1.00  0.00     0.074 A 
ATOM     58  C   UNL A   1      44.404  32.469  29.789  1.00  0.00     0.031 C 
ATOM     59  C   UNL A   1      41.496  26.411  28.285  1.00  0.00     0.029 A 
ATOM     60  C   UNL A   1      42.916  26.516  27.968  1.00  0.00     0.049 A 
ATOM     61  H   UNL A   1      44.118  28.207  28.166  1.00  0.00     0.167 HD
ATOM     62  C   UNL A   1      46.576  31.766  28.835  1.00  0.00     0.031 A 
ATOM     63  C   UNL A   1      43.689  25.528  27.473  1.00  0.00     0.031 A 
ATOM     64  C   UNL A   1      47.447  30.822  28.188  1.00  0.00     0.049 A 
ATOM     65  C   UNL A   1      45.137  25.824  27.170  1.00  0.00     0.074 A 
ATOM     66  C   UNL A   1      48.757  30.997  27.776  1.00  0.00     0.029 A 
ATOM     67  N   UNL A   1      47.099  29.519  27.868  1.00  0.00    -0.354 N 
ATOM     68  N   UNL A   1      45.816  26.929  27.373  1.00  0.00    -0.248 NA
ATOM     69  C   UNL A   1      45.923  24.739  26.563  1.00  0.00     0.031 C 
ATOM     70  C   UNL A   1      49.191  29.808  27.179  1.00  0.00     0.029 A 
ATOM     71  C   UNL A   1      48.170  28.876  27.270  1.00  0.00     0.049 A 
ATOM     72  H   UNL A   1      46.221  29.110  28.040  1.00  0.00     0.167 HD
ATOM     73  C   UNL A   1      47.107  26.665  26.927  1.00  0.00     0.074 A 
ATOM     74  C   UNL A   1      47.129  25.283  26.498  1.00  0.00     0.031 C 
ATOM     75  C   UNL A   1      48.175  27.498  26.855  1.00  0.00     0.031 A 
BRANCH  62  76
ATOM     76  C   UNL A   1      47.108  33.137  29.153  1.00  0.00    -0.014 A 
ATOM     77  C   UNL A   1      47.124  34.152  28.179  1.00  0.00     0.010 A 
ATOM     78  C   UNL A   1      47.577  33.421  30.447  1.00  0.00     0.010 A 
ATOM     79  C   UNL A   1      47.630  35.418  28.487  1.00  0.00     0.020 A 
ATOM     80  C   UNL A   1      48.058  34.694  30.767  1.00  0.00     0.020 A 
ATOM     81  C   UNL A   1      48.093  35.680  29.779  1.00  0.00     0.054 A 
BRANCH  81  82
ATOM     82  S   UNL A   1      48.710  37.342  30.160  1.00  0.00     0.124 S 
ATOM     83  O   UNL A   1      48.552  38.025  28.879  1.00  0.00    -0.237 OA
ATOM     84  O   UNL A   1      47.809  37.782  31.223  1.00  0.00    -0.237 OA
ATOM     85  O   UNL A   1      50.092  37.112  30.575  1.00  0.00    -0.744 OA
ENDBRANCH  81  82
ENDBRANCH  62  76
BRANCH  63  86
ATOM     86  C   UNL A   1      43.148  24.151  27.258  1.00  0.00    -0.014 A 
ATOM     87  C   UNL A   1      42.968  23.283  28.353  1.00  0.00     0.010 A 
ATOM     88  C   UNL A   1      42.848  23.680  25.968  1.00  0.00     0.010 A 
ATOM     89  C   UNL A   1      42.532  21.968  28.160  1.00  0.00     0.020 A 
ATOM     90  C   UNL A   1      42.369  22.381  25.774  1.00  0.00     0.020 A 
ATOM     91  C   UNL A   1      42.228  21.528  26.870  1.00  0.00     0.054 A 
BRANCH  91  92
ATOM     92  S   UNL A   1      41.582  19.849  26.653  1.00  0.00     0.124 S 
ATOM     93  O   UNL A   1      40.912  19.614  27.928  1.00  0.00    -0.237 OA
ATOM     94  O   UNL A   1      40.707  20.004  25.493  1.00  0.00    -0.237 OA
ATOM     95  O   UNL A   1      42.781  19.048  26.412  1.00  0.00    -0.744 OA
ENDBRANCH  91  92
ENDBRANCH  63  86
BRANCH  75  96
ATOM     96  C   UNL A   1      49.460  26.921  26.322  1.00  0.00    -0.014 A 
ATOM     97  C   UNL A   1      50.326  26.177  27.147  1.00  0.00     0.010 A 
ATOM     98  C   UNL A   1      49.804  27.119  24.973  1.00  0.00     0.010 A 
ATOM     99  C   UNL A   1      51.539  25.701  26.649  1.00  0.00     0.020 A 
ATOM    100  C   UNL A   1      51.003  26.616  24.463  1.00  0.00     0.020 A 
ATOM    101  C   UNL A   1      51.875  25.932  25.311  1.00  0.00     0.054 A 
BRANCH 101 102
ATOM    102  S   UNL A   1      53.460  25.310  24.688  1.00  0.00     0.124 S 
ATOM    103  O   UNL A   1      53.375  23.888  25.009  1.00  0.00    -0.237 OA
ATOM    104  O   UNL A   1      53.398  25.638  23.265  1.00  0.00    -0.237 OA
ATOM    105  O   UNL A   1      54.452  26.063  25.451  1.00  0.00    -0.744 OA
ENDBRANCH 101 102
ENDBRANCH  75  96
ENDBRANCH  49  50
ENDBRANCH  42  44
ENDBRANCH  41  42
ENDBRANCH  40  41
ENDBRANCH  39  40
ENDBRANCH  38  39
ENDBRANCH  37  38
ENDBRANCH  36  37
ENDBRANCH  35  36
ENDBRANCH  34  35
ENDBRANCH   1  34
TORSDOF 29
ENDMDL
MODEL 2
REMARK VINA RESULT:      -9.0      6.780     12.732
REMARK SMILES CN(C(=O)C[C@H]1SC(=O)N(c2cccc(O)c2)C1=O)c1ccccc1C(=O)OCCOCCOCCOCCOC(=O)c1ccc(-c2c3nc(c(-c4ccc(S(=O)(=O)[O-])cc4)c4ccc([nH]4)c(-c4ccc(S(=O)(=O)[O-])cc4)c4nc(c(-c5ccc(S(=O)(=O)[O-])cc5)c5ccc2[nH]5)C=C4)C=C3)cc1
REMARK SMILES IDX 32 1 31 2 30 3 29 4 28 5 26 6 27 7 25 8 20 9 21 10 22 11
REMARK SMILES IDX 24 12 23 13 2 14 1 15 3 16 4 17 5 18 6 19 7 20 18 21 8 22
REMARK SMILES IDX 10 23 19 24 9 25 11 26 12 27 17 28 13 29 15 30 14 31 16 32
REMARK SMILES IDX 33 34 34 35 35 36 36 37 37 38 38 39 39 40 40 41 41 42 42 43
REMARK SMILES IDX 43 44 44 45 102 46 45 47 101 48 46 49 47 50 48 51 95 52
REMARK SMILES IDX 49 53 100 54 94 55 96 56 50 57 99 58 93 59 92 60 51 62 81 63
REMARK SMILES IDX 62 64 80 65 63 66 66 67 79 68 97 69 64 70 65 71 78 73 98 74
REMARK SMILES IDX 67 75 52 76 53 77 61 78 54 79 60 80 55 81 56 82 57 83 58 84
REMARK SMILES IDX 59 85 82 86 83 87 91 88 84 89 90 90 85 91 86 92 87 93 88 94
REMARK SMILES IDX 89 95 68 96 69 97 77 98 70 99 76 100 71 101 72 102 73 103
REMARK SMILES IDX 74 104 75 105
REMARK H PARENT 16 33 96 61 66 72
REMARK Flexibility Score: inf
ROOT
ATOM      1  C   UNL A   1      32.934  33.224  27.784  1.00  0.00     0.188 C 
ENDROOT
BRANCH   1   2
ATOM      2  O   UNL A   1      33.254  32.072  27.014  1.00  0.00    -0.376 OA
BRANCH   2   3
ATOM      3  C   UNL A   1      33.195  30.756  27.553  1.00  0.00     0.202 C 
BRANCH   3   4
ATOM      4  C   UNL A   1      32.254  29.701  26.960  1.00  0.00     0.261 C 
BRANCH   4   5
ATOM      5  O   UNL A   1      31.564  30.174  25.796  1.00  0.00    -0.460 OA
BRANCH   5   6
ATOM      6  C   UNL A   1      31.743  29.463  24.663  1.00  0.00     0.340 C 
ATOM      7  O   UNL A   1      32.795  29.000  24.254  1.00  0.00    -0.246 OA
BRANCH   6   8
ATOM      8  C   UNL A   1      30.431  29.111  24.075  1.00  0.00     0.083 A 
ATOM      9  C   UNL A   1      29.910  27.808  23.911  1.00  0.00     0.058 A 
ATOM     10  C   UNL A   1      28.649  27.701  23.287  1.00  0.00     0.027 A 
ATOM     11  C   UNL A   1      27.953  28.818  22.813  1.00  0.00     0.002 A 
ATOM     12  C   UNL A   1      29.731  30.231  23.577  1.00  0.00     0.018 A 
ATOM     13  C   UNL A   1      28.501  30.085  22.944  1.00  0.00     0.001 A 
BRANCH   9  14
ATOM     14  N   UNL A   1      30.547  26.594  24.375  1.00  0.00    -0.315 N 
ATOM     15  C   UNL A   1      30.529  26.361  25.820  1.00  0.00     0.153 C 
BRANCH  14  16
ATOM     16  C   UNL A   1      31.137  25.718  23.445  1.00  0.00     0.228 C 
ATOM     17  O   UNL A   1      30.642  24.635  23.112  1.00  0.00    -0.274 OA
BRANCH  16  18
ATOM     18  C   UNL A   1      32.410  26.142  22.725  1.00  0.00     0.125 C 
BRANCH  18  19
ATOM     19  C   UNL A   1      33.684  25.530  23.311  1.00  0.00     0.156 C 
ATOM     20  S   UNL A   1      33.876  25.733  25.094  1.00  0.00    -0.050 SA
ATOM     21  C   UNL A   1      33.683  24.025  23.094  1.00  0.00     0.248 C 
ATOM     22  C   UNL A   1      33.588  24.057  25.454  1.00  0.00     0.293 C 
ATOM     23  N   UNL A   1      33.641  23.335  24.292  1.00  0.00    -0.240 N 
ATOM     24  O   UNL A   1      33.704  23.536  21.970  1.00  0.00    -0.273 OA
ATOM     25  O   UNL A   1      33.348  23.691  26.581  1.00  0.00    -0.261 OA
BRANCH  23  26
ATOM     26  C   UNL A   1      33.736  21.936  24.358  1.00  0.00     0.056 A 
ATOM     27  C   UNL A   1      32.646  21.120  24.051  1.00  0.00     0.027 A 
ATOM     28  C   UNL A   1      34.945  21.373  24.777  1.00  0.00     0.073 A 
ATOM     29  C   UNL A   1      32.776  19.734  24.161  1.00  0.00     0.006 A 
ATOM     30  C   UNL A   1      35.073  19.993  24.829  1.00  0.00     0.117 A 
ATOM     31  C   UNL A   1      33.994  19.168  24.542  1.00  0.00     0.046 A 
BRANCH  30  32
ATOM     32  O   UNL A   1      36.298  19.480  25.136  1.00  0.00    -0.508 OA
ATOM     33  H   UNL A   1      36.366  18.631  25.524  1.00  0.00     0.293 HD
ENDBRANCH  30  32
ENDBRANCH  23  26
ENDBRANCH  18  19
ENDBRANCH  16  18
ENDBRANCH  14  16
ENDBRANCH   9  14
ENDBRANCH   6   8
ENDBRANCH   5   6
ENDBRANCH   4   5
ENDBRANCH   3   4
ENDBRANCH   2   3
ENDBRANCH   1   2
BRANCH   1  34
ATOM     34  C   UNL A   1      34.012  33.891  28.653  1.00  0.00     0.188 C 
BRANCH  34  35
ATOM     35  O   UNL A   1      33.981  33.554  30.026  1.00  0.00    -0.377 OA
BRANCH  35  36
ATOM     36  C   UNL A   1      34.894  32.553  30.423  1.00  0.00     0.188 C 
BRANCH  36  37
ATOM     37  C   UNL A   1      36.154  32.447  29.553  1.00  0.00     0.188 C 
BRANCH  37  38
ATOM     38  O   UNL A   1      36.549  31.233  28.923  1.00  0.00    -0.376 OA
BRANCH  38  39
ATOM     39  C   UNL A   1      37.507  30.384  29.527  1.00  0.00     0.202 C 
BRANCH  39  40
ATOM     40  C   UNL A   1      36.987  29.199  30.357  1.00  0.00     0.261 C 
BRANCH  40  41
ATOM     41  O   UNL A   1      36.490  29.499  31.672  1.00  0.00    -0.460 OA
BRANCH  41  42
ATOM     42  C   UNL A   1      37.366  29.271  32.678  1.00  0.00     0.338 C 
ATOM     43  O   UNL A   1      37.582  28.210  33.239  1.00  0.00    -0.246 OA
BRANCH  42  44
ATOM     44  C   UNL A   1      38.142  30.495  32.984  1.00  0.00     0.060 A 
ATOM     45  C   UNL A   1      39.463  30.344  33.424  1.00  0.00     0.016 A 
ATOM     46  C   UNL A   1      37.540  31.757  32.983  1.00  0.00     0.016 A 
ATOM     47  C   UNL A   1      40.157  31.437  33.942  1.00  0.00     0.010 A 
ATOM     48  C   UNL A   1      38.232  32.851  33.523  1.00  0.00     0.010 A 
ATOM     49  C   UNL A   1      39.521  32.679  34.060  1.00  0.00    -0.014 A 
BRANCH  49  50
ATOM     50  C   UNL A   1      40.115  33.699  34.966  1.00  0.00     0.031 A 
ATOM     51  C   UNL A   1      39.759  33.649  36.428  1.00  0.00     0.074 A 
ATOM     52  C   UNL A   1      41.000  34.609  34.522  1.00  0.00     0.049 A 
ATOM     53  N   UNL A   1      40.206  34.384  37.412  1.00  0.00    -0.248 NA
ATOM     54  C   UNL A   1      38.751  32.652  36.827  1.00  0.00     0.031 C 
ATOM     55  C   UNL A   1      41.400  34.774  33.131  1.00  0.00     0.029 A 
ATOM     56  N   UNL A   1      41.737  35.550  35.198  1.00  0.00    -0.354 N 
ATOM     57  C   UNL A   1      39.518  33.958  38.542  1.00  0.00     0.074 A 
ATOM     58  C   UNL A   1      38.613  32.912  38.119  1.00  0.00     0.031 C 
ATOM     59  C   UNL A   1      42.347  35.724  33.062  1.00  0.00     0.029 A 
ATOM     60  C   UNL A   1      42.628  36.232  34.400  1.00  0.00     0.049 A 
ATOM     61  H   UNL A   1      41.639  35.722  36.164  1.00  0.00     0.167 HD
ATOM     62  C   UNL A   1      39.625  34.400  39.816  1.00  0.00     0.031 A 
ATOM     63  C   UNL A   1      43.574  37.139  34.717  1.00  0.00     0.031 A 
ATOM     64  C   UNL A   1      40.511  35.453  40.235  1.00  0.00     0.049 A 
ATOM     65  C   UNL A   1      43.703  37.580  36.155  1.00  0.00     0.074 A 
ATOM     66  C   UNL A   1      40.659  36.009  41.494  1.00  0.00     0.029 A 
ATOM     67  N   UNL A   1      41.411  36.102  39.403  1.00  0.00    -0.354 N 
ATOM     68  N   UNL A   1      43.047  37.159  37.211  1.00  0.00    -0.248 NA
ATOM     69  C   UNL A   1      44.698  38.624  36.442  1.00  0.00     0.031 C 
ATOM     70  C   UNL A   1      41.628  37.016  41.416  1.00  0.00     0.029 A 
ATOM     71  C   UNL A   1      42.122  37.048  40.123  1.00  0.00     0.049 A 
ATOM     72  H   UNL A   1      41.527  35.918  38.444  1.00  0.00     0.167 HD
ATOM     73  C   UNL A   1      43.557  37.882  38.284  1.00  0.00     0.074 A 
ATOM     74  C   UNL A   1      44.613  38.723  37.760  1.00  0.00     0.031 C 
ATOM     75  C   UNL A   1      43.172  37.872  39.585  1.00  0.00     0.031 A 
BRANCH  62  76
ATOM     76  C   UNL A   1      38.728  33.763  40.843  1.00  0.00    -0.014 A 
ATOM     77  C   UNL A   1      39.024  32.496  41.378  1.00  0.00     0.010 A 
ATOM     78  C   UNL A   1      37.587  34.449  41.295  1.00  0.00     0.010 A 
ATOM     79  C   UNL A   1      38.177  31.913  42.324  1.00  0.00     0.020 A 
ATOM     80  C   UNL A   1      36.752  33.881  42.262  1.00  0.00     0.020 A 
ATOM     81  C   UNL A   1      37.046  32.610  42.760  1.00  0.00     0.054 A 
BRANCH  81  82
ATOM     82  S   UNL A   1      35.984  31.845  44.015  1.00  0.00     0.124 S 
ATOM     83  O   UNL A   1      36.365  32.576  45.220  1.00  0.00    -0.237 OA
ATOM     84  O   UNL A   1      34.641  32.122  43.509  1.00  0.00    -0.237 OA
ATOM     85  O   UNL A   1      36.377  30.438  43.990  1.00  0.00    -0.744 OA
ENDBRANCH  81  82
ENDBRANCH  62  76
BRANCH  63  86
ATOM     86  C   UNL A   1      44.509  37.681  33.684  1.00  0.00    -0.014 A 
ATOM     87  C   UNL A   1      45.787  37.111  33.519  1.00  0.00     0.010 A 
ATOM     88  C   UNL A   1      44.155  38.785  32.890  1.00  0.00     0.010 A 
ATOM     89  C   UNL A   1      46.699  37.652  32.607  1.00  0.00     0.020 A 
ATOM     90  C   UNL A   1      45.047  39.304  31.946  1.00  0.00     0.020 A 
ATOM     91  C   UNL A   1      46.319  38.743  31.821  1.00  0.00     0.054 A 
BRANCH  91  92
ATOM     92  S   UNL A   1      47.486  39.372  30.586  1.00  0.00     0.124 S 
ATOM     93  O   UNL A   1      46.591  39.901  29.563  1.00  0.00    -0.237 OA
ATOM     94  O   UNL A   1      48.236  40.367  31.352  1.00  0.00    -0.237 OA
ATOM     95  O   UNL A   1      48.255  38.190  30.204  1.00  0.00    -0.744 OA
ENDBRANCH  91  92
ENDBRANCH  63  86
BRANCH  75  96
ATOM     96  C   UNL A   1      43.923  38.773  40.529  1.00  0.00    -0.014 A 
ATOM     97  C   UNL A   1      43.512  40.101  40.754  1.00  0.00     0.010 A 
ATOM     98  C   UNL A   1      45.054  38.283  41.206  1.00  0.00     0.010 A 
ATOM     99  C   UNL A   1      44.256  40.939  41.588  1.00  0.00     0.020 A 
ATOM    100  C   UNL A   1      45.782  39.109  42.066  1.00  0.00     0.020 A 
ATOM    101  C   UNL A   1      45.393  40.439  42.231  1.00  0.00     0.054 A 
BRANCH 101 102
ATOM    102  S   UNL A   1      46.348  41.547  43.303  1.00  0.00     0.124 S 
ATOM    103  O   UNL A   1      47.131  42.307  42.332  1.00  0.00    -0.237 OA
ATOM    104  O   UNL A   1      45.306  42.302  43.996  1.00  0.00    -0.237 OA
ATOM    105  O   UNL A   1      47.115  40.636  44.148  1.00  0.00    -0.744 OA
ENDBRANCH 101 102
ENDBRANCH  75  96
ENDBRANCH  49  50
ENDBRANCH  42  44
ENDBRANCH  41  42
ENDBRANCH  40  41
ENDBRANCH  39  40
ENDBRANCH  38  39
ENDBRANCH  37  38
ENDBRANCH  36  37
ENDBRANCH  35  36
ENDBRANCH  34  35
ENDBRANCH   1  34
TORSDOF 29
ENDMDL
MODEL 3
REMARK VINA RESULT:      -8.9      1.555      2.132
REMARK SMILES CN(C(=O)C[C@H]1SC(=O)N(c2cccc(O)c2)C1=O)c1ccccc1C(=O)OCCOCCOCCOCCOC(=O)c1ccc(-c2c3nc(c(-c4ccc(S(=O)(=O)[O-])cc4)c4ccc([nH]4)c(-c4ccc(S(=O)(=O)[O-])cc4)c4nc(c(-c5ccc(S(=O)(=O)[O-])cc5)c5ccc2[nH]5)C=C4)C=C3)cc1
REMARK SMILES IDX 32 1 31 2 30 3 29 4 28 5 26 6 27 7 25 8 20 9 21 10 22 11
REMARK SMILES IDX 24 12 23 13 2 14 1 15 3 16 4 17 5 18 6 19 7 20 18 21 8 22
REMARK SMILES IDX 10 23 19 24 9 25 11 26 12 27 17 28 13 29 15 30 14 31 16 32
REMARK SMILES IDX 33 34 34 35 35 36 36 37 37 38 38 39 39 40 40 41 41 42 42 43
REMARK SMILES IDX 43 44 44 45 102 46 45 47 101 48 46 49 47 50 48 51 95 52
REMARK SMILES IDX 49 53 100 54 94 55 96 56 50 57 99 58 93 59 92 60 51 62 81 63
REMARK SMILES IDX 62 64 80 65 63 66 66 67 79 68 97 69 64 70 65 71 78 73 98 74
REMARK SMILES IDX 67 75 52 76 53 77 61 78 54 79 60 80 55 81 56 82 57 83 58 84
REMARK SMILES IDX 59 85 82 86 83 87 91 88 84 89 90 90 85 91 86 92 87 93 88 94
REMARK SMILES IDX 89 95 68 96 69 97 77 98 70 99 76 100 71 101 72 102 73 103
REMARK SMILES IDX 74 104 75 105
REMARK H PARENT 16 33 96 61 66 72
REMARK Flexibility Score: inf
ROOT
ATOM      1  C   UNL A   1      32.905  33.179  27.692  1.00  0.00     0.188 C 
ENDROOT
BRANCH   1   2
ATOM      2  O   UNL A   1      33.146  32.000  26.932  1.00  0.00    -0.376 OA
BRANCH   2   3
ATOM      3  C   UNL A   1      33.201  30.709  27.528  1.00  0.00     0.202 C 
BRANCH   3   4
ATOM      4  C   UNL A   1      32.427  29.529  26.930  1.00  0.00     0.261 C 
BRANCH   4   5
ATOM      5  O   UNL A   1      31.481  29.943  25.936  1.00  0.00    -0.460 OA
BRANCH   5   6
ATOM      6  C   UNL A   1      31.687  29.481  24.684  1.00  0.00     0.340 C 
ATOM      7  O   UNL A   1      32.762  29.210  24.177  1.00  0.00    -0.246 OA
BRANCH   6   8
ATOM      8  C   UNL A   1      30.393  29.120  24.060  1.00  0.00     0.083 A 
ATOM      9  C   UNL A   1      29.890  27.814  23.875  1.00  0.00     0.058 A 
ATOM     10  C   UNL A   1      28.646  27.697  23.218  1.00  0.00     0.027 A 
ATOM     11  C   UNL A   1      27.953  28.811  22.732  1.00  0.00     0.002 A 
ATOM     12  C   UNL A   1      29.695  30.237  23.550  1.00  0.00     0.018 A 
ATOM     13  C   UNL A   1      28.484  30.082  22.884  1.00  0.00     0.001 A 
BRANCH   9  14
ATOM     14  N   UNL A   1      30.526  26.602  24.349  1.00  0.00    -0.315 N 
ATOM     15  C   UNL A   1      30.499  26.376  25.795  1.00  0.00     0.153 C 
BRANCH  14  16
ATOM     16  C   UNL A   1      31.124  25.723  23.427  1.00  0.00     0.228 C 
ATOM     17  O   UNL A   1      30.637  24.636  23.101  1.00  0.00    -0.274 OA
BRANCH  16  18
ATOM     18  C   UNL A   1      32.397  26.150  22.707  1.00  0.00     0.125 C 
BRANCH  18  19
ATOM     19  C   UNL A   1      33.670  25.532  23.286  1.00  0.00     0.156 C 
ATOM     20  S   UNL A   1      33.894  25.772  25.061  1.00  0.00    -0.050 SA
ATOM     21  C   UNL A   1      33.645  24.023  23.103  1.00  0.00     0.248 C 
ATOM     22  C   UNL A   1      33.588  24.109  25.463  1.00  0.00     0.293 C 
ATOM     23  N   UNL A   1      33.611  23.361  24.316  1.00  0.00    -0.240 N 
ATOM     24  O   UNL A   1      33.639  23.509  21.990  1.00  0.00    -0.273 OA
ATOM     25  O   UNL A   1      33.361  23.771  26.602  1.00  0.00    -0.261 OA
BRANCH  23  26
ATOM     26  C   UNL A   1      33.687  21.962  24.413  1.00  0.00     0.056 A 
ATOM     27  C   UNL A   1      32.564  21.160  24.206  1.00  0.00     0.027 A 
ATOM     28  C   UNL A   1      34.914  21.387  24.758  1.00  0.00     0.073 A 
ATOM     29  C   UNL A   1      32.677  19.775  24.343  1.00  0.00     0.006 A 
ATOM     30  C   UNL A   1      35.021  20.007  24.836  1.00  0.00     0.117 A 
ATOM     31  C   UNL A   1      33.911  19.195  24.650  1.00  0.00     0.046 A 
BRANCH  30  32
ATOM     32  O   UNL A   1      36.257  19.479  25.068  1.00  0.00    -0.508 OA
ATOM     33  H   UNL A   1      36.492  18.655  24.689  1.00  0.00     0.293 HD
ENDBRANCH  30  32
ENDBRANCH  23  26
ENDBRANCH  18  19
ENDBRANCH  16  18
ENDBRANCH  14  16
ENDBRANCH   9  14
ENDBRANCH   6   8
ENDBRANCH   5   6
ENDBRANCH   4   5
ENDBRANCH   3   4
ENDBRANCH   2   3
ENDBRANCH   1   2
BRANCH   1  34
ATOM     34  C   UNL A   1      34.086  34.020  28.202  1.00  0.00     0.188 C 
BRANCH  34  35
ATOM     35  O   UNL A   1      34.134  34.213  29.602  1.00  0.00    -0.377 OA
BRANCH  35  36
ATOM     36  C   UNL A   1      34.798  33.200  30.328  1.00  0.00     0.188 C 
BRANCH  36  37
ATOM     37  C   UNL A   1      35.860  32.427  29.536  1.00  0.00     0.188 C 
BRANCH  37  38
ATOM     38  O   UNL A   1      35.666  31.085  29.104  1.00  0.00    -0.376 OA
BRANCH  38  39
ATOM     39  C   UNL A   1      36.688  30.119  29.267  1.00  0.00     0.202 C 
BRANCH  39  40
ATOM     40  C   UNL A   1      36.762  29.378  30.612  1.00  0.00     0.261 C 
BRANCH  40  41
ATOM     41  O   UNL A   1      37.598  29.959  31.626  1.00  0.00    -0.460 OA
BRANCH  41  42
ATOM     42  C   UNL A   1      38.683  29.222  31.962  1.00  0.00     0.338 C 
ATOM     43  O   UNL A   1      38.878  28.640  33.017  1.00  0.00    -0.246 OA
BRANCH  42  44
ATOM     44  C   UNL A   1      39.620  29.118  30.821  1.00  0.00     0.060 A 
ATOM     45  C   UNL A   1      40.071  27.844  30.454  1.00  0.00     0.016 A 
ATOM     46  C   UNL A   1      40.163  30.257  30.218  1.00  0.00     0.016 A 
ATOM     47  C   UNL A   1      41.122  27.707  29.547  1.00  0.00     0.010 A 
ATOM     48  C   UNL A   1      41.232  30.119  29.322  1.00  0.00     0.010 A 
ATOM     49  C   UNL A   1      41.754  28.846  29.032  1.00  0.00    -0.014 A 
BRANCH  49  50
ATOM     50  C   UNL A   1      43.096  28.693  28.409  1.00  0.00     0.031 A 
ATOM     51  C   UNL A   1      44.118  29.775  28.637  1.00  0.00     0.074 A 
ATOM     52  C   UNL A   1      43.430  27.593  27.712  1.00  0.00     0.049 A 
ATOM     53  N   UNL A   1      45.368  29.825  28.256  1.00  0.00    -0.248 NA
ATOM     54  C   UNL A   1      43.662  30.966  29.373  1.00  0.00     0.031 C 
ATOM     55  C   UNL A   1      42.524  26.495  27.401  1.00  0.00     0.029 A 
ATOM     56  N   UNL A   1      44.628  27.207  27.158  1.00  0.00    -0.354 N 
ATOM     57  C   UNL A   1      45.841  31.060  28.683  1.00  0.00     0.074 A 
ATOM     58  C   UNL A   1      44.741  31.734  29.337  1.00  0.00     0.031 C 
ATOM     59  C   UNL A   1      43.209  25.537  26.755  1.00  0.00     0.029 A 
ATOM     60  C   UNL A   1      44.602  25.945  26.610  1.00  0.00     0.049 A 
ATOM     61  H   UNL A   1      45.429  27.780  27.154  1.00  0.00     0.167 HD
ATOM     62  C   UNL A   1      47.078  31.589  28.540  1.00  0.00     0.031 A 
ATOM     63  C   UNL A   1      45.591  25.200  26.077  1.00  0.00     0.031 A 
ATOM     64  C   UNL A   1      48.168  30.927  27.873  1.00  0.00     0.049 A 
ATOM     65  C   UNL A   1      46.973  25.797  25.972  1.00  0.00     0.074 A 
ATOM     66  C   UNL A   1      49.447  31.398  27.631  1.00  0.00     0.029 A 
ATOM     67  N   UNL A   1      48.109  29.644  27.351  1.00  0.00    -0.354 N 
ATOM     68  N   UNL A   1      47.403  26.965  26.389  1.00  0.00    -0.248 NA
ATOM     69  C   UNL A   1      48.003  24.976  25.318  1.00  0.00     0.031 C 
ATOM     70  C   UNL A   1      50.152  30.410  26.935  1.00  0.00     0.029 A 
ATOM     71  C   UNL A   1      49.330  29.304  26.794  1.00  0.00     0.049 A 
ATOM     72  H   UNL A   1      47.317  29.061  27.373  1.00  0.00     0.167 HD
ATOM     73  C   UNL A   1      48.753  27.011  26.054  1.00  0.00     0.074 A 
ATOM     74  C   UNL A   1      49.080  25.735  25.454  1.00  0.00     0.031 C 
ATOM     75  C   UNL A   1      49.639  28.027  26.206  1.00  0.00     0.031 A 
BRANCH  62  76
ATOM     76  C   UNL A   1      47.303  32.972  29.088  1.00  0.00    -0.014 A 
ATOM     77  C   UNL A   1      47.696  33.167  30.425  1.00  0.00     0.010 A 
ATOM     78  C   UNL A   1      47.141  34.090  28.251  1.00  0.00     0.010 A 
ATOM     79  C   UNL A   1      47.891  34.458  30.922  1.00  0.00     0.020 A 
ATOM     80  C   UNL A   1      47.364  35.381  28.737  1.00  0.00     0.020 A 
ATOM     81  C   UNL A   1      47.725  35.557  30.075  1.00  0.00     0.054 A 
BRANCH  81  82
ATOM     82  S   UNL A   1      48.021  37.219  30.738  1.00  0.00     0.124 S 
ATOM     83  O   UNL A   1      49.313  37.554  30.147  1.00  0.00    -0.237 OA
ATOM     84  O   UNL A   1      46.879  37.975  30.226  1.00  0.00    -0.237 OA
ATOM     85  O   UNL A   1      48.031  37.018  32.185  1.00  0.00    -0.744 OA
ENDBRANCH  81  82
ENDBRANCH  62  76
BRANCH  63  86
ATOM     86  C   UNL A   1      45.350  23.795  25.628  1.00  0.00    -0.014 A 
ATOM     87  C   UNL A   1      44.857  23.540  24.333  1.00  0.00     0.010 A 
ATOM     88  C   UNL A   1      45.567  22.707  26.492  1.00  0.00     0.010 A 
ATOM     89  C   UNL A   1      44.558  22.237  23.924  1.00  0.00     0.020 A 
ATOM     90  C   UNL A   1      45.311  21.397  26.074  1.00  0.00     0.020 A 
ATOM     91  C   UNL A   1      44.794  21.172  24.797  1.00  0.00     0.054 A 
BRANCH  91  92
ATOM     92  S   UNL A   1      44.480  19.485  24.215  1.00  0.00     0.124 S 
ATOM     93  O   UNL A   1      45.583  18.745  24.818  1.00  0.00    -0.237 OA
ATOM     94  O   UNL A   1      43.154  19.212  24.766  1.00  0.00    -0.237 OA
ATOM     95  O   UNL A   1      44.523  19.609  22.760  1.00  0.00    -0.744 OA
ENDBRANCH  91  92
ENDBRANCH  63  86
BRANCH  75  96
ATOM     96  C   UNL A   1      51.051  27.779  25.745  1.00  0.00    -0.014 A 
ATOM     97  C   UNL A   1      52.026  27.261  26.618  1.00  0.00     0.010 A 
ATOM     98  C   UNL A   1      51.406  28.064  24.414  1.00  0.00     0.010 A 
ATOM     99  C   UNL A   1      53.343  27.093  26.187  1.00  0.00     0.020 A 
ATOM    100  C   UNL A   1      52.717  27.868  23.970  1.00  0.00     0.020 A 
ATOM    101  C   UNL A   1      53.682  27.408  24.867  1.00  0.00     0.054 A 
BRANCH 101 102
ATOM    102  S   UNL A   1      55.401  27.190  24.331  1.00  0.00     0.124 S 
ATOM    103  O   UNL A   1      55.872  26.149  25.240  1.00  0.00    -0.237 OA
ATOM    104  O   UNL A   1      55.254  26.785  22.934  1.00  0.00    -0.237 OA
ATOM    105  O   UNL A   1      55.995  28.509  24.531  1.00  0.00    -0.744 OA
ENDBRANCH 101 102
ENDBRANCH  75  96
ENDBRANCH  49  50
ENDBRANCH  42  44
ENDBRANCH  41  42
ENDBRANCH  40  41
ENDBRANCH  39  40
ENDBRANCH  38  39
ENDBRANCH  37  38
ENDBRANCH  36  37
ENDBRANCH  35  36
ENDBRANCH  34  35
ENDBRANCH   1  34
TORSDOF 29
ENDMDL
