MODEL 1
REMARK VINA RESULT:      -7.5      0.000      0.000
REMARK SMILES CC[NH+](CC)[C@@H](C(=O)OCCOCCOCCOCCOC(=O)c1ccc(-c2c3nc(c(-c4ccc(S(=O)(=O)[O-])cc4)c4ccc([nH]4)c(-c4ccc(S(=O)(=O)[O-])cc4)c4nc(c(-c5ccc(S(=O)(=O)[O-])cc5)c5ccc2[nH]5)C=C4)C=C3)cc1)c1ccc(C2CC2)cc1
REMARK SMILES IDX 16 1 15 2 14 3 13 4 12 5 11 6 10 7 9 8 7 9 8 10 6 11 3 12
REMARK SMILES IDX 2 14 1 15 4 16 5 17 84 18 85 19 92 20 86 21 91 22 87 23
REMARK SMILES IDX 88 24 89 25 90 26 17 27 18 28 19 29 20 30 21 31 22 32 23 33
REMARK SMILES IDX 24 34 25 35 83 36 26 37 82 38 27 39 28 40 29 41 76 42 30 43
REMARK SMILES IDX 81 44 75 45 77 46 31 47 80 48 74 49 73 50 32 52 62 53 43 54
REMARK SMILES IDX 61 55 44 56 47 57 60 58 78 59 45 60 46 61 59 63 79 64 48 65
REMARK SMILES IDX 33 66 34 67 42 68 35 69 41 70 36 71 37 72 38 73 39 74 40 75
REMARK SMILES IDX 63 76 64 77 72 78 65 79 71 80 66 81 67 82 68 83 69 84 70 85
REMARK SMILES IDX 49 86 50 87 58 88 51 89 57 90 52 91 53 92 54 93 55 94 56 95
REMARK H PARENT 3 13 77 51 47 62
REMARK Flexibility Score: inf
ROOT
ATOM      1  C   UNL A   1      37.153  30.914  28.371  1.00  0.00     0.188 C 
ENDROOT
BRANCH   1   2
ATOM      2  O   UNL A   1      35.916  31.255  27.760  1.00  0.00    -0.377 OA
BRANCH   2   3
ATOM      3  C   UNL A   1      34.904  30.286  27.538  1.00  0.00     0.188 C 
BRANCH   3   4
ATOM      4  C   UNL A   1      33.520  30.929  27.407  1.00  0.00     0.188 C 
BRANCH   4   5
ATOM      5  O   UNL A   1      32.439  30.026  27.185  1.00  0.00    -0.376 OA
BRANCH   5   6
ATOM      6  C   UNL A   1      32.723  28.631  27.337  1.00  0.00     0.202 C 
BRANCH   6   7
ATOM      7  C   UNL A   1      31.551  27.652  27.129  1.00  0.00     0.261 C 
BRANCH   7   8
ATOM      8  O   UNL A   1      31.723  26.746  26.005  1.00  0.00    -0.459 OA
BRANCH   8   9
ATOM      9  C   UNL A   1      30.602  26.151  25.522  1.00  0.00     0.369 C 
ATOM     10  O   UNL A   1      29.843  25.499  26.244  1.00  0.00    -0.245 OA
BRANCH   9  11
ATOM     11  C   UNL A   1      30.270  26.392  24.017  1.00  0.00     0.326 C 
BRANCH  11  12
ATOM     12  N   UNL A   1      31.181  25.807  22.973  1.00  0.00    -0.320 N 
ATOM     13  H   UNL A   1      30.417  25.678  22.310  1.00  0.00     0.349 HD
BRANCH  12  14
ATOM     14  C   UNL A   1      32.045  26.584  22.080  1.00  0.00     0.259 C 
ATOM     15  C   UNL A   1      33.360  27.203  22.548  1.00  0.00     0.071 C 
ENDBRANCH  12  14
BRANCH  12  16
ATOM     16  C   UNL A   1      31.840  24.555  23.398  1.00  0.00     0.259 C 
ATOM     17  C   UNL A   1      31.010  23.269  23.408  1.00  0.00     0.071 C 
ENDBRANCH  12  16
ENDBRANCH  11  12
BRANCH  11  18
ATOM     18  C   UNL A   1      29.654  27.773  23.708  1.00  0.00     0.021 A 
ATOM     19  C   UNL A   1      28.310  27.885  23.336  1.00  0.00     0.011 A 
ATOM     20  C   UNL A   1      30.331  28.986  23.906  1.00  0.00     0.011 A 
ATOM     21  C   UNL A   1      27.752  29.103  22.928  1.00  0.00     0.004 A 
ATOM     22  C   UNL A   1      29.742  30.223  23.576  1.00  0.00     0.004 A 
ATOM     23  C   UNL A   1      28.462  30.307  23.011  1.00  0.00    -0.045 A 
BRANCH  23  24
ATOM     24  C   UNL A   1      27.815  31.586  22.516  1.00  0.00     0.019 C 
ATOM     25  C   UNL A   1      28.580  32.885  22.527  1.00  0.00     0.009 C 
ATOM     26  C   UNL A   1      28.204  32.249  21.218  1.00  0.00     0.009 C 
ENDBRANCH  23  24
ENDBRANCH  11  18
ENDBRANCH   9  11
ENDBRANCH   8   9
ENDBRANCH   7   8
ENDBRANCH   6   7
ENDBRANCH   5   6
ENDBRANCH   4   5
ENDBRANCH   3   4
ENDBRANCH   2   3
ENDBRANCH   1   2
BRANCH   1  27
ATOM     27  C   UNL A   1      37.565  31.692  29.618  1.00  0.00     0.188 C 
BRANCH  27  28
ATOM     28  O   UNL A   1      37.353  31.061  30.885  1.00  0.00    -0.376 OA
BRANCH  28  29
ATOM     29  C   UNL A   1      36.064  31.162  31.484  1.00  0.00     0.202 C 
BRANCH  29  30
ATOM     30  C   UNL A   1      35.501  32.574  31.652  1.00  0.00     0.261 C 
BRANCH  30  31
ATOM     31  O   UNL A   1      35.512  33.010  33.019  1.00  0.00    -0.460 OA
BRANCH  31  32
ATOM     32  C   UNL A   1      36.318  34.062  33.269  1.00  0.00     0.338 C 
ATOM     33  O   UNL A   1      36.189  35.210  32.855  1.00  0.00    -0.246 OA
BRANCH  32  34
ATOM     34  C   UNL A   1      37.330  33.688  34.265  1.00  0.00     0.060 A 
ATOM     35  C   UNL A   1      37.333  32.371  34.741  1.00  0.00     0.016 A 
ATOM     36  C   UNL A   1      38.201  34.642  34.797  1.00  0.00     0.016 A 
ATOM     37  C   UNL A   1      38.173  32.014  35.788  1.00  0.00     0.010 A 
ATOM     38  C   UNL A   1      39.034  34.286  35.860  1.00  0.00     0.010 A 
ATOM     39  C   UNL A   1      38.989  32.982  36.384  1.00  0.00    -0.014 A 
BRANCH  39  40
ATOM     40  C   UNL A   1      39.667  32.656  37.656  1.00  0.00     0.031 A 
ATOM     41  C   UNL A   1      41.133  32.329  37.633  1.00  0.00     0.074 A 
ATOM     42  C   UNL A   1      38.989  32.710  38.814  1.00  0.00     0.049 A 
ATOM     43  N   UNL A   1      41.929  32.031  38.625  1.00  0.00    -0.248 NA
ATOM     44  C   UNL A   1      41.791  32.342  36.315  1.00  0.00     0.031 C 
ATOM     45  C   UNL A   1      37.576  33.063  38.948  1.00  0.00     0.029 A 
ATOM     46  N   UNL A   1      39.403  32.471  40.098  1.00  0.00    -0.354 N 
ATOM     47  C   UNL A   1      43.177  31.807  38.053  1.00  0.00     0.074 A 
ATOM     48  C   UNL A   1      43.026  31.975  36.624  1.00  0.00     0.031 C 
ATOM     49  C   UNL A   1      37.239  33.017  40.248  1.00  0.00     0.029 A 
ATOM     50  C   UNL A   1      38.401  32.596  41.028  1.00  0.00     0.049 A 
ATOM     51  H   UNL A   1      40.329  32.233  40.331  1.00  0.00     0.167 HD
ATOM     52  C   UNL A   1      44.342  31.491  38.667  1.00  0.00     0.031 A 
ATOM     53  C   UNL A   1      38.417  32.375  42.356  1.00  0.00     0.031 A 
ATOM     54  C   UNL A   1      44.471  31.308  40.089  1.00  0.00     0.049 A 
ATOM     55  C   UNL A   1      39.709  31.965  43.009  1.00  0.00     0.074 A 
ATOM     56  C   UNL A   1      45.605  31.002  40.819  1.00  0.00     0.029 A 
ATOM     57  N   UNL A   1      43.425  31.402  40.997  1.00  0.00    -0.354 N 
ATOM     58  N   UNL A   1      40.888  31.779  42.460  1.00  0.00    -0.248 NA
ATOM     59  C   UNL A   1      39.677  31.751  44.461  1.00  0.00     0.031 C 
ATOM     60  C   UNL A   1      45.232  30.843  42.158  1.00  0.00     0.029 A 
ATOM     61  C   UNL A   1      43.880  31.127  42.276  1.00  0.00     0.049 A 
ATOM     62  H   UNL A   1      42.496  31.632  40.765  1.00  0.00     0.167 HD
ATOM     63  C   UNL A   1      41.745  31.449  43.505  1.00  0.00     0.074 A 
ATOM     64  C   UNL A   1      40.950  31.485  44.717  1.00  0.00     0.031 C 
ATOM     65  C   UNL A   1      43.068  31.147  43.468  1.00  0.00     0.031 A 
BRANCH  52  66
ATOM     66  C   UNL A   1      45.553  31.271  37.795  1.00  0.00    -0.014 A 
ATOM     67  C   UNL A   1      46.431  32.320  37.471  1.00  0.00     0.010 A 
ATOM     68  C   UNL A   1      45.825  29.980  37.306  1.00  0.00     0.010 A 
ATOM     69  C   UNL A   1      47.534  32.092  36.642  1.00  0.00     0.020 A 
ATOM     70  C   UNL A   1      46.943  29.740  36.502  1.00  0.00     0.020 A 
ATOM     71  C   UNL A   1      47.781  30.803  36.160  1.00  0.00     0.054 A 
BRANCH  71  72
ATOM     72  S   UNL A   1      49.227  30.531  35.098  1.00  0.00     0.124 S 
ATOM     73  O   UNL A   1      50.330  30.824  36.011  1.00  0.00    -0.237 OA
ATOM     74  O   UNL A   1      49.083  29.129  34.716  1.00  0.00    -0.237 OA
ATOM     75  O   UNL A   1      49.045  31.492  34.013  1.00  0.00    -0.744 OA
ENDBRANCH  71  72
ENDBRANCH  52  66
BRANCH  53  76
ATOM     76  C   UNL A   1      37.162  32.525  43.143  1.00  0.00    -0.014 A 
ATOM     77  C   UNL A   1      36.815  33.757  43.721  1.00  0.00     0.010 A 
ATOM     78  C   UNL A   1      36.291  31.429  43.293  1.00  0.00     0.010 A 
ATOM     79  C   UNL A   1      35.623  33.890  44.441  1.00  0.00     0.020 A 
ATOM     80  C   UNL A   1      35.085  31.565  43.984  1.00  0.00     0.020 A 
ATOM     81  C   UNL A   1      34.763  32.794  44.561  1.00  0.00     0.054 A 
BRANCH  81  82
ATOM     82  S   UNL A   1      33.189  33.010  45.439  1.00  0.00     0.124 S 
ATOM     83  O   UNL A   1      32.222  32.957  44.346  1.00  0.00    -0.237 OA
ATOM     84  O   UNL A   1      33.181  31.867  46.349  1.00  0.00    -0.237 OA
ATOM     85  O   UNL A   1      33.334  34.312  46.085  1.00  0.00    -0.744 OA
ENDBRANCH  81  82
ENDBRANCH  53  76
BRANCH  65  86
ATOM     86  C   UNL A   1      43.742  30.860  44.785  1.00  0.00    -0.014 A 
ATOM     87  C   UNL A   1      44.311  31.888  45.559  1.00  0.00     0.010 A 
ATOM     88  C   UNL A   1      43.789  29.538  45.265  1.00  0.00     0.010 A 
ATOM     89  C   UNL A   1      44.965  31.591  46.757  1.00  0.00     0.020 A 
ATOM     90  C   UNL A   1      44.409  29.242  46.480  1.00  0.00     0.020 A 
ATOM     91  C   UNL A   1      45.014  30.268  47.208  1.00  0.00     0.054 A 
BRANCH  91  92
ATOM     92  S   UNL A   1      45.865  29.909  48.768  1.00  0.00     0.124 S 
ATOM     93  O   UNL A   1      44.985  30.544  49.745  1.00  0.00    -0.237 OA
ATOM     94  O   UNL A   1      45.884  28.449  48.794  1.00  0.00    -0.237 OA
ATOM     95  O   UNL A   1      47.172  30.541  48.604  1.00  0.00    -0.744 OA
ENDBRANCH  91  92
ENDBRANCH  65  86
ENDBRANCH  39  40
ENDBRANCH  32  34
ENDBRANCH  31  32
ENDBRANCH  30  31
ENDBRANCH  29  30
ENDBRANCH  28  29
ENDBRANCH  27  28
ENDBRANCH   1  27
TORSDOF 28
ENDMDL
MODEL 2
REMARK VINA RESULT:      -7.2      9.195     14.515
REMARK SMILES CC[NH+](CC)[C@@H](C(=O)OCCOCCOCCOCCOC(=O)c1ccc(-c2c3nc(c(-c4ccc(S(=O)(=O)[O-])cc4)c4ccc([nH]4)c(-c4ccc(S(=O)(=O)[O-])cc4)c4nc(c(-c5ccc(S(=O)(=O)[O-])cc5)c5ccc2[nH]5)C=C4)C=C3)cc1)c1ccc(C2CC2)cc1
REMARK SMILES IDX 16 1 15 2 14 3 13 4 12 5 11 6 10 7 9 8 7 9 8 10 6 11 3 12
REMARK SMILES IDX 2 14 1 15 4 16 5 17 84 18 85 19 92 20 86 21 91 22 87 23
REMARK SMILES IDX 88 24 89 25 90 26 17 27 18 28 19 29 20 30 21 31 22 32 23 33
REMARK SMILES IDX 24 34 25 35 83 36 26 37 82 38 27 39 28 40 29 41 76 42 30 43
REMARK SMILES IDX 81 44 75 45 77 46 31 47 80 48 74 49 73 50 32 52 62 53 43 54
REMARK SMILES IDX 61 55 44 56 47 57 60 58 78 59 45 60 46 61 59 63 79 64 48 65
REMARK SMILES IDX 33 66 34 67 42 68 35 69 41 70 36 71 37 72 38 73 39 74 40 75
REMARK SMILES IDX 63 76 64 77 72 78 65 79 71 80 66 81 67 82 68 83 69 84 70 85
REMARK SMILES IDX 49 86 50 87 58 88 51 89 57 90 52 91 53 92 54 93 55 94 56 95
REMARK H PARENT 3 13 77 51 47 62
REMARK Flexibility Score: inf
ROOT
ATOM      1  C   UNL A   1      40.122  28.350  27.435  1.00  0.00     0.188 C 
ENDROOT
BRANCH   1   2
ATOM      2  O   UNL A   1      38.954  29.159  27.455  1.00  0.00    -0.377 OA
BRANCH   2   3
ATOM      3  C   UNL A   1      38.630  29.968  28.574  1.00  0.00     0.188 C 
BRANCH   3   4
ATOM      4  C   UNL A   1      37.142  30.333  28.600  1.00  0.00     0.188 C 
BRANCH   4   5
ATOM      5  O   UNL A   1      36.441  30.151  27.371  1.00  0.00    -0.376 OA
BRANCH   5   6
ATOM      6  C   UNL A   1      35.346  29.230  27.384  1.00  0.00     0.202 C 
BRANCH   6   7
ATOM      7  C   UNL A   1      33.977  29.763  26.918  1.00  0.00     0.261 C 
BRANCH   7   8
ATOM      8  O   UNL A   1      33.644  29.428  25.542  1.00  0.00    -0.459 OA
BRANCH   8   9
ATOM      9  C   UNL A   1      32.480  28.759  25.341  1.00  0.00     0.369 C 
ATOM     10  O   UNL A   1      31.503  28.905  26.080  1.00  0.00    -0.245 OA
BRANCH   9  11
ATOM     11  C   UNL A   1      32.402  27.845  24.079  1.00  0.00     0.326 C 
BRANCH  11  12
ATOM     12  N   UNL A   1      31.124  27.813  23.288  1.00  0.00    -0.320 N 
ATOM     13  H   UNL A   1      31.509  27.167  22.600  1.00  0.00     0.349 HD
BRANCH  12  14
ATOM     14  C   UNL A   1      29.946  27.009  23.625  1.00  0.00     0.259 C 
ATOM     15  C   UNL A   1      29.889  26.124  24.868  1.00  0.00     0.071 C 
ENDBRANCH  12  14
BRANCH  12  16
ATOM     16  C   UNL A   1      30.733  29.129  22.740  1.00  0.00     0.259 C 
ATOM     17  C   UNL A   1      29.450  29.778  23.266  1.00  0.00     0.071 C 
ENDBRANCH  12  16
ENDBRANCH  11  12
BRANCH  11  18
ATOM     18  C   UNL A   1      33.181  26.518  24.197  1.00  0.00     0.021 A 
ATOM     19  C   UNL A   1      33.482  25.767  23.055  1.00  0.00     0.011 A 
ATOM     20  C   UNL A   1      33.746  26.054  25.395  1.00  0.00     0.011 A 
ATOM     21  C   UNL A   1      34.075  24.501  23.136  1.00  0.00     0.004 A 
ATOM     22  C   UNL A   1      34.420  24.818  25.463  1.00  0.00     0.004 A 
ATOM     23  C   UNL A   1      34.538  23.976  24.349  1.00  0.00    -0.045 A 
BRANCH  23  24
ATOM     24  C   UNL A   1      35.135  22.583  24.376  1.00  0.00     0.019 C 
ATOM     25  C   UNL A   1      35.554  21.953  25.679  1.00  0.00     0.009 C 
ATOM     26  C   UNL A   1      34.392  21.386  24.915  1.00  0.00     0.009 C 
ENDBRANCH  23  24
ENDBRANCH  11  18
ENDBRANCH   9  11
ENDBRANCH   8   9
ENDBRANCH   7   8
ENDBRANCH   6   7
ENDBRANCH   5   6
ENDBRANCH   4   5
ENDBRANCH   3   4
ENDBRANCH   2   3
ENDBRANCH   1   2
BRANCH   1  27
ATOM     27  C   UNL A   1      40.032  26.959  28.057  1.00  0.00     0.188 C 
BRANCH  27  28
ATOM     28  O   UNL A   1      39.817  25.856  27.171  1.00  0.00    -0.376 OA
BRANCH  28  29
ATOM     29  C   UNL A   1      39.427  24.605  27.730  1.00  0.00     0.202 C 
BRANCH  29  30
ATOM     30  C   UNL A   1      39.863  23.354  26.966  1.00  0.00     0.261 C 
BRANCH  30  31
ATOM     31  O   UNL A   1      41.182  22.921  27.330  1.00  0.00    -0.460 OA
BRANCH  31  32
ATOM     32  C   UNL A   1      41.961  22.551  26.292  1.00  0.00     0.338 C 
ATOM     33  O   UNL A   1      41.661  21.796  25.373  1.00  0.00    -0.246 OA
BRANCH  32  34
ATOM     34  C   UNL A   1      43.214  23.317  26.313  1.00  0.00     0.060 A 
ATOM     35  C   UNL A   1      44.421  22.608  26.319  1.00  0.00     0.016 A 
ATOM     36  C   UNL A   1      43.201  24.710  26.426  1.00  0.00     0.016 A 
ATOM     37  C   UNL A   1      45.622  23.285  26.488  1.00  0.00     0.010 A 
ATOM     38  C   UNL A   1      44.408  25.387  26.611  1.00  0.00     0.010 A 
ATOM     39  C   UNL A   1      45.615  24.671  26.685  1.00  0.00    -0.014 A 
BRANCH  39  40
ATOM     40  C   UNL A   1      46.860  25.332  27.129  1.00  0.00     0.031 A 
ATOM     41  C   UNL A   1      47.843  25.797  26.093  1.00  0.00     0.074 A 
ATOM     42  C   UNL A   1      47.073  25.560  28.435  1.00  0.00     0.049 A 
ATOM     43  N   UNL A   1      48.985  26.411  26.254  1.00  0.00    -0.248 NA
ATOM     44  C   UNL A   1      47.492  25.537  24.686  1.00  0.00     0.031 C 
ATOM     45  C   UNL A   1      46.158  25.191  29.516  1.00  0.00     0.029 A 
ATOM     46  N   UNL A   1      48.126  26.163  29.072  1.00  0.00    -0.354 N 
ATOM     47  C   UNL A   1      49.496  26.600  24.973  1.00  0.00     0.074 A 
ATOM     48  C   UNL A   1      48.553  26.008  24.049  1.00  0.00     0.031 C 
ATOM     49  C   UNL A   1      46.693  25.575  30.687  1.00  0.00     0.029 A 
ATOM     50  C   UNL A   1      48.000  26.182  30.439  1.00  0.00     0.049 A 
ATOM     51  H   UNL A   1      48.898  26.544  28.596  1.00  0.00     0.167 HD
ATOM     52  C   UNL A   1      50.647  27.211  24.605  1.00  0.00     0.031 A 
ATOM     53  C   UNL A   1      48.853  26.622  31.383  1.00  0.00     0.031 A 
ATOM     54  C   UNL A   1      51.584  27.777  25.541  1.00  0.00     0.049 A 
ATOM     55  C   UNL A   1      50.154  27.244  30.953  1.00  0.00     0.074 A 
ATOM     56  C   UNL A   1      52.772  28.434  25.278  1.00  0.00     0.029 A 
ATOM     57  N   UNL A   1      51.443  27.743  26.921  1.00  0.00    -0.354 N 
ATOM     58  N   UNL A   1      50.614  27.436  29.739  1.00  0.00    -0.248 NA
ATOM     59  C   UNL A   1      51.042  27.721  32.021  1.00  0.00     0.031 C 
ATOM     60  C   UNL A   1      53.383  28.734  26.501  1.00  0.00     0.029 A 
ATOM     61  C   UNL A   1      52.539  28.335  27.525  1.00  0.00     0.049 A 
ATOM     62  H   UNL A   1      50.675  27.354  27.400  1.00  0.00     0.167 HD
ATOM     63  C   UNL A   1      51.838  28.081  29.895  1.00  0.00     0.074 A 
ATOM     64  C   UNL A   1      52.029  28.262  31.321  1.00  0.00     0.031 C 
ATOM     65  C   UNL A   1      52.721  28.488  28.948  1.00  0.00     0.031 A 
BRANCH  52  66
ATOM     66  C   UNL A   1      50.977  27.248  23.135  1.00  0.00    -0.014 A 
ATOM     67  C   UNL A   1      51.969  26.421  22.578  1.00  0.00     0.010 A 
ATOM     68  C   UNL A   1      50.264  28.118  22.289  1.00  0.00     0.010 A 
ATOM     69  C   UNL A   1      52.271  26.493  21.214  1.00  0.00     0.020 A 
ATOM     70  C   UNL A   1      50.540  28.171  20.920  1.00  0.00     0.020 A 
ATOM     71  C   UNL A   1      51.555  27.370  20.394  1.00  0.00     0.054 A 
BRANCH  71  72
ATOM     72  S   UNL A   1      51.955  27.433  18.626  1.00  0.00     0.124 S 
ATOM     73  O   UNL A   1      52.606  28.736  18.511  1.00  0.00    -0.237 OA
ATOM     74  O   UNL A   1      52.831  26.277  18.456  1.00  0.00    -0.237 OA
ATOM     75  O   UNL A   1      50.654  27.327  17.971  1.00  0.00    -0.744 OA
ENDBRANCH  71  72
ENDBRANCH  52  66
BRANCH  53  76
ATOM     76  C   UNL A   1      48.501  26.473  32.822  1.00  0.00    -0.014 A 
ATOM     77  C   UNL A   1      48.820  25.300  33.526  1.00  0.00     0.010 A 
ATOM     78  C   UNL A   1      47.861  27.527  33.502  1.00  0.00     0.010 A 
ATOM     79  C   UNL A   1      48.501  25.181  34.883  1.00  0.00     0.020 A 
ATOM     80  C   UNL A   1      47.569  27.424  34.864  1.00  0.00     0.020 A 
ATOM     81  C   UNL A   1      47.884  26.247  35.544  1.00  0.00     0.054 A 
BRANCH  81  82
ATOM     82  S   UNL A   1      47.545  26.096  37.320  1.00  0.00     0.124 S 
ATOM     83  O   UNL A   1      48.664  25.277  37.775  1.00  0.00    -0.237 OA
ATOM     84  O   UNL A   1      47.558  27.490  37.759  1.00  0.00    -0.237 OA
ATOM     85  O   UNL A   1      46.236  25.448  37.363  1.00  0.00    -0.744 OA
ENDBRANCH  81  82
ENDBRANCH  53  76
BRANCH  65  86
ATOM     86  C   UNL A   1      53.962  29.197  29.428  1.00  0.00    -0.014 A 
ATOM     87  C   UNL A   1      55.146  28.493  29.712  1.00  0.00     0.010 A 
ATOM     88  C   UNL A   1      53.945  30.595  29.579  1.00  0.00     0.010 A 
ATOM     89  C   UNL A   1      56.271  29.168  30.194  1.00  0.00     0.020 A 
ATOM     90  C   UNL A   1      55.078  31.278  30.024  1.00  0.00     0.020 A 
ATOM     91  C   UNL A   1      56.227  30.557  30.351  1.00  0.00     0.054 A 
BRANCH  91  92
ATOM     92  S   UNL A   1      57.701  31.411  30.974  1.00  0.00     0.124 S 
ATOM     93  O   UNL A   1      57.281  32.809  30.932  1.00  0.00    -0.237 OA
ATOM     94  O   UNL A   1      57.862  30.841  32.309  1.00  0.00    -0.237 OA
ATOM     95  O   UNL A   1      58.743  31.046  30.017  1.00  0.00    -0.744 OA
ENDBRANCH  91  92
ENDBRANCH  65  86
ENDBRANCH  39  40
ENDBRANCH  32  34
ENDBRANCH  31  32
ENDBRANCH  30  31
ENDBRANCH  29  30
ENDBRANCH  28  29
ENDBRANCH  27  28
ENDBRANCH   1  27
TORSDOF 28
ENDMDL
MODEL 3
REMARK VINA RESULT:      -7.0      5.197     10.835
REMARK SMILES CC[NH+](CC)[C@@H](C(=O)OCCOCCOCCOCCOC(=O)c1ccc(-c2c3nc(c(-c4ccc(S(=O)(=O)[O-])cc4)c4ccc([nH]4)c(-c4ccc(S(=O)(=O)[O-])cc4)c4nc(c(-c5ccc(S(=O)(=O)[O-])cc5)c5ccc2[nH]5)C=C4)C=C3)cc1)c1ccc(C2CC2)cc1
REMARK SMILES IDX 16 1 15 2 14 3 13 4 12 5 11 6 10 7 9 8 7 9 8 10 6 11 3 12
REMARK SMILES IDX 2 14 1 15 4 16 5 17 84 18 85 19 92 20 86 21 91 22 87 23
REMARK SMILES IDX 88 24 89 25 90 26 17 27 18 28 19 29 20 30 21 31 22 32 23 33
REMARK SMILES IDX 24 34 25 35 83 36 26 37 82 38 27 39 28 40 29 41 76 42 30 43
REMARK SMILES IDX 81 44 75 45 77 46 31 47 80 48 74 49 73 50 32 52 62 53 43 54
REMARK SMILES IDX 61 55 44 56 47 57 60 58 78 59 45 60 46 61 59 63 79 64 48 65
REMARK SMILES IDX 33 66 34 67 42 68 35 69 41 70 36 71 37 72 38 73 39 74 40 75
REMARK SMILES IDX 63 76 64 77 72 78 65 79 71 80 66 81 67 82 68 83 69 84 70 85
REMARK SMILES IDX 49 86 50 87 58 88 51 89 57 90 52 91 53 92 54 93 55 94 56 95
REMARK H PARENT 3 13 77 51 47 62
REMARK Flexibility Score: inf
ROOT
ATOM      1  C   UNL A   1      38.013  31.212  29.279  1.00  0.00     0.188 C 
ENDROOT
BRANCH   1   2
ATOM      2  O   UNL A   1      36.684  30.814  29.590  1.00  0.00    -0.377 OA
BRANCH   2   3
ATOM      3  C   UNL A   1      35.897  30.072  28.672  1.00  0.00     0.188 C 
BRANCH   3   4
ATOM      4  C   UNL A   1      34.826  30.943  28.008  1.00  0.00     0.188 C 
BRANCH   4   5
ATOM      5  O   UNL A   1      34.115  30.333  26.933  1.00  0.00    -0.376 OA
BRANCH   5   6
ATOM      6  C   UNL A   1      34.333  28.934  26.727  1.00  0.00     0.202 C 
BRANCH   6   7
ATOM      7  C   UNL A   1      33.083  28.038  26.624  1.00  0.00     0.261 C 
BRANCH   7   8
ATOM      8  O   UNL A   1      33.335  26.725  26.054  1.00  0.00    -0.459 OA
BRANCH   8   9
ATOM      9  C   UNL A   1      32.255  25.927  25.855  1.00  0.00     0.369 C 
ATOM     10  O   UNL A   1      31.346  25.835  26.683  1.00  0.00    -0.245 OA
BRANCH   9  11
ATOM     11  C   UNL A   1      32.173  25.183  24.486  1.00  0.00     0.326 C 
BRANCH  11  12
ATOM     12  N   UNL A   1      31.303  25.757  23.402  1.00  0.00    -0.320 N 
ATOM     13  H   UNL A   1      31.150  24.844  22.974  1.00  0.00     0.349 HD
BRANCH  12  14
ATOM     14  C   UNL A   1      29.887  26.104  23.555  1.00  0.00     0.259 C 
ATOM     15  C   UNL A   1      29.397  27.550  23.567  1.00  0.00     0.071 C 
ENDBRANCH  12  14
BRANCH  12  16
ATOM     16  C   UNL A   1      32.001  26.730  22.537  1.00  0.00     0.259 C 
ATOM     17  C   UNL A   1      33.524  26.628  22.417  1.00  0.00     0.071 C 
ENDBRANCH  12  16
ENDBRANCH  11  12
BRANCH  11  18
ATOM     18  C   UNL A   1      32.234  23.643  24.587  1.00  0.00     0.021 A 
ATOM     19  C   UNL A   1      33.198  22.922  23.874  1.00  0.00     0.011 A 
ATOM     20  C   UNL A   1      31.449  22.892  25.475  1.00  0.00     0.011 A 
ATOM     21  C   UNL A   1      33.205  21.523  23.844  1.00  0.00     0.004 A 
ATOM     22  C   UNL A   1      31.513  21.485  25.508  1.00  0.00     0.004 A 
ATOM     23  C   UNL A   1      32.342  20.761  24.641  1.00  0.00    -0.045 A 
BRANCH  23  24
ATOM     24  C   UNL A   1      32.371  19.249  24.532  1.00  0.00     0.019 C 
ATOM     25  C   UNL A   1      33.596  18.542  24.010  1.00  0.00     0.009 C 
ATOM     26  C   UNL A   1      33.195  18.380  25.449  1.00  0.00     0.009 C 
ENDBRANCH  23  24
ENDBRANCH  11  18
ENDBRANCH   9  11
ENDBRANCH   8   9
ENDBRANCH   7   8
ENDBRANCH   6   7
ENDBRANCH   5   6
ENDBRANCH   4   5
ENDBRANCH   3   4
ENDBRANCH   2   3
ENDBRANCH   1   2
BRANCH   1  27
ATOM     27  C   UNL A   1      38.541  32.487  29.930  1.00  0.00     0.188 C 
BRANCH  27  28
ATOM     28  O   UNL A   1      38.522  32.551  31.359  1.00  0.00    -0.376 OA
BRANCH  28  29
ATOM     29  C   UNL A   1      37.400  33.156  31.996  1.00  0.00     0.202 C 
BRANCH  29  30
ATOM     30  C   UNL A   1      36.908  32.490  33.282  1.00  0.00     0.261 C 
BRANCH  30  31
ATOM     31  O   UNL A   1      37.008  33.358  34.421  1.00  0.00    -0.460 OA
BRANCH  31  32
ATOM     32  C   UNL A   1      38.156  34.064  34.492  1.00  0.00     0.338 C 
ATOM     33  O   UNL A   1      38.277  35.284  34.490  1.00  0.00    -0.246 OA
BRANCH  32  34
ATOM     34  C   UNL A   1      39.283  33.155  34.740  1.00  0.00     0.060 A 
ATOM     35  C   UNL A   1      40.555  33.544  34.301  1.00  0.00     0.016 A 
ATOM     36  C   UNL A   1      39.077  31.894  35.306  1.00  0.00     0.016 A 
ATOM     37  C   UNL A   1      41.618  32.655  34.381  1.00  0.00     0.010 A 
ATOM     38  C   UNL A   1      40.143  30.996  35.372  1.00  0.00     0.010 A 
ATOM     39  C   UNL A   1      41.405  31.361  34.871  1.00  0.00    -0.014 A 
BRANCH  39  40
ATOM     40  C   UNL A   1      42.470  30.351  34.698  1.00  0.00     0.031 A 
ATOM     41  C   UNL A   1      43.365  30.036  35.863  1.00  0.00     0.074 A 
ATOM     42  C   UNL A   1      42.592  29.691  33.535  1.00  0.00     0.049 A 
ATOM     43  N   UNL A   1      44.348  29.179  35.942  1.00  0.00    -0.248 NA
ATOM     44  C   UNL A   1      43.118  30.786  37.107  1.00  0.00     0.031 C 
ATOM     45  C   UNL A   1      41.743  29.889  32.360  1.00  0.00     0.029 A 
ATOM     46  N   UNL A   1      43.476  28.716  33.155  1.00  0.00    -0.354 N 
ATOM     47  C   UNL A   1      44.846  29.294  37.236  1.00  0.00     0.074 A 
ATOM     48  C   UNL A   1      44.075  30.325  37.897  1.00  0.00     0.031 C 
ATOM     49  C   UNL A   1      42.151  29.059  31.385  1.00  0.00     0.029 A 
ATOM     50  C   UNL A   1      43.308  28.301  31.857  1.00  0.00     0.049 A 
ATOM     51  H   UNL A   1      44.165  28.349  33.754  1.00  0.00     0.167 HD
ATOM     52  C   UNL A   1      45.854  28.602  37.817  1.00  0.00     0.031 A 
ATOM     53  C   UNL A   1      44.023  27.424  31.127  1.00  0.00     0.031 A 
ATOM     54  C   UNL A   1      46.624  27.592  37.138  1.00  0.00     0.049 A 
ATOM     55  C   UNL A   1      45.177  26.710  31.775  1.00  0.00     0.074 A 
ATOM     56  C   UNL A   1      47.656  26.817  37.634  1.00  0.00     0.029 A 
ATOM     57  N   UNL A   1      46.453  27.226  35.810  1.00  0.00    -0.354 N 
ATOM     58  N   UNL A   1      45.623  26.811  33.007  1.00  0.00    -0.248 NA
ATOM     59  C   UNL A   1      45.914  25.752  30.941  1.00  0.00     0.031 C 
ATOM     60  C   UNL A   1      48.155  26.033  36.587  1.00  0.00     0.029 A 
ATOM     61  C   UNL A   1      47.382  26.262  35.459  1.00  0.00     0.049 A 
ATOM     62  H   UNL A   1      45.769  27.599  35.206  1.00  0.00     0.167 HD
ATOM     63  C   UNL A   1      46.679  25.911  33.102  1.00  0.00     0.074 A 
ATOM     64  C   UNL A   1      46.786  25.261  31.810  1.00  0.00     0.031 C 
ATOM     65  C   UNL A   1      47.486  25.642  34.161  1.00  0.00     0.031 A 
BRANCH  52  66
ATOM     66  C   UNL A   1      46.213  28.953  39.239  1.00  0.00    -0.014 A 
ATOM     67  C   UNL A   1      47.030  30.057  39.544  1.00  0.00     0.010 A 
ATOM     68  C   UNL A   1      45.704  28.172  40.292  1.00  0.00     0.010 A 
ATOM     69  C   UNL A   1      47.365  30.347  40.871  1.00  0.00     0.020 A 
ATOM     70  C   UNL A   1      46.011  28.475  41.622  1.00  0.00     0.020 A 
ATOM     71  C   UNL A   1      46.854  29.551  41.902  1.00  0.00     0.054 A 
BRANCH  71  72
ATOM     72  S   UNL A   1      47.293  29.958  43.614  1.00  0.00     0.124 S 
ATOM     73  O   UNL A   1      46.627  28.890  44.357  1.00  0.00    -0.237 OA
ATOM     74  O   UNL A   1      48.752  29.893  43.594  1.00  0.00    -0.237 OA
ATOM     75  O   UNL A   1      46.734  31.293  43.808  1.00  0.00    -0.744 OA
ENDBRANCH  71  72
ENDBRANCH  52  66
BRANCH  53  76
ATOM     76  C   UNL A   1      43.667  27.191  29.701  1.00  0.00    -0.014 A 
ATOM     77  C   UNL A   1      44.117  28.059  28.692  1.00  0.00     0.010 A 
ATOM     78  C   UNL A   1      42.890  26.072  29.344  1.00  0.00     0.010 A 
ATOM     79  C   UNL A   1      43.792  27.817  27.353  1.00  0.00     0.020 A 
ATOM     80  C   UNL A   1      42.589  25.809  28.005  1.00  0.00     0.020 A 
ATOM     81  C   UNL A   1      43.036  26.689  27.019  1.00  0.00     0.054 A 
BRANCH  81  82
ATOM     82  S   UNL A   1      42.687  26.357  25.269  1.00  0.00     0.124 S 
ATOM     83  O   UNL A   1      43.572  25.230  24.991  1.00  0.00    -0.237 OA
ATOM     84  O   UNL A   1      41.259  26.053  25.289  1.00  0.00    -0.237 OA
ATOM     85  O   UNL A   1      43.041  27.611  24.607  1.00  0.00    -0.744 OA
ENDBRANCH  81  82
ENDBRANCH  53  76
BRANCH  65  86
ATOM     86  C   UNL A   1      48.536  24.578  33.969  1.00  0.00    -0.014 A 
ATOM     87  C   UNL A   1      49.770  24.865  33.357  1.00  0.00     0.010 A 
ATOM     88  C   UNL A   1      48.289  23.271  34.428  1.00  0.00     0.010 A 
ATOM     89  C   UNL A   1      50.711  23.853  33.155  1.00  0.00     0.020 A 
ATOM     90  C   UNL A   1      49.242  22.265  34.262  1.00  0.00     0.020 A 
ATOM     91  C   UNL A   1      50.439  22.557  33.605  1.00  0.00     0.054 A 
BRANCH  91  92
ATOM     92  S   UNL A   1      51.678  21.261  33.336  1.00  0.00     0.124 S 
ATOM     93  O   UNL A   1      52.021  21.459  31.930  1.00  0.00    -0.237 OA
ATOM     94  O   UNL A   1      52.722  21.612  34.295  1.00  0.00    -0.237 OA
ATOM     95  O   UNL A   1      50.958  20.025  33.632  1.00  0.00    -0.744 OA
ENDBRANCH  91  92
ENDBRANCH  65  86
ENDBRANCH  39  40
ENDBRANCH  32  34
ENDBRANCH  31  32
ENDBRANCH  30  31
ENDBRANCH  29  30
ENDBRANCH  28  29
ENDBRANCH  27  28
ENDBRANCH   1  27
TORSDOF 28
ENDMDL
