MODEL 1
REMARK VINA RESULT:     -10.9      0.000      0.000
REMARK SMILES Cc1cccc(CC(=O)N2CCC3(CCC(=O)N([C@H](C)C(=O)OCCOCCOCCOCCOC(=O)c4ccc(-c5c6nc(c(-c7ccc(S(=O)(=O)[O-])cc7)c7ccc([nH]7)c(-c7ccc(S(=O)(=O)[O-])cc7)c7nc(c(-c8ccc(S(=O)(=O)[O-])cc8)c8ccc5[nH]8)C=C7)C=C6)cc4)C3)CC2)c1
REMARK SMILES IDX 29 1 28 2 27 3 26 4 25 5 24 6 23 7 21 8 22 9 19 10 20 11
REMARK SMILES IDX 18 12 8 13 9 14 10 15 11 16 100 17 12 18 99 19 13 20 14 21
REMARK SMILES IDX 98 22 15 23 16 24 17 25 7 26 6 27 1 28 2 29 3 30 101 31 4 32
REMARK SMILES IDX 5 33 30 34 31 35 32 36 33 37 34 38 35 39 36 40 37 41 38 42
REMARK SMILES IDX 39 43 97 44 40 45 96 46 41 47 42 48 43 49 90 50 44 51 95 52
REMARK SMILES IDX 89 53 91 54 45 55 94 56 88 57 87 58 46 60 76 61 57 62 75 63
REMARK SMILES IDX 58 64 61 65 74 66 92 67 59 68 60 69 73 71 93 72 62 73 47 74
REMARK SMILES IDX 48 75 56 76 49 77 55 78 50 79 51 80 52 81 53 82 54 83 77 84
REMARK SMILES IDX 78 85 86 86 79 87 85 88 80 89 81 90 82 91 83 92 84 93 63 94
REMARK SMILES IDX 64 95 72 96 65 97 71 98 66 99 67 100 68 101 69 102 70 103
REMARK H PARENT 91 59 61 70
REMARK Flexibility Score: inf
ROOT
ATOM      1  O   UNL A   1      44.713  21.818  25.173  1.00  0.00    -0.377 OA
ENDROOT
BRANCH   1   2
ATOM      2  C   UNL A   1      43.721  21.557  26.153  1.00  0.00     0.188 C 
BRANCH   2   3
ATOM      3  C   UNL A   1      42.819  20.313  26.021  1.00  0.00     0.188 C 
BRANCH   3   4
ATOM      4  O   UNL A   1      41.784  20.055  26.952  1.00  0.00    -0.376 OA
BRANCH   4   5
ATOM      5  C   UNL A   1      40.853  21.112  27.160  1.00  0.00     0.202 C 
BRANCH   5   6
ATOM      6  C   UNL A   1      40.045  21.612  25.966  1.00  0.00     0.261 C 
BRANCH   6   7
ATOM      7  O   UNL A   1      38.663  21.639  26.299  1.00  0.00    -0.462 OA
BRANCH   7   8
ATOM      8  C   UNL A   1      37.993  22.772  26.017  1.00  0.00     0.328 C 
ATOM      9  O   UNL A   1      38.386  23.910  26.181  1.00  0.00    -0.250 OA
BRANCH   8  10
ATOM     10  C   UNL A   1      36.715  22.414  25.272  1.00  0.00     0.192 C 
ATOM     11  C   UNL A   1      36.765  21.010  24.702  1.00  0.00     0.044 C 
BRANCH  10  12
ATOM     12  N   UNL A   1      35.558  22.706  26.111  1.00  0.00    -0.329 N 
ATOM     13  C   UNL A   1      33.121  26.276  21.726  1.00  0.00     0.226 C 
ATOM     14  O   UNL A   1      33.244  25.994  20.528  1.00  0.00    -0.275 OA
ATOM     15  N   UNL A   1      32.795  25.293  22.645  1.00  0.00    -0.342 N 
ATOM     16  C   UNL A   1      33.351  23.965  22.443  1.00  0.00     0.120 C 
ATOM     17  C   UNL A   1      32.164  25.469  23.948  1.00  0.00     0.120 C 
ATOM     18  C   UNL A   1      34.409  23.735  23.523  1.00  0.00     0.030 C 
ATOM     19  C   UNL A   1      33.206  25.357  25.037  1.00  0.00     0.030 C 
ATOM     20  C   UNL A   1      33.871  23.981  24.972  1.00  0.00    -0.008 C 
ATOM     21  C   UNL A   1      32.851  22.867  25.379  1.00  0.00     0.019 C 
ATOM     22  C   UNL A   1      35.015  24.022  26.006  1.00  0.00     0.127 C 
ATOM     23  C   UNL A   1      33.527  21.522  25.609  1.00  0.00     0.101 C 
ATOM     24  C   UNL A   1      34.639  21.790  26.590  1.00  0.00     0.223 C 
ATOM     25  O   UNL A   1      34.451  21.574  27.781  1.00  0.00    -0.275 OA
BRANCH  13  26
ATOM     26  C   UNL A   1      33.604  27.647  22.203  1.00  0.00     0.135 C 
BRANCH  26  27
ATOM     27  C   UNL A   1      32.648  28.521  22.968  1.00  0.00    -0.038 A 
ATOM     28  C   UNL A   1      32.500  30.124  26.427  1.00  0.00     0.044 C 
ATOM     29  C   UNL A   1      32.104  29.659  25.054  1.00  0.00    -0.051 A 
ATOM     30  C   UNL A   1      30.777  29.767  24.628  1.00  0.00     0.003 A 
ATOM     31  C   UNL A   1      33.041  29.063  24.205  1.00  0.00     0.007 A 
ATOM     32  C   UNL A   1      30.398  29.312  23.363  1.00  0.00     0.001 A 
ATOM     33  C   UNL A   1      31.335  28.710  22.523  1.00  0.00     0.004 A 
ENDBRANCH  26  27
ENDBRANCH  13  26
ENDBRANCH  10  12
ENDBRANCH   8  10
ENDBRANCH   7   8
ENDBRANCH   6   7
ENDBRANCH   5   6
ENDBRANCH   4   5
ENDBRANCH   3   4
ENDBRANCH   2   3
ENDBRANCH   1   2
BRANCH   1  34
ATOM     34  C   UNL A   1      44.825  23.137  24.624  1.00  0.00     0.188 C 
BRANCH  34  35
ATOM     35  C   UNL A   1      45.239  24.228  25.595  1.00  0.00     0.188 C 
BRANCH  35  36
ATOM     36  O   UNL A   1      44.294  25.290  25.431  1.00  0.00    -0.376 OA
BRANCH  36  37
ATOM     37  C   UNL A   1      42.978  24.941  25.043  1.00  0.00     0.202 C 
BRANCH  37  38
ATOM     38  C   UNL A   1      41.998  24.848  26.207  1.00  0.00     0.261 C 
BRANCH  38  39
ATOM     39  O   UNL A   1      40.997  25.894  26.151  1.00  0.00    -0.460 OA
BRANCH  39  40
ATOM     40  C   UNL A   1      41.361  27.163  26.509  1.00  0.00     0.338 C 
ATOM     41  O   UNL A   1      41.604  28.037  25.693  1.00  0.00    -0.246 OA
BRANCH  40  42
ATOM     42  C   UNL A   1      41.217  27.416  27.973  1.00  0.00     0.060 A 
ATOM     43  C   UNL A   1      40.070  27.039  28.687  1.00  0.00     0.016 A 
ATOM     44  C   UNL A   1      42.191  28.147  28.626  1.00  0.00     0.016 A 
ATOM     45  C   UNL A   1      39.810  27.562  29.976  1.00  0.00     0.010 A 
ATOM     46  C   UNL A   1      41.890  28.725  29.846  1.00  0.00     0.010 A 
ATOM     47  C   UNL A   1      40.693  28.480  30.542  1.00  0.00    -0.014 A 
BRANCH  47  48
ATOM     48  C   UNL A   1      40.462  29.344  31.732  1.00  0.00     0.031 A 
ATOM     49  C   UNL A   1      41.051  28.926  33.067  1.00  0.00     0.074 A 
ATOM     50  C   UNL A   1      40.098  30.639  31.537  1.00  0.00     0.049 A 
ATOM     51  N   UNL A   1      41.177  29.669  34.116  1.00  0.00    -0.248 NA
ATOM     52  C   UNL A   1      41.600  27.589  33.312  1.00  0.00     0.031 C 
ATOM     53  C   UNL A   1      40.568  31.779  32.331  1.00  0.00     0.029 A 
ATOM     54  N   UNL A   1      39.367  31.271  30.542  1.00  0.00    -0.354 N 
ATOM     55  C   UNL A   1      42.050  29.064  35.010  1.00  0.00     0.074 A 
ATOM     56  C   UNL A   1      42.249  27.745  34.474  1.00  0.00     0.031 C 
ATOM     57  C   UNL A   1      40.109  32.923  31.812  1.00  0.00     0.029 A 
ATOM     58  C   UNL A   1      39.050  32.581  30.917  1.00  0.00     0.049 A 
ATOM     59  H   UNL A   1      39.107  30.855  29.688  1.00  0.00     0.167 HD
ATOM     60  C   UNL A   1      42.593  29.796  36.035  1.00  0.00     0.031 A 
ATOM     61  C   UNL A   1      37.776  32.992  31.208  1.00  0.00     0.031 A 
ATOM     62  C   UNL A   1      41.972  31.128  36.124  1.00  0.00     0.049 A 
ATOM     63  C   UNL A   1      37.570  33.220  32.717  1.00  0.00     0.074 A 
ATOM     64  C   UNL A   1      42.459  32.424  36.113  1.00  0.00     0.029 A 
ATOM     65  N   UNL A   1      40.583  31.236  36.064  1.00  0.00    -0.354 N 
ATOM     66  N   UNL A   1      38.269  32.593  33.642  1.00  0.00    -0.248 NA
ATOM     67  C   UNL A   1      36.714  34.253  33.308  1.00  0.00     0.031 C 
ATOM     68  C   UNL A   1      41.353  33.298  35.955  1.00  0.00     0.029 A 
ATOM     69  C   UNL A   1      40.190  32.542  35.895  1.00  0.00     0.049 A 
ATOM     70  H   UNL A   1      39.963  30.475  36.134  1.00  0.00     0.167 HD
ATOM     71  C   UNL A   1      38.074  33.182  34.866  1.00  0.00     0.074 A 
ATOM     72  C   UNL A   1      37.046  34.179  34.613  1.00  0.00     0.031 C 
ATOM     73  C   UNL A   1      38.787  32.910  36.002  1.00  0.00     0.031 A 
BRANCH  60  74
ATOM     74  C   UNL A   1      43.814  29.431  36.897  1.00  0.00    -0.014 A 
ATOM     75  C   UNL A   1      44.215  28.074  36.981  1.00  0.00     0.010 A 
ATOM     76  C   UNL A   1      44.569  30.317  37.691  1.00  0.00     0.010 A 
ATOM     77  C   UNL A   1      45.261  27.623  37.807  1.00  0.00     0.020 A 
ATOM     78  C   UNL A   1      45.648  29.886  38.502  1.00  0.00     0.020 A 
ATOM     79  C   UNL A   1      45.983  28.536  38.561  1.00  0.00     0.054 A 
BRANCH  79  80
ATOM     80  S   UNL A   1      47.370  27.932  39.568  1.00  0.00     0.124 S 
ATOM     81  O   UNL A   1      48.533  28.329  38.779  1.00  0.00    -0.237 OA
ATOM     82  O   UNL A   1      47.191  28.654  40.825  1.00  0.00    -0.237 OA
ATOM     83  O   UNL A   1      47.141  26.490  39.648  1.00  0.00    -0.744 OA
ENDBRANCH  79  80
ENDBRANCH  60  74
BRANCH  61  84
ATOM     84  C   UNL A   1      36.848  32.702  30.064  1.00  0.00    -0.014 A 
ATOM     85  C   UNL A   1      35.568  32.267  30.496  1.00  0.00     0.010 A 
ATOM     86  C   UNL A   1      36.906  33.569  28.953  1.00  0.00     0.010 A 
ATOM     87  C   UNL A   1      34.416  32.970  30.114  1.00  0.00     0.020 A 
ATOM     88  C   UNL A   1      35.747  34.265  28.556  1.00  0.00     0.020 A 
ATOM     89  C   UNL A   1      34.530  34.022  29.205  1.00  0.00     0.054 A 
BRANCH  89  90
ATOM     90  S   UNL A   1      33.180  35.249  29.138  1.00  0.00     0.124 S 
ATOM     91  O   UNL A   1      32.249  34.643  28.193  1.00  0.00    -0.237 OA
ATOM     92  O   UNL A   1      32.730  35.302  30.530  1.00  0.00    -0.237 OA
ATOM     93  O   UNL A   1      33.854  36.455  28.676  1.00  0.00    -0.744 OA
ENDBRANCH  89  90
ENDBRANCH  61  84
BRANCH  73  94
ATOM     94  C   UNL A   1      38.230  32.987  37.412  1.00  0.00    -0.014 A 
ATOM     95  C   UNL A   1      37.559  31.927  38.032  1.00  0.00     0.010 A 
ATOM     96  C   UNL A   1      38.596  34.083  38.243  1.00  0.00     0.010 A 
ATOM     97  C   UNL A   1      37.247  31.968  39.396  1.00  0.00     0.020 A 
ATOM     98  C   UNL A   1      38.334  34.113  39.613  1.00  0.00     0.020 A 
ATOM     99  C   UNL A   1      37.644  33.054  40.179  1.00  0.00     0.054 A 
BRANCH  99 100
ATOM    100  S   UNL A   1      37.298  33.025  41.951  1.00  0.00     0.124 S 
ATOM    101  O   UNL A   1      36.298  31.964  42.043  1.00  0.00    -0.237 OA
ATOM    102  O   UNL A   1      38.603  32.706  42.525  1.00  0.00    -0.237 OA
ATOM    103  O   UNL A   1      36.810  34.371  42.238  1.00  0.00    -0.744 OA
ENDBRANCH  99 100
ENDBRANCH  73  94
ENDBRANCH  47  48
ENDBRANCH  40  42
ENDBRANCH  39  40
ENDBRANCH  38  39
ENDBRANCH  37  38
ENDBRANCH  36  37
ENDBRANCH  35  36
ENDBRANCH  34  35
ENDBRANCH   1  34
TORSDOF 26
ENDMDL
MODEL 2
REMARK VINA RESULT:     -10.3      4.412      8.838
REMARK SMILES Cc1cccc(CC(=O)N2CCC3(CCC(=O)N([C@H](C)C(=O)OCCOCCOCCOCCOC(=O)c4ccc(-c5c6nc(c(-c7ccc(S(=O)(=O)[O-])cc7)c7ccc([nH]7)c(-c7ccc(S(=O)(=O)[O-])cc7)c7nc(c(-c8ccc(S(=O)(=O)[O-])cc8)c8ccc5[nH]8)C=C7)C=C6)cc4)C3)CC2)c1
REMARK SMILES IDX 29 1 28 2 27 3 26 4 25 5 24 6 23 7 21 8 22 9 19 10 20 11
REMARK SMILES IDX 18 12 8 13 9 14 10 15 11 16 100 17 12 18 99 19 13 20 14 21
REMARK SMILES IDX 98 22 15 23 16 24 17 25 7 26 6 27 1 28 2 29 3 30 101 31 4 32
REMARK SMILES IDX 5 33 30 34 31 35 32 36 33 37 34 38 35 39 36 40 37 41 38 42
REMARK SMILES IDX 39 43 97 44 40 45 96 46 41 47 42 48 43 49 90 50 44 51 95 52
REMARK SMILES IDX 89 53 91 54 45 55 94 56 88 57 87 58 46 60 76 61 57 62 75 63
REMARK SMILES IDX 58 64 61 65 74 66 92 67 59 68 60 69 73 71 93 72 62 73 47 74
REMARK SMILES IDX 48 75 56 76 49 77 55 78 50 79 51 80 52 81 53 82 54 83 77 84
REMARK SMILES IDX 78 85 86 86 79 87 85 88 80 89 81 90 82 91 83 92 84 93 63 94
REMARK SMILES IDX 64 95 72 96 65 97 71 98 66 99 67 100 68 101 69 102 70 103
REMARK H PARENT 91 59 61 70
REMARK Flexibility Score: inf
ROOT
ATOM      1  O   UNL A   1      43.939  18.057  25.773  1.00  0.00    -0.377 OA
ENDROOT
BRANCH   1   2
ATOM      2  C   UNL A   1      42.700  18.145  26.459  1.00  0.00     0.188 C 
BRANCH   2   3
ATOM      3  C   UNL A   1      42.185  19.516  26.944  1.00  0.00     0.188 C 
BRANCH   3   4
ATOM      4  O   UNL A   1      41.459  20.374  26.082  1.00  0.00    -0.376 OA
BRANCH   4   5
ATOM      5  C   UNL A   1      40.081  20.550  26.392  1.00  0.00     0.202 C 
BRANCH   5   6
ATOM      6  C   UNL A   1      39.451  21.916  26.139  1.00  0.00     0.261 C 
BRANCH   6   7
ATOM      7  O   UNL A   1      38.040  21.832  26.301  1.00  0.00    -0.462 OA
BRANCH   7   8
ATOM      8  C   UNL A   1      37.288  22.577  25.469  1.00  0.00     0.328 C 
ATOM      9  O   UNL A   1      37.585  23.651  24.986  1.00  0.00    -0.250 OA
BRANCH   8  10
ATOM     10  C   UNL A   1      36.062  21.772  25.064  1.00  0.00     0.192 C 
ATOM     11  C   UNL A   1      36.356  20.287  24.991  1.00  0.00     0.044 C 
BRANCH  10  12
ATOM     12  N   UNL A   1      34.930  22.143  25.906  1.00  0.00    -0.329 N 
ATOM     13  C   UNL A   1      33.003  26.233  21.725  1.00  0.00     0.226 C 
ATOM     14  O   UNL A   1      33.117  26.012  20.513  1.00  0.00    -0.275 OA
ATOM     15  N   UNL A   1      32.549  25.239  22.576  1.00  0.00    -0.342 N 
ATOM     16  C   UNL A   1      32.953  23.872  22.297  1.00  0.00     0.120 C 
ATOM     17  C   UNL A   1      31.917  25.408  23.879  1.00  0.00     0.120 C 
ATOM     18  C   UNL A   1      33.957  23.455  23.374  1.00  0.00     0.030 C 
ATOM     19  C   UNL A   1      32.917  25.109  24.972  1.00  0.00     0.030 C 
ATOM     20  C   UNL A   1      33.422  23.673  24.829  1.00  0.00    -0.008 C 
ATOM     21  C   UNL A   1      32.273  22.661  25.152  1.00  0.00     0.019 C 
ATOM     22  C   UNL A   1      34.543  23.518  25.877  1.00  0.00     0.127 C 
ATOM     23  C   UNL A   1      32.786  21.235  25.305  1.00  0.00     0.101 C 
ATOM     24  C   UNL A   1      33.902  21.312  26.315  1.00  0.00     0.223 C 
ATOM     25  O   UNL A   1      33.668  21.046  27.487  1.00  0.00    -0.275 OA
BRANCH  13  26
ATOM     26  C   UNL A   1      33.631  27.508  22.293  1.00  0.00     0.135 C 
BRANCH  26  27
ATOM     27  C   UNL A   1      32.765  28.439  23.097  1.00  0.00    -0.038 A 
ATOM     28  C   UNL A   1      32.823  29.981  26.585  1.00  0.00     0.044 C 
ATOM     29  C   UNL A   1      32.361  29.576  25.215  1.00  0.00    -0.051 A 
ATOM     30  C   UNL A   1      31.037  29.798  24.822  1.00  0.00     0.003 A 
ATOM     31  C   UNL A   1      33.228  28.924  24.333  1.00  0.00     0.007 A 
ATOM     32  C   UNL A   1      30.595  29.399  23.559  1.00  0.00     0.001 A 
ATOM     33  C   UNL A   1      31.462  28.741  22.686  1.00  0.00     0.004 A 
ENDBRANCH  26  27
ENDBRANCH  13  26
ENDBRANCH  10  12
ENDBRANCH   8  10
ENDBRANCH   7   8
ENDBRANCH   6   7
ENDBRANCH   5   6
ENDBRANCH   4   5
ENDBRANCH   3   4
ENDBRANCH   2   3
ENDBRANCH   1   2
BRANCH   1  34
ATOM     34  C   UNL A   1      44.172  18.899  24.638  1.00  0.00     0.188 C 
BRANCH  34  35
ATOM     35  C   UNL A   1      45.112  20.071  24.862  1.00  0.00     0.188 C 
BRANCH  35  36
ATOM     36  O   UNL A   1      44.653  21.121  24.004  1.00  0.00    -0.376 OA
BRANCH  36  37
ATOM     37  C   UNL A   1      44.481  22.405  24.575  1.00  0.00     0.202 C 
BRANCH  37  38
ATOM     38  C   UNL A   1      43.569  22.418  25.796  1.00  0.00     0.261 C 
BRANCH  38  39
ATOM     39  O   UNL A   1      44.232  22.986  26.954  1.00  0.00    -0.460 OA
BRANCH  39  40
ATOM     40  C   UNL A   1      43.490  23.226  28.077  1.00  0.00     0.338 C 
ATOM     41  O   UNL A   1      43.382  22.417  28.984  1.00  0.00    -0.246 OA
BRANCH  40  42
ATOM     42  C   UNL A   1      43.015  24.638  28.168  1.00  0.00     0.060 A 
ATOM     43  C   UNL A   1      42.697  25.394  27.031  1.00  0.00     0.016 A 
ATOM     44  C   UNL A   1      42.997  25.261  29.401  1.00  0.00     0.016 A 
ATOM     45  C   UNL A   1      42.564  26.801  27.105  1.00  0.00     0.010 A 
ATOM     46  C   UNL A   1      42.955  26.643  29.454  1.00  0.00     0.010 A 
ATOM     47  C   UNL A   1      42.769  27.452  28.320  1.00  0.00    -0.014 A 
BRANCH  47  48
ATOM     48  C   UNL A   1      42.954  28.912  28.544  1.00  0.00     0.031 A 
ATOM     49  C   UNL A   1      41.735  29.772  28.821  1.00  0.00     0.074 A 
ATOM     50  C   UNL A   1      44.187  29.367  28.894  1.00  0.00     0.049 A 
ATOM     51  N   UNL A   1      41.735  30.974  29.293  1.00  0.00    -0.248 NA
ATOM     52  C   UNL A   1      40.363  29.301  28.609  1.00  0.00     0.031 C 
ATOM     53  C   UNL A   1      44.452  30.431  29.868  1.00  0.00     0.029 A 
ATOM     54  N   UNL A   1      45.470  28.929  28.600  1.00  0.00    -0.354 N 
ATOM     55  C   UNL A   1      40.457  31.302  29.725  1.00  0.00     0.074 A 
ATOM     56  C   UNL A   1      39.630  30.234  29.232  1.00  0.00     0.031 C 
ATOM     57  C   UNL A   1      45.768  30.560  30.063  1.00  0.00     0.029 A 
ATOM     58  C   UNL A   1      46.419  29.879  28.989  1.00  0.00     0.049 A 
ATOM     59  H   UNL A   1      45.683  28.066  28.176  1.00  0.00     0.167 HD
ATOM     60  C   UNL A   1      40.271  32.382  30.551  1.00  0.00     0.031 A 
ATOM     61  C   UNL A   1      47.166  30.603  28.098  1.00  0.00     0.031 A 
ATOM     62  C   UNL A   1      41.512  33.161  30.694  1.00  0.00     0.049 A 
ATOM     63  C   UNL A   1      46.709  32.072  28.016  1.00  0.00     0.074 A 
ATOM     64  C   UNL A   1      42.272  33.580  31.772  1.00  0.00     0.029 A 
ATOM     65  N   UNL A   1      42.251  33.478  29.554  1.00  0.00    -0.354 N 
ATOM     66  N   UNL A   1      45.478  32.459  28.286  1.00  0.00    -0.248 NA
ATOM     67  C   UNL A   1      47.591  33.222  27.798  1.00  0.00     0.031 C 
ATOM     68  C   UNL A   1      43.506  34.065  31.268  1.00  0.00     0.029 A 
ATOM     69  C   UNL A   1      43.492  33.967  29.884  1.00  0.00     0.049 A 
ATOM     70  H   UNL A   1      41.925  33.366  28.632  1.00  0.00     0.167 HD
ATOM     71  C   UNL A   1      45.425  33.825  28.402  1.00  0.00     0.074 A 
ATOM     72  C   UNL A   1      46.760  34.260  28.028  1.00  0.00     0.031 C 
ATOM     73  C   UNL A   1      44.353  34.543  28.861  1.00  0.00     0.031 A 
BRANCH  60  74
ATOM     74  C   UNL A   1      39.031  32.701  31.404  1.00  0.00    -0.014 A 
ATOM     75  C   UNL A   1      37.867  33.198  30.766  1.00  0.00     0.010 A 
ATOM     76  C   UNL A   1      38.940  32.610  32.808  1.00  0.00     0.010 A 
ATOM     77  C   UNL A   1      36.713  33.603  31.462  1.00  0.00     0.020 A 
ATOM     78  C   UNL A   1      37.772  32.980  33.522  1.00  0.00     0.020 A 
ATOM     79  C   UNL A   1      36.666  33.483  32.843  1.00  0.00     0.054 A 
BRANCH  79  80
ATOM     80  S   UNL A   1      35.138  33.952  33.707  1.00  0.00     0.124 S 
ATOM     81  O   UNL A   1      34.112  33.239  32.951  1.00  0.00    -0.237 OA
ATOM     82  O   UNL A   1      35.373  33.458  35.062  1.00  0.00    -0.237 OA
ATOM     83  O   UNL A   1      35.099  35.408  33.581  1.00  0.00    -0.744 OA
ENDBRANCH  79  80
ENDBRANCH  60  74
BRANCH  61  84
ATOM     84  C   UNL A   1      47.915  29.695  27.168  1.00  0.00    -0.014 A 
ATOM     85  C   UNL A   1      48.792  28.813  27.853  1.00  0.00     0.010 A 
ATOM     86  C   UNL A   1      47.210  29.186  26.058  1.00  0.00     0.010 A 
ATOM     87  C   UNL A   1      48.659  27.425  27.701  1.00  0.00     0.020 A 
ATOM     88  C   UNL A   1      47.087  27.791  25.893  1.00  0.00     0.020 A 
ATOM     89  C   UNL A   1      47.744  26.925  26.776  1.00  0.00     0.054 A 
BRANCH  89  90
ATOM     90  S   UNL A   1      47.187  25.197  26.968  1.00  0.00     0.124 S 
ATOM     91  O   UNL A   1      46.384  25.256  28.184  1.00  0.00    -0.237 OA
ATOM     92  O   UNL A   1      46.446  24.962  25.727  1.00  0.00    -0.237 OA
ATOM     93  O   UNL A   1      48.438  24.457  27.072  1.00  0.00    -0.744 OA
ENDBRANCH  89  90
ENDBRANCH  61  84
BRANCH  73  94
ATOM     94  C   UNL A   1      43.988  35.943  28.403  1.00  0.00    -0.014 A 
ATOM     95  C   UNL A   1      43.131  36.786  29.118  1.00  0.00     0.010 A 
ATOM     96  C   UNL A   1      44.715  36.533  27.330  1.00  0.00     0.010 A 
ATOM     97  C   UNL A   1      42.986  38.134  28.769  1.00  0.00     0.020 A 
ATOM     98  C   UNL A   1      44.616  37.886  27.005  1.00  0.00     0.020 A 
ATOM     99  C   UNL A   1      43.735  38.677  27.723  1.00  0.00     0.054 A 
BRANCH  99 100
ATOM    100  S   UNL A   1      43.582  40.440  27.363  1.00  0.00     0.124 S 
ATOM    101  O   UNL A   1      42.763  40.903  28.481  1.00  0.00    -0.237 OA
ATOM    102  O   UNL A   1      44.972  40.889  27.377  1.00  0.00    -0.237 OA
ATOM    103  O   UNL A   1      42.934  40.479  26.055  1.00  0.00    -0.744 OA
ENDBRANCH  99 100
ENDBRANCH  73  94
ENDBRANCH  47  48
ENDBRANCH  40  42
ENDBRANCH  39  40
ENDBRANCH  38  39
ENDBRANCH  37  38
ENDBRANCH  36  37
ENDBRANCH  35  36
ENDBRANCH  34  35
ENDBRANCH   1  34
TORSDOF 26
ENDMDL
MODEL 3
REMARK VINA RESULT:     -10.0      2.244      7.694
REMARK SMILES Cc1cccc(CC(=O)N2CCC3(CCC(=O)N([C@H](C)C(=O)OCCOCCOCCOCCOC(=O)c4ccc(-c5c6nc(c(-c7ccc(S(=O)(=O)[O-])cc7)c7ccc([nH]7)c(-c7ccc(S(=O)(=O)[O-])cc7)c7nc(c(-c8ccc(S(=O)(=O)[O-])cc8)c8ccc5[nH]8)C=C7)C=C6)cc4)C3)CC2)c1
REMARK SMILES IDX 29 1 28 2 27 3 26 4 25 5 24 6 23 7 21 8 22 9 19 10 20 11
REMARK SMILES IDX 18 12 8 13 9 14 10 15 11 16 100 17 12 18 99 19 13 20 14 21
REMARK SMILES IDX 98 22 15 23 16 24 17 25 7 26 6 27 1 28 2 29 3 30 101 31 4 32
REMARK SMILES IDX 5 33 30 34 31 35 32 36 33 37 34 38 35 39 36 40 37 41 38 42
REMARK SMILES IDX 39 43 97 44 40 45 96 46 41 47 42 48 43 49 90 50 44 51 95 52
REMARK SMILES IDX 89 53 91 54 45 55 94 56 88 57 87 58 46 60 76 61 57 62 75 63
REMARK SMILES IDX 58 64 61 65 74 66 92 67 59 68 60 69 73 71 93 72 62 73 47 74
REMARK SMILES IDX 48 75 56 76 49 77 55 78 50 79 51 80 52 81 53 82 54 83 77 84
REMARK SMILES IDX 78 85 86 86 79 87 85 88 80 89 81 90 82 91 83 92 84 93 63 94
REMARK SMILES IDX 64 95 72 96 65 97 71 98 66 99 67 100 68 101 69 102 70 103
REMARK H PARENT 91 59 61 70
REMARK Flexibility Score: inf
ROOT
ATOM      1  O   UNL A   1      44.861  23.282  26.196  1.00  0.00    -0.377 OA
ENDROOT
BRANCH   1   2
ATOM      2  C   UNL A   1      43.712  23.279  27.028  1.00  0.00     0.188 C 
BRANCH   2   3
ATOM      3  C   UNL A   1      42.746  22.078  27.000  1.00  0.00     0.188 C 
BRANCH   3   4
ATOM      4  O   UNL A   1      41.542  22.086  27.746  1.00  0.00    -0.376 OA
BRANCH   4   5
ATOM      5  C   UNL A   1      40.413  22.666  27.104  1.00  0.00     0.202 C 
BRANCH   5   6
ATOM      6  C   UNL A   1      39.679  21.845  26.047  1.00  0.00     0.261 C 
BRANCH   6   7
ATOM      7  O   UNL A   1      38.288  21.819  26.339  1.00  0.00    -0.462 OA
BRANCH   7   8
ATOM      8  C   UNL A   1      37.499  22.633  25.611  1.00  0.00     0.328 C 
ATOM      9  O   UNL A   1      37.754  23.766  25.256  1.00  0.00    -0.250 OA
BRANCH   8  10
ATOM     10  C   UNL A   1      36.292  21.841  25.127  1.00  0.00     0.192 C 
ATOM     11  C   UNL A   1      36.604  20.365  24.981  1.00  0.00     0.044 C 
BRANCH  10  12
ATOM     12  N   UNL A   1      35.134  22.155  25.957  1.00  0.00    -0.329 N 
ATOM     13  C   UNL A   1      33.033  26.116  21.736  1.00  0.00     0.226 C 
ATOM     14  O   UNL A   1      33.170  25.896  20.526  1.00  0.00    -0.275 OA
ATOM     15  N   UNL A   1      32.624  25.104  22.588  1.00  0.00    -0.342 N 
ATOM     16  C   UNL A   1      33.104  23.758  22.320  1.00  0.00     0.120 C 
ATOM     17  C   UNL A   1      31.972  25.244  23.884  1.00  0.00     0.120 C 
ATOM     18  C   UNL A   1      34.117  23.401  23.409  1.00  0.00     0.030 C 
ATOM     19  C   UNL A   1      32.976  25.005  24.988  1.00  0.00     0.030 C 
ATOM     20  C   UNL A   1      33.557  23.597  24.857  1.00  0.00    -0.008 C 
ATOM     21  C   UNL A   1      32.461  22.527  25.174  1.00  0.00     0.019 C 
ATOM     22  C   UNL A   1      34.675  23.507  25.917  1.00  0.00     0.127 C 
ATOM     23  C   UNL A   1      33.048  21.130  25.340  1.00  0.00     0.101 C 
ATOM     24  C   UNL A   1      34.148  21.272  26.360  1.00  0.00     0.223 C 
ATOM     25  O   UNL A   1      33.917  21.000  27.531  1.00  0.00    -0.275 OA
BRANCH  13  26
ATOM     26  C   UNL A   1      33.586  27.425  22.303  1.00  0.00     0.135 C 
BRANCH  26  27
ATOM     27  C   UNL A   1      32.635  28.376  22.977  1.00  0.00    -0.038 A 
ATOM     28  C   UNL A   1      32.423  30.204  26.318  1.00  0.00     0.044 C 
ATOM     29  C   UNL A   1      32.059  29.664  24.965  1.00  0.00    -0.051 A 
ATOM     30  C   UNL A   1      30.751  29.786  24.485  1.00  0.00     0.003 A 
ATOM     31  C   UNL A   1      33.003  28.985  24.189  1.00  0.00     0.007 A 
ATOM     32  C   UNL A   1      30.400  29.262  23.238  1.00  0.00     0.001 A 
ATOM     33  C   UNL A   1      31.345  28.578  22.472  1.00  0.00     0.004 A 
ENDBRANCH  26  27
ENDBRANCH  13  26
ENDBRANCH  10  12
ENDBRANCH   8  10
ENDBRANCH   7   8
ENDBRANCH   6   7
ENDBRANCH   5   6
ENDBRANCH   4   5
ENDBRANCH   3   4
ENDBRANCH   2   3
ENDBRANCH   1   2
BRANCH   1  34
ATOM     34  C   UNL A   1      45.166  24.451  25.427  1.00  0.00     0.188 C 
BRANCH  34  35
ATOM     35  C   UNL A   1      44.940  25.782  26.123  1.00  0.00     0.188 C 
BRANCH  35  36
ATOM     36  O   UNL A   1      44.044  26.523  25.288  1.00  0.00    -0.376 OA
BRANCH  36  37
ATOM     37  C   UNL A   1      42.876  25.865  24.833  1.00  0.00     0.202 C 
BRANCH  37  38
ATOM     38  C   UNL A   1      41.667  26.062  25.740  1.00  0.00     0.261 C 
BRANCH  38  39
ATOM     39  O   UNL A   1      41.101  27.389  25.597  1.00  0.00    -0.460 OA
BRANCH  39  40
ATOM     40  C   UNL A   1      41.824  28.458  26.048  1.00  0.00     0.338 C 
ATOM     41  O   UNL A   1      42.306  29.294  25.301  1.00  0.00    -0.246 OA
BRANCH  40  42
ATOM     42  C   UNL A   1      41.775  28.607  27.533  1.00  0.00     0.060 A 
ATOM     43  C   UNL A   1      40.742  28.056  28.305  1.00  0.00     0.016 A 
ATOM     44  C   UNL A   1      42.710  29.409  28.157  1.00  0.00     0.016 A 
ATOM     45  C   UNL A   1      40.533  28.469  29.642  1.00  0.00     0.010 A 
ATOM     46  C   UNL A   1      42.449  29.876  29.433  1.00  0.00     0.010 A 
ATOM     47  C   UNL A   1      41.350  29.450  30.199  1.00  0.00    -0.014 A 
BRANCH  47  48
ATOM     48  C   UNL A   1      41.122  30.211  31.459  1.00  0.00     0.031 A 
ATOM     49  C   UNL A   1      40.227  31.436  31.424  1.00  0.00     0.074 A 
ATOM     50  C   UNL A   1      41.368  29.595  32.646  1.00  0.00     0.049 A 
ATOM     51  N   UNL A   1      39.716  32.041  32.444  1.00  0.00    -0.248 NA
ATOM     52  C   UNL A   1      39.797  32.073  30.176  1.00  0.00     0.031 C 
ATOM     53  C   UNL A   1      40.555  29.738  33.858  1.00  0.00     0.029 A 
ATOM     54  N   UNL A   1      42.273  28.616  33.028  1.00  0.00    -0.354 N 
ATOM     55  C   UNL A   1      38.701  32.888  32.019  1.00  0.00     0.074 A 
ATOM     56  C   UNL A   1      38.826  32.900  30.586  1.00  0.00     0.031 C 
ATOM     57  C   UNL A   1      41.002  28.917  34.813  1.00  0.00     0.029 A 
ATOM     58  C   UNL A   1      42.308  28.490  34.421  1.00  0.00     0.049 A 
ATOM     59  H   UNL A   1      42.816  28.082  32.405  1.00  0.00     0.167 HD
ATOM     60  C   UNL A   1      37.801  33.386  32.927  1.00  0.00     0.031 A 
ATOM     61  C   UNL A   1      43.384  28.862  35.182  1.00  0.00     0.031 A 
ATOM     62  C   UNL A   1      38.205  33.064  34.306  1.00  0.00     0.049 A 
ATOM     63  C   UNL A   1      43.118  30.157  35.972  1.00  0.00     0.074 A 
ATOM     64  C   UNL A   1      37.590  32.426  35.369  1.00  0.00     0.029 A 
ATOM     65  N   UNL A   1      39.529  33.271  34.692  1.00  0.00    -0.354 N 
ATOM     66  N   UNL A   1      42.262  31.078  35.577  1.00  0.00    -0.248 NA
ATOM     67  C   UNL A   1      43.635  30.453  37.312  1.00  0.00     0.031 C 
ATOM     68  C   UNL A   1      38.580  32.175  36.353  1.00  0.00     0.029 A 
ATOM     69  C   UNL A   1      39.793  32.681  35.905  1.00  0.00     0.049 A 
ATOM     70  H   UNL A   1      40.189  33.776  34.165  1.00  0.00     0.167 HD
ATOM     71  C   UNL A   1      42.024  31.971  36.592  1.00  0.00     0.074 A 
ATOM     72  C   UNL A   1      42.952  31.570  37.635  1.00  0.00     0.031 C 
ATOM     73  C   UNL A   1      41.051  32.935  36.591  1.00  0.00     0.031 A 
BRANCH  60  74
ATOM     74  C   UNL A   1      36.437  34.031  32.630  1.00  0.00    -0.014 A 
ATOM     75  C   UNL A   1      36.005  35.121  33.427  1.00  0.00     0.010 A 
ATOM     76  C   UNL A   1      35.506  33.606  31.661  1.00  0.00     0.010 A 
ATOM     77  C   UNL A   1      34.741  35.725  33.296  1.00  0.00     0.020 A 
ATOM     78  C   UNL A   1      34.243  34.226  31.492  1.00  0.00     0.020 A 
ATOM     79  C   UNL A   1      33.863  35.279  32.319  1.00  0.00     0.054 A 
BRANCH  79  80
ATOM     80  S   UNL A   1      32.265  36.122  32.131  1.00  0.00     0.124 S 
ATOM     81  O   UNL A   1      31.310  35.080  32.496  1.00  0.00    -0.237 OA
ATOM     82  O   UNL A   1      32.374  37.229  33.078  1.00  0.00    -0.237 OA
ATOM     83  O   UNL A   1      32.242  36.516  30.723  1.00  0.00    -0.744 OA
ENDBRANCH  79  80
ENDBRANCH  60  74
BRANCH  61  84
ATOM     84  C   UNL A   1      44.631  28.165  34.719  1.00  0.00    -0.014 A 
ATOM     85  C   UNL A   1      45.654  28.164  35.704  1.00  0.00     0.010 A 
ATOM     86  C   UNL A   1      44.466  27.000  33.942  1.00  0.00     0.010 A 
ATOM     87  C   UNL A   1      46.192  26.952  36.161  1.00  0.00     0.020 A 
ATOM     88  C   UNL A   1      45.019  25.784  34.390  1.00  0.00     0.020 A 
ATOM     89  C   UNL A   1      45.803  25.760  35.550  1.00  0.00     0.054 A 
BRANCH  89  90
ATOM     90  S   UNL A   1      46.056  24.202  36.469  1.00  0.00     0.124 S 
ATOM     91  O   UNL A   1      46.283  24.671  37.830  1.00  0.00    -0.237 OA
ATOM     92  O   UNL A   1      44.797  23.491  36.242  1.00  0.00    -0.237 OA
ATOM     93  O   UNL A   1      47.210  23.611  35.804  1.00  0.00    -0.744 OA
ENDBRANCH  89  90
ENDBRANCH  61  84
BRANCH  73  94
ATOM     94  C   UNL A   1      41.163  34.278  37.287  1.00  0.00    -0.014 A 
ATOM     95  C   UNL A   1      40.481  34.591  38.468  1.00  0.00     0.010 A 
ATOM     96  C   UNL A   1      42.175  35.191  36.874  1.00  0.00     0.010 A 
ATOM     97  C   UNL A   1      40.771  35.758  39.184  1.00  0.00     0.020 A 
ATOM     98  C   UNL A   1      42.507  36.332  37.606  1.00  0.00     0.020 A 
ATOM     99  C   UNL A   1      41.787  36.615  38.754  1.00  0.00     0.054 A 
BRANCH  99 100
ATOM    100  S   UNL A   1      42.187  38.064  39.755  1.00  0.00     0.124 S 
ATOM    101  O   UNL A   1      40.878  38.695  39.904  1.00  0.00    -0.237 OA
ATOM    102  O   UNL A   1      42.737  37.469  40.971  1.00  0.00    -0.237 OA
ATOM    103  O   UNL A   1      43.148  38.802  38.940  1.00  0.00    -0.744 OA
ENDBRANCH  99 100
ENDBRANCH  73  94
ENDBRANCH  47  48
ENDBRANCH  40  42
ENDBRANCH  39  40
ENDBRANCH  38  39
ENDBRANCH  37  38
ENDBRANCH  36  37
ENDBRANCH  35  36
ENDBRANCH  34  35
ENDBRANCH   1  34
TORSDOF 26
ENDMDL
