MODEL 1
REMARK VINA RESULT:      -6.8      0.000      0.000
REMARK SMILES COc1ccc([C@H]2CC(c3ccc(S(C)(=O)=O)cc3)=NN2c2ccc(C(=O)OCCOCCOCCOCCOC(=O)c3ccc(-c4c5nc(c(-c6ccc(S(=O)(=O)[O-])cc6)c6ccc([nH]6)c(-c6ccc(S(=O)(=O)[O-])cc6)c6nc(c(-c7ccc(S(=O)(=O)[O-])cc7)c7ccc4[nH]7)C=C6)C=C5)cc3)cc2)cc1OC
REMARK SMILES IDX 34 1 33 2 32 3 31 4 30 5 29 6 28 7 26 8 27 9 25 10 22 11
REMARK SMILES IDX 23 12 104 13 24 14 103 15 21 16 7 17 8 18 9 19 20 20 6 21
REMARK SMILES IDX 3 22 4 23 106 24 5 25 105 26 2 27 1 28 107 29 108 30 10 31
REMARK SMILES IDX 11 32 19 33 12 34 18 35 13 36 14 37 15 38 16 39 17 40 35 41
REMARK SMILES IDX 36 42 37 43 38 44 39 45 40 46 41 47 42 48 43 49 44 50 102 51
REMARK SMILES IDX 45 52 101 53 46 54 47 55 48 56 95 57 49 58 100 59 94 60
REMARK SMILES IDX 96 61 50 62 99 63 93 64 92 65 51 67 81 68 62 69 80 70 63 71
REMARK SMILES IDX 66 72 79 73 97 74 64 75 65 76 78 78 98 79 67 80 52 81 53 82
REMARK SMILES IDX 61 83 54 84 60 85 55 86 56 87 57 88 58 89 59 90 82 91 83 92
REMARK SMILES IDX 91 93 84 94 90 95 85 96 86 97 87 98 88 99 89 100 68 101
REMARK SMILES IDX 69 102 77 103 70 104 76 105 71 106 72 107 73 108 74 109
REMARK SMILES IDX 75 110
REMARK H PARENT 96 66 66 77
REMARK Flexibility Score: inf
ROOT
ATOM      1  O   UNL A   1      48.953  30.955  31.758  1.00  0.00    -0.377 OA
ENDROOT
BRANCH   1   2
ATOM      2  C   UNL A   1      48.956  32.339  32.076  1.00  0.00     0.188 C 
BRANCH   2   3
ATOM      3  C   UNL A   1      48.565  33.369  30.995  1.00  0.00     0.188 C 
BRANCH   3   4
ATOM      4  O   UNL A   1      47.210  33.781  31.048  1.00  0.00    -0.376 OA
BRANCH   4   5
ATOM      5  C   UNL A   1      46.503  33.979  29.838  1.00  0.00     0.202 C 
BRANCH   5   6
ATOM      6  C   UNL A   1      44.984  33.751  29.814  1.00  0.00     0.261 C 
BRANCH   6   7
ATOM      7  O   UNL A   1      44.543  32.485  29.314  1.00  0.00    -0.460 OA
BRANCH   7   8
ATOM      8  C   UNL A   1      44.870  31.393  30.038  1.00  0.00     0.338 C 
ATOM      9  O   UNL A   1      44.853  31.290  31.252  1.00  0.00    -0.246 OA
BRANCH   8  10
ATOM     10  C   UNL A   1      45.055  30.261  29.100  1.00  0.00     0.060 A 
ATOM     11  C   UNL A   1      45.504  28.092  27.373  1.00  0.00     0.060 A 
ATOM     12  C   UNL A   1      45.562  27.918  28.762  1.00  0.00     0.029 A 
ATOM     13  C   UNL A   1      45.117  29.344  26.869  1.00  0.00     0.029 A 
ATOM     14  C   UNL A   1      45.376  29.003  29.623  1.00  0.00     0.018 A 
ATOM     15  C   UNL A   1      44.873  30.421  27.724  1.00  0.00     0.018 A 
BRANCH  11  16
ATOM     16  N   UNL A   1      45.951  27.094  26.511  1.00  0.00    -0.257 N 
ATOM     17  C   UNL A   1      47.235  27.217  25.805  1.00  0.00     0.144 C 
ATOM     18  C   UNL A   1      47.459  25.797  25.275  1.00  0.00     0.091 C 
ATOM     19  C   UNL A   1      46.220  25.115  25.791  1.00  0.00     0.071 C 
ATOM     20  N   UNL A   1      45.424  25.842  26.512  1.00  0.00    -0.176 NA
BRANCH  17  21
ATOM     21  C   UNL A   1      48.360  27.712  26.711  1.00  0.00    -0.019 A 
ATOM     22  C   UNL A   1      50.616  28.532  28.207  1.00  0.00     0.160 A 
ATOM     23  C   UNL A   1      50.061  27.259  28.394  1.00  0.00     0.051 A 
ATOM     24  C   UNL A   1      50.043  29.413  27.283  1.00  0.00     0.161 A 
ATOM     25  C   UNL A   1      48.941  26.855  27.657  1.00  0.00     0.010 A 
ATOM     26  C   UNL A   1      48.923  28.992  26.551  1.00  0.00     0.056 A 
BRANCH  22  27
ATOM     27  O   UNL A   1      51.811  28.810  28.816  1.00  0.00    -0.493 OA
ATOM     28  C   UNL A   1      51.679  29.715  29.907  1.00  0.00     0.278 C 
ENDBRANCH  22  27
BRANCH  24  29
ATOM     29  O   UNL A   1      50.459  30.670  26.932  1.00  0.00    -0.493 OA
ATOM     30  C   UNL A   1      51.568  30.790  26.058  1.00  0.00     0.278 C 
ENDBRANCH  24  29
ENDBRANCH  17  21
BRANCH  19  31
ATOM     31  C   UNL A   1      45.934  23.719  25.429  1.00  0.00    -0.002 A 
ATOM     32  C   UNL A   1      45.640  22.807  26.450  1.00  0.00     0.011 A 
ATOM     33  C   UNL A   1      45.912  23.320  24.091  1.00  0.00     0.011 A 
ATOM     34  C   UNL A   1      45.296  21.490  26.129  1.00  0.00     0.021 A 
ATOM     35  C   UNL A   1      45.596  21.996  23.769  1.00  0.00     0.021 A 
ATOM     36  C   UNL A   1      45.287  21.090  24.789  1.00  0.00     0.067 A 
BRANCH  36  37
ATOM     37  S   UNL A   1      44.826  19.420  24.381  1.00  0.00     0.175 S 
ATOM     38  C   UNL A   1      43.413  19.083  25.398  1.00  0.00     0.163 C 
ATOM     39  O   UNL A   1      44.401  19.429  22.995  1.00  0.00    -0.224 OA
ATOM     40  O   UNL A   1      45.897  18.548  24.826  1.00  0.00    -0.224 OA
ENDBRANCH  36  37
ENDBRANCH  19  31
ENDBRANCH  11  16
ENDBRANCH   8  10
ENDBRANCH   7   8
ENDBRANCH   6   7
ENDBRANCH   5   6
ENDBRANCH   4   5
ENDBRANCH   3   4
ENDBRANCH   2   3
ENDBRANCH   1   2
BRANCH   1  41
ATOM     41  C   UNL A   1      49.174  29.982  32.773  1.00  0.00     0.188 C 
BRANCH  41  42
ATOM     42  C   UNL A   1      50.368  30.088  33.751  1.00  0.00     0.188 C 
BRANCH  42  43
ATOM     43  O   UNL A   1      50.356  29.141  34.807  1.00  0.00    -0.376 OA
BRANCH  43  44
ATOM     44  C   UNL A   1      50.139  27.784  34.467  1.00  0.00     0.202 C 
BRANCH  44  45
ATOM     45  C   UNL A   1      49.607  26.867  35.576  1.00  0.00     0.261 C 
BRANCH  45  46
ATOM     46  O   UNL A   1      48.993  27.518  36.699  1.00  0.00    -0.460 OA
BRANCH  46  47
ATOM     47  C   UNL A   1      47.887  26.946  37.220  1.00  0.00     0.338 C 
ATOM     48  O   UNL A   1      47.840  26.061  38.058  1.00  0.00    -0.246 OA
BRANCH  47  49
ATOM     49  C   UNL A   1      46.724  27.715  36.733  1.00  0.00     0.060 A 
ATOM     50  C   UNL A   1      45.431  27.207  36.928  1.00  0.00     0.016 A 
ATOM     51  C   UNL A   1      46.912  28.948  36.104  1.00  0.00     0.016 A 
ATOM     52  C   UNL A   1      44.325  27.919  36.464  1.00  0.00     0.010 A 
ATOM     53  C   UNL A   1      45.805  29.649  35.623  1.00  0.00     0.010 A 
ATOM     54  C   UNL A   1      44.510  29.122  35.770  1.00  0.00    -0.014 A 
BRANCH  54  55
ATOM     55  C   UNL A   1      43.381  29.730  35.024  1.00  0.00     0.031 A 
ATOM     56  C   UNL A   1      42.644  30.876  35.663  1.00  0.00     0.074 A 
ATOM     57  C   UNL A   1      43.021  29.285  33.808  1.00  0.00     0.049 A 
ATOM     58  N   UNL A   1      41.602  31.536  35.232  1.00  0.00    -0.248 NA
ATOM     59  C   UNL A   1      43.153  31.335  36.966  1.00  0.00     0.031 C 
ATOM     60  C   UNL A   1      43.685  28.218  33.063  1.00  0.00     0.029 A 
ATOM     61  N   UNL A   1      41.994  29.681  32.987  1.00  0.00    -0.354 N 
ATOM     62  C   UNL A   1      41.323  32.480  36.214  1.00  0.00     0.074 A 
ATOM     63  C   UNL A   1      42.284  32.283  37.277  1.00  0.00     0.031 C 
ATOM     64  C   UNL A   1      43.046  28.042  31.893  1.00  0.00     0.029 A 
ATOM     65  C   UNL A   1      41.906  28.955  31.824  1.00  0.00     0.049 A 
ATOM     66  H   UNL A   1      41.378  30.416  33.212  1.00  0.00     0.167 HD
ATOM     67  C   UNL A   1      40.358  33.431  36.228  1.00  0.00     0.031 A 
ATOM     68  C   UNL A   1      40.998  29.008  30.828  1.00  0.00     0.031 A 
ATOM     69  C   UNL A   1      39.388  33.604  35.181  1.00  0.00     0.049 A 
ATOM     70  C   UNL A   1      39.874  30.011  30.907  1.00  0.00     0.074 A 
ATOM     71  C   UNL A   1      38.371  34.540  35.096  1.00  0.00     0.029 A 
ATOM     72  N   UNL A   1      39.302  32.815  34.043  1.00  0.00    -0.354 N 
ATOM     73  N   UNL A   1      39.634  30.913  31.831  1.00  0.00    -0.248 NA
ATOM     74  C   UNL A   1      38.903  30.007  29.803  1.00  0.00     0.031 C 
ATOM     75  C   UNL A   1      37.631  34.274  33.939  1.00  0.00     0.029 A 
ATOM     76  C   UNL A   1      38.231  33.222  33.265  1.00  0.00     0.049 A 
ATOM     77  H   UNL A   1      39.913  32.076  33.820  1.00  0.00     0.167 HD
ATOM     78  C   UNL A   1      38.504  31.604  31.404  1.00  0.00     0.074 A 
ATOM     79  C   UNL A   1      38.116  31.023  30.135  1.00  0.00     0.031 C 
ATOM     80  C   UNL A   1      37.851  32.632  32.004  1.00  0.00     0.031 A 
BRANCH  67  81
ATOM     81  C   UNL A   1      40.283  34.319  37.444  1.00  0.00    -0.014 A 
ATOM     82  C   UNL A   1      39.682  33.879  38.638  1.00  0.00     0.010 A 
ATOM     83  C   UNL A   1      40.827  35.615  37.391  1.00  0.00     0.010 A 
ATOM     84  C   UNL A   1      39.577  34.737  39.736  1.00  0.00     0.020 A 
ATOM     85  C   UNL A   1      40.755  36.464  38.498  1.00  0.00     0.020 A 
ATOM     86  C   UNL A   1      40.110  36.027  39.657  1.00  0.00     0.054 A 
BRANCH  86  87
ATOM     87  S   UNL A   1      39.958  37.121  41.096  1.00  0.00     0.124 S 
ATOM     88  O   UNL A   1      38.710  36.655  41.697  1.00  0.00    -0.237 OA
ATOM     89  O   UNL A   1      41.170  36.822  41.853  1.00  0.00    -0.237 OA
ATOM     90  O   UNL A   1      39.905  38.459  40.512  1.00  0.00    -0.744 OA
ENDBRANCH  86  87
ENDBRANCH  67  81
BRANCH  68  91
ATOM     91  C   UNL A   1      41.112  28.079  29.670  1.00  0.00    -0.014 A 
ATOM     92  C   UNL A   1      40.461  26.833  29.682  1.00  0.00     0.010 A 
ATOM     93  C   UNL A   1      41.866  28.444  28.537  1.00  0.00     0.010 A 
ATOM     94  C   UNL A   1      40.561  25.969  28.588  1.00  0.00     0.020 A 
ATOM     95  C   UNL A   1      41.944  27.595  27.429  1.00  0.00     0.020 A 
ATOM     96  C   UNL A   1      41.296  26.360  27.464  1.00  0.00     0.054 A 
BRANCH  96  97
ATOM     97  S   UNL A   1      41.347  25.252  26.027  1.00  0.00     0.124 S 
ATOM     98  O   UNL A   1      41.836  26.138  24.976  1.00  0.00    -0.237 OA
ATOM     99  O   UNL A   1      42.277  24.213  26.465  1.00  0.00    -0.237 OA
ATOM    100  O   UNL A   1      39.960  24.815  25.883  1.00  0.00    -0.744 OA
ENDBRANCH  96  97
ENDBRANCH  68  91
BRANCH  80 101
ATOM    101  C   UNL A   1      36.669  33.228  31.281  1.00  0.00    -0.014 A 
ATOM    102  C   UNL A   1      35.386  33.241  31.856  1.00  0.00     0.010 A 
ATOM    103  C   UNL A   1      36.864  33.841  30.029  1.00  0.00     0.010 A 
ATOM    104  C   UNL A   1      34.314  33.828  31.176  1.00  0.00     0.020 A 
ATOM    105  C   UNL A   1      35.802  34.457  29.362  1.00  0.00     0.020 A 
ATOM    106  C   UNL A   1      34.529  34.434  29.934  1.00  0.00     0.054 A 
BRANCH 106 107
ATOM    107  S   UNL A   1      33.130  35.227  29.095  1.00  0.00     0.124 S 
ATOM    108  O   UNL A   1      32.691  34.179  28.178  1.00  0.00    -0.237 OA
ATOM    109  O   UNL A   1      32.219  35.519  30.199  1.00  0.00    -0.237 OA
ATOM    110  O   UNL A   1      33.725  36.401  28.459  1.00  0.00    -0.744 OA
ENDBRANCH 106 107
ENDBRANCH  80 101
ENDBRANCH  54  55
ENDBRANCH  47  49
ENDBRANCH  46  47
ENDBRANCH  45  46
ENDBRANCH  44  45
ENDBRANCH  43  44
ENDBRANCH  42  43
ENDBRANCH  41  42
ENDBRANCH   1  41
TORSDOF 29
ENDMDL
MODEL 2
REMARK VINA RESULT:      -6.2      2.530      6.537
REMARK SMILES COc1ccc([C@H]2CC(c3ccc(S(C)(=O)=O)cc3)=NN2c2ccc(C(=O)OCCOCCOCCOCCOC(=O)c3ccc(-c4c5nc(c(-c6ccc(S(=O)(=O)[O-])cc6)c6ccc([nH]6)c(-c6ccc(S(=O)(=O)[O-])cc6)c6nc(c(-c7ccc(S(=O)(=O)[O-])cc7)c7ccc4[nH]7)C=C6)C=C5)cc3)cc2)cc1OC
REMARK SMILES IDX 34 1 33 2 32 3 31 4 30 5 29 6 28 7 26 8 27 9 25 10 22 11
REMARK SMILES IDX 23 12 104 13 24 14 103 15 21 16 7 17 8 18 9 19 20 20 6 21
REMARK SMILES IDX 3 22 4 23 106 24 5 25 105 26 2 27 1 28 107 29 108 30 10 31
REMARK SMILES IDX 11 32 19 33 12 34 18 35 13 36 14 37 15 38 16 39 17 40 35 41
REMARK SMILES IDX 36 42 37 43 38 44 39 45 40 46 41 47 42 48 43 49 44 50 102 51
REMARK SMILES IDX 45 52 101 53 46 54 47 55 48 56 95 57 49 58 100 59 94 60
REMARK SMILES IDX 96 61 50 62 99 63 93 64 92 65 51 67 81 68 62 69 80 70 63 71
REMARK SMILES IDX 66 72 79 73 97 74 64 75 65 76 78 78 98 79 67 80 52 81 53 82
REMARK SMILES IDX 61 83 54 84 60 85 55 86 56 87 57 88 58 89 59 90 82 91 83 92
REMARK SMILES IDX 91 93 84 94 90 95 85 96 86 97 87 98 88 99 89 100 68 101
REMARK SMILES IDX 69 102 77 103 70 104 76 105 71 106 72 107 73 108 74 109
REMARK SMILES IDX 75 110
REMARK H PARENT 96 66 66 77
REMARK Flexibility Score: inf
ROOT
ATOM      1  O   UNL A   1      51.564  22.116  34.984  1.00  0.00    -0.377 OA
ENDROOT
BRANCH   1   2
ATOM      2  C   UNL A   1      50.910  23.029  34.115  1.00  0.00     0.188 C 
BRANCH   2   3
ATOM      3  C   UNL A   1      51.478  23.276  32.702  1.00  0.00     0.188 C 
BRANCH   3   4
ATOM      4  O   UNL A   1      50.521  23.726  31.759  1.00  0.00    -0.376 OA
BRANCH   4   5
ATOM      5  C   UNL A   1      50.845  24.813  30.913  1.00  0.00     0.202 C 
BRANCH   5   6
ATOM      6  C   UNL A   1      51.896  25.833  31.376  1.00  0.00     0.261 C 
BRANCH   6   7
ATOM      7  O   UNL A   1      52.500  26.628  30.350  1.00  0.00    -0.460 OA
BRANCH   7   8
ATOM      8  C   UNL A   1      52.893  27.873  30.694  1.00  0.00     0.338 C 
ATOM      9  O   UNL A   1      54.028  28.237  30.946  1.00  0.00    -0.246 OA
BRANCH   8  10
ATOM     10  C   UNL A   1      51.739  28.784  30.509  1.00  0.00     0.060 A 
ATOM     11  C   UNL A   1      49.484  30.432  30.208  1.00  0.00     0.060 A 
ATOM     12  C   UNL A   1      49.828  29.921  31.467  1.00  0.00     0.029 A 
ATOM     13  C   UNL A   1      50.345  30.187  29.127  1.00  0.00     0.029 A 
ATOM     14  C   UNL A   1      50.928  29.071  31.613  1.00  0.00     0.018 A 
ATOM     15  C   UNL A   1      51.478  29.385  29.275  1.00  0.00     0.018 A 
BRANCH  11  16
ATOM     16  N   UNL A   1      48.253  31.048  30.002  1.00  0.00    -0.257 N 
ATOM     17  C   UNL A   1      47.404  30.690  28.856  1.00  0.00     0.144 C 
ATOM     18  C   UNL A   1      46.064  31.337  29.222  1.00  0.00     0.091 C 
ATOM     19  C   UNL A   1      46.416  31.965  30.544  1.00  0.00     0.071 C 
ATOM     20  N   UNL A   1      47.619  31.751  30.978  1.00  0.00    -0.176 NA
BRANCH  17  21
ATOM     21  C   UNL A   1      47.312  29.180  28.642  1.00  0.00    -0.019 A 
ATOM     22  C   UNL A   1      47.389  26.369  28.345  1.00  0.00     0.160 A 
ATOM     23  C   UNL A   1      47.843  27.207  27.318  1.00  0.00     0.051 A 
ATOM     24  C   UNL A   1      46.880  26.925  29.524  1.00  0.00     0.161 A 
ATOM     25  C   UNL A   1      47.799  28.599  27.462  1.00  0.00     0.010 A 
ATOM     26  C   UNL A   1      46.846  28.322  29.654  1.00  0.00     0.056 A 
BRANCH  22  27
ATOM     27  O   UNL A   1      47.620  25.024  28.229  1.00  0.00    -0.493 OA
ATOM     28  C   UNL A   1      46.866  24.422  27.181  1.00  0.00     0.278 C 
ENDBRANCH  22  27
BRANCH  24  29
ATOM     29  O   UNL A   1      46.431  26.281  30.647  1.00  0.00    -0.493 OA
ATOM     30  C   UNL A   1      45.413  25.307  30.501  1.00  0.00     0.278 C 
ENDBRANCH  24  29
ENDBRANCH  17  21
BRANCH  19  31
ATOM     31  C   UNL A   1      45.442  32.813  31.247  1.00  0.00    -0.002 A 
ATOM     32  C   UNL A   1      44.732  32.270  32.324  1.00  0.00     0.011 A 
ATOM     33  C   UNL A   1      45.261  34.147  30.876  1.00  0.00     0.011 A 
ATOM     34  C   UNL A   1      43.851  33.073  33.053  1.00  0.00     0.021 A 
ATOM     35  C   UNL A   1      44.360  34.947  31.587  1.00  0.00     0.021 A 
ATOM     36  C   UNL A   1      43.662  34.406  32.673  1.00  0.00     0.067 A 
BRANCH  36  37
ATOM     37  S   UNL A   1      42.559  35.435  33.618  1.00  0.00     0.175 S 
ATOM     38  C   UNL A   1      42.950  35.077  35.310  1.00  0.00     0.163 C 
ATOM     39  O   UNL A   1      42.929  36.810  33.343  1.00  0.00    -0.224 OA
ATOM     40  O   UNL A   1      41.207  34.965  33.377  1.00  0.00    -0.224 OA
ENDBRANCH  36  37
ENDBRANCH  19  31
ENDBRANCH  11  16
ENDBRANCH   8  10
ENDBRANCH   7   8
ENDBRANCH   6   7
ENDBRANCH   5   6
ENDBRANCH   4   5
ENDBRANCH   3   4
ENDBRANCH   2   3
ENDBRANCH   1   2
BRANCH   1  41
ATOM     41  C   UNL A   1      51.719  22.422  36.366  1.00  0.00     0.188 C 
BRANCH  41  42
ATOM     42  C   UNL A   1      50.498  22.587  37.301  1.00  0.00     0.188 C 
BRANCH  42  43
ATOM     43  O   UNL A   1      49.252  22.706  36.635  1.00  0.00    -0.376 OA
BRANCH  43  44
ATOM     44  C   UNL A   1      48.344  23.683  37.110  1.00  0.00     0.202 C 
BRANCH  44  45
ATOM     45  C   UNL A   1      48.934  25.040  37.512  1.00  0.00     0.261 C 
BRANCH  45  46
ATOM     46  O   UNL A   1      48.005  26.014  38.012  1.00  0.00    -0.460 OA
BRANCH  46  47
ATOM     47  C   UNL A   1      48.306  27.316  37.820  1.00  0.00     0.338 C 
ATOM     48  O   UNL A   1      49.399  27.846  37.942  1.00  0.00    -0.246 OA
BRANCH  47  49
ATOM     49  C   UNL A   1      47.108  27.966  37.251  1.00  0.00     0.060 A 
ATOM     50  C   UNL A   1      45.909  27.245  37.165  1.00  0.00     0.016 A 
ATOM     51  C   UNL A   1      47.168  29.295  36.824  1.00  0.00     0.016 A 
ATOM     52  C   UNL A   1      44.773  27.846  36.621  1.00  0.00     0.010 A 
ATOM     53  C   UNL A   1      46.036  29.886  36.261  1.00  0.00     0.010 A 
ATOM     54  C   UNL A   1      44.844  29.154  36.126  1.00  0.00    -0.014 A 
BRANCH  54  55
ATOM     55  C   UNL A   1      43.744  29.692  35.288  1.00  0.00     0.031 A 
ATOM     56  C   UNL A   1      42.781  30.661  35.919  1.00  0.00     0.074 A 
ATOM     57  C   UNL A   1      43.603  29.338  33.999  1.00  0.00     0.049 A 
ATOM     58  N   UNL A   1      41.719  31.227  35.409  1.00  0.00    -0.248 NA
ATOM     59  C   UNL A   1      43.054  31.038  37.315  1.00  0.00     0.031 C 
ATOM     60  C   UNL A   1      44.497  28.449  33.260  1.00  0.00     0.029 A 
ATOM     61  N   UNL A   1      42.642  29.688  33.083  1.00  0.00    -0.354 N 
ATOM     62  C   UNL A   1      41.191  32.018  36.423  1.00  0.00     0.074 A 
ATOM     63  C   UNL A   1      42.030  31.831  37.586  1.00  0.00     0.031 C 
ATOM     64  C   UNL A   1      44.040  28.321  32.002  1.00  0.00     0.029 A 
ATOM     65  C   UNL A   1      42.802  29.085  31.858  1.00  0.00     0.049 A 
ATOM     66  H   UNL A   1      41.907  30.311  33.285  1.00  0.00     0.167 HD
ATOM     67  C   UNL A   1      40.110  32.833  36.389  1.00  0.00     0.031 A 
ATOM     68  C   UNL A   1      42.027  29.130  30.755  1.00  0.00     0.031 A 
ATOM     69  C   UNL A   1      39.263  32.994  35.238  1.00  0.00     0.049 A 
ATOM     70  C   UNL A   1      40.774  29.969  30.768  1.00  0.00     0.074 A 
ATOM     71  C   UNL A   1      38.146  33.798  35.097  1.00  0.00     0.029 A 
ATOM     72  N   UNL A   1      39.430  32.327  34.032  1.00  0.00    -0.354 N 
ATOM     73  N   UNL A   1      40.298  30.729  31.726  1.00  0.00    -0.248 NA
ATOM     74  C   UNL A   1      39.959  29.961  29.544  1.00  0.00     0.031 C 
ATOM     75  C   UNL A   1      37.600  33.567  33.829  1.00  0.00     0.029 A 
ATOM     76  C   UNL A   1      38.420  32.677  33.153  1.00  0.00     0.049 A 
ATOM     77  H   UNL A   1      40.162  31.699  33.831  1.00  0.00     0.167 HD
ATOM     78  C   UNL A   1      39.145  31.315  31.211  1.00  0.00     0.074 A 
ATOM     79  C   UNL A   1      39.003  30.829  29.853  1.00  0.00     0.031 C 
ATOM     80  C   UNL A   1      38.286  32.182  31.804  1.00  0.00     0.031 A 
BRANCH  67  81
ATOM     81  C   UNL A   1      39.761  33.569  37.657  1.00  0.00    -0.014 A 
ATOM     82  C   UNL A   1      40.172  34.898  37.871  1.00  0.00     0.010 A 
ATOM     83  C   UNL A   1      39.005  32.921  38.650  1.00  0.00     0.010 A 
ATOM     84  C   UNL A   1      39.882  35.544  39.076  1.00  0.00     0.020 A 
ATOM     85  C   UNL A   1      38.683  33.575  39.842  1.00  0.00     0.020 A 
ATOM     86  C   UNL A   1      39.143  34.875  40.057  1.00  0.00     0.054 A 
BRANCH  86  87
ATOM     87  S   UNL A   1      38.783  35.736  41.612  1.00  0.00     0.124 S 
ATOM     88  O   UNL A   1      38.913  37.137  41.218  1.00  0.00    -0.237 OA
ATOM     89  O   UNL A   1      37.425  35.293  41.915  1.00  0.00    -0.237 OA
ATOM     90  O   UNL A   1      39.813  35.249  42.525  1.00  0.00    -0.744 OA
ENDBRANCH  86  87
ENDBRANCH  67  81
BRANCH  68  91
ATOM     91  C   UNL A   1      42.414  28.352  29.545  1.00  0.00    -0.014 A 
ATOM     92  C   UNL A   1      41.886  27.069  29.319  1.00  0.00     0.010 A 
ATOM     93  C   UNL A   1      43.305  28.899  28.602  1.00  0.00     0.010 A 
ATOM     94  C   UNL A   1      42.242  26.347  28.176  1.00  0.00     0.020 A 
ATOM     95  C   UNL A   1      43.640  28.193  27.443  1.00  0.00     0.020 A 
ATOM     96  C   UNL A   1      43.111  26.917  27.240  1.00  0.00     0.054 A 
BRANCH  96  97
ATOM     97  S   UNL A   1      43.497  25.990  25.729  1.00  0.00     0.124 S 
ATOM     98  O   UNL A   1      42.388  26.357  24.855  1.00  0.00    -0.237 OA
ATOM     99  O   UNL A   1      44.803  26.528  25.356  1.00  0.00    -0.237 OA
ATOM    100  O   UNL A   1      43.508  24.599  26.175  1.00  0.00    -0.744 OA
ENDBRANCH  96  97
ENDBRANCH  68  91
BRANCH  80 101
ATOM    101  C   UNL A   1      37.133  32.699  30.981  1.00  0.00    -0.014 A 
ATOM    102  C   UNL A   1      37.271  33.818  30.140  1.00  0.00     0.010 A 
ATOM    103  C   UNL A   1      35.905  32.010  31.005  1.00  0.00     0.010 A 
ATOM    104  C   UNL A   1      36.194  34.257  29.365  1.00  0.00     0.020 A 
ATOM    105  C   UNL A   1      34.837  32.426  30.207  1.00  0.00     0.020 A 
ATOM    106  C   UNL A   1      34.983  33.557  29.402  1.00  0.00     0.054 A 
BRANCH 106 107
ATOM    107  S   UNL A   1      33.616  34.122  28.353  1.00  0.00     0.124 S 
ATOM    108  O   UNL A   1      32.718  34.735  29.327  1.00  0.00    -0.237 OA
ATOM    109  O   UNL A   1      34.277  35.048  27.437  1.00  0.00    -0.237 OA
ATOM    110  O   UNL A   1      33.120  32.893  27.737  1.00  0.00    -0.744 OA
ENDBRANCH 106 107
ENDBRANCH  80 101
ENDBRANCH  54  55
ENDBRANCH  47  49
ENDBRANCH  46  47
ENDBRANCH  45  46
ENDBRANCH  44  45
ENDBRANCH  43  44
ENDBRANCH  42  43
ENDBRANCH  41  42
ENDBRANCH   1  41
TORSDOF 29
ENDMDL
MODEL 3
REMARK VINA RESULT:      -5.8      6.302     13.630
REMARK SMILES COc1ccc([C@H]2CC(c3ccc(S(C)(=O)=O)cc3)=NN2c2ccc(C(=O)OCCOCCOCCOCCOC(=O)c3ccc(-c4c5nc(c(-c6ccc(S(=O)(=O)[O-])cc6)c6ccc([nH]6)c(-c6ccc(S(=O)(=O)[O-])cc6)c6nc(c(-c7ccc(S(=O)(=O)[O-])cc7)c7ccc4[nH]7)C=C6)C=C5)cc3)cc2)cc1OC
REMARK SMILES IDX 34 1 33 2 32 3 31 4 30 5 29 6 28 7 26 8 27 9 25 10 22 11
REMARK SMILES IDX 23 12 104 13 24 14 103 15 21 16 7 17 8 18 9 19 20 20 6 21
REMARK SMILES IDX 3 22 4 23 106 24 5 25 105 26 2 27 1 28 107 29 108 30 10 31
REMARK SMILES IDX 11 32 19 33 12 34 18 35 13 36 14 37 15 38 16 39 17 40 35 41
REMARK SMILES IDX 36 42 37 43 38 44 39 45 40 46 41 47 42 48 43 49 44 50 102 51
REMARK SMILES IDX 45 52 101 53 46 54 47 55 48 56 95 57 49 58 100 59 94 60
REMARK SMILES IDX 96 61 50 62 99 63 93 64 92 65 51 67 81 68 62 69 80 70 63 71
REMARK SMILES IDX 66 72 79 73 97 74 64 75 65 76 78 78 98 79 67 80 52 81 53 82
REMARK SMILES IDX 61 83 54 84 60 85 55 86 56 87 57 88 58 89 59 90 82 91 83 92
REMARK SMILES IDX 91 93 84 94 90 95 85 96 86 97 87 98 88 99 89 100 68 101
REMARK SMILES IDX 69 102 77 103 70 104 76 105 71 106 72 107 73 108 74 109
REMARK SMILES IDX 75 110
REMARK H PARENT 96 66 66 77
REMARK Flexibility Score: inf
ROOT
ATOM      1  O   UNL A   1      49.363  40.349  36.911  1.00  0.00    -0.377 OA
ENDROOT
BRANCH   1   2
ATOM      2  C   UNL A   1      49.199  41.710  37.279  1.00  0.00     0.188 C 
BRANCH   2   3
ATOM      3  C   UNL A   1      50.111  42.321  38.364  1.00  0.00     0.188 C 
BRANCH   3   4
ATOM      4  O   UNL A   1      49.412  42.913  39.446  1.00  0.00    -0.376 OA
BRANCH   4   5
ATOM      5  C   UNL A   1      48.638  42.091  40.299  1.00  0.00     0.202 C 
BRANCH   5   6
ATOM      6  C   UNL A   1      47.120  42.312  40.374  1.00  0.00     0.261 C 
BRANCH   6   7
ATOM      7  O   UNL A   1      46.302  41.258  39.854  1.00  0.00    -0.460 OA
BRANCH   7   8
ATOM      8  C   UNL A   1      44.989  41.527  39.693  1.00  0.00     0.338 C 
ATOM      9  O   UNL A   1      44.185  41.793  40.569  1.00  0.00    -0.246 OA
BRANCH   8  10
ATOM     10  C   UNL A   1      44.724  41.654  38.240  1.00  0.00     0.060 A 
ATOM     11  C   UNL A   1      44.329  41.931  35.474  1.00  0.00     0.060 A 
ATOM     12  C   UNL A   1      45.392  41.163  35.966  1.00  0.00     0.029 A 
ATOM     13  C   UNL A   1      43.410  42.470  36.388  1.00  0.00     0.029 A 
ATOM     14  C   UNL A   1      45.613  41.054  37.342  1.00  0.00     0.018 A 
ATOM     15  C   UNL A   1      43.591  42.318  37.765  1.00  0.00     0.018 A 
BRANCH  11  16
ATOM     16  N   UNL A   1      44.259  42.268  34.125  1.00  0.00    -0.257 N 
ATOM     17  C   UNL A   1      44.646  43.606  33.653  1.00  0.00     0.144 C 
ATOM     18  C   UNL A   1      44.737  43.409  32.136  1.00  0.00     0.091 C 
ATOM     19  C   UNL A   1      44.367  41.954  32.027  1.00  0.00     0.071 C 
ATOM     20  N   UNL A   1      44.154  41.332  33.145  1.00  0.00    -0.176 NA
BRANCH  17  21
ATOM     21  C   UNL A   1      45.949  44.098  34.281  1.00  0.00    -0.019 A 
ATOM     22  C   UNL A   1      48.373  45.188  35.245  1.00  0.00     0.160 A 
ATOM     23  C   UNL A   1      48.383  44.134  34.321  1.00  0.00     0.051 A 
ATOM     24  C   UNL A   1      47.155  45.698  35.707  1.00  0.00     0.161 A 
ATOM     25  C   UNL A   1      47.183  43.590  33.847  1.00  0.00     0.010 A 
ATOM     26  C   UNL A   1      45.961  45.144  35.221  1.00  0.00     0.056 A 
BRANCH  22  27
ATOM     27  O   UNL A   1      49.564  45.800  35.536  1.00  0.00    -0.493 OA
ATOM     28  C   UNL A   1      50.163  45.305  36.729  1.00  0.00     0.278 C 
ENDBRANCH  22  27
BRANCH  24  29
ATOM     29  O   UNL A   1      46.940  46.740  36.569  1.00  0.00    -0.493 OA
ATOM     30  C   UNL A   1      46.888  46.464  37.957  1.00  0.00     0.278 C 
ENDBRANCH  24  29
ENDBRANCH  17  21
BRANCH  19  31
ATOM     31  C   UNL A   1      44.211  41.323  30.709  1.00  0.00    -0.002 A 
ATOM     32  C   UNL A   1      43.916  39.956  30.649  1.00  0.00     0.011 A 
ATOM     33  C   UNL A   1      44.311  42.081  29.540  1.00  0.00     0.011 A 
ATOM     34  C   UNL A   1      43.695  39.344  29.412  1.00  0.00     0.021 A 
ATOM     35  C   UNL A   1      44.117  41.466  28.299  1.00  0.00     0.021 A 
ATOM     36  C   UNL A   1      43.807  40.102  28.242  1.00  0.00     0.067 A 
BRANCH  36  37
ATOM     37  S   UNL A   1      43.500  39.328  26.669  1.00  0.00     0.175 S 
ATOM     38  C   UNL A   1      41.764  38.966  26.677  1.00  0.00     0.163 C 
ATOM     39  O   UNL A   1      43.754  40.330  25.652  1.00  0.00    -0.224 OA
ATOM     40  O   UNL A   1      44.207  38.061  26.658  1.00  0.00    -0.224 OA
ENDBRANCH  36  37
ENDBRANCH  19  31
ENDBRANCH  11  16
ENDBRANCH   8  10
ENDBRANCH   7   8
ENDBRANCH   6   7
ENDBRANCH   5   6
ENDBRANCH   4   5
ENDBRANCH   3   4
ENDBRANCH   2   3
ENDBRANCH   1   2
BRANCH   1  41
ATOM     41  C   UNL A   1      48.705  39.830  35.761  1.00  0.00     0.188 C 
BRANCH  41  42
ATOM     42  C   UNL A   1      49.031  40.343  34.338  1.00  0.00     0.188 C 
BRANCH  42  43
ATOM     43  O   UNL A   1      48.016  40.111  33.376  1.00  0.00    -0.376 OA
BRANCH  43  44
ATOM     44  C   UNL A   1      47.948  38.823  32.792  1.00  0.00     0.202 C 
BRANCH  44  45
ATOM     45  C   UNL A   1      46.703  38.504  31.955  1.00  0.00     0.261 C 
BRANCH  45  46
ATOM     46  O   UNL A   1      46.665  37.208  31.341  1.00  0.00    -0.460 OA
BRANCH  46  47
ATOM     47  C   UNL A   1      46.969  37.133  30.027  1.00  0.00     0.338 C 
ATOM     48  O   UNL A   1      47.426  38.020  29.325  1.00  0.00    -0.246 OA
BRANCH  47  49
ATOM     49  C   UNL A   1      46.829  35.719  29.623  1.00  0.00     0.060 A 
ATOM     50  C   UNL A   1      46.464  35.412  28.304  1.00  0.00     0.016 A 
ATOM     51  C   UNL A   1      47.080  34.699  30.544  1.00  0.00     0.016 A 
ATOM     52  C   UNL A   1      46.319  34.081  27.913  1.00  0.00     0.010 A 
ATOM     53  C   UNL A   1      46.914  33.368  30.156  1.00  0.00     0.010 A 
ATOM     54  C   UNL A   1      46.500  33.055  28.849  1.00  0.00    -0.014 A 
BRANCH  54  55
ATOM     55  C   UNL A   1      46.066  31.673  28.529  1.00  0.00     0.031 A 
ATOM     56  C   UNL A   1      44.642  31.289  28.831  1.00  0.00     0.074 A 
ATOM     57  C   UNL A   1      46.906  30.781  27.978  1.00  0.00     0.049 A 
ATOM     58  N   UNL A   1      44.045  30.136  28.686  1.00  0.00    -0.248 NA
ATOM     59  C   UNL A   1      43.780  32.352  29.373  1.00  0.00     0.031 C 
ATOM     60  C   UNL A   1      48.291  31.044  27.593  1.00  0.00     0.029 A 
ATOM     61  N   UNL A   1      46.711  29.462  27.651  1.00  0.00    -0.354 N 
ATOM     62  C   UNL A   1      42.741  30.331  29.127  1.00  0.00     0.074 A 
ATOM     63  C   UNL A   1      42.646  31.702  29.578  1.00  0.00     0.031 C 
ATOM     64  C   UNL A   1      48.822  29.919  27.083  1.00  0.00     0.029 A 
ATOM     65  C   UNL A   1      47.829  28.847  27.142  1.00  0.00     0.049 A 
ATOM     66  H   UNL A   1      45.849  29.000  27.770  1.00  0.00     0.167 HD
ATOM     67  C   UNL A   1      41.712  29.450  29.151  1.00  0.00     0.031 A 
ATOM     68  C   UNL A   1      48.033  27.563  26.784  1.00  0.00     0.031 A 
ATOM     69  C   UNL A   1      41.819  28.080  28.728  1.00  0.00     0.049 A 
ATOM     70  C   UNL A   1      46.901  26.574  26.906  1.00  0.00     0.074 A 
ATOM     71  C   UNL A   1      40.836  27.106  28.707  1.00  0.00     0.029 A 
ATOM     72  N   UNL A   1      42.983  27.483  28.266  1.00  0.00    -0.354 N 
ATOM     73  N   UNL A   1      45.667  26.776  27.305  1.00  0.00    -0.248 NA
ATOM     74  C   UNL A   1      47.190  25.185  26.522  1.00  0.00     0.031 C 
ATOM     75  C   UNL A   1      41.422  25.904  28.295  1.00  0.00     0.029 A 
ATOM     76  C   UNL A   1      42.752  26.147  27.986  1.00  0.00     0.049 A 
ATOM     77  H   UNL A   1      43.847  27.942  28.152  1.00  0.00     0.167 HD
ATOM     78  C   UNL A   1      45.024  25.547  27.189  1.00  0.00     0.074 A 
ATOM     79  C   UNL A   1      46.002  24.612  26.674  1.00  0.00     0.031 C 
ATOM     80  C   UNL A   1      43.737  25.223  27.477  1.00  0.00     0.031 A 
BRANCH  67  81
ATOM     81  C   UNL A   1      40.397  29.940  29.701  1.00  0.00    -0.014 A 
ATOM     82  C   UNL A   1      39.368  30.390  28.852  1.00  0.00     0.010 A 
ATOM     83  C   UNL A   1      40.186  29.948  31.092  1.00  0.00     0.010 A 
ATOM     84  C   UNL A   1      38.177  30.890  29.386  1.00  0.00     0.020 A 
ATOM     85  C   UNL A   1      38.983  30.413  31.628  1.00  0.00     0.020 A 
ATOM     86  C   UNL A   1      37.994  30.902  30.772  1.00  0.00     0.054 A 
BRANCH  86  87
ATOM     87  S   UNL A   1      36.440  31.558  31.438  1.00  0.00     0.124 S 
ATOM     88  O   UNL A   1      36.095  30.555  32.442  1.00  0.00    -0.237 OA
ATOM     89  O   UNL A   1      36.842  32.860  31.963  1.00  0.00    -0.237 OA
ATOM     90  O   UNL A   1      35.556  31.605  30.275  1.00  0.00    -0.744 OA
ENDBRANCH  86  87
ENDBRANCH  67  81
BRANCH  68  91
ATOM     91  C   UNL A   1      49.368  27.137  26.278  1.00  0.00    -0.014 A 
ATOM     92  C   UNL A   1      50.320  26.578  27.147  1.00  0.00     0.010 A 
ATOM     93  C   UNL A   1      49.689  27.278  24.914  1.00  0.00     0.010 A 
ATOM     94  C   UNL A   1      51.567  26.168  26.666  1.00  0.00     0.020 A 
ATOM     95  C   UNL A   1      50.924  26.843  24.423  1.00  0.00     0.020 A 
ATOM     96  C   UNL A   1      51.858  26.296  25.304  1.00  0.00     0.054 A 
BRANCH  96  97
ATOM     97  S   UNL A   1      53.455  25.687  24.692  1.00  0.00     0.124 S 
ATOM     98  O   UNL A   1      54.401  26.480  25.469  1.00  0.00    -0.237 OA
ATOM     99  O   UNL A   1      53.395  24.265  25.024  1.00  0.00    -0.237 OA
ATOM    100  O   UNL A   1      53.410  25.988  23.263  1.00  0.00    -0.744 OA
ENDBRANCH  96  97
ENDBRANCH  68  91
BRANCH  80 101
ATOM    101  C   UNL A   1      43.293  23.808  27.204  1.00  0.00    -0.014 A 
ATOM    102  C   UNL A   1      43.186  22.859  28.237  1.00  0.00     0.010 A 
ATOM    103  C   UNL A   1      42.917  23.442  25.898  1.00  0.00     0.010 A 
ATOM    104  C   UNL A   1      42.743  21.562  27.961  1.00  0.00     0.020 A 
ATOM    105  C   UNL A   1      42.443  22.157  25.624  1.00  0.00     0.020 A 
ATOM    106  C   UNL A   1      42.372  21.219  26.656  1.00  0.00     0.054 A 
BRANCH 106 107
ATOM    107  S   UNL A   1      41.758  19.543  26.335  1.00  0.00     0.124 S 
ATOM    108  O   UNL A   1      42.519  19.162  25.148  1.00  0.00    -0.237 OA
ATOM    109  O   UNL A   1      42.109  18.834  27.562  1.00  0.00    -0.237 OA
ATOM    110  O   UNL A   1      40.324  19.734  26.120  1.00  0.00    -0.744 OA
ENDBRANCH 106 107
ENDBRANCH  80 101
ENDBRANCH  54  55
ENDBRANCH  47  49
ENDBRANCH  46  47
ENDBRANCH  45  46
ENDBRANCH  44  45
ENDBRANCH  43  44
ENDBRANCH  42  43
ENDBRANCH  41  42
ENDBRANCH   1  41
TORSDOF 29
ENDMDL
