MODEL 1
REMARK VINA RESULT:      -6.7      0.000      0.000
REMARK SMILES COCc1cc(OCC(=O)OCCOCCOCCOCCOC(=O)c2ccc(-c3c4nc(c(-c5ccc(S(=O)(=O)[O-])cc5)c5ccc([nH]5)c(-c5ccc(S(=O)(=O)[O-])cc5)c5nc(c(-c6ccc(S(=O)(=O)[O-])cc6)c6ccc3[nH]6)C=C5)C=C4)cc2)nc(Nc2cccc(C)c2C)n1
REMARK SMILES IDX 16 1 15 2 14 3 13 4 12 5 11 6 9 7 10 8 8 9 7 10 6 11 4 12
REMARK SMILES IDX 5 13 97 14 87 15 86 16 3 17 2 18 1 19 88 20 89 22 90 23
REMARK SMILES IDX 95 24 91 25 93 26 96 27 92 28 94 29 17 30 18 31 19 32 20 33
REMARK SMILES IDX 21 34 22 35 23 36 24 37 25 38 26 39 27 40 85 41 28 42 84 43
REMARK SMILES IDX 29 44 30 45 31 46 78 47 32 48 83 49 77 50 79 51 33 52 82 53
REMARK SMILES IDX 76 54 75 55 34 57 64 58 45 59 63 60 46 61 49 62 62 63 80 64
REMARK SMILES IDX 47 65 48 66 61 68 81 69 50 70 35 71 36 72 44 73 37 74 43 75
REMARK SMILES IDX 38 76 39 77 40 78 41 79 42 80 65 81 66 82 74 83 67 84 73 85
REMARK SMILES IDX 68 86 69 87 70 88 71 89 72 90 51 91 52 92 60 93 53 94 59 95
REMARK SMILES IDX 54 96 55 97 56 98 57 99 58 100
REMARK H PARENT 88 21 79 56 49 67
REMARK Flexibility Score: inf
ROOT
ATOM      1  C   UNL A   1      36.009  30.783  30.667  1.00  0.00     0.188 C 
ENDROOT
BRANCH   1   2
ATOM      2  C   UNL A   1      37.473  30.839  30.174  1.00  0.00     0.188 C 
BRANCH   2   3
ATOM      3  O   UNL A   1      38.134  29.702  29.665  1.00  0.00    -0.376 OA
BRANCH   3   4
ATOM      4  C   UNL A   1      38.826  29.720  28.437  1.00  0.00     0.202 C 
BRANCH   4   5
ATOM      5  C   UNL A   1      39.871  28.659  28.040  1.00  0.00     0.261 C 
BRANCH   5   6
ATOM      6  O   UNL A   1      39.412  27.532  27.265  1.00  0.00    -0.461 OA
BRANCH   6   7
ATOM      7  C   UNL A   1      39.490  26.298  27.827  1.00  0.00     0.344 C 
ATOM      8  O   UNL A   1      39.464  26.102  29.039  1.00  0.00    -0.248 OA
BRANCH   7   9
ATOM      9  C   UNL A   1      39.583  25.126  26.797  1.00  0.00     0.353 C 
BRANCH   9  10
ATOM     10  O   UNL A   1      39.276  23.765  27.082  1.00  0.00    -0.466 OA
BRANCH  10  11
ATOM     11  C   UNL A   1      40.236  22.830  27.430  1.00  0.00     0.219 A 
ATOM     12  C   UNL A   1      41.526  20.912  26.998  1.00  0.00     0.076 A 
ATOM     13  C   UNL A   1      40.309  21.567  26.876  1.00  0.00     0.095 A 
ATOM     14  N   UNL A   1      42.556  21.447  27.682  1.00  0.00    -0.215 NA
ATOM     15  C   UNL A   1      42.408  22.642  28.261  1.00  0.00     0.230 A 
ATOM     16  N   UNL A   1      41.269  23.359  28.141  1.00  0.00    -0.177 NA
BRANCH  12  17
ATOM     17  C   UNL A   1      41.833  19.687  26.152  1.00  0.00     0.216 C 
BRANCH  17  18
ATOM     18  O   UNL A   1      43.205  19.279  26.122  1.00  0.00    -0.378 OA
ATOM     19  C   UNL A   1      43.950  19.864  25.056  1.00  0.00     0.195 C 
ENDBRANCH  17  18
ENDBRANCH  12  17
BRANCH  15  20
ATOM     20  N   UNL A   1      43.499  23.183  28.963  1.00  0.00    -0.324 N 
ATOM     21  H   UNL A   1      43.612  22.881  29.893  1.00  0.00     0.170 HD
BRANCH  20  22
ATOM     22  C   UNL A   1      44.452  24.112  28.486  1.00  0.00     0.044 A 
ATOM     23  C   UNL A   1      45.714  23.666  28.082  1.00  0.00     0.026 A 
ATOM     24  C   UNL A   1      44.228  25.507  28.497  1.00  0.00    -0.025 A 
ATOM     25  C   UNL A   1      46.678  24.560  27.598  1.00  0.00     0.002 A 
ATOM     26  C   UNL A   1      45.132  26.398  27.858  1.00  0.00    -0.046 A 
ATOM     27  C   UNL A   1      43.144  26.080  29.352  1.00  0.00     0.047 C 
ATOM     28  C   UNL A   1      46.372  25.909  27.445  1.00  0.00     0.004 A 
ATOM     29  C   UNL A   1      44.844  27.867  27.654  1.00  0.00     0.044 C 
ENDBRANCH  20  22
ENDBRANCH  15  20
ENDBRANCH  10  11
ENDBRANCH   9  10
ENDBRANCH   7   9
ENDBRANCH   6   7
ENDBRANCH   5   6
ENDBRANCH   4   5
ENDBRANCH   3   4
ENDBRANCH   2   3
ENDBRANCH   1   2
BRANCH   1  30
ATOM     30  O   UNL A   1      35.341  31.905  31.172  1.00  0.00    -0.377 OA
BRANCH  30  31
ATOM     31  C   UNL A   1      34.648  32.690  30.245  1.00  0.00     0.188 C 
BRANCH  31  32
ATOM     32  C   UNL A   1      34.737  34.167  30.623  1.00  0.00     0.188 C 
BRANCH  32  33
ATOM     33  O   UNL A   1      34.357  34.531  31.939  1.00  0.00    -0.376 OA
BRANCH  33  34
ATOM     34  C   UNL A   1      35.305  34.890  32.939  1.00  0.00     0.202 C 
BRANCH  34  35
ATOM     35  C   UNL A   1      35.348  34.452  34.410  1.00  0.00     0.261 C 
BRANCH  35  36
ATOM     36  O   UNL A   1      35.939  33.195  34.702  1.00  0.00    -0.460 OA
BRANCH  36  37
ATOM     37  C   UNL A   1      36.885  33.157  35.649  1.00  0.00     0.338 C 
ATOM     38  O   UNL A   1      36.759  33.357  36.846  1.00  0.00    -0.246 OA
BRANCH  37  39
ATOM     39  C   UNL A   1      38.101  32.677  34.981  1.00  0.00     0.060 A 
ATOM     40  C   UNL A   1      39.329  33.113  35.480  1.00  0.00     0.016 A 
ATOM     41  C   UNL A   1      38.033  31.781  33.909  1.00  0.00     0.016 A 
ATOM     42  C   UNL A   1      40.499  32.681  34.877  1.00  0.00     0.010 A 
ATOM     43  C   UNL A   1      39.201  31.366  33.287  1.00  0.00     0.010 A 
ATOM     44  C   UNL A   1      40.427  31.856  33.748  1.00  0.00    -0.014 A 
BRANCH  44  45
ATOM     45  C   UNL A   1      41.620  31.718  32.904  1.00  0.00     0.031 A 
ATOM     46  C   UNL A   1      42.407  30.448  33.028  1.00  0.00     0.074 A 
ATOM     47  C   UNL A   1      41.949  32.689  32.040  1.00  0.00     0.049 A 
ATOM     48  N   UNL A   1      43.475  30.075  32.380  1.00  0.00    -0.248 NA
ATOM     49  C   UNL A   1      41.923  29.465  34.015  1.00  0.00     0.031 C 
ATOM     50  C   UNL A   1      41.209  33.936  31.850  1.00  0.00     0.029 A 
ATOM     51  N   UNL A   1      42.993  32.774  31.163  1.00  0.00    -0.354 N 
ATOM     52  C   UNL A   1      43.792  28.818  32.882  1.00  0.00     0.074 A 
ATOM     53  C   UNL A   1      42.827  28.505  33.910  1.00  0.00     0.031 C 
ATOM     54  C   UNL A   1      41.830  34.669  30.910  1.00  0.00     0.029 A 
ATOM     55  C   UNL A   1      43.023  33.954  30.462  1.00  0.00     0.049 A 
ATOM     56  H   UNL A   1      43.658  32.058  31.043  1.00  0.00     0.167 HD
ATOM     57  C   UNL A   1      44.801  28.001  32.509  1.00  0.00     0.031 A 
ATOM     58  C   UNL A   1      43.932  34.403  29.577  1.00  0.00     0.031 A 
ATOM     59  C   UNL A   1      45.765  28.362  31.507  1.00  0.00     0.049 A 
ATOM     60  C   UNL A   1      45.089  33.506  29.229  1.00  0.00     0.074 A 
ATOM     61  C   UNL A   1      46.832  27.623  31.033  1.00  0.00     0.029 A 
ATOM     62  N   UNL A   1      45.785  29.580  30.840  1.00  0.00    -0.354 N 
ATOM     63  N   UNL A   1      45.359  32.301  29.675  1.00  0.00    -0.248 NA
ATOM     64  C   UNL A   1      46.056  34.019  28.250  1.00  0.00     0.031 C 
ATOM     65  C   UNL A   1      47.538  28.422  30.129  1.00  0.00     0.029 A 
ATOM     66  C   UNL A   1      46.864  29.627  29.978  1.00  0.00     0.049 A 
ATOM     67  H   UNL A   1      45.128  30.302  30.963  1.00  0.00     0.167 HD
ATOM     68  C   UNL A   1      46.509  31.896  29.008  1.00  0.00     0.074 A 
ATOM     69  C   UNL A   1      46.879  32.985  28.124  1.00  0.00     0.031 C 
ATOM     70  C   UNL A   1      47.195  30.730  29.108  1.00  0.00     0.031 A 
BRANCH  57  71
ATOM     71  C   UNL A   1      44.933  26.684  33.225  1.00  0.00    -0.014 A 
ATOM     72  C   UNL A   1      44.051  25.617  32.974  1.00  0.00     0.010 A 
ATOM     73  C   UNL A   1      45.964  26.508  34.166  1.00  0.00     0.010 A 
ATOM     74  C   UNL A   1      44.172  24.416  33.679  1.00  0.00     0.020 A 
ATOM     75  C   UNL A   1      46.109  25.298  34.850  1.00  0.00     0.020 A 
ATOM     76  C   UNL A   1      45.199  24.265  34.614  1.00  0.00     0.054 A 
BRANCH  76  77
ATOM     77  S   UNL A   1      45.344  22.691  35.502  1.00  0.00     0.124 S 
ATOM     78  O   UNL A   1      46.771  22.402  35.373  1.00  0.00    -0.237 OA
ATOM     79  O   UNL A   1      44.894  23.041  36.847  1.00  0.00    -0.237 OA
ATOM     80  O   UNL A   1      44.459  21.792  34.766  1.00  0.00    -0.744 OA
ENDBRANCH  76  77
ENDBRANCH  57  71
BRANCH  58  81
ATOM     81  C   UNL A   1      43.774  35.757  28.984  1.00  0.00    -0.014 A 
ATOM     82  C   UNL A   1      44.292  36.893  29.628  1.00  0.00     0.010 A 
ATOM     83  C   UNL A   1      43.136  35.910  27.738  1.00  0.00     0.010 A 
ATOM     84  C   UNL A   1      44.168  38.157  29.041  1.00  0.00     0.020 A 
ATOM     85  C   UNL A   1      43.037  37.166  27.134  1.00  0.00     0.020 A 
ATOM     86  C   UNL A   1      43.549  38.284  27.794  1.00  0.00     0.054 A 
BRANCH  86  87
ATOM     87  S   UNL A   1      43.461  39.925  27.025  1.00  0.00     0.124 S 
ATOM     88  O   UNL A   1      44.013  40.780  28.070  1.00  0.00    -0.237 OA
ATOM     89  O   UNL A   1      44.293  39.757  25.836  1.00  0.00    -0.237 OA
ATOM     90  O   UNL A   1      42.035  40.102  26.758  1.00  0.00    -0.744 OA
ENDBRANCH  86  87
ENDBRANCH  58  81
BRANCH  70  91
ATOM     91  C   UNL A   1      48.386  30.544  28.208  1.00  0.00    -0.014 A 
ATOM     92  C   UNL A   1      49.632  31.114  28.515  1.00  0.00     0.010 A 
ATOM     93  C   UNL A   1      48.271  29.693  27.093  1.00  0.00     0.010 A 
ATOM     94  C   UNL A   1      50.743  30.844  27.713  1.00  0.00     0.020 A 
ATOM     95  C   UNL A   1      49.386  29.395  26.308  1.00  0.00     0.020 A 
ATOM     96  C   UNL A   1      50.615  29.979  26.621  1.00  0.00     0.054 A 
BRANCH  96  97
ATOM     97  S   UNL A   1      52.091  29.579  25.649  1.00  0.00     0.124 S 
ATOM     98  O   UNL A   1      52.473  28.280  26.196  1.00  0.00    -0.237 OA
ATOM     99  O   UNL A   1      51.577  29.560  24.282  1.00  0.00    -0.237 OA
ATOM    100  O   UNL A   1      53.012  30.674  25.947  1.00  0.00    -0.744 OA
ENDBRANCH  96  97
ENDBRANCH  70  91
ENDBRANCH  44  45
ENDBRANCH  37  39
ENDBRANCH  36  37
ENDBRANCH  35  36
ENDBRANCH  34  35
ENDBRANCH  33  34
ENDBRANCH  32  33
ENDBRANCH  31  32
ENDBRANCH  30  31
ENDBRANCH   1  30
TORSDOF 29
ENDMDL
MODEL 2
REMARK VINA RESULT:      -6.3      4.524      6.864
REMARK SMILES COCc1cc(OCC(=O)OCCOCCOCCOCCOC(=O)c2ccc(-c3c4nc(c(-c5ccc(S(=O)(=O)[O-])cc5)c5ccc([nH]5)c(-c5ccc(S(=O)(=O)[O-])cc5)c5nc(c(-c6ccc(S(=O)(=O)[O-])cc6)c6ccc3[nH]6)C=C5)C=C4)cc2)nc(Nc2cccc(C)c2C)n1
REMARK SMILES IDX 16 1 15 2 14 3 13 4 12 5 11 6 9 7 10 8 8 9 7 10 6 11 4 12
REMARK SMILES IDX 5 13 97 14 87 15 86 16 3 17 2 18 1 19 88 20 89 22 90 23
REMARK SMILES IDX 95 24 91 25 93 26 96 27 92 28 94 29 17 30 18 31 19 32 20 33
REMARK SMILES IDX 21 34 22 35 23 36 24 37 25 38 26 39 27 40 85 41 28 42 84 43
REMARK SMILES IDX 29 44 30 45 31 46 78 47 32 48 83 49 77 50 79 51 33 52 82 53
REMARK SMILES IDX 76 54 75 55 34 57 64 58 45 59 63 60 46 61 49 62 62 63 80 64
REMARK SMILES IDX 47 65 48 66 61 68 81 69 50 70 35 71 36 72 44 73 37 74 43 75
REMARK SMILES IDX 38 76 39 77 40 78 41 79 42 80 65 81 66 82 74 83 67 84 73 85
REMARK SMILES IDX 68 86 69 87 70 88 71 89 72 90 51 91 52 92 60 93 53 94 59 95
REMARK SMILES IDX 54 96 55 97 56 98 57 99 58 100
REMARK H PARENT 88 21 79 56 49 67
REMARK Flexibility Score: inf
ROOT
ATOM      1  C   UNL A   1      36.058  31.417  32.096  1.00  0.00     0.188 C 
ENDROOT
BRANCH   1   2
ATOM      2  C   UNL A   1      37.202  31.792  31.127  1.00  0.00     0.188 C 
BRANCH   2   3
ATOM      3  O   UNL A   1      36.981  31.990  29.749  1.00  0.00    -0.376 OA
BRANCH   3   4
ATOM      4  C   UNL A   1      36.000  32.878  29.263  1.00  0.00     0.202 C 
BRANCH   4   5
ATOM      5  C   UNL A   1      34.543  32.458  28.984  1.00  0.00     0.261 C 
BRANCH   5   6
ATOM      6  O   UNL A   1      34.213  32.063  27.636  1.00  0.00    -0.461 OA
BRANCH   6   7
ATOM      7  C   UNL A   1      34.140  30.735  27.361  1.00  0.00     0.344 C 
ATOM      8  O   UNL A   1      34.987  29.920  27.716  1.00  0.00    -0.248 OA
BRANCH   7   9
ATOM      9  C   UNL A   1      32.856  30.309  26.577  1.00  0.00     0.353 C 
BRANCH   9  10
ATOM     10  O   UNL A   1      32.363  28.977  26.484  1.00  0.00    -0.466 OA
BRANCH  10  11
ATOM     11  C   UNL A   1      31.982  28.393  25.288  1.00  0.00     0.219 A 
ATOM     12  C   UNL A   1      31.094  28.492  23.113  1.00  0.00     0.076 A 
ATOM     13  C   UNL A   1      31.065  28.953  24.421  1.00  0.00     0.095 A 
ATOM     14  N   UNL A   1      31.922  27.502  22.726  1.00  0.00    -0.215 NA
ATOM     15  C   UNL A   1      32.740  26.944  23.623  1.00  0.00     0.230 A 
ATOM     16  N   UNL A   1      32.800  27.376  24.902  1.00  0.00    -0.177 NA
BRANCH  12  17
ATOM     17  C   UNL A   1      30.384  29.256  22.007  1.00  0.00     0.216 C 
BRANCH  17  18
ATOM     18  O   UNL A   1      28.954  29.231  22.052  1.00  0.00    -0.378 OA
ATOM     19  C   UNL A   1      28.365  30.522  22.195  1.00  0.00     0.195 C 
ENDBRANCH  17  18
ENDBRANCH  12  17
BRANCH  15  20
ATOM     20  N   UNL A   1      33.599  25.917  23.195  1.00  0.00    -0.324 N 
ATOM     21  H   UNL A   1      34.421  26.200  22.734  1.00  0.00     0.170 HD
BRANCH  20  22
ATOM     22  C   UNL A   1      33.417  24.525  23.350  1.00  0.00     0.044 A 
ATOM     23  C   UNL A   1      32.304  23.901  22.777  1.00  0.00     0.026 A 
ATOM     24  C   UNL A   1      34.260  23.731  24.160  1.00  0.00    -0.025 A 
ATOM     25  C   UNL A   1      32.098  22.522  22.907  1.00  0.00     0.002 A 
ATOM     26  C   UNL A   1      34.153  22.314  24.160  1.00  0.00    -0.046 A 
ATOM     27  C   UNL A   1      35.143  24.381  25.176  1.00  0.00     0.047 C 
ATOM     28  C   UNL A   1      33.041  21.728  23.555  1.00  0.00     0.004 A 
ATOM     29  C   UNL A   1      35.154  21.406  24.835  1.00  0.00     0.044 C 
ENDBRANCH  20  22
ENDBRANCH  15  20
ENDBRANCH  10  11
ENDBRANCH   9  10
ENDBRANCH   7   9
ENDBRANCH   6   7
ENDBRANCH   5   6
ENDBRANCH   4   5
ENDBRANCH   3   4
ENDBRANCH   2   3
ENDBRANCH   1   2
BRANCH   1  30
ATOM     30  O   UNL A   1      35.657  32.248  33.149  1.00  0.00    -0.377 OA
BRANCH  30  31
ATOM     31  C   UNL A   1      34.968  33.413  32.799  1.00  0.00     0.188 C 
BRANCH  31  32
ATOM     32  C   UNL A   1      35.873  34.634  32.946  1.00  0.00     0.188 C 
BRANCH  32  33
ATOM     33  O   UNL A   1      36.613  34.761  34.148  1.00  0.00    -0.376 OA
BRANCH  33  34
ATOM     34  C   UNL A   1      37.924  34.226  34.300  1.00  0.00     0.202 C 
BRANCH  34  35
ATOM     35  C   UNL A   1      38.400  33.141  35.277  1.00  0.00     0.261 C 
BRANCH  35  36
ATOM     36  O   UNL A   1      38.403  31.799  34.816  1.00  0.00    -0.460 OA
BRANCH  36  37
ATOM     37  C   UNL A   1      39.288  30.955  35.361  1.00  0.00     0.338 C 
ATOM     38  O   UNL A   1      39.113  30.172  36.280  1.00  0.00    -0.246 OA
BRANCH  37  39
ATOM     39  C   UNL A   1      40.494  31.050  34.530  1.00  0.00     0.060 A 
ATOM     40  C   UNL A   1      41.626  31.641  35.096  1.00  0.00     0.016 A 
ATOM     41  C   UNL A   1      40.523  30.529  33.232  1.00  0.00     0.016 A 
ATOM     42  C   UNL A   1      42.784  31.748  34.343  1.00  0.00     0.010 A 
ATOM     43  C   UNL A   1      41.673  30.656  32.467  1.00  0.00     0.010 A 
ATOM     44  C   UNL A   1      42.784  31.308  33.014  1.00  0.00    -0.014 A 
BRANCH  44  45
ATOM     45  C   UNL A   1      43.861  31.761  32.126  1.00  0.00     0.031 A 
ATOM     46  C   UNL A   1      45.121  30.949  32.104  1.00  0.00     0.074 A 
ATOM     47  C   UNL A   1      43.685  32.840  31.351  1.00  0.00     0.049 A 
ATOM     48  N   UNL A   1      46.200  31.123  31.393  1.00  0.00    -0.248 NA
ATOM     49  C   UNL A   1      45.172  29.783  33.006  1.00  0.00     0.031 C 
ATOM     50  C   UNL A   1      42.471  33.656  31.304  1.00  0.00     0.029 A 
ATOM     51  N   UNL A   1      44.530  33.432  30.456  1.00  0.00    -0.354 N 
ATOM     52  C   UNL A   1      47.057  30.092  31.761  1.00  0.00     0.074 A 
ATOM     53  C   UNL A   1      46.390  29.318  32.783  1.00  0.00     0.031 C 
ATOM     54  C   UNL A   1      42.655  34.653  30.421  1.00  0.00     0.029 A 
ATOM     55  C   UNL A   1      44.005  34.558  29.872  1.00  0.00     0.049 A 
ATOM     56  H   UNL A   1      45.427  33.085  30.248  1.00  0.00     0.167 HD
ATOM     57  C   UNL A   1      48.290  29.822  31.282  1.00  0.00     0.031 A 
ATOM     58  C   UNL A   1      44.573  35.420  29.008  1.00  0.00     0.031 A 
ATOM     59  C   UNL A   1      48.938  30.636  30.291  1.00  0.00     0.049 A 
ATOM     60  C   UNL A   1      45.976  35.139  28.541  1.00  0.00     0.074 A 
ATOM     61  C   UNL A   1      50.183  30.468  29.717  1.00  0.00     0.029 A 
ATOM     62  N   UNL A   1      48.390  31.789  29.744  1.00  0.00    -0.354 N 
ATOM     63  N   UNL A   1      46.765  34.139  28.861  1.00  0.00    -0.248 NA
ATOM     64  C   UNL A   1      46.562  36.090  27.588  1.00  0.00     0.031 C 
ATOM     65  C   UNL A   1      50.416  31.558  28.874  1.00  0.00     0.029 A 
ATOM     66  C   UNL A   1      49.284  32.361  28.861  1.00  0.00     0.049 A 
ATOM     67  H   UNL A   1      47.497  32.146  29.956  1.00  0.00     0.167 HD
ATOM     68  C   UNL A   1      47.929  34.321  28.125  1.00  0.00     0.074 A 
ATOM     69  C   UNL A   1      47.737  35.525  27.339  1.00  0.00     0.031 C 
ATOM     70  C   UNL A   1      49.052  33.561  28.091  1.00  0.00     0.031 A 
BRANCH  57  71
ATOM     71  C   UNL A   1      49.021  28.640  31.864  1.00  0.00    -0.014 A 
ATOM     72  C   UNL A   1      49.735  28.738  33.072  1.00  0.00     0.010 A 
ATOM     73  C   UNL A   1      48.986  27.406  31.189  1.00  0.00     0.010 A 
ATOM     74  C   UNL A   1      50.436  27.636  33.571  1.00  0.00     0.020 A 
ATOM     75  C   UNL A   1      49.658  26.293  31.702  1.00  0.00     0.020 A 
ATOM     76  C   UNL A   1      50.394  26.421  32.882  1.00  0.00     0.054 A 
BRANCH  76  77
ATOM     77  S   UNL A   1      51.297  25.003  33.562  1.00  0.00     0.124 S 
ATOM     78  O   UNL A   1      52.608  25.150  32.933  1.00  0.00    -0.237 OA
ATOM     79  O   UNL A   1      51.259  25.262  34.999  1.00  0.00    -0.237 OA
ATOM     80  O   UNL A   1      50.520  23.849  33.119  1.00  0.00    -0.744 OA
ENDBRANCH  76  77
ENDBRANCH  57  71
BRANCH  58  81
ATOM     81  C   UNL A   1      43.812  36.613  28.553  1.00  0.00    -0.014 A 
ATOM     82  C   UNL A   1      44.043  37.877  29.121  1.00  0.00     0.010 A 
ATOM     83  C   UNL A   1      42.875  36.495  27.508  1.00  0.00     0.010 A 
ATOM     84  C   UNL A   1      43.346  38.999  28.659  1.00  0.00     0.020 A 
ATOM     85  C   UNL A   1      42.199  37.617  27.023  1.00  0.00     0.020 A 
ATOM     86  C   UNL A   1      42.434  38.862  27.607  1.00  0.00     0.054 A 
BRANCH  86  87
ATOM     87  S   UNL A   1      41.594  40.344  26.982  1.00  0.00     0.124 S 
ATOM     88  O   UNL A   1      42.715  41.168  26.543  1.00  0.00    -0.237 OA
ATOM     89  O   UNL A   1      40.751  39.800  25.920  1.00  0.00    -0.237 OA
ATOM     90  O   UNL A   1      40.868  40.843  28.149  1.00  0.00    -0.744 OA
ENDBRANCH  86  87
ENDBRANCH  58  81
BRANCH  70  91
ATOM     91  C   UNL A   1      50.144  33.975  27.143  1.00  0.00    -0.014 A 
ATOM     92  C   UNL A   1      51.217  34.776  27.567  1.00  0.00     0.010 A 
ATOM     93  C   UNL A   1      50.141  33.458  25.834  1.00  0.00     0.010 A 
ATOM     94  C   UNL A   1      52.266  35.063  26.690  1.00  0.00     0.020 A 
ATOM     95  C   UNL A   1      51.204  33.716  24.966  1.00  0.00     0.020 A 
ATOM     96  C   UNL A   1      52.257  34.524  25.399  1.00  0.00     0.054 A 
BRANCH  96  97
ATOM     97  S   UNL A   1      53.672  34.842  24.312  1.00  0.00     0.124 S 
ATOM     98  O   UNL A   1      54.476  33.637  24.499  1.00  0.00    -0.237 OA
ATOM     99  O   UNL A   1      53.042  34.982  23.002  1.00  0.00    -0.237 OA
ATOM    100  O   UNL A   1      54.256  36.068  24.852  1.00  0.00    -0.744 OA
ENDBRANCH  96  97
ENDBRANCH  70  91
ENDBRANCH  44  45
ENDBRANCH  37  39
ENDBRANCH  36  37
ENDBRANCH  35  36
ENDBRANCH  34  35
ENDBRANCH  33  34
ENDBRANCH  32  33
ENDBRANCH  31  32
ENDBRANCH  30  31
ENDBRANCH   1  30
TORSDOF 29
ENDMDL
MODEL 3
REMARK VINA RESULT:      -6.0      5.846      9.480
REMARK SMILES COCc1cc(OCC(=O)OCCOCCOCCOCCOC(=O)c2ccc(-c3c4nc(c(-c5ccc(S(=O)(=O)[O-])cc5)c5ccc([nH]5)c(-c5ccc(S(=O)(=O)[O-])cc5)c5nc(c(-c6ccc(S(=O)(=O)[O-])cc6)c6ccc3[nH]6)C=C5)C=C4)cc2)nc(Nc2cccc(C)c2C)n1
REMARK SMILES IDX 16 1 15 2 14 3 13 4 12 5 11 6 9 7 10 8 8 9 7 10 6 11 4 12
REMARK SMILES IDX 5 13 97 14 87 15 86 16 3 17 2 18 1 19 88 20 89 22 90 23
REMARK SMILES IDX 95 24 91 25 93 26 96 27 92 28 94 29 17 30 18 31 19 32 20 33
REMARK SMILES IDX 21 34 22 35 23 36 24 37 25 38 26 39 27 40 85 41 28 42 84 43
REMARK SMILES IDX 29 44 30 45 31 46 78 47 32 48 83 49 77 50 79 51 33 52 82 53
REMARK SMILES IDX 76 54 75 55 34 57 64 58 45 59 63 60 46 61 49 62 62 63 80 64
REMARK SMILES IDX 47 65 48 66 61 68 81 69 50 70 35 71 36 72 44 73 37 74 43 75
REMARK SMILES IDX 38 76 39 77 40 78 41 79 42 80 65 81 66 82 74 83 67 84 73 85
REMARK SMILES IDX 68 86 69 87 70 88 71 89 72 90 51 91 52 92 60 93 53 94 59 95
REMARK SMILES IDX 54 96 55 97 56 98 57 99 58 100
REMARK H PARENT 88 21 79 56 49 67
REMARK Flexibility Score: inf
ROOT
ATOM      1  C   UNL A   1      33.062  32.113  27.621  1.00  0.00     0.188 C 
ENDROOT
BRANCH   1   2
ATOM      2  C   UNL A   1      32.395  31.174  26.591  1.00  0.00     0.188 C 
BRANCH   2   3
ATOM      3  O   UNL A   1      32.095  29.829  26.889  1.00  0.00    -0.376 OA
BRANCH   3   4
ATOM      4  C   UNL A   1      32.985  28.776  26.595  1.00  0.00     0.202 C 
BRANCH   4   5
ATOM      5  C   UNL A   1      33.550  28.515  25.185  1.00  0.00     0.261 C 
BRANCH   5   6
ATOM      6  O   UNL A   1      33.374  27.192  24.634  1.00  0.00    -0.461 OA
BRANCH   6   7
ATOM      7  C   UNL A   1      32.106  26.732  24.476  1.00  0.00     0.344 C 
ATOM      8  O   UNL A   1      31.213  27.376  23.934  1.00  0.00    -0.248 OA
BRANCH   7   9
ATOM      9  C   UNL A   1      31.877  25.282  25.013  1.00  0.00     0.353 C 
BRANCH   9  10
ATOM     10  O   UNL A   1      32.389  24.778  26.242  1.00  0.00    -0.466 OA
BRANCH  10  11
ATOM     11  C   UNL A   1      33.230  23.680  26.318  1.00  0.00     0.219 A 
ATOM     12  C   UNL A   1      33.651  21.370  26.206  1.00  0.00     0.076 A 
ATOM     13  C   UNL A   1      32.789  22.395  26.566  1.00  0.00     0.095 A 
ATOM     14  N   UNL A   1      34.880  21.614  25.709  1.00  0.00    -0.215 NA
ATOM     15  C   UNL A   1      35.285  22.878  25.557  1.00  0.00     0.230 A 
ATOM     16  N   UNL A   1      34.480  23.926  25.839  1.00  0.00    -0.177 NA
BRANCH  12  17
ATOM     17  C   UNL A   1      33.152  19.937  26.113  1.00  0.00     0.216 C 
BRANCH  17  18
ATOM     18  O   UNL A   1      32.110  19.701  25.161  1.00  0.00    -0.378 OA
ATOM     19  C   UNL A   1      32.578  19.170  23.923  1.00  0.00     0.195 C 
ENDBRANCH  17  18
ENDBRANCH  12  17
BRANCH  15  20
ATOM     20  N   UNL A   1      36.567  23.109  25.030  1.00  0.00    -0.324 N 
ATOM     21  H   UNL A   1      36.608  23.380  24.085  1.00  0.00     0.170 HD
BRANCH  20  22
ATOM     22  C   UNL A   1      37.805  22.997  25.703  1.00  0.00     0.044 A 
ATOM     23  C   UNL A   1      38.400  24.134  26.256  1.00  0.00     0.026 A 
ATOM     24  C   UNL A   1      38.538  21.790  25.754  1.00  0.00    -0.025 A 
ATOM     25  C   UNL A   1      39.623  24.056  26.935  1.00  0.00     0.002 A 
ATOM     26  C   UNL A   1      39.690  21.667  26.578  1.00  0.00    -0.046 A 
ATOM     27  C   UNL A   1      38.228  20.690  24.791  1.00  0.00     0.047 C 
ATOM     28  C   UNL A   1      40.239  22.823  27.134  1.00  0.00     0.004 A 
ATOM     29  C   UNL A   1      40.388  20.353  26.837  1.00  0.00     0.044 C 
ENDBRANCH  20  22
ENDBRANCH  15  20
ENDBRANCH  10  11
ENDBRANCH   9  10
ENDBRANCH   7   9
ENDBRANCH   6   7
ENDBRANCH   5   6
ENDBRANCH   4   5
ENDBRANCH   3   4
ENDBRANCH   2   3
ENDBRANCH   1   2
BRANCH   1  30
ATOM     30  O   UNL A   1      33.775  33.258  27.247  1.00  0.00    -0.377 OA
BRANCH  30  31
ATOM     31  C   UNL A   1      34.224  34.082  28.283  1.00  0.00     0.188 C 
BRANCH  31  32
ATOM     32  C   UNL A   1      35.369  33.412  29.040  1.00  0.00     0.188 C 
BRANCH  32  33
ATOM     33  O   UNL A   1      36.196  32.514  28.319  1.00  0.00    -0.376 OA
BRANCH  33  34
ATOM     34  C   UNL A   1      36.307  31.136  28.658  1.00  0.00     0.202 C 
BRANCH  34  35
ATOM     35  C   UNL A   1      37.506  30.199  28.449  1.00  0.00     0.261 C 
BRANCH  35  36
ATOM     36  O   UNL A   1      38.343  29.948  29.566  1.00  0.00    -0.460 OA
BRANCH  36  37
ATOM     37  C   UNL A   1      37.758  29.791  30.761  1.00  0.00     0.338 C 
ATOM     38  O   UNL A   1      36.928  28.958  31.087  1.00  0.00    -0.246 OA
BRANCH  37  39
ATOM     39  C   UNL A   1      38.427  30.737  31.661  1.00  0.00     0.060 A 
ATOM     40  C   UNL A   1      37.900  32.027  31.752  1.00  0.00     0.016 A 
ATOM     41  C   UNL A   1      39.527  30.350  32.433  1.00  0.00     0.016 A 
ATOM     42  C   UNL A   1      38.502  32.949  32.592  1.00  0.00     0.010 A 
ATOM     43  C   UNL A   1      40.148  31.278  33.256  1.00  0.00     0.010 A 
ATOM     44  C   UNL A   1      39.657  32.587  33.296  1.00  0.00    -0.014 A 
BRANCH  44  45
ATOM     45  C   UNL A   1      40.491  33.650  33.868  1.00  0.00     0.031 A 
ATOM     46  C   UNL A   1      40.314  33.953  35.326  1.00  0.00     0.074 A 
ATOM     47  C   UNL A   1      41.392  34.285  33.104  1.00  0.00     0.049 A 
ATOM     48  N   UNL A   1      40.942  34.821  36.069  1.00  0.00    -0.248 NA
ATOM     49  C   UNL A   1      39.290  33.171  36.044  1.00  0.00     0.031 C 
ATOM     50  C   UNL A   1      41.633  34.017  31.686  1.00  0.00     0.029 A 
ATOM     51  N   UNL A   1      42.268  35.285  33.418  1.00  0.00    -0.354 N 
ATOM     52  C   UNL A   1      40.390  34.691  37.338  1.00  0.00     0.074 A 
ATOM     53  C   UNL A   1      39.354  33.688  37.259  1.00  0.00     0.031 C 
ATOM     54  C   UNL A   1      42.599  34.843  31.249  1.00  0.00     0.029 A 
ATOM     55  C   UNL A   1      43.014  35.712  32.348  1.00  0.00     0.049 A 
ATOM     56  H   UNL A   1      42.357  35.662  34.323  1.00  0.00     0.167 HD
ATOM     57  C   UNL A   1      40.727  35.354  38.466  1.00  0.00     0.031 A 
ATOM     58  C   UNL A   1      43.913  36.710  32.274  1.00  0.00     0.031 A 
ATOM     59  C   UNL A   1      41.739  36.372  38.498  1.00  0.00     0.049 A 
ATOM     60  C   UNL A   1      44.222  37.485  33.527  1.00  0.00     0.074 A 
ATOM     61  C   UNL A   1      42.180  37.115  39.577  1.00  0.00     0.029 A 
ATOM     62  N   UNL A   1      42.454  36.803  37.388  1.00  0.00    -0.354 N 
ATOM     63  N   UNL A   1      43.727  37.328  34.734  1.00  0.00    -0.248 NA
ATOM     64  C   UNL A   1      45.217  38.559  33.417  1.00  0.00     0.031 C 
ATOM     65  C   UNL A   1      43.112  38.043  39.105  1.00  0.00     0.029 A 
ATOM     66  C   UNL A   1      43.313  37.823  37.749  1.00  0.00     0.049 A 
ATOM     67  H   UNL A   1      42.362  36.436  36.480  1.00  0.00     0.167 HD
ATOM     68  C   UNL A   1      44.373  38.261  35.535  1.00  0.00     0.074 A 
ATOM     69  C   UNL A   1      45.299  38.974  34.675  1.00  0.00     0.031 C 
ATOM     70  C   UNL A   1      44.225  38.505  36.861  1.00  0.00     0.031 A 
BRANCH  57  71
ATOM     71  C   UNL A   1      39.958  35.031  39.720  1.00  0.00    -0.014 A 
ATOM     72  C   UNL A   1      40.365  34.002  40.589  1.00  0.00     0.010 A 
ATOM     73  C   UNL A   1      38.809  35.777  40.037  1.00  0.00     0.010 A 
ATOM     74  C   UNL A   1      39.613  33.698  41.727  1.00  0.00     0.020 A 
ATOM     75  C   UNL A   1      38.072  35.498  41.191  1.00  0.00     0.020 A 
ATOM     76  C   UNL A   1      38.470  34.447  42.020  1.00  0.00     0.054 A 
BRANCH  76  77
ATOM     77  S   UNL A   1      37.524  34.043  43.513  1.00  0.00     0.124 S 
ATOM     78  O   UNL A   1      36.539  33.094  42.999  1.00  0.00    -0.237 OA
ATOM     79  O   UNL A   1      38.543  33.474  44.392  1.00  0.00    -0.237 OA
ATOM     80  O   UNL A   1      36.982  35.330  43.942  1.00  0.00    -0.744 OA
ENDBRANCH  76  77
ENDBRANCH  57  71
BRANCH  58  81
ATOM     81  C   UNL A   1      44.561  37.022  30.973  1.00  0.00    -0.014 A 
ATOM     82  C   UNL A   1      45.880  36.618  30.706  1.00  0.00     0.010 A 
ATOM     83  C   UNL A   1      43.837  37.693  29.969  1.00  0.00     0.010 A 
ATOM     84  C   UNL A   1      46.465  36.886  29.464  1.00  0.00     0.020 A 
ATOM     85  C   UNL A   1      44.407  37.937  28.717  1.00  0.00     0.020 A 
ATOM     86  C   UNL A   1      45.721  37.536  28.475  1.00  0.00     0.054 A 
BRANCH  86  87
ATOM     87  S   UNL A   1      46.482  37.812  26.851  1.00  0.00     0.124 S 
ATOM     88  O   UNL A   1      45.996  39.144  26.509  1.00  0.00    -0.237 OA
ATOM     89  O   UNL A   1      47.908  37.714  27.153  1.00  0.00    -0.237 OA
ATOM     90  O   UNL A   1      45.950  36.722  26.034  1.00  0.00    -0.744 OA
ENDBRANCH  86  87
ENDBRANCH  58  81
BRANCH  70  91
ATOM     91  C   UNL A   1      45.113  39.550  37.481  1.00  0.00    -0.014 A 
ATOM     92  C   UNL A   1      46.398  39.232  37.952  1.00  0.00     0.010 A 
ATOM     93  C   UNL A   1      44.685  40.890  37.488  1.00  0.00     0.010 A 
ATOM     94  C   UNL A   1      47.236  40.242  38.432  1.00  0.00     0.020 A 
ATOM     95  C   UNL A   1      45.532  41.904  37.936  1.00  0.00     0.020 A 
ATOM     96  C   UNL A   1      46.802  41.571  38.412  1.00  0.00     0.054 A 
BRANCH  96  97
ATOM     97  S   UNL A   1      47.942  42.868  38.961  1.00  0.00     0.124 S 
ATOM     98  O   UNL A   1      48.931  42.878  37.886  1.00  0.00    -0.237 OA
ATOM     99  O   UNL A   1      47.078  44.043  39.032  1.00  0.00    -0.237 OA
ATOM    100  O   UNL A   1      48.430  42.380  40.249  1.00  0.00    -0.744 OA
ENDBRANCH  96  97
ENDBRANCH  70  91
ENDBRANCH  44  45
ENDBRANCH  37  39
ENDBRANCH  36  37
ENDBRANCH  35  36
ENDBRANCH  34  35
ENDBRANCH  33  34
ENDBRANCH  32  33
ENDBRANCH  31  32
ENDBRANCH  30  31
ENDBRANCH   1  30
TORSDOF 29
ENDMDL
