MODEL 1
REMARK VINA RESULT:      -9.5      0.000      0.000
REMARK SMILES C[C@H]1OCC[C@@H]1C(=O)Nc1sc2c(c1C(=O)OCCOCCOCCOCCOC(=O)c1ccc(-c3c4nc(c(-c5ccc(S(=O)(=O)[O-])cc5)c5ccc([nH]5)c(-c5ccc(S(=O)(=O)[O-])cc5)c5nc(c(-c6ccc(S(=O)(=O)[O-])cc6)c6ccc3[nH]6)C=C5)C=C4)cc1)CCC2
REMARK SMILES IDX 24 1 23 2 22 3 21 4 20 5 19 6 18 7 17 8 15 9 16 10 14 11
REMARK SMILES IDX 10 12 11 13 12 14 13 15 94 16 92 17 93 18 9 19 7 20 8 21
REMARK SMILES IDX 6 23 1 24 2 25 3 26 4 27 5 28 25 29 26 30 27 31 28 32 29 33
REMARK SMILES IDX 30 34 31 35 32 36 33 37 91 38 34 39 90 40 35 41 36 42 37 43
REMARK SMILES IDX 84 44 38 45 89 46 83 47 85 48 39 49 88 50 82 51 81 52 40 54
REMARK SMILES IDX 70 55 51 56 69 57 52 58 55 59 68 60 86 61 53 62 54 63 67 65
REMARK SMILES IDX 87 66 56 67 41 68 42 69 50 70 43 71 49 72 44 73 45 74 46 75
REMARK SMILES IDX 47 76 48 77 71 78 72 79 80 80 73 81 79 82 74 83 75 84 76 85
REMARK SMILES IDX 77 86 78 87 57 88 58 89 66 90 59 91 65 92 60 93 61 94 62 95
REMARK SMILES IDX 63 96 64 97
REMARK H PARENT 9 22 85 53 55 64
REMARK Flexibility Score: inf
ROOT
ATOM      1  C   UNL A   1      45.249  42.408  28.244  1.00  0.00     0.188 C 
ENDROOT
BRANCH   1   2
ATOM      2  O   UNL A   1      45.210  43.388  27.210  1.00  0.00    -0.377 OA
BRANCH   2   3
ATOM      3  C   UNL A   1      45.231  42.889  25.876  1.00  0.00     0.188 C 
BRANCH   3   4
ATOM      4  C   UNL A   1      43.847  42.407  25.471  1.00  0.00     0.188 C 
BRANCH   4   5
ATOM      5  O   UNL A   1      43.625  42.541  24.070  1.00  0.00    -0.376 OA
BRANCH   5   6
ATOM      6  C   UNL A   1      42.248  42.510  23.667  1.00  0.00     0.202 C 
BRANCH   6   7
ATOM      7  C   UNL A   1      42.007  41.727  22.366  1.00  0.00     0.261 C 
BRANCH   7   8
ATOM      8  O   UNL A   1      42.772  42.217  21.233  1.00  0.00    -0.460 OA
BRANCH   8   9
ATOM      9  C   UNL A   1      42.276  43.352  20.630  1.00  0.00     0.341 C 
ATOM     10  O   UNL A   1      41.162  43.807  20.848  1.00  0.00    -0.246 OA
BRANCH   9  11
ATOM     11  C   UNL A   1      43.201  43.991  19.687  1.00  0.00     0.098 A 
ATOM     12  C   UNL A   1      44.547  43.646  19.553  1.00  0.00     0.110 A 
ATOM     13  S   UNL A   1      45.462  44.735  18.593  1.00  0.00    -0.122 S 
ATOM     14  C   UNL A   1      44.050  45.429  18.057  1.00  0.00     0.011 A 
ATOM     15  C   UNL A   1      42.919  44.978  18.690  1.00  0.00    -0.017 A 
ATOM     16  C   UNL A   1      43.810  46.379  16.950  1.00  0.00     0.047 C 
ATOM     17  C   UNL A   1      41.713  45.597  18.078  1.00  0.00     0.038 C 
ATOM     18  C   UNL A   1      42.284  46.176  16.737  1.00  0.00     0.010 C 
BRANCH  12  19
ATOM     19  N   UNL A   1      45.301  42.606  20.060  1.00  0.00    -0.317 N 
ATOM     20  C   UNL A   1      45.970  42.744  21.257  1.00  0.00     0.230 C 
ATOM     21  O   UNL A   1      45.856  41.827  22.080  1.00  0.00    -0.274 OA
ATOM     22  H   UNL A   1      45.361  41.758  19.562  1.00  0.00     0.170 HD
BRANCH  20  23
ATOM     23  C   UNL A   1      46.930  43.900  21.562  1.00  0.00     0.110 C 
ATOM     24  C   UNL A   1      49.426  44.050  21.912  1.00  0.00     0.039 C 
ATOM     25  C   UNL A   1      48.092  43.604  22.505  1.00  0.00     0.127 C 
ATOM     26  O   UNL A   1      47.930  44.402  23.694  1.00  0.00    -0.378 OA
ATOM     27  C   UNL A   1      46.779  45.223  23.555  1.00  0.00     0.161 C 
ATOM     28  C   UNL A   1      46.373  45.177  22.105  1.00  0.00     0.044 C 
ENDBRANCH  20  23
ENDBRANCH  12  19
ENDBRANCH   9  11
ENDBRANCH   8   9
ENDBRANCH   7   8
ENDBRANCH   6   7
ENDBRANCH   5   6
ENDBRANCH   4   5
ENDBRANCH   3   4
ENDBRANCH   2   3
ENDBRANCH   1   2
BRANCH   1  29
ATOM     29  C   UNL A   1      44.213  42.529  29.370  1.00  0.00     0.188 C 
BRANCH  29  30
ATOM     30  O   UNL A   1      44.353  41.720  30.543  1.00  0.00    -0.376 OA
BRANCH  30  31
ATOM     31  C   UNL A   1      45.515  40.919  30.765  1.00  0.00     0.202 C 
BRANCH  31  32
ATOM     32  C   UNL A   1      45.383  39.755  31.734  1.00  0.00     0.261 C 
BRANCH  32  33
ATOM     33  O   UNL A   1      44.088  39.206  31.588  1.00  0.00    -0.460 OA
BRANCH  33  34
ATOM     34  C   UNL A   1      43.646  38.630  32.727  1.00  0.00     0.338 C 
ATOM     35  O   UNL A   1      42.915  39.121  33.565  1.00  0.00    -0.246 OA
BRANCH  34  36
ATOM     36  C   UNL A   1      44.219  37.262  32.813  1.00  0.00     0.060 A 
ATOM     37  C   UNL A   1      43.583  36.445  31.887  1.00  0.00     0.016 A 
ATOM     38  C   UNL A   1      44.473  36.842  34.126  1.00  0.00     0.016 A 
ATOM     39  C   UNL A   1      42.682  35.565  32.417  1.00  0.00     0.010 A 
ATOM     40  C   UNL A   1      43.575  35.962  34.667  1.00  0.00     0.010 A 
ATOM     41  C   UNL A   1      42.620  35.422  33.814  1.00  0.00    -0.014 A 
BRANCH  41  42
ATOM     42  C   UNL A   1      41.657  34.475  34.301  1.00  0.00     0.031 A 
ATOM     43  C   UNL A   1      41.943  33.143  33.742  1.00  0.00     0.074 A 
ATOM     44  C   UNL A   1      40.669  34.748  35.162  1.00  0.00     0.049 A 
ATOM     45  N   UNL A   1      41.317  32.555  32.780  1.00  0.00    -0.248 NA
ATOM     46  C   UNL A   1      43.246  32.551  34.087  1.00  0.00     0.031 C 
ATOM     47  C   UNL A   1      40.460  35.926  36.000  1.00  0.00     0.029 A 
ATOM     48  N   UNL A   1      39.671  33.914  35.537  1.00  0.00    -0.354 N 
ATOM     49  C   UNL A   1      42.041  31.398  32.543  1.00  0.00     0.074 A 
ATOM     50  C   UNL A   1      43.317  31.576  33.186  1.00  0.00     0.031 C 
ATOM     51  C   UNL A   1      39.549  35.619  36.957  1.00  0.00     0.029 A 
ATOM     52  C   UNL A   1      39.030  34.281  36.706  1.00  0.00     0.049 A 
ATOM     53  H   UNL A   1      39.423  33.113  35.021  1.00  0.00     0.167 HD
ATOM     54  C   UNL A   1      41.435  30.270  32.093  1.00  0.00     0.031 A 
ATOM     55  C   UNL A   1      38.227  33.469  37.439  1.00  0.00     0.031 A 
ATOM     56  C   UNL A   1      40.146  30.552  31.514  1.00  0.00     0.049 A 
ATOM     57  C   UNL A   1      37.801  32.349  36.553  1.00  0.00     0.074 A 
ATOM     58  C   UNL A   1      39.716  31.330  30.455  1.00  0.00     0.029 A 
ATOM     59  N   UNL A   1      39.040  30.335  32.303  1.00  0.00    -0.354 N 
ATOM     60  N   UNL A   1      37.012  32.503  35.527  1.00  0.00    -0.248 NA
ATOM     61  C   UNL A   1      38.609  31.136  36.532  1.00  0.00     0.031 C 
ATOM     62  C   UNL A   1      38.490  31.910  30.891  1.00  0.00     0.029 A 
ATOM     63  C   UNL A   1      38.206  31.417  32.167  1.00  0.00     0.049 A 
ATOM     64  H   UNL A   1      38.875  29.545  32.865  1.00  0.00     0.167 HD
ATOM     65  C   UNL A   1      37.514  31.652  34.550  1.00  0.00     0.074 A 
ATOM     66  C   UNL A   1      38.433  30.766  35.259  1.00  0.00     0.031 C 
ATOM     67  C   UNL A   1      37.349  31.925  33.220  1.00  0.00     0.031 A 
BRANCH  54  68
ATOM     68  C   UNL A   1      41.836  28.907  32.597  1.00  0.00    -0.014 A 
ATOM     69  C   UNL A   1      41.370  28.489  33.856  1.00  0.00     0.010 A 
ATOM     70  C   UNL A   1      42.864  28.137  32.008  1.00  0.00     0.010 A 
ATOM     71  C   UNL A   1      41.960  27.405  34.518  1.00  0.00     0.020 A 
ATOM     72  C   UNL A   1      43.425  27.031  32.635  1.00  0.00     0.020 A 
ATOM     73  C   UNL A   1      42.995  26.694  33.906  1.00  0.00     0.054 A 
BRANCH  73  74
ATOM     74  S   UNL A   1      43.829  25.372  34.809  1.00  0.00     0.124 S 
ATOM     75  O   UNL A   1      44.383  26.093  35.949  1.00  0.00    -0.237 OA
ATOM     76  O   UNL A   1      42.726  24.461  35.105  1.00  0.00    -0.237 OA
ATOM     77  O   UNL A   1      44.807  24.867  33.848  1.00  0.00    -0.744 OA
ENDBRANCH  73  74
ENDBRANCH  54  68
BRANCH  55  78
ATOM     78  C   UNL A   1      38.107  33.401  38.916  1.00  0.00    -0.014 A 
ATOM     79  C   UNL A   1      38.733  34.370  39.723  1.00  0.00     0.010 A 
ATOM     80  C   UNL A   1      37.142  32.569  39.520  1.00  0.00     0.010 A 
ATOM     81  C   UNL A   1      38.346  34.556  41.059  1.00  0.00     0.020 A 
ATOM     82  C   UNL A   1      36.760  32.740  40.854  1.00  0.00     0.020 A 
ATOM     83  C   UNL A   1      37.342  33.756  41.609  1.00  0.00     0.054 A 
BRANCH  83  84
ATOM     84  S   UNL A   1      36.698  34.142  43.262  1.00  0.00     0.124 S 
ATOM     85  O   UNL A   1      37.401  35.379  43.589  1.00  0.00    -0.237 OA
ATOM     86  O   UNL A   1      35.264  34.274  43.020  1.00  0.00    -0.237 OA
ATOM     87  O   UNL A   1      37.082  32.979  44.062  1.00  0.00    -0.744 OA
ENDBRANCH  83  84
ENDBRANCH  55  78
BRANCH  67  88
ATOM     88  C   UNL A   1      36.359  33.000  32.829  1.00  0.00    -0.014 A 
ATOM     89  C   UNL A   1      35.075  32.736  32.309  1.00  0.00     0.010 A 
ATOM     90  C   UNL A   1      36.699  34.333  33.120  1.00  0.00     0.010 A 
ATOM     91  C   UNL A   1      34.175  33.782  32.052  1.00  0.00     0.020 A 
ATOM     92  C   UNL A   1      35.800  35.376  32.886  1.00  0.00     0.020 A 
ATOM     93  C   UNL A   1      34.548  35.098  32.339  1.00  0.00     0.054 A 
BRANCH  93  94
ATOM     94  S   UNL A   1      33.374  36.448  32.029  1.00  0.00     0.124 S 
ATOM     95  O   UNL A   1      32.109  35.878  32.484  1.00  0.00    -0.237 OA
ATOM     96  O   UNL A   1      33.905  37.536  32.846  1.00  0.00    -0.237 OA
ATOM     97  O   UNL A   1      33.469  36.667  30.586  1.00  0.00    -0.744 OA
ENDBRANCH  93  94
ENDBRANCH  67  88
ENDBRANCH  41  42
ENDBRANCH  34  36
ENDBRANCH  33  34
ENDBRANCH  32  33
ENDBRANCH  31  32
ENDBRANCH  30  31
ENDBRANCH  29  30
ENDBRANCH   1  29
TORSDOF 25
ENDMDL
MODEL 2
REMARK VINA RESULT:      -8.8      1.793      2.397
REMARK SMILES C[C@H]1OCC[C@@H]1C(=O)Nc1sc2c(c1C(=O)OCCOCCOCCOCCOC(=O)c1ccc(-c3c4nc(c(-c5ccc(S(=O)(=O)[O-])cc5)c5ccc([nH]5)c(-c5ccc(S(=O)(=O)[O-])cc5)c5nc(c(-c6ccc(S(=O)(=O)[O-])cc6)c6ccc3[nH]6)C=C5)C=C4)cc1)CCC2
REMARK SMILES IDX 24 1 23 2 22 3 21 4 20 5 19 6 18 7 17 8 15 9 16 10 14 11
REMARK SMILES IDX 10 12 11 13 12 14 13 15 94 16 92 17 93 18 9 19 7 20 8 21
REMARK SMILES IDX 6 23 1 24 2 25 3 26 4 27 5 28 25 29 26 30 27 31 28 32 29 33
REMARK SMILES IDX 30 34 31 35 32 36 33 37 91 38 34 39 90 40 35 41 36 42 37 43
REMARK SMILES IDX 84 44 38 45 89 46 83 47 85 48 39 49 88 50 82 51 81 52 40 54
REMARK SMILES IDX 70 55 51 56 69 57 52 58 55 59 68 60 86 61 53 62 54 63 67 65
REMARK SMILES IDX 87 66 56 67 41 68 42 69 50 70 43 71 49 72 44 73 45 74 46 75
REMARK SMILES IDX 47 76 48 77 71 78 72 79 80 80 73 81 79 82 74 83 75 84 76 85
REMARK SMILES IDX 77 86 78 87 57 88 58 89 66 90 59 91 65 92 60 93 61 94 62 95
REMARK SMILES IDX 63 96 64 97
REMARK H PARENT 9 22 85 53 55 64
REMARK Flexibility Score: inf
ROOT
ATOM      1  C   UNL A   1      44.470  41.810  26.671  1.00  0.00     0.188 C 
ENDROOT
BRANCH   1   2
ATOM      2  O   UNL A   1      44.512  43.235  26.665  1.00  0.00    -0.377 OA
BRANCH   2   3
ATOM      3  C   UNL A   1      44.886  43.844  25.434  1.00  0.00     0.188 C 
BRANCH   3   4
ATOM      4  C   UNL A   1      44.210  43.138  24.270  1.00  0.00     0.188 C 
BRANCH   4   5
ATOM      5  O   UNL A   1      43.676  44.060  23.324  1.00  0.00    -0.376 OA
BRANCH   5   6
ATOM      6  C   UNL A   1      42.284  43.883  23.021  1.00  0.00     0.202 C 
BRANCH   6   7
ATOM      7  C   UNL A   1      42.006  42.690  22.091  1.00  0.00     0.261 C 
BRANCH   7   8
ATOM      8  O   UNL A   1      42.689  42.768  20.811  1.00  0.00    -0.460 OA
BRANCH   8   9
ATOM      9  C   UNL A   1      42.078  43.558  19.862  1.00  0.00     0.341 C 
ATOM     10  O   UNL A   1      40.869  43.595  19.683  1.00  0.00    -0.246 OA
BRANCH   9  11
ATOM     11  C   UNL A   1      43.004  44.372  19.066  1.00  0.00     0.098 A 
ATOM     12  C   UNL A   1      44.364  44.097  18.920  1.00  0.00     0.110 A 
ATOM     13  S   UNL A   1      45.263  45.358  18.179  1.00  0.00    -0.122 S 
ATOM     14  C   UNL A   1      43.840  46.085  17.719  1.00  0.00     0.011 A 
ATOM     15  C   UNL A   1      42.712  45.500  18.234  1.00  0.00    -0.017 A 
ATOM     16  C   UNL A   1      43.595  47.195  16.774  1.00  0.00     0.047 C 
ATOM     17  C   UNL A   1      41.499  46.172  17.694  1.00  0.00     0.038 C 
ATOM     18  C   UNL A   1      42.083  46.980  16.483  1.00  0.00     0.010 C 
BRANCH  12  19
ATOM     19  N   UNL A   1      45.143  43.013  19.274  1.00  0.00    -0.317 N 
ATOM     20  C   UNL A   1      45.794  42.986  20.488  1.00  0.00     0.230 C 
ATOM     21  O   UNL A   1      45.698  41.950  21.160  1.00  0.00    -0.274 OA
ATOM     22  H   UNL A   1      45.233  42.253  18.654  1.00  0.00     0.170 HD
BRANCH  20  23
ATOM     23  C   UNL A   1      46.716  44.107  20.980  1.00  0.00     0.110 C 
ATOM     24  C   UNL A   1      48.377  45.628  19.837  1.00  0.00     0.039 C 
ATOM     25  C   UNL A   1      48.090  44.210  20.324  1.00  0.00     0.127 C 
ATOM     26  O   UNL A   1      49.094  43.953  21.325  1.00  0.00    -0.378 OA
ATOM     27  C   UNL A   1      48.464  43.745  22.581  1.00  0.00     0.161 C 
ATOM     28  C   UNL A   1      47.032  44.195  22.438  1.00  0.00     0.044 C 
ENDBRANCH  20  23
ENDBRANCH  12  19
ENDBRANCH   9  11
ENDBRANCH   8   9
ENDBRANCH   7   8
ENDBRANCH   6   7
ENDBRANCH   5   6
ENDBRANCH   4   5
ENDBRANCH   3   4
ENDBRANCH   2   3
ENDBRANCH   1   2
BRANCH   1  29
ATOM     29  C   UNL A   1      43.291  41.142  27.392  1.00  0.00     0.188 C 
BRANCH  29  30
ATOM     30  O   UNL A   1      43.425  39.793  27.855  1.00  0.00    -0.376 OA
BRANCH  30  31
ATOM     31  C   UNL A   1      44.501  38.957  27.426  1.00  0.00     0.202 C 
BRANCH  31  32
ATOM     32  C   UNL A   1      44.776  37.703  28.240  1.00  0.00     0.261 C 
BRANCH  32  33
ATOM     33  O   UNL A   1      43.626  37.421  29.014  1.00  0.00    -0.460 OA
BRANCH  33  34
ATOM     34  C   UNL A   1      43.890  37.425  30.339  1.00  0.00     0.338 C 
ATOM     35  O   UNL A   1      43.833  38.374  31.097  1.00  0.00    -0.246 OA
BRANCH  34  36
ATOM     36  C   UNL A   1      44.286  36.051  30.742  1.00  0.00     0.060 A 
ATOM     37  C   UNL A   1      43.306  35.158  30.329  1.00  0.00     0.016 A 
ATOM     38  C   UNL A   1      44.863  35.987  32.017  1.00  0.00     0.016 A 
ATOM     39  C   UNL A   1      42.501  34.684  31.327  1.00  0.00     0.010 A 
ATOM     40  C   UNL A   1      44.065  35.516  33.024  1.00  0.00     0.010 A 
ATOM     41  C   UNL A   1      42.840  34.970  32.661  1.00  0.00    -0.014 A 
BRANCH  41  42
ATOM     42  C   UNL A   1      41.954  34.434  33.656  1.00  0.00     0.031 A 
ATOM     43  C   UNL A   1      42.027  32.964  33.648  1.00  0.00     0.074 A 
ATOM     44  C   UNL A   1      41.201  35.159  34.494  1.00  0.00     0.049 A 
ATOM     45  N   UNL A   1      41.168  32.147  33.140  1.00  0.00    -0.248 NA
ATOM     46  C   UNL A   1      43.336  32.369  33.964  1.00  0.00     0.031 C 
ATOM     47  C   UNL A   1      41.255  36.586  34.800  1.00  0.00     0.029 A 
ATOM     48  N   UNL A   1      40.263  34.688  35.349  1.00  0.00    -0.354 N 
ATOM     49  C   UNL A   1      41.749  30.897  33.269  1.00  0.00     0.074 A 
ATOM     50  C   UNL A   1      43.145  31.122  33.542  1.00  0.00     0.031 C 
ATOM     51  C   UNL A   1      40.565  36.807  35.946  1.00  0.00     0.029 A 
ATOM     52  C   UNL A   1      39.923  35.567  36.361  1.00  0.00     0.049 A 
ATOM     53  H   UNL A   1      39.858  33.796  35.258  1.00  0.00     0.167 HD
ATOM     54  C   UNL A   1      40.992  29.783  33.435  1.00  0.00     0.031 A 
ATOM     55  C   UNL A   1      39.256  35.227  37.493  1.00  0.00     0.031 A 
ATOM     56  C   UNL A   1      39.625  30.004  33.033  1.00  0.00     0.049 A 
ATOM     57  C   UNL A   1      38.576  33.927  37.233  1.00  0.00     0.074 A 
ATOM     58  C   UNL A   1      39.018  30.366  31.846  1.00  0.00     0.029 A 
ATOM     59  N   UNL A   1      38.712  30.271  34.028  1.00  0.00    -0.354 N 
ATOM     60  N   UNL A   1      37.589  33.785  36.394  1.00  0.00    -0.248 NA
ATOM     61  C   UNL A   1      39.284  32.696  37.564  1.00  0.00     0.031 C 
ATOM     62  C   UNL A   1      37.957  31.241  32.220  1.00  0.00     0.029 A 
ATOM     63  C   UNL A   1      37.935  31.326  33.614  1.00  0.00     0.049 A 
ATOM     64  H   UNL A   1      38.629  29.792  34.883  1.00  0.00     0.167 HD
ATOM     65  C   UNL A   1      37.808  32.560  35.776  1.00  0.00     0.074 A 
ATOM     66  C   UNL A   1      38.807  31.893  36.607  1.00  0.00     0.031 C 
ATOM     67  C   UNL A   1      37.367  32.319  34.505  1.00  0.00     0.031 A 
BRANCH  54  68
ATOM     68  C   UNL A   1      41.411  28.679  34.370  1.00  0.00    -0.014 A 
ATOM     69  C   UNL A   1      41.980  29.021  35.609  1.00  0.00     0.010 A 
ATOM     70  C   UNL A   1      41.518  27.327  33.971  1.00  0.00     0.010 A 
ATOM     71  C   UNL A   1      42.684  28.075  36.365  1.00  0.00     0.020 A 
ATOM     72  C   UNL A   1      42.174  26.369  34.734  1.00  0.00     0.020 A 
ATOM     73  C   UNL A   1      42.788  26.759  35.911  1.00  0.00     0.054 A 
BRANCH  73  74
ATOM     74  S   UNL A   1      43.792  25.572  36.830  1.00  0.00     0.124 S 
ATOM     75  O   UNL A   1      43.009  24.350  36.691  1.00  0.00    -0.237 OA
ATOM     76  O   UNL A   1      45.055  25.608  36.097  1.00  0.00    -0.237 OA
ATOM     77  O   UNL A   1      43.842  26.138  38.176  1.00  0.00    -0.744 OA
ENDBRANCH  73  74
ENDBRANCH  54  68
BRANCH  55  78
ATOM     78  C   UNL A   1      39.464  35.752  38.864  1.00  0.00    -0.014 A 
ATOM     79  C   UNL A   1      39.294  34.909  39.978  1.00  0.00     0.010 A 
ATOM     80  C   UNL A   1      40.115  36.986  39.069  1.00  0.00     0.010 A 
ATOM     81  C   UNL A   1      39.831  35.249  41.230  1.00  0.00     0.020 A 
ATOM     82  C   UNL A   1      40.641  37.338  40.316  1.00  0.00     0.020 A 
ATOM     83  C   UNL A   1      40.525  36.452  41.384  1.00  0.00     0.054 A 
BRANCH  83  84
ATOM     84  S   UNL A   1      41.398  36.786  42.941  1.00  0.00     0.124 S 
ATOM     85  O   UNL A   1      42.701  36.175  42.704  1.00  0.00    -0.237 OA
ATOM     86  O   UNL A   1      41.384  38.245  43.005  1.00  0.00    -0.237 OA
ATOM     87  O   UNL A   1      40.573  36.119  43.948  1.00  0.00    -0.744 OA
ENDBRANCH  83  84
ENDBRANCH  55  78
BRANCH  67  88
ATOM     88  C   UNL A   1      36.382  33.291  33.893  1.00  0.00    -0.014 A 
ATOM     89  C   UNL A   1      36.749  34.528  33.323  1.00  0.00     0.010 A 
ATOM     90  C   UNL A   1      35.044  32.875  33.778  1.00  0.00     0.010 A 
ATOM     91  C   UNL A   1      35.793  35.340  32.693  1.00  0.00     0.020 A 
ATOM     92  C   UNL A   1      34.092  33.669  33.134  1.00  0.00     0.020 A 
ATOM     93  C   UNL A   1      34.467  34.904  32.608  1.00  0.00     0.054 A 
BRANCH  93  94
ATOM     94  S   UNL A   1      33.237  35.944  31.770  1.00  0.00     0.124 S 
ATOM     95  O   UNL A   1      33.678  35.900  30.379  1.00  0.00    -0.237 OA
ATOM     96  O   UNL A   1      31.980  35.255  32.054  1.00  0.00    -0.237 OA
ATOM     97  O   UNL A   1      33.379  37.245  32.423  1.00  0.00    -0.744 OA
ENDBRANCH  93  94
ENDBRANCH  67  88
ENDBRANCH  41  42
ENDBRANCH  34  36
ENDBRANCH  33  34
ENDBRANCH  32  33
ENDBRANCH  31  32
ENDBRANCH  30  31
ENDBRANCH  29  30
ENDBRANCH   1  29
TORSDOF 25
ENDMDL
MODEL 3
REMARK VINA RESULT:      -8.8      8.198     14.201
REMARK SMILES C[C@H]1OCC[C@@H]1C(=O)Nc1sc2c(c1C(=O)OCCOCCOCCOCCOC(=O)c1ccc(-c3c4nc(c(-c5ccc(S(=O)(=O)[O-])cc5)c5ccc([nH]5)c(-c5ccc(S(=O)(=O)[O-])cc5)c5nc(c(-c6ccc(S(=O)(=O)[O-])cc6)c6ccc3[nH]6)C=C5)C=C4)cc1)CCC2
REMARK SMILES IDX 24 1 23 2 22 3 21 4 20 5 19 6 18 7 17 8 15 9 16 10 14 11
REMARK SMILES IDX 10 12 11 13 12 14 13 15 94 16 92 17 93 18 9 19 7 20 8 21
REMARK SMILES IDX 6 23 1 24 2 25 3 26 4 27 5 28 25 29 26 30 27 31 28 32 29 33
REMARK SMILES IDX 30 34 31 35 32 36 33 37 91 38 34 39 90 40 35 41 36 42 37 43
REMARK SMILES IDX 84 44 38 45 89 46 83 47 85 48 39 49 88 50 82 51 81 52 40 54
REMARK SMILES IDX 70 55 51 56 69 57 52 58 55 59 68 60 86 61 53 62 54 63 67 65
REMARK SMILES IDX 87 66 56 67 41 68 42 69 50 70 43 71 49 72 44 73 45 74 46 75
REMARK SMILES IDX 47 76 48 77 71 78 72 79 80 80 73 81 79 82 74 83 75 84 76 85
REMARK SMILES IDX 77 86 78 87 57 88 58 89 66 90 59 91 65 92 60 93 61 94 62 95
REMARK SMILES IDX 63 96 64 97
REMARK H PARENT 9 22 85 53 55 64
REMARK Flexibility Score: inf
ROOT
ATOM      1  C   UNL A   1      42.936  24.707  25.725  1.00  0.00     0.188 C 
ENDROOT
BRANCH   1   2
ATOM      2  O   UNL A   1      41.928  23.923  26.358  1.00  0.00    -0.377 OA
BRANCH   2   3
ATOM      3  C   UNL A   1      40.656  24.544  26.508  1.00  0.00     0.188 C 
BRANCH   3   4
ATOM      4  C   UNL A   1      39.699  23.615  27.239  1.00  0.00     0.188 C 
BRANCH   4   5
ATOM      5  O   UNL A   1      38.671  23.126  26.383  1.00  0.00    -0.376 OA
BRANCH   5   6
ATOM      6  C   UNL A   1      37.351  23.602  26.683  1.00  0.00     0.202 C 
BRANCH   6   7
ATOM      7  C   UNL A   1      36.298  23.187  25.642  1.00  0.00     0.261 C 
BRANCH   7   8
ATOM      8  O   UNL A   1      35.526  24.295  25.108  1.00  0.00    -0.460 OA
BRANCH   8   9
ATOM      9  C   UNL A   1      34.916  24.063  23.896  1.00  0.00     0.341 C 
ATOM     10  O   UNL A   1      35.522  23.780  22.872  1.00  0.00    -0.246 OA
BRANCH   9  11
ATOM     11  C   UNL A   1      33.453  24.179  23.922  1.00  0.00     0.098 A 
ATOM     12  C   UNL A   1      32.593  23.450  23.100  1.00  0.00     0.110 A 
ATOM     13  S   UNL A   1      30.962  23.985  23.134  1.00  0.00    -0.122 S 
ATOM     14  C   UNL A   1      31.305  24.903  24.477  1.00  0.00     0.011 A 
ATOM     15  C   UNL A   1      32.634  24.946  24.811  1.00  0.00    -0.017 A 
ATOM     16  C   UNL A   1      30.400  25.598  25.417  1.00  0.00     0.047 C 
ATOM     17  C   UNL A   1      32.818  25.720  26.068  1.00  0.00     0.038 C 
ATOM     18  C   UNL A   1      31.355  25.787  26.629  1.00  0.00     0.010 C 
BRANCH  12  19
ATOM     19  N   UNL A   1      32.796  22.387  22.242  1.00  0.00    -0.317 N 
ATOM     20  C   UNL A   1      32.203  21.167  22.486  1.00  0.00     0.230 C 
ATOM     21  O   UNL A   1      31.632  20.614  21.538  1.00  0.00    -0.274 OA
ATOM     22  H   UNL A   1      33.368  22.502  21.448  1.00  0.00     0.170 HD
BRANCH  20  23
ATOM     23  C   UNL A   1      32.323  20.419  23.819  1.00  0.00     0.110 C 
ATOM     24  C   UNL A   1      33.285  21.019  26.076  1.00  0.00     0.039 C 
ATOM     25  C   UNL A   1      33.596  20.648  24.628  1.00  0.00     0.127 C 
ATOM     26  O   UNL A   1      34.315  19.401  24.711  1.00  0.00    -0.378 OA
ATOM     27  C   UNL A   1      33.567  18.384  24.060  1.00  0.00     0.161 C 
ATOM     28  C   UNL A   1      32.183  18.931  23.827  1.00  0.00     0.044 C 
ENDBRANCH  20  23
ENDBRANCH  12  19
ENDBRANCH   9  11
ENDBRANCH   8   9
ENDBRANCH   7   8
ENDBRANCH   6   7
ENDBRANCH   5   6
ENDBRANCH   4   5
ENDBRANCH   3   4
ENDBRANCH   2   3
ENDBRANCH   1   2
BRANCH   1  29
ATOM     29  C   UNL A   1      44.339  24.685  26.344  1.00  0.00     0.188 C 
BRANCH  29  30
ATOM     30  O   UNL A   1      44.481  24.769  27.767  1.00  0.00    -0.376 OA
BRANCH  30  31
ATOM     31  C   UNL A   1      45.175  25.853  28.387  1.00  0.00     0.202 C 
BRANCH  31  32
ATOM     32  C   UNL A   1      44.387  27.127  28.644  1.00  0.00     0.261 C 
BRANCH  32  33
ATOM     33  O   UNL A   1      45.208  28.228  28.303  1.00  0.00    -0.460 OA
BRANCH  33  34
ATOM     34  C   UNL A   1      45.106  28.555  26.997  1.00  0.00     0.338 C 
ATOM     35  O   UNL A   1      45.459  27.890  26.042  1.00  0.00    -0.246 OA
BRANCH  34  36
ATOM     36  C   UNL A   1      44.490  29.903  26.897  1.00  0.00     0.060 A 
ATOM     37  C   UNL A   1      45.189  30.782  27.714  1.00  0.00     0.016 A 
ATOM     38  C   UNL A   1      43.089  29.877  26.858  1.00  0.00     0.016 A 
ATOM     39  C   UNL A   1      44.553  31.121  28.874  1.00  0.00     0.010 A 
ATOM     40  C   UNL A   1      42.442  30.213  28.017  1.00  0.00     0.010 A 
ATOM     41  C   UNL A   1      43.214  30.730  29.049  1.00  0.00    -0.014 A 
BRANCH  41  42
ATOM     42  C   UNL A   1      42.607  31.126  30.289  1.00  0.00     0.031 A 
ATOM     43  C   UNL A   1      42.532  29.971  31.199  1.00  0.00     0.074 A 
ATOM     44  C   UNL A   1      42.202  32.366  30.592  1.00  0.00     0.049 A 
ATOM     45  N   UNL A   1      41.488  29.265  31.472  1.00  0.00    -0.248 NA
ATOM     46  C   UNL A   1      43.813  29.363  31.596  1.00  0.00     0.031 C 
ATOM     47  C   UNL A   1      42.481  33.631  29.914  1.00  0.00     0.029 A 
ATOM     48  N   UNL A   1      41.511  32.745  31.692  1.00  0.00    -0.354 N 
ATOM     49  C   UNL A   1      41.959  28.230  32.262  1.00  0.00     0.074 A 
ATOM     50  C   UNL A   1      43.390  28.206  32.095  1.00  0.00     0.031 C 
ATOM     51  C   UNL A   1      42.176  34.648  30.757  1.00  0.00     0.029 A 
ATOM     52  C   UNL A   1      41.565  34.100  31.961  1.00  0.00     0.049 A 
ATOM     53  H   UNL A   1      41.013  32.108  32.254  1.00  0.00     0.167 HD
ATOM     54  C   UNL A   1      41.178  27.664  33.217  1.00  0.00     0.031 A 
ATOM     55  C   UNL A   1      41.225  34.671  33.144  1.00  0.00     0.031 A 
ATOM     56  C   UNL A   1      39.782  27.948  33.001  1.00  0.00     0.049 A 
ATOM     57  C   UNL A   1      40.377  33.692  33.881  1.00  0.00     0.074 A 
ATOM     58  C   UNL A   1      38.894  27.687  31.974  1.00  0.00     0.029 A 
ATOM     59  N   UNL A   1      39.225  28.969  33.737  1.00  0.00    -0.354 N 
ATOM     60  N   UNL A   1      39.180  33.345  33.499  1.00  0.00    -0.248 NA
ATOM     61  C   UNL A   1      41.028  32.758  34.790  1.00  0.00     0.031 C 
ATOM     62  C   UNL A   1      38.077  28.851  31.881  1.00  0.00     0.029 A 
ATOM     63  C   UNL A   1      38.468  29.737  32.888  1.00  0.00     0.049 A 
ATOM     64  H   UNL A   1      39.348  29.122  34.701  1.00  0.00     0.167 HD
ATOM     65  C   UNL A   1      39.092  31.985  33.768  1.00  0.00     0.074 A 
ATOM     66  C   UNL A   1      40.219  31.702  34.652  1.00  0.00     0.031 C 
ATOM     67  C   UNL A   1      38.281  31.168  33.030  1.00  0.00     0.031 A 
BRANCH  54  68
ATOM     68  C   UNL A   1      41.742  27.254  34.553  1.00  0.00    -0.014 A 
ATOM     69  C   UNL A   1      42.268  28.246  35.398  1.00  0.00     0.010 A 
ATOM     70  C   UNL A   1      42.021  25.911  34.894  1.00  0.00     0.010 A 
ATOM     71  C   UNL A   1      43.093  27.908  36.479  1.00  0.00     0.020 A 
ATOM     72  C   UNL A   1      42.799  25.562  35.992  1.00  0.00     0.020 A 
ATOM     73  C   UNL A   1      43.363  26.567  36.757  1.00  0.00     0.054 A 
BRANCH  73  74
ATOM     74  S   UNL A   1      44.517  26.141  38.079  1.00  0.00     0.124 S 
ATOM     75  O   UNL A   1      43.826  26.658  39.254  1.00  0.00    -0.237 OA
ATOM     76  O   UNL A   1      44.588  24.687  37.967  1.00  0.00    -0.237 OA
ATOM     77  O   UNL A   1      45.739  26.850  37.706  1.00  0.00    -0.744 OA
ENDBRANCH  73  74
ENDBRANCH  54  68
BRANCH  55  78
ATOM     78  C   UNL A   1      41.871  35.824  33.816  1.00  0.00    -0.014 A 
ATOM     79  C   UNL A   1      41.615  36.085  35.176  1.00  0.00     0.010 A 
ATOM     80  C   UNL A   1      42.959  36.489  33.215  1.00  0.00     0.010 A 
ATOM     81  C   UNL A   1      42.468  36.910  35.926  1.00  0.00     0.020 A 
ATOM     82  C   UNL A   1      43.806  37.322  33.952  1.00  0.00     0.020 A 
ATOM     83  C   UNL A   1      43.574  37.503  35.313  1.00  0.00     0.054 A 
BRANCH  83  84
ATOM     84  S   UNL A   1      44.789  38.391  36.332  1.00  0.00     0.124 S 
ATOM     85  O   UNL A   1      43.991  38.796  37.484  1.00  0.00    -0.237 OA
ATOM     86  O   UNL A   1      45.796  37.365  36.589  1.00  0.00    -0.237 OA
ATOM     87  O   UNL A   1      45.231  39.483  35.466  1.00  0.00    -0.744 OA
ENDBRANCH  83  84
ENDBRANCH  55  78
BRANCH  67  88
ATOM     88  C   UNL A   1      37.259  31.810  32.117  1.00  0.00    -0.014 A 
ATOM     89  C   UNL A   1      36.011  32.299  32.554  1.00  0.00     0.010 A 
ATOM     90  C   UNL A   1      37.635  32.043  30.783  1.00  0.00     0.010 A 
ATOM     91  C   UNL A   1      35.149  32.964  31.668  1.00  0.00     0.020 A 
ATOM     92  C   UNL A   1      36.792  32.724  29.901  1.00  0.00     0.020 A 
ATOM     93  C   UNL A   1      35.547  33.168  30.343  1.00  0.00     0.054 A 
BRANCH  93  94
ATOM     94  S   UNL A   1      34.443  34.051  29.204  1.00  0.00     0.124 S 
ATOM     95  O   UNL A   1      35.286  35.145  28.730  1.00  0.00    -0.237 OA
ATOM     96  O   UNL A   1      34.115  33.032  28.211  1.00  0.00    -0.237 OA
ATOM     97  O   UNL A   1      33.322  34.459  30.052  1.00  0.00    -0.744 OA
ENDBRANCH  93  94
ENDBRANCH  67  88
ENDBRANCH  41  42
ENDBRANCH  34  36
ENDBRANCH  33  34
ENDBRANCH  32  33
ENDBRANCH  31  32
ENDBRANCH  30  31
ENDBRANCH  29  30
ENDBRANCH   1  29
TORSDOF 25
ENDMDL
