MODEL 1
REMARK VINA RESULT:     -10.2      0.000      0.000
REMARK SMILES C[C@H]1C[N@H+]2CCCC[C@@H]2CN1c1ccc(C(=O)OCCOCCOCCOCCOC(=O)c2ccc(-c3c4nc(c(-c5ccc(S(=O)(=O)[O-])cc5)c5ccc([nH]5)c(-c5ccc(S(=O)(=O)[O-])cc5)c5nc(c(-c6ccc(S(=O)(=O)[O-])cc6)c6ccc3[nH]6)C=C5)C=C4)cc2)cc1Cl
REMARK SMILES IDX 25 1 24 2 23 3 22 4 21 5 20 6 19 7 18 8 16 9 17 10 15 11
REMARK SMILES IDX 12 12 13 13 94 14 14 15 93 16 95 17 11 18 1 19 2 20 3 21
REMARK SMILES IDX 4 22 10 23 5 24 9 25 6 27 8 28 7 29 26 30 27 31 28 32 29 33
REMARK SMILES IDX 30 34 31 35 32 36 33 37 34 38 92 39 35 40 91 41 36 42 37 43
REMARK SMILES IDX 38 44 85 45 39 46 90 47 84 48 86 49 40 50 89 51 83 52 82 53
REMARK SMILES IDX 41 55 71 56 52 57 70 58 53 59 56 60 69 61 87 62 54 63 55 64
REMARK SMILES IDX 68 66 88 67 57 68 42 69 43 70 51 71 44 72 50 73 45 74 46 75
REMARK SMILES IDX 47 76 48 77 49 78 72 79 73 80 81 81 74 82 80 83 75 84 76 85
REMARK SMILES IDX 77 86 78 87 79 88 58 89 59 90 67 91 60 92 66 93 61 94 62 95
REMARK SMILES IDX 63 96 64 97 65 98
REMARK H PARENT 4 26 86 54 56 65
REMARK Flexibility Score: inf
ROOT
ATOM      1  C   UNL A   1      40.828  19.907  27.052  1.00  0.00     0.188 C 
ENDROOT
BRANCH   1   2
ATOM      2  O   UNL A   1      40.123  20.470  25.946  1.00  0.00    -0.377 OA
BRANCH   2   3
ATOM      3  C   UNL A   1      39.315  21.620  26.127  1.00  0.00     0.188 C 
BRANCH   3   4
ATOM      4  C   UNL A   1      38.049  21.754  25.257  1.00  0.00     0.188 C 
BRANCH   4   5
ATOM      5  O   UNL A   1      37.336  20.542  25.097  1.00  0.00    -0.376 OA
BRANCH   5   6
ATOM      6  C   UNL A   1      35.922  20.549  25.042  1.00  0.00     0.202 C 
BRANCH   6   7
ATOM      7  C   UNL A   1      35.125  19.282  24.692  1.00  0.00     0.261 C 
BRANCH   7   8
ATOM      8  O   UNL A   1      33.736  19.281  25.029  1.00  0.00    -0.460 OA
BRANCH   8   9
ATOM      9  C   UNL A   1      32.855  19.592  24.058  1.00  0.00     0.338 C 
ATOM     10  O   UNL A   1      32.291  18.822  23.302  1.00  0.00    -0.246 OA
BRANCH   9  11
ATOM     11  C   UNL A   1      32.520  21.030  24.202  1.00  0.00     0.061 A 
ATOM     12  C   UNL A   1      31.863  23.769  24.397  1.00  0.00     0.056 A 
ATOM     13  C   UNL A   1      32.195  23.197  23.161  1.00  0.00     0.028 A 
ATOM     14  C   UNL A   1      31.808  22.911  25.525  1.00  0.00     0.065 A 
ATOM     15  C   UNL A   1      32.531  21.843  23.063  1.00  0.00     0.018 A 
ATOM     16  C   UNL A   1      32.130  21.557  25.432  1.00  0.00     0.038 A 
ATOM     17  Cl  UNL A   1      31.314  23.497  27.082  1.00  0.00    -0.082 Cl
BRANCH  12  18
ATOM     18  N   UNL A   1      31.692  25.141  24.530  1.00  0.00    -0.356 N 
ATOM     19  C   UNL A   1      34.045  25.743  25.067  1.00  0.00     0.037 C 
ATOM     20  C   UNL A   1      32.560  26.044  25.308  1.00  0.00     0.134 C 
ATOM     21  C   UNL A   1      32.312  27.544  24.895  1.00  0.00     0.287 C 
ATOM     22  N   UNL A   1      30.928  27.978  24.568  1.00  0.00    -0.329 N 
ATOM     23  C   UNL A   1      30.286  25.571  24.460  1.00  0.00     0.182 C 
ATOM     24  C   UNL A   1      30.972  29.237  23.799  1.00  0.00     0.262 C 
ATOM     25  C   UNL A   1      30.237  26.940  23.762  1.00  0.00     0.203 C 
ATOM     26  H   UNL A   1      30.416  28.121  25.439  1.00  0.00     0.348 HD
ATOM     27  C   UNL A   1      29.571  29.738  23.442  1.00  0.00     0.062 C 
ATOM     28  C   UNL A   1      28.784  27.356  23.505  1.00  0.00     0.067 C 
ATOM     29  C   UNL A   1      28.741  28.671  22.735  1.00  0.00     0.012 C 
ENDBRANCH  12  18
ENDBRANCH   9  11
ENDBRANCH   8   9
ENDBRANCH   7   8
ENDBRANCH   6   7
ENDBRANCH   5   6
ENDBRANCH   4   5
ENDBRANCH   3   4
ENDBRANCH   2   3
ENDBRANCH   1   2
BRANCH   1  30
ATOM     30  C   UNL A   1      42.201  19.203  26.901  1.00  0.00     0.188 C 
BRANCH  30  31
ATOM     31  O   UNL A   1      42.457  18.659  25.617  1.00  0.00    -0.376 OA
BRANCH  31  32
ATOM     32  C   UNL A   1      43.750  18.836  25.069  1.00  0.00     0.202 C 
BRANCH  32  33
ATOM     33  C   UNL A   1      44.310  20.265  25.071  1.00  0.00     0.261 C 
BRANCH  33  34
ATOM     34  O   UNL A   1      43.368  21.313  24.802  1.00  0.00    -0.460 OA
BRANCH  34  35
ATOM     35  C   UNL A   1      43.866  22.485  24.341  1.00  0.00     0.338 C 
ATOM     36  O   UNL A   1      44.339  22.699  23.246  1.00  0.00    -0.246 OA
BRANCH  35  37
ATOM     37  C   UNL A   1      43.560  23.519  25.353  1.00  0.00     0.060 A 
ATOM     38  C   UNL A   1      44.105  24.802  25.209  1.00  0.00     0.016 A 
ATOM     39  C   UNL A   1      42.725  23.221  26.432  1.00  0.00     0.016 A 
ATOM     40  C   UNL A   1      43.841  25.784  26.167  1.00  0.00     0.010 A 
ATOM     41  C   UNL A   1      42.479  24.199  27.400  1.00  0.00     0.010 A 
ATOM     42  C   UNL A   1      43.063  25.473  27.290  1.00  0.00    -0.014 A 
BRANCH  42  43
ATOM     43  C   UNL A   1      43.015  26.407  28.441  1.00  0.00     0.031 A 
ATOM     44  C   UNL A   1      44.119  26.333  29.462  1.00  0.00     0.074 A 
ATOM     45  C   UNL A   1      42.023  27.306  28.577  1.00  0.00     0.049 A 
ATOM     46  N   UNL A   1      44.263  26.998  30.578  1.00  0.00    -0.248 NA
ATOM     47  C   UNL A   1      45.206  25.375  29.187  1.00  0.00     0.031 C 
ATOM     48  C   UNL A   1      40.924  27.507  27.635  1.00  0.00     0.029 A 
ATOM     49  N   UNL A   1      41.779  28.215  29.578  1.00  0.00    -0.354 N 
ATOM     50  C   UNL A   1      45.445  26.531  31.144  1.00  0.00     0.074 A 
ATOM     51  C   UNL A   1      45.965  25.509  30.264  1.00  0.00     0.031 C 
ATOM     52  C   UNL A   1      40.118  28.475  28.107  1.00  0.00     0.029 A 
ATOM     53  C   UNL A   1      40.620  28.931  29.402  1.00  0.00     0.049 A 
ATOM     54  H   UNL A   1      42.379  28.341  30.349  1.00  0.00     0.167 HD
ATOM     55  C   UNL A   1      46.043  26.921  32.294  1.00  0.00     0.031 A 
ATOM     56  C   UNL A   1      40.019  29.833  30.208  1.00  0.00     0.031 A 
ATOM     57  C   UNL A   1      45.516  27.931  33.172  1.00  0.00     0.049 A 
ATOM     58  C   UNL A   1      40.666  30.192  31.523  1.00  0.00     0.074 A 
ATOM     59  C   UNL A   1      46.059  28.410  34.352  1.00  0.00     0.029 A 
ATOM     60  N   UNL A   1      44.323  28.609  32.975  1.00  0.00    -0.354 N 
ATOM     61  N   UNL A   1      41.799  29.765  32.031  1.00  0.00    -0.248 NA
ATOM     62  C   UNL A   1      39.958  31.162  32.370  1.00  0.00     0.031 C 
ATOM     63  C   UNL A   1      45.161  29.328  34.902  1.00  0.00     0.029 A 
ATOM     64  C   UNL A   1      44.097  29.479  34.027  1.00  0.00     0.049 A 
ATOM     65  H   UNL A   1      43.726  28.489  32.202  1.00  0.00     0.167 HD
ATOM     66  C   UNL A   1      41.953  30.442  33.238  1.00  0.00     0.074 A 
ATOM     67  C   UNL A   1      40.807  31.315  33.377  1.00  0.00     0.031 C 
ATOM     68  C   UNL A   1      42.955  30.351  34.149  1.00  0.00     0.031 A 
BRANCH  55  69
ATOM     69  C   UNL A   1      47.321  26.228  32.690  1.00  0.00    -0.014 A 
ATOM     70  C   UNL A   1      48.572  26.682  32.236  1.00  0.00     0.010 A 
ATOM     71  C   UNL A   1      47.270  25.140  33.580  1.00  0.00     0.010 A 
ATOM     72  C   UNL A   1      49.746  26.045  32.645  1.00  0.00     0.020 A 
ATOM     73  C   UNL A   1      48.442  24.519  34.017  1.00  0.00     0.020 A 
ATOM     74  C   UNL A   1      49.674  24.968  33.536  1.00  0.00     0.054 A 
BRANCH  74  75
ATOM     75  S   UNL A   1      51.218  24.193  34.088  1.00  0.00     0.124 S 
ATOM     76  O   UNL A   1      52.124  24.508  32.987  1.00  0.00    -0.237 OA
ATOM     77  O   UNL A   1      51.491  24.886  35.344  1.00  0.00    -0.237 OA
ATOM     78  O   UNL A   1      50.870  22.780  34.222  1.00  0.00    -0.744 OA
ENDBRANCH  74  75
ENDBRANCH  55  69
BRANCH  56  79
ATOM     79  C   UNL A   1      38.718  30.446  29.814  1.00  0.00    -0.014 A 
ATOM     80  C   UNL A   1      37.542  29.676  29.774  1.00  0.00     0.010 A 
ATOM     81  C   UNL A   1      38.656  31.803  29.446  1.00  0.00     0.010 A 
ATOM     82  C   UNL A   1      36.336  30.243  29.347  1.00  0.00     0.020 A 
ATOM     83  C   UNL A   1      37.446  32.382  29.051  1.00  0.00     0.020 A 
ATOM     84  C   UNL A   1      36.295  31.593  28.991  1.00  0.00     0.054 A 
BRANCH  84  85
ATOM     85  S   UNL A   1      34.713  32.313  28.472  1.00  0.00     0.124 S 
ATOM     86  O   UNL A   1      35.143  33.385  27.581  1.00  0.00    -0.237 OA
ATOM     87  O   UNL A   1      34.050  31.182  27.829  1.00  0.00    -0.237 OA
ATOM     88  O   UNL A   1      34.107  32.748  29.728  1.00  0.00    -0.744 OA
ENDBRANCH  84  85
ENDBRANCH  56  79
BRANCH  68  89
ATOM     89  C   UNL A   1      42.892  31.254  35.354  1.00  0.00    -0.014 A 
ATOM     90  C   UNL A   1      42.339  30.822  36.572  1.00  0.00     0.010 A 
ATOM     91  C   UNL A   1      43.457  32.542  35.281  1.00  0.00     0.010 A 
ATOM     92  C   UNL A   1      42.322  31.671  37.683  1.00  0.00     0.020 A 
ATOM     93  C   UNL A   1      43.472  33.381  36.398  1.00  0.00     0.020 A 
ATOM     94  C   UNL A   1      42.890  32.945  37.588  1.00  0.00     0.054 A 
BRANCH  94  95
ATOM     95  S   UNL A   1      42.893  34.010  39.057  1.00  0.00     0.124 S 
ATOM     96  O   UNL A   1      44.236  33.793  39.586  1.00  0.00    -0.237 OA
ATOM     97  O   UNL A   1      42.646  35.334  38.492  1.00  0.00    -0.237 OA
ATOM     98  O   UNL A   1      41.807  33.476  39.876  1.00  0.00    -0.744 OA
ENDBRANCH  94  95
ENDBRANCH  68  89
ENDBRANCH  42  43
ENDBRANCH  35  37
ENDBRANCH  34  35
ENDBRANCH  33  34
ENDBRANCH  32  33
ENDBRANCH  31  32
ENDBRANCH  30  31
ENDBRANCH   1  30
TORSDOF 24
ENDMDL
MODEL 2
REMARK VINA RESULT:      -9.2      2.737      8.657
REMARK SMILES C[C@H]1C[N@H+]2CCCC[C@@H]2CN1c1ccc(C(=O)OCCOCCOCCOCCOC(=O)c2ccc(-c3c4nc(c(-c5ccc(S(=O)(=O)[O-])cc5)c5ccc([nH]5)c(-c5ccc(S(=O)(=O)[O-])cc5)c5nc(c(-c6ccc(S(=O)(=O)[O-])cc6)c6ccc3[nH]6)C=C5)C=C4)cc2)cc1Cl
REMARK SMILES IDX 25 1 24 2 23 3 22 4 21 5 20 6 19 7 18 8 16 9 17 10 15 11
REMARK SMILES IDX 12 12 13 13 94 14 14 15 93 16 95 17 11 18 1 19 2 20 3 21
REMARK SMILES IDX 4 22 10 23 5 24 9 25 6 27 8 28 7 29 26 30 27 31 28 32 29 33
REMARK SMILES IDX 30 34 31 35 32 36 33 37 34 38 92 39 35 40 91 41 36 42 37 43
REMARK SMILES IDX 38 44 85 45 39 46 90 47 84 48 86 49 40 50 89 51 83 52 82 53
REMARK SMILES IDX 41 55 71 56 52 57 70 58 53 59 56 60 69 61 87 62 54 63 55 64
REMARK SMILES IDX 68 66 88 67 57 68 42 69 43 70 51 71 44 72 50 73 45 74 46 75
REMARK SMILES IDX 47 76 48 77 49 78 72 79 73 80 81 81 74 82 80 83 75 84 76 85
REMARK SMILES IDX 77 86 78 87 79 88 58 89 59 90 67 91 60 92 66 93 61 94 62 95
REMARK SMILES IDX 63 96 64 97 65 98
REMARK H PARENT 4 26 86 54 56 65
REMARK Flexibility Score: inf
ROOT
ATOM      1  C   UNL A   1      38.872  22.364  26.182  1.00  0.00     0.188 C 
ENDROOT
BRANCH   1   2
ATOM      2  O   UNL A   1      37.978  21.536  25.439  1.00  0.00    -0.377 OA
BRANCH   2   3
ATOM      3  C   UNL A   1      36.622  21.917  25.276  1.00  0.00     0.188 C 
BRANCH   3   4
ATOM      4  C   UNL A   1      35.566  20.797  25.182  1.00  0.00     0.188 C 
BRANCH   4   5
ATOM      5  O   UNL A   1      34.398  21.049  25.939  1.00  0.00    -0.376 OA
BRANCH   5   6
ATOM      6  C   UNL A   1      33.145  21.180  25.294  1.00  0.00     0.202 C 
BRANCH   6   7
ATOM      7  C   UNL A   1      33.033  21.265  23.764  1.00  0.00     0.261 C 
BRANCH   7   8
ATOM      8  O   UNL A   1      32.458  22.458  23.225  1.00  0.00    -0.460 OA
BRANCH   8   9
ATOM      9  C   UNL A   1      33.297  23.440  22.840  1.00  0.00     0.338 C 
ATOM     10  O   UNL A   1      34.389  23.311  22.316  1.00  0.00    -0.246 OA
BRANCH   9  11
ATOM     11  C   UNL A   1      32.569  24.726  22.967  1.00  0.00     0.061 A 
ATOM     12  C   UNL A   1      31.212  27.196  23.136  1.00  0.00     0.056 A 
ATOM     13  C   UNL A   1      32.306  27.036  22.275  1.00  0.00     0.028 A 
ATOM     14  C   UNL A   1      30.776  26.059  23.864  1.00  0.00     0.065 A 
ATOM     15  C   UNL A   1      32.987  25.817  22.198  1.00  0.00     0.018 A 
ATOM     16  C   UNL A   1      31.443  24.837  23.782  1.00  0.00     0.038 A 
ATOM     17  Cl  UNL A   1      29.372  26.122  24.883  1.00  0.00    -0.082 Cl
BRANCH  12  18
ATOM     18  N   UNL A   1      30.637  28.444  23.343  1.00  0.00    -0.356 N 
ATOM     19  C   UNL A   1      32.171  29.251  25.127  1.00  0.00     0.037 C 
ATOM     20  C   UNL A   1      30.739  29.242  24.579  1.00  0.00     0.134 C 
ATOM     21  C   UNL A   1      30.331  30.740  24.306  1.00  0.00     0.287 C 
ATOM     22  N   UNL A   1      29.223  31.019  23.355  1.00  0.00    -0.329 N 
ATOM     23  C   UNL A   1      29.387  28.650  22.594  1.00  0.00     0.182 C 
ATOM     24  C   UNL A   1      29.297  32.424  22.907  1.00  0.00     0.262 C 
ATOM     25  C   UNL A   1      29.319  30.126  22.173  1.00  0.00     0.203 C 
ATOM     26  H   UNL A   1      28.336  30.852  23.830  1.00  0.00     0.348 HD
ATOM     27  C   UNL A   1      28.171  32.773  21.931  1.00  0.00     0.062 C 
ATOM     28  C   UNL A   1      28.124  30.361  21.240  1.00  0.00     0.067 C 
ATOM     29  C   UNL A   1      28.111  31.804  20.754  1.00  0.00     0.012 C 
ENDBRANCH  12  18
ENDBRANCH   9  11
ENDBRANCH   8   9
ENDBRANCH   7   8
ENDBRANCH   6   7
ENDBRANCH   5   6
ENDBRANCH   4   5
ENDBRANCH   3   4
ENDBRANCH   2   3
ENDBRANCH   1   2
BRANCH   1  30
ATOM     30  C   UNL A   1      40.130  21.809  26.896  1.00  0.00     0.188 C 
BRANCH  30  31
ATOM     31  O   UNL A   1      41.223  22.709  26.970  1.00  0.00    -0.376 OA
BRANCH  31  32
ATOM     32  C   UNL A   1      42.244  22.593  25.997  1.00  0.00     0.202 C 
BRANCH  32  33
ATOM     33  C   UNL A   1      42.932  23.893  25.561  1.00  0.00     0.261 C 
BRANCH  33  34
ATOM     34  O   UNL A   1      42.285  25.113  25.953  1.00  0.00    -0.460 OA
BRANCH  34  35
ATOM     35  C   UNL A   1      43.038  26.238  25.947  1.00  0.00     0.338 C 
ATOM     36  O   UNL A   1      43.596  26.741  24.996  1.00  0.00    -0.246 OA
BRANCH  35  37
ATOM     37  C   UNL A   1      42.908  26.858  27.283  1.00  0.00     0.060 A 
ATOM     38  C   UNL A   1      42.212  26.177  28.290  1.00  0.00     0.016 A 
ATOM     39  C   UNL A   1      43.486  28.103  27.539  1.00  0.00     0.016 A 
ATOM     40  C   UNL A   1      42.064  26.758  29.551  1.00  0.00     0.010 A 
ATOM     41  C   UNL A   1      43.320  28.692  28.795  1.00  0.00     0.010 A 
ATOM     42  C   UNL A   1      42.580  28.038  29.796  1.00  0.00    -0.014 A 
BRANCH  42  43
ATOM     43  C   UNL A   1      42.185  28.775  31.021  1.00  0.00     0.031 A 
ATOM     44  C   UNL A   1      40.935  29.613  30.974  1.00  0.00     0.074 A 
ATOM     45  C   UNL A   1      42.911  28.700  32.152  1.00  0.00     0.049 A 
ATOM     46  N   UNL A   1      40.423  30.391  31.892  1.00  0.00    -0.248 NA
ATOM     47  C   UNL A   1      40.161  29.570  29.720  1.00  0.00     0.031 C 
ATOM     48  C   UNL A   1      44.112  27.889  32.338  1.00  0.00     0.029 A 
ATOM     49  N   UNL A   1      42.740  29.331  33.360  1.00  0.00    -0.354 N 
ATOM     50  C   UNL A   1      39.278  30.939  31.323  1.00  0.00     0.074 A 
ATOM     51  C   UNL A   1      39.184  30.426  29.975  1.00  0.00     0.031 C 
ATOM     52  C   UNL A   1      44.575  28.077  33.587  1.00  0.00     0.029 A 
ATOM     53  C   UNL A   1      43.730  29.052  34.273  1.00  0.00     0.049 A 
ATOM     54  H   UNL A   1      41.980  29.927  33.555  1.00  0.00     0.167 HD
ATOM     55  C   UNL A   1      38.384  31.791  31.877  1.00  0.00     0.031 A 
ATOM     56  C   UNL A   1      43.941  29.548  35.510  1.00  0.00     0.031 A 
ATOM     57  C   UNL A   1      38.488  32.307  33.216  1.00  0.00     0.049 A 
ATOM     58  C   UNL A   1      42.974  30.559  36.074  1.00  0.00     0.074 A 
ATOM     59  C   UNL A   1      37.621  33.162  33.875  1.00  0.00     0.029 A 
ATOM     60  N   UNL A   1      39.522  32.027  34.095  1.00  0.00    -0.354 N 
ATOM     61  N   UNL A   1      41.879  31.045  35.537  1.00  0.00    -0.248 NA
ATOM     62  C   UNL A   1      43.265  31.082  37.417  1.00  0.00     0.031 C 
ATOM     63  C   UNL A   1      38.167  33.452  35.129  1.00  0.00     0.029 A 
ATOM     64  C   UNL A   1      39.332  32.717  35.280  1.00  0.00     0.049 A 
ATOM     65  H   UNL A   1      40.278  31.426  33.906  1.00  0.00     0.167 HD
ATOM     66  C   UNL A   1      41.336  31.902  36.491  1.00  0.00     0.074 A 
ATOM     67  C   UNL A   1      42.213  31.856  37.642  1.00  0.00     0.031 C 
ATOM     68  C   UNL A   1      40.209  32.656  36.423  1.00  0.00     0.031 A 
BRANCH  55  69
ATOM     69  C   UNL A   1      37.231  32.251  31.024  1.00  0.00    -0.014 A 
ATOM     70  C   UNL A   1      37.058  33.608  30.695  1.00  0.00     0.010 A 
ATOM     71  C   UNL A   1      36.341  31.300  30.493  1.00  0.00     0.010 A 
ATOM     72  C   UNL A   1      36.002  34.007  29.872  1.00  0.00     0.020 A 
ATOM     73  C   UNL A   1      35.302  31.690  29.645  1.00  0.00     0.020 A 
ATOM     74  C   UNL A   1      35.131  33.044  29.350  1.00  0.00     0.054 A 
BRANCH  74  75
ATOM     75  S   UNL A   1      33.799  33.586  28.245  1.00  0.00     0.124 S 
ATOM     76  O   UNL A   1      34.537  34.323  27.222  1.00  0.00    -0.237 OA
ATOM     77  O   UNL A   1      33.213  32.322  27.808  1.00  0.00    -0.237 OA
ATOM     78  O   UNL A   1      32.945  34.403  29.104  1.00  0.00    -0.744 OA
ENDBRANCH  74  75
ENDBRANCH  55  69
BRANCH  56  79
ATOM     79  C   UNL A   1      45.134  29.122  36.298  1.00  0.00    -0.014 A 
ATOM     80  C   UNL A   1      45.060  28.032  37.184  1.00  0.00     0.010 A 
ATOM     81  C   UNL A   1      46.347  29.828  36.187  1.00  0.00     0.010 A 
ATOM     82  C   UNL A   1      46.165  27.674  37.964  1.00  0.00     0.020 A 
ATOM     83  C   UNL A   1      47.464  29.452  36.940  1.00  0.00     0.020 A 
ATOM     84  C   UNL A   1      47.361  28.385  37.835  1.00  0.00     0.054 A 
BRANCH  84  85
ATOM     85  S   UNL A   1      48.790  27.882  38.833  1.00  0.00     0.124 S 
ATOM     86  O   UNL A   1      48.153  27.370  40.041  1.00  0.00    -0.237 OA
ATOM     87  O   UNL A   1      49.430  26.883  37.981  1.00  0.00    -0.237 OA
ATOM     88  O   UNL A   1      49.544  29.122  39.000  1.00  0.00    -0.744 OA
ENDBRANCH  84  85
ENDBRANCH  56  79
BRANCH  68  89
ATOM     89  C   UNL A   1      39.825  33.456  37.641  1.00  0.00    -0.014 A 
ATOM     90  C   UNL A   1      38.693  33.132  38.409  1.00  0.00     0.010 A 
ATOM     91  C   UNL A   1      40.653  34.516  38.060  1.00  0.00     0.010 A 
ATOM     92  C   UNL A   1      38.379  33.873  39.552  1.00  0.00     0.020 A 
ATOM     93  C   UNL A   1      40.361  35.236  39.220  1.00  0.00     0.020 A 
ATOM     94  C   UNL A   1      39.216  34.920  39.951  1.00  0.00     0.054 A 
BRANCH  94  95
ATOM     95  S   UNL A   1      38.808  35.836  41.463  1.00  0.00     0.124 S 
ATOM     96  O   UNL A   1      37.563  35.198  41.878  1.00  0.00    -0.237 OA
ATOM     97  O   UNL A   1      39.964  35.575  42.317  1.00  0.00    -0.237 OA
ATOM     98  O   UNL A   1      38.678  37.219  41.007  1.00  0.00    -0.744 OA
ENDBRANCH  94  95
ENDBRANCH  68  89
ENDBRANCH  42  43
ENDBRANCH  35  37
ENDBRANCH  34  35
ENDBRANCH  33  34
ENDBRANCH  32  33
ENDBRANCH  31  32
ENDBRANCH  30  31
ENDBRANCH   1  30
TORSDOF 24
ENDMDL
MODEL 3
REMARK VINA RESULT:      -9.1      3.422      9.863
REMARK SMILES C[C@H]1C[N@H+]2CCCC[C@@H]2CN1c1ccc(C(=O)OCCOCCOCCOCCOC(=O)c2ccc(-c3c4nc(c(-c5ccc(S(=O)(=O)[O-])cc5)c5ccc([nH]5)c(-c5ccc(S(=O)(=O)[O-])cc5)c5nc(c(-c6ccc(S(=O)(=O)[O-])cc6)c6ccc3[nH]6)C=C5)C=C4)cc2)cc1Cl
REMARK SMILES IDX 25 1 24 2 23 3 22 4 21 5 20 6 19 7 18 8 16 9 17 10 15 11
REMARK SMILES IDX 12 12 13 13 94 14 14 15 93 16 95 17 11 18 1 19 2 20 3 21
REMARK SMILES IDX 4 22 10 23 5 24 9 25 6 27 8 28 7 29 26 30 27 31 28 32 29 33
REMARK SMILES IDX 30 34 31 35 32 36 33 37 34 38 92 39 35 40 91 41 36 42 37 43
REMARK SMILES IDX 38 44 85 45 39 46 90 47 84 48 86 49 40 50 89 51 83 52 82 53
REMARK SMILES IDX 41 55 71 56 52 57 70 58 53 59 56 60 69 61 87 62 54 63 55 64
REMARK SMILES IDX 68 66 88 67 57 68 42 69 43 70 51 71 44 72 50 73 45 74 46 75
REMARK SMILES IDX 47 76 48 77 49 78 72 79 73 80 81 81 74 82 80 83 75 84 76 85
REMARK SMILES IDX 77 86 78 87 79 88 58 89 59 90 67 91 60 92 66 93 61 94 62 95
REMARK SMILES IDX 63 96 64 97 65 98
REMARK H PARENT 4 26 86 54 56 65
REMARK Flexibility Score: inf
ROOT
ATOM      1  C   UNL A   1      36.196  24.113  25.092  1.00  0.00     0.188 C 
ENDROOT
BRANCH   1   2
ATOM      2  O   UNL A   1      35.145  24.840  25.727  1.00  0.00    -0.377 OA
BRANCH   2   3
ATOM      3  C   UNL A   1      34.406  25.807  24.999  1.00  0.00     0.188 C 
BRANCH   3   4
ATOM      4  C   UNL A   1      33.721  26.936  25.794  1.00  0.00     0.188 C 
BRANCH   4   5
ATOM      5  O   UNL A   1      33.118  27.924  24.979  1.00  0.00    -0.376 OA
BRANCH   5   6
ATOM      6  C   UNL A   1      31.953  28.596  25.418  1.00  0.00     0.202 C 
BRANCH   6   7
ATOM      7  C   UNL A   1      30.824  28.968  24.444  1.00  0.00     0.261 C 
BRANCH   7   8
ATOM      8  O   UNL A   1      30.544  28.036  23.397  1.00  0.00    -0.460 OA
BRANCH   8   9
ATOM      9  C   UNL A   1      29.628  27.077  23.639  1.00  0.00     0.338 C 
ATOM     10  O   UNL A   1      28.422  27.158  23.494  1.00  0.00    -0.246 OA
BRANCH   9  11
ATOM     11  C   UNL A   1      30.361  25.818  23.915  1.00  0.00     0.061 A 
ATOM     12  C   UNL A   1      31.823  23.451  24.401  1.00  0.00     0.056 A 
ATOM     13  C   UNL A   1      32.180  24.313  23.355  1.00  0.00     0.028 A 
ATOM     14  C   UNL A   1      30.748  23.844  25.239  1.00  0.00     0.065 A 
ATOM     15  C   UNL A   1      31.452  25.481  23.105  1.00  0.00     0.018 A 
ATOM     16  C   UNL A   1      30.024  25.013  25.003  1.00  0.00     0.038 A 
ATOM     17  Cl  UNL A   1      30.287  22.899  26.620  1.00  0.00    -0.082 Cl
BRANCH  12  18
ATOM     18  N   UNL A   1      32.433  22.212  24.551  1.00  0.00    -0.356 N 
ATOM     19  C   UNL A   1      33.084  22.422  26.942  1.00  0.00     0.037 C 
ATOM     20  C   UNL A   1      33.455  21.873  25.559  1.00  0.00     0.134 C 
ATOM     21  C   UNL A   1      33.601  20.311  25.696  1.00  0.00     0.287 C 
ATOM     22  N   UNL A   1      33.485  19.469  24.476  1.00  0.00    -0.329 N 
ATOM     23  C   UNL A   1      32.557  21.458  23.292  1.00  0.00     0.182 C 
ATOM     24  C   UNL A   1      33.205  18.073  24.862  1.00  0.00     0.262 C 
ATOM     25  C   UNL A   1      32.385  19.964  23.609  1.00  0.00     0.203 C 
ATOM     26  H   UNL A   1      34.364  19.518  23.961  1.00  0.00     0.348 HD
ATOM     27  C   UNL A   1      33.084  17.156  23.643  1.00  0.00     0.062 C 
ATOM     28  C   UNL A   1      32.329  19.146  22.314  1.00  0.00     0.067 C 
ATOM     29  C   UNL A   1      32.071  17.678  22.628  1.00  0.00     0.012 C 
ENDBRANCH  12  18
ENDBRANCH   9  11
ENDBRANCH   8   9
ENDBRANCH   7   8
ENDBRANCH   6   7
ENDBRANCH   5   6
ENDBRANCH   4   5
ENDBRANCH   3   4
ENDBRANCH   2   3
ENDBRANCH   1   2
BRANCH   1  30
ATOM     30  C   UNL A   1      36.816  22.831  25.703  1.00  0.00     0.188 C 
BRANCH  30  31
ATOM     31  O   UNL A   1      38.188  22.630  25.409  1.00  0.00    -0.376 OA
BRANCH  31  32
ATOM     32  C   UNL A   1      39.132  22.915  26.424  1.00  0.00     0.202 C 
BRANCH  32  33
ATOM     33  C   UNL A   1      38.981  24.260  27.147  1.00  0.00     0.261 C 
BRANCH  33  34
ATOM     34  O   UNL A   1      40.193  24.852  27.639  1.00  0.00    -0.460 OA
BRANCH  34  35
ATOM     35  C   UNL A   1      40.473  26.111  27.228  1.00  0.00     0.338 C 
ATOM     36  O   UNL A   1      40.649  26.487  26.089  1.00  0.00    -0.246 OA
BRANCH  35  37
ATOM     37  C   UNL A   1      40.344  26.995  28.406  1.00  0.00     0.060 A 
ATOM     38  C   UNL A   1      41.152  28.136  28.499  1.00  0.00     0.016 A 
ATOM     39  C   UNL A   1      39.417  26.700  29.408  1.00  0.00     0.016 A 
ATOM     40  C   UNL A   1      41.056  28.970  29.615  1.00  0.00     0.010 A 
ATOM     41  C   UNL A   1      39.336  27.524  30.533  1.00  0.00     0.010 A 
ATOM     42  C   UNL A   1      40.178  28.643  30.658  1.00  0.00    -0.014 A 
BRANCH  42  43
ATOM     43  C   UNL A   1      40.274  29.352  31.958  1.00  0.00     0.031 A 
ATOM     44  C   UNL A   1      39.232  30.389  32.279  1.00  0.00     0.074 A 
ATOM     45  C   UNL A   1      41.254  29.078  32.838  1.00  0.00     0.049 A 
ATOM     46  N   UNL A   1      39.139  31.178  33.318  1.00  0.00    -0.248 NA
ATOM     47  C   UNL A   1      38.150  30.563  31.292  1.00  0.00     0.031 C 
ATOM     48  C   UNL A   1      42.293  28.065  32.664  1.00  0.00     0.029 A 
ATOM     49  N   UNL A   1      41.538  29.645  34.056  1.00  0.00    -0.354 N 
ATOM     50  C   UNL A   1      38.002  31.949  33.104  1.00  0.00     0.074 A 
ATOM     51  C   UNL A   1      37.451  31.553  31.827  1.00  0.00     0.031 C 
ATOM     52  C   UNL A   1      43.106  28.087  33.735  1.00  0.00     0.029 A 
ATOM     53  C   UNL A   1      42.671  29.142  34.649  1.00  0.00     0.049 A 
ATOM     54  H   UNL A   1      40.981  30.346  34.468  1.00  0.00     0.167 HD
ATOM     55  C   UNL A   1      37.463  32.900  33.902  1.00  0.00     0.031 A 
ATOM     56  C   UNL A   1      43.299  29.509  35.786  1.00  0.00     0.031 A 
ATOM     57  C   UNL A   1      38.019  33.298  35.167  1.00  0.00     0.049 A 
ATOM     58  C   UNL A   1      42.722  30.628  36.618  1.00  0.00     0.074 A 
ATOM     59  C   UNL A   1      37.536  34.240  36.058  1.00  0.00     0.029 A 
ATOM     60  N   UNL A   1      39.185  32.789  35.715  1.00  0.00    -0.354 N 
ATOM     61  N   UNL A   1      41.628  31.327  36.419  1.00  0.00    -0.248 NA
ATOM     62  C   UNL A   1      43.458  31.002  37.834  1.00  0.00     0.031 C 
ATOM     63  C   UNL A   1      38.446  34.348  37.113  1.00  0.00     0.029 A 
ATOM     64  C   UNL A   1      39.455  33.418  36.918  1.00  0.00     0.049 A 
ATOM     65  H   UNL A   1      39.739  32.083  35.310  1.00  0.00     0.167 HD
ATOM     66  C   UNL A   1      41.531  32.196  37.503  1.00  0.00     0.074 A 
ATOM     67  C   UNL A   1      42.666  31.925  38.359  1.00  0.00     0.031 C 
ATOM     68  C   UNL A   1      40.585  33.133  37.767  1.00  0.00     0.031 A 
BRANCH  55  69
ATOM     69  C   UNL A   1      36.224  33.605  33.415  1.00  0.00    -0.014 A 
ATOM     70  C   UNL A   1      34.940  33.082  33.655  1.00  0.00     0.010 A 
ATOM     71  C   UNL A   1      36.345  34.843  32.758  1.00  0.00     0.010 A 
ATOM     72  C   UNL A   1      33.804  33.772  33.224  1.00  0.00     0.020 A 
ATOM     73  C   UNL A   1      35.211  35.551  32.353  1.00  0.00     0.020 A 
ATOM     74  C   UNL A   1      33.947  35.005  32.578  1.00  0.00     0.054 A 
BRANCH  74  75
ATOM     75  S   UNL A   1      32.452  35.900  32.075  1.00  0.00     0.124 S 
ATOM     76  O   UNL A   1      32.612  35.964  30.625  1.00  0.00    -0.237 OA
ATOM     77  O   UNL A   1      31.382  35.027  32.551  1.00  0.00    -0.237 OA
ATOM     78  O   UNL A   1      32.562  37.181  32.770  1.00  0.00    -0.744 OA
ENDBRANCH  74  75
ENDBRANCH  55  69
BRANCH  56  79
ATOM     79  C   UNL A   1      44.563  28.835  36.200  1.00  0.00    -0.014 A 
ATOM     80  C   UNL A   1      45.796  29.204  35.632  1.00  0.00     0.010 A 
ATOM     81  C   UNL A   1      44.535  27.795  37.148  1.00  0.00     0.010 A 
ATOM     82  C   UNL A   1      46.970  28.528  35.980  1.00  0.00     0.020 A 
ATOM     83  C   UNL A   1      45.712  27.139  37.524  1.00  0.00     0.020 A 
ATOM     84  C   UNL A   1      46.920  27.501  36.927  1.00  0.00     0.054 A 
BRANCH  84  85
ATOM     85  S   UNL A   1      48.462  26.661  37.387  1.00  0.00     0.124 S 
ATOM     86  O   UNL A   1      49.125  27.669  38.207  1.00  0.00    -0.237 OA
ATOM     87  O   UNL A   1      47.975  25.483  38.100  1.00  0.00    -0.237 OA
ATOM     88  O   UNL A   1      49.096  26.383  36.101  1.00  0.00    -0.744 OA
ENDBRANCH  84  85
ENDBRANCH  56  79
BRANCH  68  89
ATOM     89  C   UNL A   1      40.699  33.901  39.059  1.00  0.00    -0.014 A 
ATOM     90  C   UNL A   1      41.326  35.158  39.116  1.00  0.00     0.010 A 
ATOM     91  C   UNL A   1      40.110  33.379  40.226  1.00  0.00     0.010 A 
ATOM     92  C   UNL A   1      41.390  35.862  40.322  1.00  0.00     0.020 A 
ATOM     93  C   UNL A   1      40.143  34.095  41.426  1.00  0.00     0.020 A 
ATOM     94  C   UNL A   1      40.797  35.326  41.469  1.00  0.00     0.054 A 
BRANCH  94  95
ATOM     95  S   UNL A   1      40.857  36.281  43.011  1.00  0.00     0.124 S 
ATOM     96  O   UNL A   1      40.536  35.265  44.009  1.00  0.00    -0.237 OA
ATOM     97  O   UNL A   1      42.232  36.770  43.030  1.00  0.00    -0.237 OA
ATOM     98  O   UNL A   1      39.837  37.311  42.821  1.00  0.00    -0.744 OA
ENDBRANCH  94  95
ENDBRANCH  68  89
ENDBRANCH  42  43
ENDBRANCH  35  37
ENDBRANCH  34  35
ENDBRANCH  33  34
ENDBRANCH  32  33
ENDBRANCH  31  32
ENDBRANCH  30  31
ENDBRANCH   1  30
TORSDOF 24
ENDMDL
