MODEL 1
REMARK VINA RESULT:      -8.5      0.000      0.000
REMARK SMILES CCC(CC)(NC(=O)Nc1ccccc1)C(=O)OCCOCCOCCOCCOC(=O)c1ccc(-c2c3nc(c(-c4ccc(S(=O)(=O)[O-])cc4)c4ccc([nH]4)c(-c4ccc(S(=O)(=O)[O-])cc4)c4nc(c(-c5ccc(S(=O)(=O)[O-])cc5)c5ccc2[nH]5)C=C4)C=C3)cc1
REMARK SMILES IDX 25 1 24 2 23 3 22 4 21 5 20 6 19 7 18 8 16 9 17 10 3 11 2 12
REMARK SMILES IDX 1 13 4 14 5 15 6 16 7 17 8 19 9 20 10 22 11 23 15 24 12 25
REMARK SMILES IDX 14 26 13 27 26 28 27 29 28 30 29 31 30 32 31 33 32 34 33 35
REMARK SMILES IDX 34 36 92 37 35 38 91 39 36 40 37 41 38 42 85 43 39 44 90 45
REMARK SMILES IDX 84 46 86 47 40 48 89 49 83 50 82 51 41 53 71 54 52 55 70 56
REMARK SMILES IDX 53 57 56 58 69 59 87 60 54 61 55 62 68 64 88 65 57 66 42 67
REMARK SMILES IDX 43 68 51 69 44 70 50 71 45 72 46 73 47 74 48 75 49 76 72 77
REMARK SMILES IDX 73 78 81 79 74 80 80 81 75 82 76 83 77 84 78 85 79 86 58 87
REMARK SMILES IDX 59 88 67 89 60 90 66 91 61 92 62 93 63 94 64 95 65 96
REMARK H PARENT 6 18 9 21 86 52 56 63
REMARK Flexibility Score: inf
ROOT
ATOM      1  C   UNL A   1      33.010  35.700  30.606  1.00  0.00     0.188 C 
ENDROOT
BRANCH   1   2
ATOM      2  O   UNL A   1      32.759  34.617  29.723  1.00  0.00    -0.377 OA
BRANCH   2   3
ATOM      3  C   UNL A   1      33.595  34.507  28.573  1.00  0.00     0.188 C 
BRANCH   3   4
ATOM      4  C   UNL A   1      33.158  33.497  27.453  1.00  0.00     0.188 C 
BRANCH   4   5
ATOM      5  O   UNL A   1      33.493  32.151  27.891  1.00  0.00    -0.376 OA
BRANCH   5   6
ATOM      6  C   UNL A   1      33.411  30.807  27.361  1.00  0.00     0.202 C 
BRANCH   6   7
ATOM      7  C   UNL A   1      32.080  30.307  26.413  1.00  0.00     0.261 C 
BRANCH   7   8
ATOM      8  O   UNL A   1      31.985  29.605  24.988  1.00  0.00    -0.461 OA
BRANCH   8   9
ATOM      9  C   UNL A   1      32.746  28.865  24.042  1.00  0.00     0.331 C 
ATOM     10  O   UNL A   1      33.583  29.391  23.309  1.00  0.00    -0.249 OA
BRANCH   9  11
ATOM     11  C   UNL A   1      32.317  27.261  23.855  1.00  0.00     0.139 C 
BRANCH  11  12
ATOM     12  C   UNL A   1      30.921  26.508  23.729  1.00  0.00     0.037 C 
ATOM     13  C   UNL A   1      29.954  26.347  24.867  1.00  0.00     0.007 C 
ENDBRANCH  11  12
BRANCH  11  14
ATOM     14  C   UNL A   1      33.197  26.512  24.885  1.00  0.00     0.037 C 
ATOM     15  C   UNL A   1      33.904  27.326  25.965  1.00  0.00     0.007 C 
ENDBRANCH  11  14
BRANCH  11  16
ATOM     16  N   UNL A   1      32.756  27.169  22.518  1.00  0.00    -0.322 N 
ATOM     17  C   UNL A   1      33.149  25.954  22.103  1.00  0.00     0.320 C 
ATOM     18  H   UNL A   1      32.774  27.952  21.922  1.00  0.00     0.166 HD
ATOM     19  O   UNL A   1      33.296  25.857  20.887  1.00  0.00    -0.248 OA
ATOM     20  N   UNL A   1      33.333  24.877  22.968  1.00  0.00    -0.308 N 
ATOM     21  H   UNL A   1      34.143  24.428  22.631  1.00  0.00     0.171 HD
BRANCH  20  22
ATOM     22  C   UNL A   1      32.928  24.069  24.133  1.00  0.00     0.042 A 
ATOM     23  C   UNL A   1      33.972  23.591  24.950  1.00  0.00     0.026 A 
ATOM     24  C   UNL A   1      31.713  23.397  24.370  1.00  0.00     0.026 A 
ATOM     25  C   UNL A   1      33.816  22.535  25.875  1.00  0.00     0.002 A 
ATOM     26  C   UNL A   1      31.506  22.433  25.374  1.00  0.00     0.002 A 
ATOM     27  C   UNL A   1      32.572  21.977  26.113  1.00  0.00     0.000 A 
ENDBRANCH  20  22
ENDBRANCH  11  16
ENDBRANCH   9  11
ENDBRANCH   8   9
ENDBRANCH   7   8
ENDBRANCH   6   7
ENDBRANCH   5   6
ENDBRANCH   4   5
ENDBRANCH   3   4
ENDBRANCH   2   3
ENDBRANCH   1   2
BRANCH   1  28
ATOM     28  C   UNL A   1      33.915  35.317  31.788  1.00  0.00     0.188 C 
BRANCH  28  29
ATOM     29  O   UNL A   1      33.973  33.970  32.241  1.00  0.00    -0.376 OA
BRANCH  29  30
ATOM     30  C   UNL A   1      35.098  33.504  32.961  1.00  0.00     0.202 C 
BRANCH  30  31
ATOM     31  C   UNL A   1      36.427  34.290  32.919  1.00  0.00     0.261 C 
BRANCH  31  32
ATOM     32  O   UNL A   1      37.582  33.693  32.307  1.00  0.00    -0.460 OA
BRANCH  32  33
ATOM     33  C   UNL A   1      37.634  33.649  30.949  1.00  0.00     0.338 C 
ATOM     34  O   UNL A   1      36.730  33.382  30.202  1.00  0.00    -0.246 OA
BRANCH  33  35
ATOM     35  C   UNL A   1      38.966  34.181  30.506  1.00  0.00     0.060 A 
ATOM     36  C   UNL A   1      39.120  34.600  29.174  1.00  0.00     0.016 A 
ATOM     37  C   UNL A   1      40.052  34.264  31.379  1.00  0.00     0.016 A 
ATOM     38  C   UNL A   1      40.347  35.065  28.703  1.00  0.00     0.010 A 
ATOM     39  C   UNL A   1      41.305  34.666  30.891  1.00  0.00     0.010 A 
ATOM     40  C   UNL A   1      41.465  35.026  29.540  1.00  0.00    -0.014 A 
BRANCH  40  41
ATOM     41  C   UNL A   1      42.816  35.078  28.925  1.00  0.00     0.031 A 
ATOM     42  C   UNL A   1      43.615  33.798  28.889  1.00  0.00     0.074 A 
ATOM     43  C   UNL A   1      43.306  36.195  28.359  1.00  0.00     0.049 A 
ATOM     44  N   UNL A   1      44.833  33.591  28.464  1.00  0.00    -0.248 NA
ATOM     45  C   UNL A   1      42.943  32.589  29.399  1.00  0.00     0.031 C 
ATOM     46  C   UNL A   1      42.601  37.472  28.248  1.00  0.00     0.029 A 
ATOM     47  N   UNL A   1      44.524  36.432  27.770  1.00  0.00    -0.354 N 
ATOM     48  C   UNL A   1      45.081  32.238  28.676  1.00  0.00     0.074 A 
ATOM     49  C   UNL A   1      43.894  31.675  29.277  1.00  0.00     0.031 C 
ATOM     50  C   UNL A   1      43.409  38.364  27.648  1.00  0.00     0.029 A 
ATOM     51  C   UNL A   1      44.701  37.736  27.370  1.00  0.00     0.049 A 
ATOM     52  H   UNL A   1      45.208  35.733  27.645  1.00  0.00     0.167 HD
ATOM     53  C   UNL A   1      46.199  31.529  28.398  1.00  0.00     0.031 A 
ATOM     54  C   UNL A   1      45.791  38.357  26.875  1.00  0.00     0.031 A 
ATOM     55  C   UNL A   1      47.381  32.092  27.802  1.00  0.00     0.049 A 
ATOM     56  C   UNL A   1      47.059  37.565  26.663  1.00  0.00     0.074 A 
ATOM     57  C   UNL A   1      48.562  31.454  27.469  1.00  0.00     0.029 A 
ATOM     58  N   UNL A   1      47.536  33.426  27.459  1.00  0.00    -0.354 N 
ATOM     59  N   UNL A   1      47.277  36.284  26.856  1.00  0.00    -0.248 NA
ATOM     60  C   UNL A   1      48.231  38.301  26.163  1.00  0.00     0.031 C 
ATOM     61  C   UNL A   1      49.457  32.415  26.991  1.00  0.00     0.029 A 
ATOM     62  C   UNL A   1      48.806  33.638  26.954  1.00  0.00     0.049 A 
ATOM     63  H   UNL A   1      46.845  34.121  27.560  1.00  0.00     0.167 HD
ATOM     64  C   UNL A   1      48.597  36.061  26.474  1.00  0.00     0.074 A 
ATOM     65  C   UNL A   1      49.121  37.331  26.018  1.00  0.00     0.031 C 
ATOM     66  C   UNL A   1      49.313  34.908  26.500  1.00  0.00     0.031 A 
BRANCH  53  67
ATOM     67  C   UNL A   1      46.224  30.071  28.776  1.00  0.00    -0.014 A 
ATOM     68  C   UNL A   1      45.840  29.068  27.869  1.00  0.00     0.010 A 
ATOM     69  C   UNL A   1      46.713  29.697  30.042  1.00  0.00     0.010 A 
ATOM     70  C   UNL A   1      45.930  27.720  28.226  1.00  0.00     0.020 A 
ATOM     71  C   UNL A   1      46.832  28.350  30.393  1.00  0.00     0.020 A 
ATOM     72  C   UNL A   1      46.433  27.370  29.483  1.00  0.00     0.054 A 
BRANCH  72  73
ATOM     73  S   UNL A   1      46.601  25.611  29.895  1.00  0.00     0.124 S 
ATOM     74  O   UNL A   1      47.414  25.117  28.786  1.00  0.00    -0.237 OA
ATOM     75  O   UNL A   1      47.268  25.650  31.193  1.00  0.00    -0.237 OA
ATOM     76  O   UNL A   1      45.224  25.125  29.920  1.00  0.00    -0.744 OA
ENDBRANCH  72  73
ENDBRANCH  53  67
BRANCH  54  77
ATOM     77  C   UNL A   1      45.763  39.822  26.592  1.00  0.00    -0.014 A 
ATOM     78  C   UNL A   1      45.553  40.756  27.622  1.00  0.00     0.010 A 
ATOM     79  C   UNL A   1      45.904  40.289  25.271  1.00  0.00     0.010 A 
ATOM     80  C   UNL A   1      45.454  42.121  27.334  1.00  0.00     0.020 A 
ATOM     81  C   UNL A   1      45.842  41.655  24.984  1.00  0.00     0.020 A 
ATOM     82  C   UNL A   1      45.601  42.562  26.015  1.00  0.00     0.054 A 
BRANCH  82  83
ATOM     83  S   UNL A   1      45.495  44.341  25.670  1.00  0.00     0.124 S 
ATOM     84  O   UNL A   1      44.247  44.431  24.921  1.00  0.00    -0.237 OA
ATOM     85  O   UNL A   1      45.474  44.920  27.011  1.00  0.00    -0.237 OA
ATOM     86  O   UNL A   1      46.708  44.613  24.901  1.00  0.00    -0.744 OA
ENDBRANCH  82  83
ENDBRANCH  54  77
BRANCH  66  87
ATOM     87  C   UNL A   1      50.730  34.952  25.984  1.00  0.00    -0.014 A 
ATOM     88  C   UNL A   1      51.814  35.212  26.841  1.00  0.00     0.010 A 
ATOM     89  C   UNL A   1      50.983  34.669  24.628  1.00  0.00     0.010 A 
ATOM     90  C   UNL A   1      53.120  35.225  26.344  1.00  0.00     0.020 A 
ATOM     91  C   UNL A   1      52.289  34.647  24.134  1.00  0.00     0.020 A 
ATOM     92  C   UNL A   1      53.350  34.940  24.993  1.00  0.00     0.054 A 
BRANCH  92  93
ATOM     93  S   UNL A   1      55.058  34.924  24.384  1.00  0.00     0.124 S 
ATOM     94  O   UNL A   1      55.428  36.334  24.479  1.00  0.00    -0.237 OA
ATOM     95  O   UNL A   1      55.726  34.033  25.329  1.00  0.00    -0.237 OA
ATOM     96  O   UNL A   1      54.937  34.403  23.024  1.00  0.00    -0.744 OA
ENDBRANCH  92  93
ENDBRANCH  66  87
ENDBRANCH  40  41
ENDBRANCH  33  35
ENDBRANCH  32  33
ENDBRANCH  31  32
ENDBRANCH  30  31
ENDBRANCH  29  30
ENDBRANCH  28  29
ENDBRANCH   1  28
TORSDOF 27
ENDMDL
MODEL 2
REMARK VINA RESULT:      -8.5      4.354      6.112
REMARK SMILES CCC(CC)(NC(=O)Nc1ccccc1)C(=O)OCCOCCOCCOCCOC(=O)c1ccc(-c2c3nc(c(-c4ccc(S(=O)(=O)[O-])cc4)c4ccc([nH]4)c(-c4ccc(S(=O)(=O)[O-])cc4)c4nc(c(-c5ccc(S(=O)(=O)[O-])cc5)c5ccc2[nH]5)C=C4)C=C3)cc1
REMARK SMILES IDX 25 1 24 2 23 3 22 4 21 5 20 6 19 7 18 8 16 9 17 10 3 11 2 12
REMARK SMILES IDX 1 13 4 14 5 15 6 16 7 17 8 19 9 20 10 22 11 23 15 24 12 25
REMARK SMILES IDX 14 26 13 27 26 28 27 29 28 30 29 31 30 32 31 33 32 34 33 35
REMARK SMILES IDX 34 36 92 37 35 38 91 39 36 40 37 41 38 42 85 43 39 44 90 45
REMARK SMILES IDX 84 46 86 47 40 48 89 49 83 50 82 51 41 53 71 54 52 55 70 56
REMARK SMILES IDX 53 57 56 58 69 59 87 60 54 61 55 62 68 64 88 65 57 66 42 67
REMARK SMILES IDX 43 68 51 69 44 70 50 71 45 72 46 73 47 74 48 75 49 76 72 77
REMARK SMILES IDX 73 78 81 79 74 80 80 81 75 82 76 83 77 84 78 85 79 86 58 87
REMARK SMILES IDX 59 88 67 89 60 90 66 91 61 92 62 93 63 94 64 95 65 96
REMARK H PARENT 6 18 9 21 86 52 56 63
REMARK Flexibility Score: inf
ROOT
ATOM      1  C   UNL A   1      36.157  33.039  30.054  1.00  0.00     0.188 C 
ENDROOT
BRANCH   1   2
ATOM      2  O   UNL A   1      36.102  32.772  28.661  1.00  0.00    -0.377 OA
BRANCH   2   3
ATOM      3  C   UNL A   1      35.175  33.530  27.888  1.00  0.00     0.188 C 
BRANCH   3   4
ATOM      4  C   UNL A   1      33.646  33.314  28.172  1.00  0.00     0.188 C 
BRANCH   4   5
ATOM      5  O   UNL A   1      33.144  32.310  27.249  1.00  0.00    -0.376 OA
BRANCH   5   6
ATOM      6  C   UNL A   1      33.308  30.889  27.027  1.00  0.00     0.202 C 
BRANCH   6   7
ATOM      7  C   UNL A   1      32.197  30.005  26.076  1.00  0.00     0.261 C 
BRANCH   7   8
ATOM      8  O   UNL A   1      32.247  29.494  24.570  1.00  0.00    -0.461 OA
BRANCH   8   9
ATOM      9  C   UNL A   1      32.986  28.661  23.685  1.00  0.00     0.331 C 
ATOM     10  O   UNL A   1      33.920  29.083  23.004  1.00  0.00    -0.249 OA
BRANCH   9  11
ATOM     11  C   UNL A   1      32.403  27.108  23.489  1.00  0.00     0.139 C 
BRANCH  11  12
ATOM     12  C   UNL A   1      30.940  26.483  23.449  1.00  0.00     0.037 C 
ATOM     13  C   UNL A   1      30.007  26.470  24.626  1.00  0.00     0.007 C 
ENDBRANCH  11  12
BRANCH  11  14
ATOM     14  C   UNL A   1      33.288  26.251  24.426  1.00  0.00     0.037 C 
ATOM     15  C   UNL A   1      34.015  26.944  25.574  1.00  0.00     0.007 C 
ENDBRANCH  11  14
BRANCH  11  16
ATOM     16  N   UNL A   1      32.732  27.024  22.120  1.00  0.00    -0.322 N 
ATOM     17  C   UNL A   1      33.017  25.798  21.650  1.00  0.00     0.320 C 
ATOM     18  H   UNL A   1      32.752  27.819  21.540  1.00  0.00     0.166 HD
ATOM     19  O   UNL A   1      33.063  25.723  20.424  1.00  0.00    -0.248 OA
ATOM     20  N   UNL A   1      33.201  24.690  22.475  1.00  0.00    -0.308 N 
ATOM     21  H   UNL A   1      33.953  24.203  22.067  1.00  0.00     0.171 HD
BRANCH  20  22
ATOM     22  C   UNL A   1      32.837  23.879  23.652  1.00  0.00     0.042 A 
ATOM     23  C   UNL A   1      33.910  23.376  24.414  1.00  0.00     0.026 A 
ATOM     24  C   UNL A   1      31.623  23.225  23.941  1.00  0.00     0.026 A 
ATOM     25  C   UNL A   1      33.780  22.314  25.336  1.00  0.00     0.002 A 
ATOM     26  C   UNL A   1      31.447  22.257  24.945  1.00  0.00     0.002 A 
ATOM     27  C   UNL A   1      32.539  21.775  25.629  1.00  0.00     0.000 A 
ENDBRANCH  20  22
ENDBRANCH  11  16
ENDBRANCH   9  11
ENDBRANCH   8   9
ENDBRANCH   7   8
ENDBRANCH   6   7
ENDBRANCH   5   6
ENDBRANCH   4   5
ENDBRANCH   3   4
ENDBRANCH   2   3
ENDBRANCH   1   2
BRANCH   1  28
ATOM     28  C   UNL A   1      37.398  32.440  30.734  1.00  0.00     0.188 C 
BRANCH  28  29
ATOM     29  O   UNL A   1      37.632  32.657  32.121  1.00  0.00    -0.376 OA
BRANCH  29  30
ATOM     30  C   UNL A   1      37.191  31.713  33.078  1.00  0.00     0.202 C 
BRANCH  30  31
ATOM     31  C   UNL A   1      38.127  30.571  33.531  1.00  0.00     0.261 C 
BRANCH  31  32
ATOM     32  O   UNL A   1      39.117  30.066  32.620  1.00  0.00    -0.460 OA
BRANCH  32  33
ATOM     33  C   UNL A   1      38.707  29.233  31.627  1.00  0.00     0.338 C 
ATOM     34  O   UNL A   1      37.574  28.921  31.372  1.00  0.00    -0.246 OA
BRANCH  33  35
ATOM     35  C   UNL A   1      39.889  28.906  30.761  1.00  0.00     0.060 A 
ATOM     36  C   UNL A   1      40.954  28.176  31.315  1.00  0.00     0.016 A 
ATOM     37  C   UNL A   1      39.960  29.314  29.428  1.00  0.00     0.016 A 
ATOM     38  C   UNL A   1      42.091  27.881  30.564  1.00  0.00     0.010 A 
ATOM     39  C   UNL A   1      41.131  29.079  28.692  1.00  0.00     0.010 A 
ATOM     40  C   UNL A   1      42.218  28.400  29.273  1.00  0.00    -0.014 A 
BRANCH  40  41
ATOM     41  C   UNL A   1      43.571  28.478  28.668  1.00  0.00     0.031 A 
ATOM     42  C   UNL A   1      44.051  27.286  27.877  1.00  0.00     0.074 A 
ATOM     43  C   UNL A   1      44.335  29.582  28.753  1.00  0.00     0.049 A 
ATOM     44  N   UNL A   1      45.207  27.080  27.302  1.00  0.00    -0.248 NA
ATOM     45  C   UNL A   1      43.092  26.178  27.711  1.00  0.00     0.031 C 
ATOM     46  C   UNL A   1      43.952  30.831  29.411  1.00  0.00     0.029 A 
ATOM     47  N   UNL A   1      45.602  29.825  28.280  1.00  0.00    -0.354 N 
ATOM     48  C   UNL A   1      45.122  25.815  26.729  1.00  0.00     0.074 A 
ATOM     49  C   UNL A   1      43.809  25.295  27.033  1.00  0.00     0.031 C 
ATOM     50  C   UNL A   1      44.975  31.702  29.319  1.00  0.00     0.029 A 
ATOM     51  C   UNL A   1      46.097  31.059  28.634  1.00  0.00     0.049 A 
ATOM     52  H   UNL A   1      46.109  29.176  27.739  1.00  0.00     0.167 HD
ATOM     53  C   UNL A   1      46.056  25.146  26.015  1.00  0.00     0.031 A 
ATOM     54  C   UNL A   1      47.324  31.590  28.458  1.00  0.00     0.031 A 
ATOM     55  C   UNL A   1      47.364  25.665  25.716  1.00  0.00     0.049 A 
ATOM     56  C   UNL A   1      48.381  30.784  27.741  1.00  0.00     0.074 A 
ATOM     57  C   UNL A   1      48.378  25.068  24.989  1.00  0.00     0.029 A 
ATOM     58  N   UNL A   1      47.841  26.897  26.134  1.00  0.00    -0.354 N 
ATOM     59  N   UNL A   1      48.285  29.595  27.193  1.00  0.00    -0.248 NA
ATOM     60  C   UNL A   1      49.714  31.393  27.618  1.00  0.00     0.031 C 
ATOM     61  C   UNL A   1      49.495  25.908  25.028  1.00  0.00     0.029 A 
ATOM     62  C   UNL A   1      49.149  27.062  25.714  1.00  0.00     0.049 A 
ATOM     63  H   UNL A   1      47.327  27.556  26.655  1.00  0.00     0.167 HD
ATOM     64  C   UNL A   1      49.534  29.330  26.637  1.00  0.00     0.074 A 
ATOM     65  C   UNL A   1      50.360  30.490  26.894  1.00  0.00     0.031 C 
ATOM     66  C   UNL A   1      49.959  28.225  25.974  1.00  0.00     0.031 A 
BRANCH  53  67
ATOM     67  C   UNL A   1      45.723  23.755  25.543  1.00  0.00    -0.014 A 
ATOM     68  C   UNL A   1      45.979  22.625  26.340  1.00  0.00     0.010 A 
ATOM     69  C   UNL A   1      45.072  23.586  24.306  1.00  0.00     0.010 A 
ATOM     70  C   UNL A   1      45.604  21.351  25.902  1.00  0.00     0.020 A 
ATOM     71  C   UNL A   1      44.669  22.319  23.877  1.00  0.00     0.020 A 
ATOM     72  C   UNL A   1      44.945  21.208  24.676  1.00  0.00     0.054 A 
BRANCH  72  73
ATOM     73  S   UNL A   1      44.411  19.551  24.164  1.00  0.00     0.124 S 
ATOM     74  O   UNL A   1      43.073  19.471  24.746  1.00  0.00    -0.237 OA
ATOM     75  O   UNL A   1      44.458  19.639  22.707  1.00  0.00    -0.237 OA
ATOM     76  O   UNL A   1      45.403  18.664  24.765  1.00  0.00    -0.744 OA
ENDBRANCH  72  73
ENDBRANCH  53  67
BRANCH  54  77
ATOM     77  C   UNL A   1      47.651  32.936  29.014  1.00  0.00    -0.014 A 
ATOM     78  C   UNL A   1      48.220  33.074  30.292  1.00  0.00     0.010 A 
ATOM     79  C   UNL A   1      47.352  34.096  28.275  1.00  0.00     0.010 A 
ATOM     80  C   UNL A   1      48.453  34.344  30.832  1.00  0.00     0.020 A 
ATOM     81  C   UNL A   1      47.617  35.366  28.796  1.00  0.00     0.020 A 
ATOM     82  C   UNL A   1      48.151  35.482  30.079  1.00  0.00     0.054 A 
BRANCH  82  83
ATOM     83  S   UNL A   1      48.487  37.117  30.791  1.00  0.00     0.124 S 
ATOM     84  O   UNL A   1      48.695  37.932  29.599  1.00  0.00    -0.237 OA
ATOM     85  O   UNL A   1      47.264  37.390  31.540  1.00  0.00    -0.237 OA
ATOM     86  O   UNL A   1      49.676  36.894  31.612  1.00  0.00    -0.744 OA
ENDBRANCH  82  83
ENDBRANCH  54  77
BRANCH  66  87
ATOM     87  C   UNL A   1      51.370  28.229  25.441  1.00  0.00    -0.014 A 
ATOM     88  C   UNL A   1      52.369  27.417  26.007  1.00  0.00     0.010 A 
ATOM     89  C   UNL A   1      51.684  29.014  24.316  1.00  0.00     0.010 A 
ATOM     90  C   UNL A   1      53.664  27.420  25.481  1.00  0.00     0.020 A 
ATOM     91  C   UNL A   1      52.968  28.993  23.765  1.00  0.00     0.020 A 
ATOM     92  C   UNL A   1      53.955  28.207  24.362  1.00  0.00     0.054 A 
BRANCH  92  93
ATOM     93  S   UNL A   1      55.633  28.161  23.675  1.00  0.00     0.124 S 
ATOM     94  O   UNL A   1      55.562  29.180  22.631  1.00  0.00    -0.237 OA
ATOM     95  O   UNL A   1      56.460  28.502  24.830  1.00  0.00    -0.237 OA
ATOM     96  O   UNL A   1      55.776  26.788  23.197  1.00  0.00    -0.744 OA
ENDBRANCH  92  93
ENDBRANCH  66  87
ENDBRANCH  40  41
ENDBRANCH  33  35
ENDBRANCH  32  33
ENDBRANCH  31  32
ENDBRANCH  30  31
ENDBRANCH  29  30
ENDBRANCH  28  29
ENDBRANCH   1  28
TORSDOF 27
ENDMDL
MODEL 3
REMARK VINA RESULT:      -8.5      4.612     10.228
REMARK SMILES CCC(CC)(NC(=O)Nc1ccccc1)C(=O)OCCOCCOCCOCCOC(=O)c1ccc(-c2c3nc(c(-c4ccc(S(=O)(=O)[O-])cc4)c4ccc([nH]4)c(-c4ccc(S(=O)(=O)[O-])cc4)c4nc(c(-c5ccc(S(=O)(=O)[O-])cc5)c5ccc2[nH]5)C=C4)C=C3)cc1
REMARK SMILES IDX 25 1 24 2 23 3 22 4 21 5 20 6 19 7 18 8 16 9 17 10 3 11 2 12
REMARK SMILES IDX 1 13 4 14 5 15 6 16 7 17 8 19 9 20 10 22 11 23 15 24 12 25
REMARK SMILES IDX 14 26 13 27 26 28 27 29 28 30 29 31 30 32 31 33 32 34 33 35
REMARK SMILES IDX 34 36 92 37 35 38 91 39 36 40 37 41 38 42 85 43 39 44 90 45
REMARK SMILES IDX 84 46 86 47 40 48 89 49 83 50 82 51 41 53 71 54 52 55 70 56
REMARK SMILES IDX 53 57 56 58 69 59 87 60 54 61 55 62 68 64 88 65 57 66 42 67
REMARK SMILES IDX 43 68 51 69 44 70 50 71 45 72 46 73 47 74 48 75 49 76 72 77
REMARK SMILES IDX 73 78 81 79 74 80 80 81 75 82 76 83 77 84 78 85 79 86 58 87
REMARK SMILES IDX 59 88 67 89 60 90 66 91 61 92 62 93 63 94 64 95 65 96
REMARK H PARENT 6 18 9 21 86 52 56 63
REMARK Flexibility Score: inf
ROOT
ATOM      1  C   UNL A   1      35.849  32.128  29.263  1.00  0.00     0.188 C 
ENDROOT
BRANCH   1   2
ATOM      2  O   UNL A   1      36.182  30.832  29.737  1.00  0.00    -0.377 OA
BRANCH   2   3
ATOM      3  C   UNL A   1      36.258  29.785  28.773  1.00  0.00     0.188 C 
BRANCH   3   4
ATOM      4  C   UNL A   1      37.434  29.839  27.734  1.00  0.00     0.188 C 
BRANCH   4   5
ATOM      5  O   UNL A   1      38.614  29.245  28.344  1.00  0.00    -0.376 OA
BRANCH   5   6
ATOM      6  C   UNL A   1      39.833  29.705  28.975  1.00  0.00     0.202 C 
BRANCH   6   7
ATOM      7  C   UNL A   1      40.683  28.722  30.085  1.00  0.00     0.261 C 
BRANCH   7   8
ATOM      8  O   UNL A   1      42.087  27.979  29.998  1.00  0.00    -0.461 OA
BRANCH   8   9
ATOM      9  C   UNL A   1      42.882  27.165  29.145  1.00  0.00     0.331 C 
ATOM     10  O   UNL A   1      44.100  27.306  29.041  1.00  0.00    -0.249 OA
BRANCH   9  11
ATOM     11  C   UNL A   1      42.044  26.112  28.153  1.00  0.00     0.139 C 
BRANCH  11  12
ATOM     12  C   UNL A   1      40.506  25.728  28.013  1.00  0.00     0.037 C 
ATOM     13  C   UNL A   1      39.515  25.835  29.136  1.00  0.00     0.007 C 
ENDBRANCH  11  12
BRANCH  11  14
ATOM     14  C   UNL A   1      42.883  24.811  28.188  1.00  0.00     0.037 C 
ATOM     15  C   UNL A   1      42.939  24.018  29.491  1.00  0.00     0.007 C 
ENDBRANCH  11  14
BRANCH  11  16
ATOM     16  N   UNL A   1      42.200  26.889  26.987  1.00  0.00    -0.322 N 
ATOM     17  C   UNL A   1      42.070  26.241  25.818  1.00  0.00     0.320 C 
ATOM     18  H   UNL A   1      42.394  27.853  27.026  1.00  0.00     0.166 HD
ATOM     19  O   UNL A   1      41.974  26.976  24.838  1.00  0.00    -0.248 OA
ATOM     20  N   UNL A   1      42.004  24.852  25.721  1.00  0.00    -0.308 N 
ATOM     21  H   UNL A   1      42.540  24.637  24.923  1.00  0.00     0.171 HD
BRANCH  20  22
ATOM     22  C   UNL A   1      41.537  23.541  26.211  1.00  0.00     0.042 A 
ATOM     23  C   UNL A   1      42.421  22.460  26.027  1.00  0.00     0.026 A 
ATOM     24  C   UNL A   1      40.226  23.117  26.503  1.00  0.00     0.026 A 
ATOM     25  C   UNL A   1      42.022  21.107  26.098  1.00  0.00     0.002 A 
ATOM     26  C   UNL A   1      39.836  21.781  26.704  1.00  0.00     0.002 A 
ATOM     27  C   UNL A   1      40.733  20.765  26.471  1.00  0.00     0.000 A 
ENDBRANCH  20  22
ENDBRANCH  11  16
ENDBRANCH   9  11
ENDBRANCH   8   9
ENDBRANCH   7   8
ENDBRANCH   6   7
ENDBRANCH   5   6
ENDBRANCH   4   5
ENDBRANCH   3   4
ENDBRANCH   2   3
ENDBRANCH   1   2
BRANCH   1  28
ATOM     28  C   UNL A   1      34.474  32.613  29.747  1.00  0.00     0.188 C 
BRANCH  28  29
ATOM     29  O   UNL A   1      34.271  33.981  30.078  1.00  0.00    -0.376 OA
BRANCH  29  30
ATOM     30  C   UNL A   1      34.670  34.480  31.341  1.00  0.00     0.202 C 
BRANCH  30  31
ATOM     31  C   UNL A   1      34.137  33.830  32.637  1.00  0.00     0.261 C 
BRANCH  31  32
ATOM     32  O   UNL A   1      34.916  32.815  33.290  1.00  0.00    -0.460 OA
BRANCH  32  33
ATOM     33  C   UNL A   1      35.821  33.207  34.225  1.00  0.00     0.338 C 
ATOM     34  O   UNL A   1      35.592  33.815  35.238  1.00  0.00    -0.246 OA
BRANCH  33  35
ATOM     35  C   UNL A   1      37.148  32.588  33.894  1.00  0.00     0.060 A 
ATOM     36  C   UNL A   1      38.268  32.928  34.670  1.00  0.00     0.016 A 
ATOM     37  C   UNL A   1      37.298  31.692  32.834  1.00  0.00     0.016 A 
ATOM     38  C   UNL A   1      39.530  32.411  34.379  1.00  0.00     0.010 A 
ATOM     39  C   UNL A   1      38.576  31.225  32.496  1.00  0.00     0.010 A 
ATOM     40  C   UNL A   1      39.703  31.619  33.242  1.00  0.00    -0.014 A 
BRANCH  40  41
ATOM     41  C   UNL A   1      41.072  31.458  32.688  1.00  0.00     0.031 A 
ATOM     42  C   UNL A   1      41.619  32.583  31.844  1.00  0.00     0.074 A 
ATOM     43  C   UNL A   1      41.839  30.388  32.965  1.00  0.00     0.049 A 
ATOM     44  N   UNL A   1      42.754  32.663  31.201  1.00  0.00    -0.248 NA
ATOM     45  C   UNL A   1      40.769  33.780  31.713  1.00  0.00     0.031 C 
ATOM     46  C   UNL A   1      41.462  29.276  33.838  1.00  0.00     0.029 A 
ATOM     47  N   UNL A   1      43.101  30.064  32.532  1.00  0.00    -0.354 N 
ATOM     48  C   UNL A   1      42.744  33.904  30.573  1.00  0.00     0.074 A 
ATOM     49  C   UNL A   1      41.488  34.539  30.900  1.00  0.00     0.031 C 
ATOM     50  C   UNL A   1      42.467  28.380  33.857  1.00  0.00     0.029 A 
ATOM     51  C   UNL A   1      43.536  28.834  32.968  1.00  0.00     0.049 A 
ATOM     52  H   UNL A   1      43.644  30.657  31.963  1.00  0.00     0.167 HD
ATOM     53  C   UNL A   1      43.695  34.464  29.790  1.00  0.00     0.031 A 
ATOM     54  C   UNL A   1      44.650  28.140  32.654  1.00  0.00     0.031 A 
ATOM     55  C   UNL A   1      44.943  33.829  29.463  1.00  0.00     0.049 A 
ATOM     56  C   UNL A   1      45.652  28.747  31.701  1.00  0.00     0.074 A 
ATOM     57  C   UNL A   1      45.978  34.320  28.687  1.00  0.00     0.029 A 
ATOM     58  N   UNL A   1      45.322  32.564  29.884  1.00  0.00    -0.354 N 
ATOM     59  N   UNL A   1      45.637  29.926  31.123  1.00  0.00    -0.248 NA
ATOM     60  C   UNL A   1      46.826  27.928  31.358  1.00  0.00     0.031 C 
ATOM     61  C   UNL A   1      46.952  33.323  28.580  1.00  0.00     0.029 A 
ATOM     62  C   UNL A   1      46.558  32.242  29.353  1.00  0.00     0.049 A 
ATOM     63  H   UNL A   1      44.790  31.981  30.473  1.00  0.00     0.167 HD
ATOM     64  C   UNL A   1      46.810  29.998  30.375  1.00  0.00     0.074 A 
ATOM     65  C   UNL A   1      47.521  28.757  30.591  1.00  0.00     0.031 C 
ATOM     66  C   UNL A   1      47.257  31.002  29.580  1.00  0.00     0.031 A 
BRANCH  53  67
ATOM     67  C   UNL A   1      43.410  35.815  29.189  1.00  0.00    -0.014 A 
ATOM     68  C   UNL A   1      42.557  35.964  28.080  1.00  0.00     0.010 A 
ATOM     69  C   UNL A   1      43.951  36.966  29.794  1.00  0.00     0.010 A 
ATOM     70  C   UNL A   1      42.263  37.236  27.580  1.00  0.00     0.020 A 
ATOM     71  C   UNL A   1      43.636  38.240  29.315  1.00  0.00     0.020 A 
ATOM     72  C   UNL A   1      42.799  38.366  28.206  1.00  0.00     0.054 A 
BRANCH  72  73
ATOM     73  S   UNL A   1      42.347  40.006  27.576  1.00  0.00     0.124 S 
ATOM     74  O   UNL A   1      42.008  39.713  26.186  1.00  0.00    -0.237 OA
ATOM     75  O   UNL A   1      41.222  40.376  28.432  1.00  0.00    -0.237 OA
ATOM     76  O   UNL A   1      43.558  40.800  27.767  1.00  0.00    -0.744 OA
ENDBRANCH  72  73
ENDBRANCH  53  67
BRANCH  54  77
ATOM     77  C   UNL A   1      44.862  26.767  33.197  1.00  0.00    -0.014 A 
ATOM     78  C   UNL A   1      44.310  25.641  32.561  1.00  0.00     0.010 A 
ATOM     79  C   UNL A   1      45.590  26.584  34.389  1.00  0.00     0.010 A 
ATOM     80  C   UNL A   1      44.453  24.367  33.121  1.00  0.00     0.020 A 
ATOM     81  C   UNL A   1      45.767  25.308  34.931  1.00  0.00     0.020 A 
ATOM     82  C   UNL A   1      45.183  24.209  34.303  1.00  0.00     0.054 A 
BRANCH  82  83
ATOM     83  S   UNL A   1      45.378  22.543  34.995  1.00  0.00     0.124 S 
ATOM     84  O   UNL A   1      46.707  22.170  34.522  1.00  0.00    -0.237 OA
ATOM     85  O   UNL A   1      45.260  22.784  36.430  1.00  0.00    -0.237 OA
ATOM     86  O   UNL A   1      44.270  21.795  34.403  1.00  0.00    -0.744 OA
ENDBRANCH  82  83
ENDBRANCH  54  77
BRANCH  66  87
ATOM     87  C   UNL A   1      48.597  30.822  28.912  1.00  0.00    -0.014 A 
ATOM     88  C   UNL A   1      48.704  30.288  27.616  1.00  0.00     0.010 A 
ATOM     89  C   UNL A   1      49.764  31.251  29.573  1.00  0.00     0.010 A 
ATOM     90  C   UNL A   1      49.956  30.152  27.009  1.00  0.00     0.020 A 
ATOM     91  C   UNL A   1      51.013  31.150  28.956  1.00  0.00     0.020 A 
ATOM     92  C   UNL A   1      51.103  30.585  27.682  1.00  0.00     0.054 A 
BRANCH  92  93
ATOM     93  S   UNL A   1      52.710  30.434  26.855  1.00  0.00     0.124 S 
ATOM     94  O   UNL A   1      53.575  29.997  27.948  1.00  0.00    -0.237 OA
ATOM     95  O   UNL A   1      52.446  29.434  25.824  1.00  0.00    -0.237 OA
ATOM     96  O   UNL A   1      52.972  31.782  26.356  1.00  0.00    -0.744 OA
ENDBRANCH  92  93
ENDBRANCH  66  87
ENDBRANCH  40  41
ENDBRANCH  33  35
ENDBRANCH  32  33
ENDBRANCH  31  32
ENDBRANCH  30  31
ENDBRANCH  29  30
ENDBRANCH  28  29
ENDBRANCH   1  28
TORSDOF 27
ENDMDL
