MODEL 1
REMARK VINA RESULT:      -9.3      0.000      0.000
REMARK SMILES Cc1cccc(S(=O)(=O)Nc2cc(C(=O)OCCOCCOCCOCCOC(=O)c3ccc(-c4c5nc(c(-c6ccc(S(=O)(=O)[O-])cc6)c6ccc([nH]6)c(-c6ccc(S(=O)(=O)[O-])cc6)c6nc(c(-c7ccc(S(=O)(=O)[O-])cc7)c7ccc4[nH]7)C=C6)C=C5)cc3)ccc2N2CCC[C@H](C[NH+]3CCCC3)C2)c1
REMARK SMILES IDX 22 1 21 2 20 3 19 4 18 5 17 6 16 7 14 8 15 9 13 10 11 11
REMARK SMILES IDX 12 12 93 13 92 14 91 15 10 16 7 18 8 19 9 20 6 21 1 22 2 23
REMARK SMILES IDX 3 24 106 25 4 26 5 27 94 28 95 29 105 30 96 31 98 32 97 33
REMARK SMILES IDX 99 34 100 35 101 36 104 37 102 39 103 40 23 41 24 42 25 43
REMARK SMILES IDX 26 44 27 45 28 46 29 47 30 48 31 49 32 50 90 51 33 52 89 53
REMARK SMILES IDX 34 54 35 55 36 56 83 57 37 58 88 59 82 60 84 61 38 62 87 63
REMARK SMILES IDX 81 64 80 65 39 67 69 68 50 69 68 70 51 71 54 72 67 73 85 74
REMARK SMILES IDX 52 75 53 76 66 78 86 79 55 80 40 81 41 82 49 83 42 84 48 85
REMARK SMILES IDX 43 86 44 87 45 88 46 89 47 90 70 91 71 92 79 93 72 94 78 95
REMARK SMILES IDX 73 96 74 97 75 98 76 99 77 100 56 101 57 102 65 103 58 104
REMARK SMILES IDX 64 105 59 106 60 107 61 108 62 109 63 110
REMARK H PARENT 10 17 100 38 84 66 54 77
REMARK Flexibility Score: inf
ROOT
ATOM      1  O   UNL A   1      36.045  24.189  25.261  1.00  0.00    -0.377 OA
ENDROOT
BRANCH   1   2
ATOM      2  C   UNL A   1      34.925  24.851  25.853  1.00  0.00     0.188 C 
BRANCH   2   3
ATOM      3  C   UNL A   1      33.456  25.392  25.246  1.00  0.00     0.188 C 
BRANCH   3   4
ATOM      4  O   UNL A   1      32.679  25.744  23.648  1.00  0.00    -0.376 OA
BRANCH   4   5
ATOM      5  C   UNL A   1      32.254  27.186  22.721  1.00  0.00     0.202 C 
BRANCH   5   6
ATOM      6  C   UNL A   1      32.564  28.989  23.157  1.00  0.00     0.261 C 
BRANCH   6   7
ATOM      7  O   UNL A   1      33.329  29.607  24.684  1.00  0.00    -0.460 OA
BRANCH   7   8
ATOM      8  C   UNL A   1      33.169  29.924  26.124  1.00  0.00     0.338 C 
ATOM      9  O   UNL A   1      32.090  30.143  26.690  1.00  0.00    -0.246 OA
BRANCH   8  10
ATOM     10  C   UNL A   1      34.307  29.967  27.257  1.00  0.00     0.062 A 
ATOM     11  C   UNL A   1      35.424  30.547  29.427  1.00  0.00     0.073 A 
ATOM     12  C   UNL A   1      34.465  30.745  28.429  1.00  0.00     0.044 A 
ATOM     13  C   UNL A   1      36.553  29.808  29.111  1.00  0.00     0.061 A 
ATOM     14  C   UNL A   1      36.598  29.253  27.827  1.00  0.00     0.029 A 
ATOM     15  C   UNL A   1      35.476  29.250  26.968  1.00  0.00     0.018 A 
BRANCH  11  16
ATOM     16  N   UNL A   1      35.309  31.249  30.698  1.00  0.00    -0.277 N 
ATOM     17  H   UNL A   1      35.288  30.713  31.523  1.00  0.00     0.180 HD
BRANCH  16  18
ATOM     18  S   UNL A   1      35.210  32.961  30.843  1.00  0.00     0.261 S 
ATOM     19  O   UNL A   1      34.222  33.216  31.874  1.00  0.00    -0.201 OA
ATOM     20  O   UNL A   1      34.970  33.495  29.516  1.00  0.00    -0.201 OA
BRANCH  18  21
ATOM     21  C   UNL A   1      36.723  33.697  31.394  1.00  0.00     0.088 A 
ATOM     22  C   UNL A   1      39.956  34.712  29.846  1.00  0.00     0.044 C 
ATOM     23  C   UNL A   1      38.908  34.564  30.892  1.00  0.00    -0.050 A 
ATOM     24  C   UNL A   1      39.211  34.626  32.253  1.00  0.00     0.003 A 
ATOM     25  C   UNL A   1      37.644  34.160  30.474  1.00  0.00     0.025 A 
ATOM     26  C   UNL A   1      38.238  34.296  33.193  1.00  0.00     0.002 A 
ATOM     27  C   UNL A   1      36.997  33.812  32.766  1.00  0.00     0.022 A 
ENDBRANCH  18  21
ENDBRANCH  16  18
ENDBRANCH  11  16
BRANCH  13  28
ATOM     28  N   UNL A   1      37.585  29.705  30.022  1.00  0.00    -0.369 N 
ATOM     29  C   UNL A   1      38.292  30.894  30.471  1.00  0.00     0.116 C 
ATOM     30  C   UNL A   1      38.247  28.410  30.161  1.00  0.00     0.126 C 
ATOM     31  C   UNL A   1      39.697  30.932  29.878  1.00  0.00     0.022 C 
ATOM     32  C   UNL A   1      39.622  28.406  29.481  1.00  0.00     0.064 C 
ATOM     33  C   UNL A   1      40.419  29.592  30.053  1.00  0.00     0.013 C 
BRANCH  32  34
ATOM     34  C   UNL A   1      39.451  28.370  27.940  1.00  0.00     0.267 C 
BRANCH  34  35
ATOM     35  N   UNL A   1      40.466  27.770  27.078  1.00  0.00    -0.335 N 
ATOM     36  C   UNL A   1      41.514  27.038  27.771  1.00  0.00     0.262 C 
ATOM     37  C   UNL A   1      41.091  28.665  26.114  1.00  0.00     0.262 C 
ATOM     38  H   UNL A   1      39.886  27.107  26.564  1.00  0.00     0.348 HD
ATOM     39  C   UNL A   1      42.680  28.003  27.822  1.00  0.00     0.067 C 
ATOM     40  C   UNL A   1      42.542  28.822  26.549  1.00  0.00     0.067 C 
ENDBRANCH  34  35
ENDBRANCH  32  34
ENDBRANCH  13  28
ENDBRANCH   8  10
ENDBRANCH   7   8
ENDBRANCH   6   7
ENDBRANCH   5   6
ENDBRANCH   4   5
ENDBRANCH   3   4
ENDBRANCH   2   3
ENDBRANCH   1   2
BRANCH   1  41
ATOM     41  C   UNL A   1      36.103  22.838  24.832  1.00  0.00     0.188 C 
BRANCH  41  42
ATOM     42  C   UNL A   1      36.670  21.783  25.750  1.00  0.00     0.188 C 
BRANCH  42  43
ATOM     43  O   UNL A   1      37.985  21.462  25.328  1.00  0.00    -0.376 OA
BRANCH  43  44
ATOM     44  C   UNL A   1      39.001  22.249  25.916  1.00  0.00     0.202 C 
BRANCH  44  45
ATOM     45  C   UNL A   1      40.302  21.474  26.155  1.00  0.00     0.261 C 
BRANCH  45  46
ATOM     46  O   UNL A   1      41.464  22.335  26.157  1.00  0.00    -0.460 OA
BRANCH  46  47
ATOM     47  C   UNL A   1      42.675  21.757  25.867  1.00  0.00     0.338 C 
ATOM     48  O   UNL A   1      42.774  20.634  25.366  1.00  0.00    -0.246 OA
BRANCH  47  49
ATOM     49  C   UNL A   1      43.774  22.726  26.091  1.00  0.00     0.060 A 
ATOM     50  C   UNL A   1      45.116  22.483  26.359  1.00  0.00     0.016 A 
ATOM     51  C   UNL A   1      43.430  24.033  26.094  1.00  0.00     0.016 A 
ATOM     52  C   UNL A   1      45.958  23.449  27.050  1.00  0.00     0.010 A 
ATOM     53  C   UNL A   1      44.272  24.920  26.756  1.00  0.00     0.010 A 
ATOM     54  C   UNL A   1      45.469  24.658  27.571  1.00  0.00    -0.014 A 
BRANCH  54  55
ATOM     55  C   UNL A   1      46.201  25.658  28.982  1.00  0.00     0.031 A 
ATOM     56  C   UNL A   1      45.092  26.568  30.388  1.00  0.00     0.074 A 
ATOM     57  C   UNL A   1      47.607  25.827  28.707  1.00  0.00     0.049 A 
ATOM     58  N   UNL A   1      44.980  27.931  30.504  1.00  0.00    -0.248 NA
ATOM     59  C   UNL A   1      43.629  26.312  31.134  1.00  0.00     0.031 C 
ATOM     60  C   UNL A   1      48.737  26.521  29.369  1.00  0.00     0.029 A 
ATOM     61  N   UNL A   1      48.336  25.512  27.537  1.00  0.00    -0.354 N 
ATOM     62  C   UNL A   1      44.016  28.509  31.268  1.00  0.00     0.074 A 
ATOM     63  C   UNL A   1      43.076  27.484  31.467  1.00  0.00     0.031 C 
ATOM     64  C   UNL A   1      49.918  26.503  28.769  1.00  0.00     0.029 A 
ATOM     65  C   UNL A   1      49.565  26.206  27.456  1.00  0.00     0.049 A 
ATOM     66  H   UNL A   1      48.022  24.878  26.852  1.00  0.00     0.167 HD
ATOM     67  C   UNL A   1      44.099  29.793  31.720  1.00  0.00     0.031 A 
ATOM     68  C   UNL A   1      49.802  27.205  26.571  1.00  0.00     0.031 A 
ATOM     69  C   UNL A   1      45.441  30.374  31.572  1.00  0.00     0.049 A 
ATOM     70  C   UNL A   1      49.569  28.671  27.095  1.00  0.00     0.074 A 
ATOM     71  C   UNL A   1      46.450  30.563  32.493  1.00  0.00     0.029 A 
ATOM     72  N   UNL A   1      46.026  30.656  30.331  1.00  0.00    -0.354 N 
ATOM     73  N   UNL A   1      48.835  29.059  28.136  1.00  0.00    -0.248 NA
ATOM     74  C   UNL A   1      50.238  29.815  26.485  1.00  0.00     0.031 C 
ATOM     75  C   UNL A   1      47.616  30.941  31.790  1.00  0.00     0.029 A 
ATOM     76  C   UNL A   1      47.423  30.796  30.416  1.00  0.00     0.049 A 
ATOM     77  H   UNL A   1      45.516  30.747  29.494  1.00  0.00     0.167 HD
ATOM     78  C   UNL A   1      48.896  30.439  28.324  1.00  0.00     0.074 A 
ATOM     79  C   UNL A   1      49.793  30.842  27.233  1.00  0.00     0.031 C 
ATOM     80  C   UNL A   1      48.285  31.242  29.286  1.00  0.00     0.031 A 
BRANCH  67  81
ATOM     81  C   UNL A   1      43.025  30.274  32.688  1.00  0.00    -0.014 A 
ATOM     82  C   UNL A   1      42.371  31.501  32.483  1.00  0.00     0.010 A 
ATOM     83  C   UNL A   1      42.711  29.587  33.884  1.00  0.00     0.010 A 
ATOM     84  C   UNL A   1      41.560  32.085  33.469  1.00  0.00     0.020 A 
ATOM     85  C   UNL A   1      41.928  30.176  34.895  1.00  0.00     0.020 A 
ATOM     86  C   UNL A   1      41.375  31.438  34.688  1.00  0.00     0.054 A 
BRANCH  86  87
ATOM     87  S   UNL A   1      40.428  32.281  35.989  1.00  0.00     0.124 S 
ATOM     88  O   UNL A   1      41.025  31.749  37.212  1.00  0.00    -0.237 OA
ATOM     89  O   UNL A   1      40.705  33.690  35.717  1.00  0.00    -0.237 OA
ATOM     90  O   UNL A   1      39.049  31.863  35.745  1.00  0.00    -0.744 OA
ENDBRANCH  86  87
ENDBRANCH  67  81
BRANCH  68  91
ATOM     91  C   UNL A   1      49.989  26.504  25.263  1.00  0.00    -0.014 A 
ATOM     92  C   UNL A   1      48.800  26.405  24.461  1.00  0.00     0.010 A 
ATOM     93  C   UNL A   1      51.210  26.666  24.597  1.00  0.00     0.010 A 
ATOM     94  C   UNL A   1      48.809  26.768  23.106  1.00  0.00     0.020 A 
ATOM     95  C   UNL A   1      51.223  26.970  23.220  1.00  0.00     0.020 A 
ATOM     96  C   UNL A   1      50.019  27.105  22.511  1.00  0.00     0.054 A 
BRANCH  96  97
ATOM     97  S   UNL A   1      49.967  27.914  20.879  1.00  0.00     0.124 S 
ATOM     98  O   UNL A   1      49.635  29.297  21.205  1.00  0.00    -0.237 OA
ATOM     99  O   UNL A   1      51.334  27.695  20.399  1.00  0.00    -0.237 OA
ATOM    100  O   UNL A   1      48.925  27.170  20.177  1.00  0.00    -0.744 OA
ENDBRANCH  96  97
ENDBRANCH  68  91
BRANCH  80 101
ATOM    101  C   UNL A   1      48.508  32.750  29.330  1.00  0.00    -0.014 A 
ATOM    102  C   UNL A   1      49.439  33.398  30.153  1.00  0.00     0.010 A 
ATOM    103  C   UNL A   1      47.610  33.572  28.603  1.00  0.00     0.010 A 
ATOM    104  C   UNL A   1      49.571  34.795  30.122  1.00  0.00     0.020 A 
ATOM    105  C   UNL A   1      47.686  34.961  28.616  1.00  0.00     0.020 A 
ATOM    106  C   UNL A   1      48.711  35.562  29.330  1.00  0.00     0.054 A 
BRANCH 106 107
ATOM    107  S   UNL A   1      48.944  37.350  29.221  1.00  0.00     0.124 S 
ATOM    108  O   UNL A   1      48.337  37.830  30.459  1.00  0.00    -0.237 OA
ATOM    109  O   UNL A   1      50.399  37.452  29.153  1.00  0.00    -0.237 OA
ATOM    110  O   UNL A   1      48.234  37.721  27.999  1.00  0.00    -0.744 OA
ENDBRANCH 106 107
ENDBRANCH  80 101
ENDBRANCH  54  55
ENDBRANCH  47  49
ENDBRANCH  46  47
ENDBRANCH  45  46
ENDBRANCH  44  45
ENDBRANCH  43  44
ENDBRANCH  42  43
ENDBRANCH  41  42
ENDBRANCH   1  41
TORSDOF 29
ENDMDL
MODEL 2
REMARK VINA RESULT:      -9.1      5.393     10.840
REMARK SMILES Cc1cccc(S(=O)(=O)Nc2cc(C(=O)OCCOCCOCCOCCOC(=O)c3ccc(-c4c5nc(c(-c6ccc(S(=O)(=O)[O-])cc6)c6ccc([nH]6)c(-c6ccc(S(=O)(=O)[O-])cc6)c6nc(c(-c7ccc(S(=O)(=O)[O-])cc7)c7ccc4[nH]7)C=C6)C=C5)cc3)ccc2N2CCC[C@H](C[NH+]3CCCC3)C2)c1
REMARK SMILES IDX 22 1 21 2 20 3 19 4 18 5 17 6 16 7 14 8 15 9 13 10 11 11
REMARK SMILES IDX 12 12 93 13 92 14 91 15 10 16 7 18 8 19 9 20 6 21 1 22 2 23
REMARK SMILES IDX 3 24 106 25 4 26 5 27 94 28 95 29 105 30 96 31 98 32 97 33
REMARK SMILES IDX 99 34 100 35 101 36 104 37 102 39 103 40 23 41 24 42 25 43
REMARK SMILES IDX 26 44 27 45 28 46 29 47 30 48 31 49 32 50 90 51 33 52 89 53
REMARK SMILES IDX 34 54 35 55 36 56 83 57 37 58 88 59 82 60 84 61 38 62 87 63
REMARK SMILES IDX 81 64 80 65 39 67 69 68 50 69 68 70 51 71 54 72 67 73 85 74
REMARK SMILES IDX 52 75 53 76 66 78 86 79 55 80 40 81 41 82 49 83 42 84 48 85
REMARK SMILES IDX 43 86 44 87 45 88 46 89 47 90 70 91 71 92 79 93 72 94 78 95
REMARK SMILES IDX 73 96 74 97 75 98 76 99 77 100 56 101 57 102 65 103 58 104
REMARK SMILES IDX 64 105 59 106 60 107 61 108 62 109 63 110
REMARK H PARENT 10 17 100 38 84 66 54 77
REMARK Flexibility Score: inf
ROOT
ATOM      1  O   UNL A   1      40.474  34.362  31.497  1.00  0.00    -0.377 OA
ENDROOT
BRANCH   1   2
ATOM      2  C   UNL A   1      40.971  33.714  30.323  1.00  0.00     0.188 C 
BRANCH   2   3
ATOM      3  C   UNL A   1      42.372  33.896  29.416  1.00  0.00     0.188 C 
BRANCH   3   4
ATOM      4  O   UNL A   1      43.292  35.200  28.559  1.00  0.00    -0.376 OA
BRANCH   4   5
ATOM      5  C   UNL A   1      44.972  35.740  28.478  1.00  0.00     0.202 C 
BRANCH   5   6
ATOM      6  C   UNL A   1      46.391  35.000  27.492  1.00  0.00     0.261 C 
BRANCH   6   7
ATOM      7  O   UNL A   1      47.602  35.920  26.499  1.00  0.00    -0.460 OA
BRANCH   7   8
ATOM      8  C   UNL A   1      48.061  37.234  25.987  1.00  0.00     0.338 C 
ATOM      9  O   UNL A   1      49.023  37.406  25.227  1.00  0.00    -0.246 OA
BRANCH   8  10
ATOM     10  C   UNL A   1      47.387  38.673  26.220  1.00  0.00     0.062 A 
ATOM     11  C   UNL A   1      46.601  40.715  27.446  1.00  0.00     0.073 A 
ATOM     12  C   UNL A   1      47.018  39.382  27.388  1.00  0.00     0.044 A 
ATOM     13  C   UNL A   1      46.133  41.305  26.283  1.00  0.00     0.061 A 
ATOM     14  C   UNL A   1      46.188  40.527  25.121  1.00  0.00     0.029 A 
ATOM     15  C   UNL A   1      46.879  39.296  25.072  1.00  0.00     0.018 A 
BRANCH  11  16
ATOM     16  N   UNL A   1      46.507  41.394  28.732  1.00  0.00    -0.277 N 
ATOM     17  H   UNL A   1      46.968  42.257  28.835  1.00  0.00     0.180 HD
BRANCH  16  18
ATOM     18  S   UNL A   1      45.633  40.776  30.080  1.00  0.00     0.261 S 
ATOM     19  O   UNL A   1      45.847  41.721  31.160  1.00  0.00    -0.201 OA
ATOM     20  O   UNL A   1      46.057  39.403  30.277  1.00  0.00    -0.201 OA
BRANCH  18  21
ATOM     21  C   UNL A   1      43.887  40.708  29.800  1.00  0.00     0.088 A 
ATOM     22  C   UNL A   1      41.635  39.886  26.949  1.00  0.00     0.044 C 
ATOM     23  C   UNL A   1      42.040  40.227  28.340  1.00  0.00    -0.050 A 
ATOM     24  C   UNL A   1      41.154  40.823  29.239  1.00  0.00     0.003 A 
ATOM     25  C   UNL A   1      43.390  40.117  28.655  1.00  0.00     0.025 A 
ATOM     26  C   UNL A   1      41.626  41.295  30.462  1.00  0.00     0.002 A 
ATOM     27  C   UNL A   1      42.997  41.256  30.738  1.00  0.00     0.022 A 
ENDBRANCH  18  21
ENDBRANCH  16  18
ENDBRANCH  11  16
BRANCH  13  28
ATOM     28  N   UNL A   1      45.585  42.572  26.326  1.00  0.00    -0.369 N 
ATOM     29  C   UNL A   1      44.198  42.787  25.948  1.00  0.00     0.116 C 
ATOM     30  C   UNL A   1      46.498  43.712  26.296  1.00  0.00     0.126 C 
ATOM     31  C   UNL A   1      44.119  43.515  24.609  1.00  0.00     0.022 C 
ATOM     32  C   UNL A   1      46.501  44.392  24.921  1.00  0.00     0.064 C 
ATOM     33  C   UNL A   1      45.041  44.737  24.578  1.00  0.00     0.013 C 
BRANCH  32  34
ATOM     34  C   UNL A   1      47.260  43.511  23.895  1.00  0.00     0.267 C 
BRANCH  34  35
ATOM     35  N   UNL A   1      46.965  43.584  22.467  1.00  0.00    -0.335 N 
ATOM     36  C   UNL A   1      46.238  42.448  21.925  1.00  0.00     0.262 C 
ATOM     37  C   UNL A   1      48.101  43.859  21.597  1.00  0.00     0.262 C 
ATOM     38  H   UNL A   1      46.355  44.401  22.457  1.00  0.00     0.348 HD
ATOM     39  C   UNL A   1      47.302  41.592  21.271  1.00  0.00     0.067 C 
ATOM     40  C   UNL A   1      48.336  42.594  20.783  1.00  0.00     0.067 C 
ENDBRANCH  34  35
ENDBRANCH  32  34
ENDBRANCH  13  28
ENDBRANCH   8  10
ENDBRANCH   7   8
ENDBRANCH   6   7
ENDBRANCH   5   6
ENDBRANCH   4   5
ENDBRANCH   3   4
ENDBRANCH   2   3
ENDBRANCH   1   2
BRANCH   1  41
ATOM     41  C   UNL A   1      39.115  34.481  31.889  1.00  0.00     0.188 C 
BRANCH  41  42
ATOM     42  C   UNL A   1      38.119  33.429  31.468  1.00  0.00     0.188 C 
BRANCH  42  43
ATOM     43  O   UNL A   1      37.074  34.049  30.737  1.00  0.00    -0.376 OA
BRANCH  43  44
ATOM     44  C   UNL A   1      37.141  33.862  29.338  1.00  0.00     0.202 C 
BRANCH  44  45
ATOM     45  C   UNL A   1      35.910  33.150  28.765  1.00  0.00     0.261 C 
BRANCH  45  46
ATOM     46  O   UNL A   1      36.261  32.137  27.794  1.00  0.00    -0.460 OA
BRANCH  46  47
ATOM     47  C   UNL A   1      35.817  30.860  28.028  1.00  0.00     0.338 C 
ATOM     48  O   UNL A   1      34.763  30.425  27.558  1.00  0.00    -0.246 OA
BRANCH  47  49
ATOM     49  C   UNL A   1      36.845  30.084  28.762  1.00  0.00     0.060 A 
ATOM     50  C   UNL A   1      36.691  29.230  29.848  1.00  0.00     0.016 A 
ATOM     51  C   UNL A   1      38.126  30.263  28.368  1.00  0.00     0.016 A 
ATOM     52  C   UNL A   1      37.777  28.949  30.775  1.00  0.00     0.010 A 
ATOM     53  C   UNL A   1      39.129  29.968  29.284  1.00  0.00     0.010 A 
ATOM     54  C   UNL A   1      39.032  29.572  30.698  1.00  0.00    -0.014 A 
BRANCH  54  55
ATOM     55  C   UNL A   1      40.255  29.826  32.101  1.00  0.00     0.031 A 
ATOM     56  C   UNL A   1      39.851  30.917  33.740  1.00  0.00     0.074 A 
ATOM     57  C   UNL A   1      41.531  29.322  31.657  1.00  0.00     0.049 A 
ATOM     58  N   UNL A   1      40.457  32.114  34.024  1.00  0.00    -0.248 NA
ATOM     59  C   UNL A   1      38.511  31.297  34.645  1.00  0.00     0.031 C 
ATOM     60  C   UNL A   1      42.895  29.244  32.234  1.00  0.00     0.029 A 
ATOM     61  N   UNL A   1      41.926  28.888  30.371  1.00  0.00    -0.354 N 
ATOM     62  C   UNL A   1      39.970  32.957  34.974  1.00  0.00     0.074 A 
ATOM     63  C   UNL A   1      38.653  32.514  35.181  1.00  0.00     0.031 C 
ATOM     64  C   UNL A   1      43.863  28.745  31.480  1.00  0.00     0.029 A 
ATOM     65  C   UNL A   1      43.330  28.886  30.202  1.00  0.00     0.049 A 
ATOM     66  H   UNL A   1      41.293  28.618  29.668  1.00  0.00     0.167 HD
ATOM     67  C   UNL A   1      40.723  33.935  35.553  1.00  0.00     0.031 A 
ATOM     68  C   UNL A   1      43.990  29.768  29.413  1.00  0.00     0.031 A 
ATOM     69  C   UNL A   1      42.162  33.791  35.290  1.00  0.00     0.049 A 
ATOM     70  C   UNL A   1      44.568  31.047  30.127  1.00  0.00     0.074 A 
ATOM     71  C   UNL A   1      43.180  33.299  36.081  1.00  0.00     0.029 A 
ATOM     72  N   UNL A   1      42.733  33.950  34.022  1.00  0.00    -0.354 N 
ATOM     73  N   UNL A   1      44.198  31.566  31.296  1.00  0.00    -0.248 NA
ATOM     74  C   UNL A   1      45.688  31.793  29.566  1.00  0.00     0.031 C 
ATOM     75  C   UNL A   1      44.330  33.162  35.273  1.00  0.00     0.029 A 
ATOM     76  C   UNL A   1      44.008  33.364  33.930  1.00  0.00     0.049 A 
ATOM     77  H   UNL A   1      42.291  34.420  33.278  1.00  0.00     0.167 HD
ATOM     78  C   UNL A   1      44.965  32.681  31.630  1.00  0.00     0.074 A 
ATOM     79  C   UNL A   1      45.875  32.764  30.480  1.00  0.00     0.031 C 
ATOM     80  C   UNL A   1      44.908  33.507  32.752  1.00  0.00     0.031 A 
BRANCH  67  81
ATOM     81  C   UNL A   1      40.104  34.714  36.707  1.00  0.00    -0.014 A 
ATOM     82  C   UNL A   1      40.512  36.030  36.985  1.00  0.00     0.010 A 
ATOM     83  C   UNL A   1      39.191  34.135  37.618  1.00  0.00     0.010 A 
ATOM     84  C   UNL A   1      40.146  36.687  38.171  1.00  0.00     0.020 A 
ATOM     85  C   UNL A   1      38.843  34.768  38.827  1.00  0.00     0.020 A 
ATOM     86  C   UNL A   1      39.347  36.037  39.107  1.00  0.00     0.054 A 
BRANCH  86  87
ATOM     87  S   UNL A   1      39.002  36.864  40.686  1.00  0.00     0.124 S 
ATOM     88  O   UNL A   1      40.340  37.075  41.234  1.00  0.00    -0.237 OA
ATOM     89  O   UNL A   1      38.300  38.073  40.262  1.00  0.00    -0.237 OA
ATOM     90  O   UNL A   1      38.184  35.898  41.417  1.00  0.00    -0.744 OA
ENDBRANCH  86  87
ENDBRANCH  67  81
BRANCH  68  91
ATOM     91  C   UNL A   1      43.714  29.297  28.020  1.00  0.00    -0.014 A 
ATOM     92  C   UNL A   1      44.458  28.134  27.622  1.00  0.00     0.010 A 
ATOM     93  C   UNL A   1      42.412  29.438  27.523  1.00  0.00     0.010 A 
ATOM     94  C   UNL A   1      43.820  27.036  27.028  1.00  0.00     0.020 A 
ATOM     95  C   UNL A   1      41.790  28.354  26.870  1.00  0.00     0.020 A 
ATOM     96  C   UNL A   1      42.471  27.136  26.710  1.00  0.00     0.054 A 
BRANCH  96  97
ATOM     97  S   UNL A   1      41.581  25.604  26.284  1.00  0.00     0.124 S 
ATOM     98  O   UNL A   1      41.959  25.376  24.894  1.00  0.00    -0.237 OA
ATOM     99  O   UNL A   1      42.145  24.659  27.251  1.00  0.00    -0.237 OA
ATOM    100  O   UNL A   1      40.183  25.966  26.499  1.00  0.00    -0.744 OA
ENDBRANCH  96  97
ENDBRANCH  68  91
BRANCH  80 101
ATOM    101  C   UNL A   1      45.870  34.676  32.936  1.00  0.00    -0.014 A 
ATOM    102  C   UNL A   1      47.178  34.566  33.430  1.00  0.00     0.010 A 
ATOM    103  C   UNL A   1      45.364  35.986  32.742  1.00  0.00     0.010 A 
ATOM    104  C   UNL A   1      47.990  35.702  33.563  1.00  0.00     0.020 A 
ATOM    105  C   UNL A   1      46.138  37.125  32.936  1.00  0.00     0.020 A 
ATOM    106  C   UNL A   1      47.469  36.971  33.287  1.00  0.00     0.054 A 
BRANCH 106 107
ATOM    107  S   UNL A   1      48.543  38.421  33.370  1.00  0.00     0.124 S 
ATOM    108  O   UNL A   1      49.451  38.215  32.245  1.00  0.00    -0.237 OA
ATOM    109  O   UNL A   1      47.580  39.508  33.211  1.00  0.00    -0.237 OA
ATOM    110  O   UNL A   1      49.161  38.323  34.691  1.00  0.00    -0.744 OA
ENDBRANCH 106 107
ENDBRANCH  80 101
ENDBRANCH  54  55
ENDBRANCH  47  49
ENDBRANCH  46  47
ENDBRANCH  45  46
ENDBRANCH  44  45
ENDBRANCH  43  44
ENDBRANCH  42  43
ENDBRANCH  41  42
ENDBRANCH   1  41
TORSDOF 29
ENDMDL
MODEL 3
REMARK VINA RESULT:      -8.7      4.585      8.836
REMARK SMILES Cc1cccc(S(=O)(=O)Nc2cc(C(=O)OCCOCCOCCOCCOC(=O)c3ccc(-c4c5nc(c(-c6ccc(S(=O)(=O)[O-])cc6)c6ccc([nH]6)c(-c6ccc(S(=O)(=O)[O-])cc6)c6nc(c(-c7ccc(S(=O)(=O)[O-])cc7)c7ccc4[nH]7)C=C6)C=C5)cc3)ccc2N2CCC[C@H](C[NH+]3CCCC3)C2)c1
REMARK SMILES IDX 22 1 21 2 20 3 19 4 18 5 17 6 16 7 14 8 15 9 13 10 11 11
REMARK SMILES IDX 12 12 93 13 92 14 91 15 10 16 7 18 8 19 9 20 6 21 1 22 2 23
REMARK SMILES IDX 3 24 106 25 4 26 5 27 94 28 95 29 105 30 96 31 98 32 97 33
REMARK SMILES IDX 99 34 100 35 101 36 104 37 102 39 103 40 23 41 24 42 25 43
REMARK SMILES IDX 26 44 27 45 28 46 29 47 30 48 31 49 32 50 90 51 33 52 89 53
REMARK SMILES IDX 34 54 35 55 36 56 83 57 37 58 88 59 82 60 84 61 38 62 87 63
REMARK SMILES IDX 81 64 80 65 39 67 69 68 50 69 68 70 51 71 54 72 67 73 85 74
REMARK SMILES IDX 52 75 53 76 66 78 86 79 55 80 40 81 41 82 49 83 42 84 48 85
REMARK SMILES IDX 43 86 44 87 45 88 46 89 47 90 70 91 71 92 79 93 72 94 78 95
REMARK SMILES IDX 73 96 74 97 75 98 76 99 77 100 56 101 57 102 65 103 58 104
REMARK SMILES IDX 64 105 59 106 60 107 61 108 62 109 63 110
REMARK H PARENT 10 17 100 38 84 66 54 77
REMARK Flexibility Score: inf
ROOT
ATOM      1  O   UNL A   1      36.065  24.066  25.291  1.00  0.00    -0.377 OA
ENDROOT
BRANCH   1   2
ATOM      2  C   UNL A   1      34.946  24.524  26.054  1.00  0.00     0.188 C 
BRANCH   2   3
ATOM      3  C   UNL A   1      33.503  25.278  25.641  1.00  0.00     0.188 C 
BRANCH   3   4
ATOM      4  O   UNL A   1      32.653  25.897  24.166  1.00  0.00    -0.376 OA
BRANCH   4   5
ATOM      5  C   UNL A   1      32.636  27.397  23.234  1.00  0.00     0.202 C 
BRANCH   5   6
ATOM      6  C   UNL A   1      33.525  29.012  23.602  1.00  0.00     0.261 C 
BRANCH   6   7
ATOM      7  O   UNL A   1      34.324  29.464  25.170  1.00  0.00    -0.460 OA
BRANCH   7   8
ATOM      8  C   UNL A   1      34.162  29.807  26.603  1.00  0.00     0.338 C 
ATOM      9  O   UNL A   1      33.109  30.190  27.130  1.00  0.00    -0.246 OA
BRANCH   8  10
ATOM     10  C   UNL A   1      35.251  29.680  27.777  1.00  0.00     0.062 A 
ATOM     11  C   UNL A   1      36.254  29.888  30.067  1.00  0.00     0.073 A 
ATOM     12  C   UNL A   1      35.328  30.233  29.078  1.00  0.00     0.044 A 
ATOM     13  C   UNL A   1      37.425  29.260  29.675  1.00  0.00     0.061 A 
ATOM     14  C   UNL A   1      37.545  28.954  28.315  1.00  0.00     0.029 A 
ATOM     15  C   UNL A   1      36.460  29.070  27.418  1.00  0.00     0.018 A 
BRANCH  11  16
ATOM     16  N   UNL A   1      36.058  30.339  31.439  1.00  0.00    -0.277 N 
ATOM     17  H   UNL A   1      35.984  29.657  32.144  1.00  0.00     0.180 HD
BRANCH  16  18
ATOM     18  S   UNL A   1      35.950  31.994  31.898  1.00  0.00     0.261 S 
ATOM     19  O   UNL A   1      36.042  32.011  33.346  1.00  0.00    -0.201 OA
ATOM     20  O   UNL A   1      34.755  32.537  31.281  1.00  0.00    -0.201 OA
BRANCH  18  21
ATOM     21  C   UNL A   1      37.295  32.970  31.290  1.00  0.00     0.088 A 
ATOM     22  C   UNL A   1      40.286  34.655  32.737  1.00  0.00     0.044 C 
ATOM     23  C   UNL A   1      39.348  34.152  31.697  1.00  0.00    -0.050 A 
ATOM     24  C   UNL A   1      39.296  34.712  30.420  1.00  0.00     0.003 A 
ATOM     25  C   UNL A   1      38.382  33.236  32.100  1.00  0.00     0.025 A 
ATOM     26  C   UNL A   1      38.279  34.339  29.543  1.00  0.00     0.002 A 
ATOM     27  C   UNL A   1      37.265  33.481  29.982  1.00  0.00     0.022 A 
ENDBRANCH  18  21
ENDBRANCH  16  18
ENDBRANCH  11  16
BRANCH  13  28
ATOM     28  N   UNL A   1      38.424  29.027  30.599  1.00  0.00    -0.369 N 
ATOM     29  C   UNL A   1      39.085  30.138  31.265  1.00  0.00     0.116 C 
ATOM     30  C   UNL A   1      39.110  27.738  30.554  1.00  0.00     0.126 C 
ATOM     31  C   UNL A   1      40.510  30.297  30.746  1.00  0.00     0.022 C 
ATOM     32  C   UNL A   1      40.510  27.869  29.940  1.00  0.00     0.064 C 
ATOM     33  C   UNL A   1      41.256  28.959  30.731  1.00  0.00     0.013 C 
BRANCH  32  34
ATOM     34  C   UNL A   1      40.400  28.083  28.409  1.00  0.00     0.267 C 
BRANCH  34  35
ATOM     35  N   UNL A   1      41.493  28.678  27.645  1.00  0.00    -0.335 N 
ATOM     36  C   UNL A   1      41.173  29.022  26.269  1.00  0.00     0.262 C 
ATOM     37  C   UNL A   1      42.749  27.940  27.653  1.00  0.00     0.262 C 
ATOM     38  H   UNL A   1      41.629  29.537  28.176  1.00  0.00     0.348 HD
ATOM     39  C   UNL A   1      41.735  27.878  25.451  1.00  0.00     0.067 C 
ATOM     40  C   UNL A   1      42.956  27.425  26.235  1.00  0.00     0.067 C 
ENDBRANCH  34  35
ENDBRANCH  32  34
ENDBRANCH  13  28
ENDBRANCH   8  10
ENDBRANCH   7   8
ENDBRANCH   6   7
ENDBRANCH   5   6
ENDBRANCH   4   5
ENDBRANCH   3   4
ENDBRANCH   2   3
ENDBRANCH   1   2
BRANCH   1  41
ATOM     41  C   UNL A   1      36.049  23.076  24.274  1.00  0.00     0.188 C 
BRANCH  41  42
ATOM     42  C   UNL A   1      36.421  21.652  24.608  1.00  0.00     0.188 C 
BRANCH  42  43
ATOM     43  O   UNL A   1      37.834  21.540  24.638  1.00  0.00    -0.376 OA
BRANCH  43  44
ATOM     44  C   UNL A   1      38.433  21.959  25.847  1.00  0.00     0.202 C 
BRANCH  44  45
ATOM     45  C   UNL A   1      39.822  21.351  26.076  1.00  0.00     0.261 C 
BRANCH  45  46
ATOM     46  O   UNL A   1      40.445  21.838  27.287  1.00  0.00    -0.460 OA
BRANCH  46  47
ATOM     47  C   UNL A   1      41.815  21.797  27.349  1.00  0.00     0.338 C 
ATOM     48  O   UNL A   1      42.499  21.146  26.555  1.00  0.00    -0.246 OA
BRANCH  47  49
ATOM     49  C   UNL A   1      42.313  22.749  28.371  1.00  0.00     0.060 A 
ATOM     50  C   UNL A   1      41.903  24.051  28.630  1.00  0.00     0.016 A 
ATOM     51  C   UNL A   1      43.348  22.326  29.130  1.00  0.00     0.016 A 
ATOM     52  C   UNL A   1      42.773  25.027  29.270  1.00  0.00     0.010 A 
ATOM     53  C   UNL A   1      44.144  23.295  29.732  1.00  0.00     0.010 A 
ATOM     54  C   UNL A   1      44.111  24.760  29.602  1.00  0.00    -0.014 A 
BRANCH  54  55
ATOM     55  C   UNL A   1      45.495  26.014  29.806  1.00  0.00     0.031 A 
ATOM     56  C   UNL A   1      46.620  26.681  28.280  1.00  0.00     0.074 A 
ATOM     57  C   UNL A   1      45.721  26.180  31.221  1.00  0.00     0.049 A 
ATOM     58  N   UNL A   1      47.952  26.387  28.133  1.00  0.00    -0.248 NA
ATOM     59  C   UNL A   1      46.423  26.946  26.652  1.00  0.00     0.031 C 
ATOM     60  C   UNL A   1      46.661  26.966  32.056  1.00  0.00     0.029 A 
ATOM     61  N   UNL A   1      45.193  25.443  32.306  1.00  0.00    -0.354 N 
ATOM     62  C   UNL A   1      48.610  26.608  26.964  1.00  0.00     0.074 A 
ATOM     63  C   UNL A   1      47.584  26.753  26.016  1.00  0.00     0.031 C 
ATOM     64  C   UNL A   1      46.604  26.815  33.370  1.00  0.00     0.029 A 
ATOM     65  C   UNL A   1      45.957  25.588  33.487  1.00  0.00     0.049 A 
ATOM     66  H   UNL A   1      44.382  24.888  32.246  1.00  0.00     0.167 HD
ATOM     67  C   UNL A   1      49.968  26.703  26.885  1.00  0.00     0.031 A 
ATOM     68  C   UNL A   1      46.721  24.599  34.009  1.00  0.00     0.031 A 
ATOM     69  C   UNL A   1      50.616  26.855  28.195  1.00  0.00     0.049 A 
ATOM     70  C   UNL A   1      48.243  24.605  33.607  1.00  0.00     0.074 A 
ATOM     71  C   UNL A   1      51.122  27.970  28.828  1.00  0.00     0.029 A 
ATOM     72  N   UNL A   1      50.633  25.847  29.167  1.00  0.00    -0.354 N 
ATOM     73  N   UNL A   1      48.808  25.205  32.561  1.00  0.00    -0.248 NA
ATOM     74  C   UNL A   1      49.256  23.968  34.441  1.00  0.00     0.031 C 
ATOM     75  C   UNL A   1      51.420  27.615  30.163  1.00  0.00     0.029 A 
ATOM     76  C   UNL A   1      50.919  26.345  30.451  1.00  0.00     0.049 A 
ATOM     77  H   UNL A   1      50.464  24.897  28.973  1.00  0.00     0.167 HD
ATOM     78  C   UNL A   1      50.191  25.028  32.550  1.00  0.00     0.074 A 
ATOM     79  C   UNL A   1      50.391  24.226  33.765  1.00  0.00     0.031 C 
ATOM     80  C   UNL A   1      51.148  25.486  31.646  1.00  0.00     0.031 A 
BRANCH  67  81
ATOM     81  C   UNL A   1      50.572  27.100  25.544  1.00  0.00    -0.014 A 
ATOM     82  C   UNL A   1      49.761  27.245  24.405  1.00  0.00     0.010 A 
ATOM     83  C   UNL A   1      51.966  27.229  25.341  1.00  0.00     0.010 A 
ATOM     84  C   UNL A   1      50.303  27.371  23.116  1.00  0.00     0.020 A 
ATOM     85  C   UNL A   1      52.525  27.320  24.051  1.00  0.00     0.020 A 
ATOM     86  C   UNL A   1      51.684  27.366  22.941  1.00  0.00     0.054 A 
BRANCH  86  87
ATOM     87  S   UNL A   1      52.350  27.398  21.251  1.00  0.00     0.124 S 
ATOM     88  O   UNL A   1      52.485  25.978  20.936  1.00  0.00    -0.237 OA
ATOM     89  O   UNL A   1      51.306  28.108  20.515  1.00  0.00    -0.237 OA
ATOM     90  O   UNL A   1      53.613  28.121  21.386  1.00  0.00    -0.744 OA
ENDBRANCH  86  87
ENDBRANCH  67  81
BRANCH  68  91
ATOM     91  C   UNL A   1      45.736  23.660  34.633  1.00  0.00    -0.014 A 
ATOM     92  C   UNL A   1      45.668  22.365  34.014  1.00  0.00     0.010 A 
ATOM     93  C   UNL A   1      45.547  23.729  36.019  1.00  0.00     0.010 A 
ATOM     94  C   UNL A   1      45.726  21.193  34.781  1.00  0.00     0.020 A 
ATOM     95  C   UNL A   1      45.544  22.546  36.786  1.00  0.00     0.020 A 
ATOM     96  C   UNL A   1      45.723  21.298  36.167  1.00  0.00     0.054 A 
BRANCH  96  97
ATOM     97  S   UNL A   1      46.163  19.817  37.134  1.00  0.00     0.124 S 
ATOM     98  O   UNL A   1      45.804  20.192  38.496  1.00  0.00    -0.237 OA
ATOM     99  O   UNL A   1      45.308  18.800  36.518  1.00  0.00    -0.237 OA
ATOM    100  O   UNL A   1      47.594  19.674  36.882  1.00  0.00    -0.744 OA
ENDBRANCH  96  97
ENDBRANCH  68  91
BRANCH  80 101
ATOM    101  C   UNL A   1      52.633  25.197  31.836  1.00  0.00    -0.014 A 
ATOM    102  C   UNL A   1      53.674  25.989  31.333  1.00  0.00     0.010 A 
ATOM    103  C   UNL A   1      52.995  23.961  32.430  1.00  0.00     0.010 A 
ATOM    104  C   UNL A   1      55.014  25.641  31.562  1.00  0.00     0.020 A 
ATOM    105  C   UNL A   1      54.320  23.571  32.602  1.00  0.00     0.020 A 
ATOM    106  C   UNL A   1      55.323  24.447  32.221  1.00  0.00     0.054 A 
BRANCH 106 107
ATOM    107  S   UNL A   1      57.045  24.047  32.595  1.00  0.00     0.124 S 
ATOM    108  O   UNL A   1      57.648  25.363  32.784  1.00  0.00    -0.237 OA
ATOM    109  O   UNL A   1      56.902  23.241  33.805  1.00  0.00    -0.237 OA
ATOM    110  O   UNL A   1      57.500  23.321  31.412  1.00  0.00    -0.744 OA
ENDBRANCH 106 107
ENDBRANCH  80 101
ENDBRANCH  54  55
ENDBRANCH  47  49
ENDBRANCH  46  47
ENDBRANCH  45  46
ENDBRANCH  44  45
ENDBRANCH  43  44
ENDBRANCH  42  43
ENDBRANCH  41  42
ENDBRANCH   1  41
TORSDOF 29
ENDMDL
