MODEL 1
REMARK VINA RESULT:      -9.6      0.000      0.000
REMARK SMILES Cc1ccc(NC(=O)C[C@H]([NH2+]Cc2cccnc2)C(=O)OCCOCCOCCOCCOC(=O)c2ccc(-c3c4nc(c(-c5ccc(S(=O)(=O)[O-])cc5)c5ccc([nH]5)c(-c5ccc(S(=O)(=O)[O-])cc5)c5nc(c(-c6ccc(S(=O)(=O)[O-])cc6)c6ccc3[nH]6)C=C5)C=C4)cc2)cc1Cl
REMARK SMILES IDX 27 1 26 2 25 3 24 4 23 5 22 6 21 7 19 8 20 9 10 10 9 11 7 12
REMARK SMILES IDX 6 13 8 15 5 16 1 17 2 18 3 19 97 20 4 21 96 22 98 23 11 24
REMARK SMILES IDX 12 27 13 28 14 29 18 30 15 31 17 32 16 33 28 34 29 35 30 36
REMARK SMILES IDX 31 37 32 38 33 39 34 40 35 41 36 42 37 43 95 44 38 45 94 46
REMARK SMILES IDX 39 47 40 48 41 49 88 50 42 51 93 52 87 53 89 54 43 55 92 56
REMARK SMILES IDX 86 57 85 58 44 60 74 61 55 62 73 63 56 64 59 65 72 66 90 67
REMARK SMILES IDX 57 68 58 69 71 71 91 72 60 73 45 74 46 75 54 76 47 77 53 78
REMARK SMILES IDX 48 79 49 80 50 81 51 82 52 83 75 84 76 85 84 86 77 87 83 88
REMARK SMILES IDX 78 89 79 90 80 91 81 92 82 93 61 94 62 95 70 96 63 97 69 98
REMARK SMILES IDX 64 99 65 100 66 101 67 102 68 103
REMARK H PARENT 6 14 11 25 11 26 89 59 59 70
REMARK Flexibility Score: inf
ROOT
ATOM      1  O   UNL A   1      38.437  21.320  26.055  1.00  0.00    -0.377 OA
ENDROOT
BRANCH   1   2
ATOM      2  C   UNL A   1      37.829  20.717  24.937  1.00  0.00     0.188 C 
BRANCH   2   3
ATOM      3  C   UNL A   1      36.319  20.910  24.834  1.00  0.00     0.188 C 
BRANCH   3   4
ATOM      4  O   UNL A   1      35.743  21.994  24.116  1.00  0.00    -0.376 OA
BRANCH   4   5
ATOM      5  C   UNL A   1      35.969  23.332  24.527  1.00  0.00     0.202 C 
BRANCH   5   6
ATOM      6  C   UNL A   1      34.717  24.207  24.689  1.00  0.00     0.261 C 
BRANCH   6   7
ATOM      7  O   UNL A   1      33.978  24.145  25.930  1.00  0.00    -0.459 OA
BRANCH   7   8
ATOM      8  C   UNL A   1      33.376  22.968  26.257  1.00  0.00     0.365 C 
ATOM      9  O   UNL A   1      33.570  22.359  27.304  1.00  0.00    -0.245 OA
BRANCH   8  10
ATOM     10  C   UNL A   1      32.473  22.402  25.128  1.00  0.00     0.303 C 
BRANCH  10  11
ATOM     11  C   UNL A   1      31.016  22.650  25.494  1.00  0.00     0.177 C 
BRANCH  11  12
ATOM     12  C   UNL A   1      30.455  23.636  26.512  1.00  0.00     0.231 C 
ATOM     13  N   UNL A   1      30.406  24.988  26.519  1.00  0.00    -0.326 N 
ATOM     14  H   UNL A   1      30.290  25.313  27.440  1.00  0.00     0.169 HD
ATOM     15  O   UNL A   1      30.169  23.131  27.617  1.00  0.00    -0.274 OA
BRANCH  13  16
ATOM     16  C   UNL A   1      30.466  26.078  25.633  1.00  0.00     0.042 A 
ATOM     17  C   UNL A   1      30.289  29.423  22.858  1.00  0.00     0.046 C 
ATOM     18  C   UNL A   1      30.395  28.246  23.780  1.00  0.00    -0.032 A 
ATOM     19  C   UNL A   1      29.601  27.111  23.592  1.00  0.00     0.007 A 
ATOM     20  C   UNL A   1      31.250  28.259  24.879  1.00  0.00     0.046 A 
ATOM     21  C   UNL A   1      29.631  26.049  24.512  1.00  0.00     0.026 A 
ATOM     22  C   UNL A   1      31.326  27.151  25.734  1.00  0.00     0.047 A 
ATOM     23  Cl  UNL A   1      32.194  29.665  25.248  1.00  0.00    -0.084 Cl
ENDBRANCH  13  16
ENDBRANCH  11  12
ENDBRANCH  10  11
BRANCH  10  24
ATOM     24  N   UNL A   1      32.826  21.059  24.604  1.00  0.00    -0.330 N 
ATOM     25  H   UNL A   1      33.839  21.025  24.483  1.00  0.00     0.347 HD
ATOM     26  H   UNL A   1      32.306  20.952  23.734  1.00  0.00     0.347 HD
BRANCH  24  27
ATOM     27  C   UNL A   1      32.432  19.929  25.455  1.00  0.00     0.299 C 
BRANCH  27  28
ATOM     28  C   UNL A   1      32.894  18.585  24.938  1.00  0.00     0.024 A 
ATOM     29  C   UNL A   1      33.533  18.429  23.706  1.00  0.00     0.013 A 
ATOM     30  C   UNL A   1      32.687  17.422  25.685  1.00  0.00     0.120 A 
ATOM     31  C   UNL A   1      33.942  17.160  23.289  1.00  0.00     0.021 A 
ATOM     32  N   UNL A   1      33.052  16.176  25.297  1.00  0.00    -0.264 NA
ATOM     33  C   UNL A   1      33.685  16.076  24.112  1.00  0.00     0.111 A 
ENDBRANCH  27  28
ENDBRANCH  24  27
ENDBRANCH  10  24
ENDBRANCH   8  10
ENDBRANCH   7   8
ENDBRANCH   6   7
ENDBRANCH   5   6
ENDBRANCH   4   5
ENDBRANCH   3   4
ENDBRANCH   2   3
ENDBRANCH   1   2
BRANCH   1  34
ATOM     34  C   UNL A   1      39.849  21.419  26.056  1.00  0.00     0.188 C 
BRANCH  34  35
ATOM     35  C   UNL A   1      40.615  20.186  26.541  1.00  0.00     0.188 C 
BRANCH  35  36
ATOM     36  O   UNL A   1      41.375  19.424  25.615  1.00  0.00    -0.376 OA
BRANCH  36  37
ATOM     37  C   UNL A   1      42.782  19.267  25.674  1.00  0.00     0.202 C 
BRANCH  37  38
ATOM     38  C   UNL A   1      43.836  20.333  25.338  1.00  0.00     0.261 C 
BRANCH  38  39
ATOM     39  O   UNL A   1      43.796  21.554  26.072  1.00  0.00    -0.460 OA
BRANCH  39  40
ATOM     40  C   UNL A   1      43.389  22.622  25.360  1.00  0.00     0.338 C 
ATOM     41  O   UNL A   1      43.238  22.678  24.141  1.00  0.00    -0.246 OA
BRANCH  40  42
ATOM     42  C   UNL A   1      42.976  23.698  26.270  1.00  0.00     0.060 A 
ATOM     43  C   UNL A   1      43.491  24.976  26.038  1.00  0.00     0.016 A 
ATOM     44  C   UNL A   1      42.186  23.439  27.393  1.00  0.00     0.016 A 
ATOM     45  C   UNL A   1      43.290  25.983  26.974  1.00  0.00     0.010 A 
ATOM     46  C   UNL A   1      41.983  24.452  28.334  1.00  0.00     0.010 A 
ATOM     47  C   UNL A   1      42.595  25.705  28.157  1.00  0.00    -0.014 A 
BRANCH  47  48
ATOM     48  C   UNL A   1      42.746  26.644  29.294  1.00  0.00     0.031 A 
ATOM     49  C   UNL A   1      41.677  27.686  29.505  1.00  0.00     0.074 A 
ATOM     50  C   UNL A   1      43.751  26.509  30.177  1.00  0.00     0.049 A 
ATOM     51  N   UNL A   1      41.557  28.569  30.461  1.00  0.00    -0.248 NA
ATOM     52  C   UNL A   1      40.597  27.738  28.503  1.00  0.00     0.031 C 
ATOM     53  C   UNL A   1      44.809  25.504  30.107  1.00  0.00     0.029 A 
ATOM     54  N   UNL A   1      44.030  27.217  31.316  1.00  0.00    -0.354 N 
ATOM     55  C   UNL A   1      40.398  29.282  30.174  1.00  0.00     0.074 A 
ATOM     56  C   UNL A   1      39.873  28.759  28.933  1.00  0.00     0.031 C 
ATOM     57  C   UNL A   1      45.622  25.655  31.168  1.00  0.00     0.029 A 
ATOM     58  C   UNL A   1      45.157  26.784  31.971  1.00  0.00     0.049 A 
ATOM     59  H   UNL A   1      43.475  27.966  31.636  1.00  0.00     0.167 HD
ATOM     60  C   UNL A   1      39.813  30.275  30.885  1.00  0.00     0.031 A 
ATOM     61  C   UNL A   1      45.748  27.253  33.088  1.00  0.00     0.031 A 
ATOM     62  C   UNL A   1      40.342  30.797  32.116  1.00  0.00     0.049 A 
ATOM     63  C   UNL A   1      45.116  28.406  33.827  1.00  0.00     0.074 A 
ATOM     64  C   UNL A   1      39.823  31.795  32.921  1.00  0.00     0.029 A 
ATOM     65  N   UNL A   1      41.515  30.366  32.718  1.00  0.00    -0.354 N 
ATOM     66  N   UNL A   1      44.010  29.055  33.553  1.00  0.00    -0.248 NA
ATOM     67  C   UNL A   1      45.808  28.876  35.035  1.00  0.00     0.031 C 
ATOM     68  C   UNL A   1      40.716  32.014  33.975  1.00  0.00     0.029 A 
ATOM     69  C   UNL A   1      41.752  31.098  33.869  1.00  0.00     0.049 A 
ATOM     70  H   UNL A   1      42.094  29.646  32.377  1.00  0.00     0.167 HD
ATOM     71  C   UNL A   1      43.854  29.988  34.575  1.00  0.00     0.074 A 
ATOM     72  C   UNL A   1      44.973  29.805  35.478  1.00  0.00     0.031 C 
ATOM     73  C   UNL A   1      42.872  30.906  34.755  1.00  0.00     0.031 A 
BRANCH  60  74
ATOM     74  C   UNL A   1      38.556  30.887  30.324  1.00  0.00    -0.014 A 
ATOM     75  C   UNL A   1      37.313  30.234  30.424  1.00  0.00     0.010 A 
ATOM     76  C   UNL A   1      38.615  32.151  29.711  1.00  0.00     0.010 A 
ATOM     77  C   UNL A   1      36.161  30.818  29.887  1.00  0.00     0.020 A 
ATOM     78  C   UNL A   1      37.462  32.752  29.200  1.00  0.00     0.020 A 
ATOM     79  C   UNL A   1      36.244  32.074  29.278  1.00  0.00     0.054 A 
BRANCH  79  80
ATOM     80  S   UNL A   1      34.731  32.819  28.610  1.00  0.00     0.124 S 
ATOM     81  O   UNL A   1      34.218  33.549  29.768  1.00  0.00    -0.237 OA
ATOM     82  O   UNL A   1      35.237  33.647  27.519  1.00  0.00    -0.237 OA
ATOM     83  O   UNL A   1      33.931  31.668  28.196  1.00  0.00    -0.744 OA
ENDBRANCH  79  80
ENDBRANCH  60  74
BRANCH  61  84
ATOM     84  C   UNL A   1      47.016  26.638  33.572  1.00  0.00    -0.014 A 
ATOM     85  C   UNL A   1      46.999  25.551  34.463  1.00  0.00     0.010 A 
ATOM     86  C   UNL A   1      48.254  27.148  33.140  1.00  0.00     0.010 A 
ATOM     87  C   UNL A   1      48.197  24.999  34.929  1.00  0.00     0.020 A 
ATOM     88  C   UNL A   1      49.453  26.581  33.580  1.00  0.00     0.020 A 
ATOM     89  C   UNL A   1      49.416  25.517  34.482  1.00  0.00     0.054 A 
BRANCH  89  90
ATOM     90  S   UNL A   1      50.957  24.757  35.065  1.00  0.00     0.124 S 
ATOM     91  O   UNL A   1      51.834  24.924  33.909  1.00  0.00    -0.237 OA
ATOM     92  O   UNL A   1      51.286  25.571  36.232  1.00  0.00    -0.237 OA
ATOM     93  O   UNL A   1      50.568  23.380  35.363  1.00  0.00    -0.744 OA
ENDBRANCH  89  90
ENDBRANCH  61  84
BRANCH  73  94
ATOM     94  C   UNL A   1      42.935  31.757  35.999  1.00  0.00    -0.014 A 
ATOM     95  C   UNL A   1      42.349  31.342  37.207  1.00  0.00     0.010 A 
ATOM     96  C   UNL A   1      43.634  32.979  35.962  1.00  0.00     0.010 A 
ATOM     97  C   UNL A   1      42.419  32.155  38.343  1.00  0.00     0.020 A 
ATOM     98  C   UNL A   1      43.736  33.777  37.104  1.00  0.00     0.020 A 
ATOM     99  C   UNL A   1      43.111  33.369  38.282  1.00  0.00     0.054 A 
BRANCH  99 100
ATOM    100  S   UNL A   1      43.206  34.395  39.775  1.00  0.00     0.124 S 
ATOM    101  O   UNL A   1      41.800  34.696  40.025  1.00  0.00    -0.237 OA
ATOM    102  O   UNL A   1      43.840  33.499  40.739  1.00  0.00    -0.237 OA
ATOM    103  O   UNL A   1      44.023  35.534  39.362  1.00  0.00    -0.744 OA
ENDBRANCH  99 100
ENDBRANCH  73  94
ENDBRANCH  47  48
ENDBRANCH  40  42
ENDBRANCH  39  40
ENDBRANCH  38  39
ENDBRANCH  37  38
ENDBRANCH  36  37
ENDBRANCH  35  36
ENDBRANCH  34  35
ENDBRANCH   1  34
TORSDOF 29
ENDMDL
MODEL 2
REMARK VINA RESULT:      -9.4      5.173      9.968
REMARK SMILES Cc1ccc(NC(=O)C[C@H]([NH2+]Cc2cccnc2)C(=O)OCCOCCOCCOCCOC(=O)c2ccc(-c3c4nc(c(-c5ccc(S(=O)(=O)[O-])cc5)c5ccc([nH]5)c(-c5ccc(S(=O)(=O)[O-])cc5)c5nc(c(-c6ccc(S(=O)(=O)[O-])cc6)c6ccc3[nH]6)C=C5)C=C4)cc2)cc1Cl
REMARK SMILES IDX 27 1 26 2 25 3 24 4 23 5 22 6 21 7 19 8 20 9 10 10 9 11 7 12
REMARK SMILES IDX 6 13 8 15 5 16 1 17 2 18 3 19 97 20 4 21 96 22 98 23 11 24
REMARK SMILES IDX 12 27 13 28 14 29 18 30 15 31 17 32 16 33 28 34 29 35 30 36
REMARK SMILES IDX 31 37 32 38 33 39 34 40 35 41 36 42 37 43 95 44 38 45 94 46
REMARK SMILES IDX 39 47 40 48 41 49 88 50 42 51 93 52 87 53 89 54 43 55 92 56
REMARK SMILES IDX 86 57 85 58 44 60 74 61 55 62 73 63 56 64 59 65 72 66 90 67
REMARK SMILES IDX 57 68 58 69 71 71 91 72 60 73 45 74 46 75 54 76 47 77 53 78
REMARK SMILES IDX 48 79 49 80 50 81 51 82 52 83 75 84 76 85 84 86 77 87 83 88
REMARK SMILES IDX 78 89 79 90 80 91 81 92 82 93 61 94 62 95 70 96 63 97 69 98
REMARK SMILES IDX 64 99 65 100 66 101 67 102 68 103
REMARK H PARENT 6 14 11 25 11 26 89 59 59 70
REMARK Flexibility Score: inf
ROOT
ATOM      1  O   UNL A   1      32.221  28.503  25.955  1.00  0.00    -0.377 OA
ENDROOT
BRANCH   1   2
ATOM      2  C   UNL A   1      32.460  27.446  26.855  1.00  0.00     0.188 C 
BRANCH   2   3
ATOM      3  C   UNL A   1      32.143  26.052  26.319  1.00  0.00     0.188 C 
BRANCH   3   4
ATOM      4  O   UNL A   1      30.808  25.585  26.172  1.00  0.00    -0.376 OA
BRANCH   4   5
ATOM      5  C   UNL A   1      30.534  24.196  26.099  1.00  0.00     0.202 C 
BRANCH   5   6
ATOM      6  C   UNL A   1      31.146  23.451  24.903  1.00  0.00     0.261 C 
BRANCH   6   7
ATOM      7  O   UNL A   1      31.271  24.142  23.640  1.00  0.00    -0.459 OA
BRANCH   7   8
ATOM      8  C   UNL A   1      32.439  24.012  22.953  1.00  0.00     0.365 C 
ATOM      9  O   UNL A   1      32.690  23.090  22.184  1.00  0.00    -0.245 OA
BRANCH   8  10
ATOM     10  C   UNL A   1      33.487  25.104  23.302  1.00  0.00     0.303 C 
BRANCH  10  11
ATOM     11  C   UNL A   1      33.435  26.191  22.237  1.00  0.00     0.177 C 
BRANCH  11  12
ATOM     12  C   UNL A   1      33.373  27.701  22.433  1.00  0.00     0.231 C 
ATOM     13  N   UNL A   1      32.330  28.563  22.432  1.00  0.00    -0.326 N 
ATOM     14  H   UNL A   1      32.653  29.476  22.255  1.00  0.00     0.169 HD
ATOM     15  O   UNL A   1      34.481  28.273  22.393  1.00  0.00    -0.274 OA
BRANCH  13  16
ATOM     16  C   UNL A   1      30.935  28.575  22.602  1.00  0.00     0.042 A 
ATOM     17  C   UNL A   1      26.672  28.453  23.455  1.00  0.00     0.046 C 
ATOM     18  C   UNL A   1      28.129  28.470  23.107  1.00  0.00    -0.032 A 
ATOM     19  C   UNL A   1      28.964  27.404  23.455  1.00  0.00     0.007 A 
ATOM     20  C   UNL A   1      28.711  29.562  22.468  1.00  0.00     0.046 A 
ATOM     21  C   UNL A   1      30.348  27.463  23.214  1.00  0.00     0.026 A 
ATOM     22  C   UNL A   1      30.079  29.560  22.161  1.00  0.00     0.047 A 
ATOM     23  Cl  UNL A   1      27.772  30.970  22.095  1.00  0.00    -0.084 Cl
ENDBRANCH  13  16
ENDBRANCH  11  12
ENDBRANCH  10  11
BRANCH  10  24
ATOM     24  N   UNL A   1      34.825  24.629  23.729  1.00  0.00    -0.330 N 
ATOM     25  H   UNL A   1      35.449  25.436  23.765  1.00  0.00     0.347 HD
ATOM     26  H   UNL A   1      35.105  23.926  23.046  1.00  0.00     0.347 HD
BRANCH  24  27
ATOM     27  C   UNL A   1      34.868  23.963  25.037  1.00  0.00     0.299 C 
BRANCH  27  28
ATOM     28  C   UNL A   1      36.167  23.240  25.313  1.00  0.00     0.024 A 
ATOM     29  C   UNL A   1      36.381  21.907  24.953  1.00  0.00     0.013 A 
ATOM     30  C   UNL A   1      37.223  23.887  25.960  1.00  0.00     0.120 A 
ATOM     31  C   UNL A   1      37.607  21.298  25.230  1.00  0.00     0.021 A 
ATOM     32  N   UNL A   1      38.415  23.317  26.261  1.00  0.00    -0.264 NA
ATOM     33  C   UNL A   1      38.584  22.037  25.876  1.00  0.00     0.111 A 
ENDBRANCH  27  28
ENDBRANCH  24  27
ENDBRANCH  10  24
ENDBRANCH   8  10
ENDBRANCH   7   8
ENDBRANCH   6   7
ENDBRANCH   5   6
ENDBRANCH   4   5
ENDBRANCH   3   4
ENDBRANCH   2   3
ENDBRANCH   1   2
BRANCH   1  34
ATOM     34  C   UNL A   1      33.010  29.670  26.096  1.00  0.00     0.188 C 
BRANCH  34  35
ATOM     35  C   UNL A   1      34.473  29.457  26.491  1.00  0.00     0.188 C 
BRANCH  35  36
ATOM     36  O   UNL A   1      35.090  30.349  27.407  1.00  0.00    -0.376 OA
BRANCH  36  37
ATOM     37  C   UNL A   1      34.572  31.621  27.757  1.00  0.00     0.202 C 
BRANCH  37  38
ATOM     38  C   UNL A   1      35.380  32.833  28.246  1.00  0.00     0.261 C 
BRANCH  38  39
ATOM     39  O   UNL A   1      36.774  32.646  28.477  1.00  0.00    -0.460 OA
BRANCH  39  40
ATOM     40  C   UNL A   1      37.072  32.065  29.655  1.00  0.00     0.338 C 
ATOM     41  O   UNL A   1      36.461  32.195  30.714  1.00  0.00    -0.246 OA
BRANCH  40  42
ATOM     42  C   UNL A   1      38.160  31.096  29.470  1.00  0.00     0.060 A 
ATOM     43  C   UNL A   1      39.257  31.180  30.332  1.00  0.00     0.016 A 
ATOM     44  C   UNL A   1      38.157  30.193  28.403  1.00  0.00     0.016 A 
ATOM     45  C   UNL A   1      40.393  30.421  30.082  1.00  0.00     0.010 A 
ATOM     46  C   UNL A   1      39.299  29.428  28.153  1.00  0.00     0.010 A 
ATOM     47  C   UNL A   1      40.444  29.595  28.953  1.00  0.00    -0.014 A 
BRANCH  47  48
ATOM     48  C   UNL A   1      41.771  29.128  28.487  1.00  0.00     0.031 A 
ATOM     49  C   UNL A   1      42.906  30.120  28.458  1.00  0.00     0.074 A 
ATOM     50  C   UNL A   1      41.989  27.834  28.194  1.00  0.00     0.049 A 
ATOM     51  N   UNL A   1      44.164  29.934  28.154  1.00  0.00    -0.248 NA
ATOM     52  C   UNL A   1      42.578  31.510  28.826  1.00  0.00     0.031 C 
ATOM     53  C   UNL A   1      40.982  26.775  28.240  1.00  0.00     0.029 A 
ATOM     54  N   UNL A   1      43.139  27.193  27.815  1.00  0.00    -0.354 N 
ATOM     55  C   UNL A   1      44.773  31.176  28.286  1.00  0.00     0.074 A 
ATOM     56  C   UNL A   1      43.742  32.119  28.657  1.00  0.00     0.031 C 
ATOM     57  C   UNL A   1      41.564  25.609  27.909  1.00  0.00     0.029 A 
ATOM     58  C   UNL A   1      42.974  25.847  27.601  1.00  0.00     0.049 A 
ATOM     59  H   UNL A   1      44.003  27.653  27.707  1.00  0.00     0.167 HD
ATOM     60  C   UNL A   1      46.077  31.504  28.127  1.00  0.00     0.031 A 
ATOM     61  C   UNL A   1      43.859  24.915  27.193  1.00  0.00     0.031 A 
ATOM     62  C   UNL A   1      47.098  30.565  27.752  1.00  0.00     0.049 A 
ATOM     63  C   UNL A   1      45.292  25.317  26.955  1.00  0.00     0.074 A 
ATOM     64  C   UNL A   1      48.452  30.792  27.573  1.00  0.00     0.029 A 
ATOM     65  N   UNL A   1      46.880  29.221  27.492  1.00  0.00    -0.354 N 
ATOM     66  N   UNL A   1      45.856  26.492  27.104  1.00  0.00    -0.248 NA
ATOM     67  C   UNL A   1      46.210  24.261  26.509  1.00  0.00     0.031 C 
ATOM     68  C   UNL A   1      49.040  29.598  27.141  1.00  0.00     0.029 A 
ATOM     69  C   UNL A   1      48.067  28.610  27.125  1.00  0.00     0.049 A 
ATOM     70  H   UNL A   1      46.008  28.767  27.558  1.00  0.00     0.167 HD
ATOM     71  C   UNL A   1      47.204  26.308  26.804  1.00  0.00     0.074 A 
ATOM     72  C   UNL A   1      47.368  24.904  26.480  1.00  0.00     0.031 C 
ATOM     73  C   UNL A   1      48.214  27.213  26.803  1.00  0.00     0.031 A 
BRANCH  60  74
ATOM     74  C   UNL A   1      46.461  32.948  28.320  1.00  0.00    -0.014 A 
ATOM     75  C   UNL A   1      46.517  33.845  27.236  1.00  0.00     0.010 A 
ATOM     76  C   UNL A   1      46.743  33.424  29.613  1.00  0.00     0.010 A 
ATOM     77  C   UNL A   1      46.885  35.178  27.438  1.00  0.00     0.020 A 
ATOM     78  C   UNL A   1      47.081  34.763  29.824  1.00  0.00     0.020 A 
ATOM     79  C   UNL A   1      47.165  35.628  28.733  1.00  0.00     0.054 A 
BRANCH  79  80
ATOM     80  S   UNL A   1      47.618  37.369  28.969  1.00  0.00     0.124 S 
ATOM     81  O   UNL A   1      46.416  38.058  28.508  1.00  0.00    -0.237 OA
ATOM     82  O   UNL A   1      47.871  37.440  30.406  1.00  0.00    -0.237 OA
ATOM     83  O   UNL A   1      48.797  37.539  28.123  1.00  0.00    -0.744 OA
ENDBRANCH  79  80
ENDBRANCH  60  74
BRANCH  61  84
ATOM     84  C   UNL A   1      43.413  23.511  26.975  1.00  0.00    -0.014 A 
ATOM     85  C   UNL A   1      43.384  22.587  28.035  1.00  0.00     0.010 A 
ATOM     86  C   UNL A   1      43.016  23.090  25.693  1.00  0.00     0.010 A 
ATOM     87  C   UNL A   1      42.987  21.264  27.811  1.00  0.00     0.020 A 
ATOM     88  C   UNL A   1      42.590  21.778  25.470  1.00  0.00     0.020 A 
ATOM     89  C   UNL A   1      42.590  20.870  26.530  1.00  0.00     0.054 A 
BRANCH  89  90
ATOM     90  S   UNL A   1      42.036  19.162  26.272  1.00  0.00     0.124 S 
ATOM     91  O   UNL A   1      43.002  18.674  25.293  1.00  0.00    -0.237 OA
ATOM     92  O   UNL A   1      42.148  18.591  27.612  1.00  0.00    -0.237 OA
ATOM     93  O   UNL A   1      40.668  19.316  25.782  1.00  0.00    -0.744 OA
ENDBRANCH  89  90
ENDBRANCH  61  84
BRANCH  73  94
ATOM     94  C   UNL A   1      49.599  26.710  26.485  1.00  0.00    -0.014 A 
ATOM     95  C   UNL A   1      50.423  26.143  27.474  1.00  0.00     0.010 A 
ATOM     96  C   UNL A   1      50.065  26.769  25.158  1.00  0.00     0.010 A 
ATOM     97  C   UNL A   1      51.705  25.690  27.150  1.00  0.00     0.020 A 
ATOM     98  C   UNL A   1      51.332  26.284  24.824  1.00  0.00     0.020 A 
ATOM     99  C   UNL A   1      52.153  25.766  25.827  1.00  0.00     0.054 A 
BRANCH  99 100
ATOM    100  S   UNL A   1      53.811  25.150  25.429  1.00  0.00     0.124 S 
ATOM    101  O   UNL A   1      53.512  23.911  24.718  1.00  0.00    -0.237 OA
ATOM    102  O   UNL A   1      54.366  26.227  24.612  1.00  0.00    -0.237 OA
ATOM    103  O   UNL A   1      54.442  24.981  26.737  1.00  0.00    -0.744 OA
ENDBRANCH  99 100
ENDBRANCH  73  94
ENDBRANCH  47  48
ENDBRANCH  40  42
ENDBRANCH  39  40
ENDBRANCH  38  39
ENDBRANCH  37  38
ENDBRANCH  36  37
ENDBRANCH  35  36
ENDBRANCH  34  35
ENDBRANCH   1  34
TORSDOF 29
ENDMDL
MODEL 3
REMARK VINA RESULT:      -9.2      4.591      9.441
REMARK SMILES Cc1ccc(NC(=O)C[C@H]([NH2+]Cc2cccnc2)C(=O)OCCOCCOCCOCCOC(=O)c2ccc(-c3c4nc(c(-c5ccc(S(=O)(=O)[O-])cc5)c5ccc([nH]5)c(-c5ccc(S(=O)(=O)[O-])cc5)c5nc(c(-c6ccc(S(=O)(=O)[O-])cc6)c6ccc3[nH]6)C=C5)C=C4)cc2)cc1Cl
REMARK SMILES IDX 27 1 26 2 25 3 24 4 23 5 22 6 21 7 19 8 20 9 10 10 9 11 7 12
REMARK SMILES IDX 6 13 8 15 5 16 1 17 2 18 3 19 97 20 4 21 96 22 98 23 11 24
REMARK SMILES IDX 12 27 13 28 14 29 18 30 15 31 17 32 16 33 28 34 29 35 30 36
REMARK SMILES IDX 31 37 32 38 33 39 34 40 35 41 36 42 37 43 95 44 38 45 94 46
REMARK SMILES IDX 39 47 40 48 41 49 88 50 42 51 93 52 87 53 89 54 43 55 92 56
REMARK SMILES IDX 86 57 85 58 44 60 74 61 55 62 73 63 56 64 59 65 72 66 90 67
REMARK SMILES IDX 57 68 58 69 71 71 91 72 60 73 45 74 46 75 54 76 47 77 53 78
REMARK SMILES IDX 48 79 49 80 50 81 51 82 52 83 75 84 76 85 84 86 77 87 83 88
REMARK SMILES IDX 78 89 79 90 80 91 81 92 82 93 61 94 62 95 70 96 63 97 69 98
REMARK SMILES IDX 64 99 65 100 66 101 67 102 68 103
REMARK H PARENT 6 14 11 25 11 26 89 59 59 70
REMARK Flexibility Score: inf
ROOT
ATOM      1  O   UNL A   1      34.907  21.978  25.553  1.00  0.00    -0.377 OA
ENDROOT
BRANCH   1   2
ATOM      2  C   UNL A   1      33.606  21.838  26.074  1.00  0.00     0.188 C 
BRANCH   2   3
ATOM      3  C   UNL A   1      32.638  21.043  25.202  1.00  0.00     0.188 C 
BRANCH   3   4
ATOM      4  O   UNL A   1      31.837  21.663  24.204  1.00  0.00    -0.376 OA
BRANCH   4   5
ATOM      5  C   UNL A   1      31.934  23.057  23.964  1.00  0.00     0.202 C 
BRANCH   5   6
ATOM      6  C   UNL A   1      30.694  23.722  23.348  1.00  0.00     0.261 C 
BRANCH   6   7
ATOM      7  O   UNL A   1      30.716  25.147  23.102  1.00  0.00    -0.459 OA
BRANCH   7   8
ATOM      8  C   UNL A   1      31.800  25.669  22.467  1.00  0.00     0.365 C 
ATOM      9  O   UNL A   1      32.330  25.169  21.479  1.00  0.00    -0.245 OA
BRANCH   8  10
ATOM     10  C   UNL A   1      32.380  26.929  23.166  1.00  0.00     0.303 C 
BRANCH  10  11
ATOM     11  C   UNL A   1      32.223  26.769  24.672  1.00  0.00     0.177 C 
BRANCH  11  12
ATOM     12  C   UNL A   1      33.314  26.570  25.717  1.00  0.00     0.231 C 
ATOM     13  N   UNL A   1      34.038  27.456  26.439  1.00  0.00    -0.326 N 
ATOM     14  H   UNL A   1      34.863  27.028  26.762  1.00  0.00     0.169 HD
ATOM     15  O   UNL A   1      33.759  25.406  25.783  1.00  0.00    -0.274 OA
BRANCH  13  16
ATOM     16  C   UNL A   1      33.991  28.791  26.875  1.00  0.00     0.042 A 
ATOM     17  C   UNL A   1      34.190  32.960  28.101  1.00  0.00     0.046 C 
ATOM     18  C   UNL A   1      34.101  31.510  27.734  1.00  0.00    -0.032 A 
ATOM     19  C   UNL A   1      35.201  30.660  27.890  1.00  0.00     0.007 A 
ATOM     20  C   UNL A   1      32.941  30.968  27.187  1.00  0.00     0.046 A 
ATOM     21  C   UNL A   1      35.147  29.324  27.455  1.00  0.00     0.026 A 
ATOM     22  C   UNL A   1      32.883  29.611  26.842  1.00  0.00     0.047 A 
ATOM     23  Cl  UNL A   1      31.565  31.972  26.863  1.00  0.00    -0.084 Cl
ENDBRANCH  13  16
ENDBRANCH  11  12
ENDBRANCH  10  11
BRANCH  10  24
ATOM     24  N   UNL A   1      32.018  28.241  22.576  1.00  0.00    -0.330 N 
ATOM     25  H   UNL A   1      31.307  28.080  21.862  1.00  0.00     0.347 HD
ATOM     26  H   UNL A   1      32.886  28.632  22.210  1.00  0.00     0.347 HD
BRANCH  24  27
ATOM     27  C   UNL A   1      31.494  29.233  23.524  1.00  0.00     0.299 C 
BRANCH  27  28
ATOM     28  C   UNL A   1      30.013  29.496  23.376  1.00  0.00     0.024 A 
ATOM     29  C   UNL A   1      29.435  30.738  23.652  1.00  0.00     0.013 A 
ATOM     30  C   UNL A   1      29.145  28.485  22.956  1.00  0.00     0.120 A 
ATOM     31  C   UNL A   1      28.060  30.919  23.489  1.00  0.00     0.021 A 
ATOM     32  N   UNL A   1      27.804  28.625  22.809  1.00  0.00    -0.264 NA
ATOM     33  C   UNL A   1      27.295  29.845  23.066  1.00  0.00     0.111 A 
ENDBRANCH  27  28
ENDBRANCH  24  27
ENDBRANCH  10  24
ENDBRANCH   8  10
ENDBRANCH   7   8
ENDBRANCH   6   7
ENDBRANCH   5   6
ENDBRANCH   4   5
ENDBRANCH   3   4
ENDBRANCH   2   3
ENDBRANCH   1   2
BRANCH   1  34
ATOM     34  C   UNL A   1      35.465  20.861  24.886  1.00  0.00     0.188 C 
BRANCH  34  35
ATOM     35  C   UNL A   1      36.975  20.664  25.039  1.00  0.00     0.188 C 
BRANCH  35  36
ATOM     36  O   UNL A   1      37.774  21.724  25.541  1.00  0.00    -0.376 OA
BRANCH  36  37
ATOM     37  C   UNL A   1      39.087  21.566  26.047  1.00  0.00     0.202 C 
BRANCH  37  38
ATOM     38  C   UNL A   1      39.901  20.263  26.086  1.00  0.00     0.261 C 
BRANCH  38  39
ATOM     39  O   UNL A   1      41.062  20.235  26.910  1.00  0.00    -0.460 OA
BRANCH  39  40
ATOM     40  C   UNL A   1      42.099  20.954  26.441  1.00  0.00     0.338 C 
ATOM     41  O   UNL A   1      42.908  20.604  25.583  1.00  0.00    -0.246 OA
BRANCH  40  42
ATOM     42  C   UNL A   1      42.045  22.318  26.982  1.00  0.00     0.060 A 
ATOM     43  C   UNL A   1      41.880  23.369  26.076  1.00  0.00     0.016 A 
ATOM     44  C   UNL A   1      42.260  22.572  28.340  1.00  0.00     0.016 A 
ATOM     45  C   UNL A   1      42.015  24.683  26.508  1.00  0.00     0.010 A 
ATOM     46  C   UNL A   1      42.395  23.893  28.775  1.00  0.00     0.010 A 
ATOM     47  C   UNL A   1      42.341  24.946  27.845  1.00  0.00    -0.014 A 
BRANCH  47  48
ATOM     48  C   UNL A   1      42.875  26.286  28.183  1.00  0.00     0.031 A 
ATOM     49  C   UNL A   1      44.323  26.575  27.876  1.00  0.00     0.074 A 
ATOM     50  C   UNL A   1      42.072  27.255  28.656  1.00  0.00     0.049 A 
ATOM     51  N   UNL A   1      44.996  27.687  28.019  1.00  0.00    -0.248 NA
ATOM     52  C   UNL A   1      45.118  25.460  27.330  1.00  0.00     0.031 C 
ATOM     53  C   UNL A   1      40.646  27.108  28.938  1.00  0.00     0.029 A 
ATOM     54  N   UNL A   1      42.347  28.562  28.964  1.00  0.00    -0.354 N 
ATOM     55  C   UNL A   1      46.288  27.405  27.590  1.00  0.00     0.074 A 
ATOM     56  C   UNL A   1      46.319  26.008  27.220  1.00  0.00     0.031 C 
ATOM     57  C   UNL A   1      40.166  28.287  29.373  1.00  0.00     0.029 A 
ATOM     58  C   UNL A   1      41.257  29.259  29.426  1.00  0.00     0.049 A 
ATOM     59  H   UNL A   1      43.240  28.963  28.865  1.00  0.00     0.167 HD
ATOM     60  C   UNL A   1      47.352  28.236  27.498  1.00  0.00     0.031 A 
ATOM     61  C   UNL A   1      41.156  30.534  29.851  1.00  0.00     0.031 A 
ATOM     62  C   UNL A   1      47.319  29.624  27.873  1.00  0.00     0.049 A 
ATOM     63  C   UNL A   1      42.373  31.423  29.804  1.00  0.00     0.074 A 
ATOM     64  C   UNL A   1      48.340  30.556  27.810  1.00  0.00     0.029 A 
ATOM     65  N   UNL A   1      46.210  30.278  28.386  1.00  0.00    -0.354 N 
ATOM     66  N   UNL A   1      43.583  31.147  29.377  1.00  0.00    -0.248 NA
ATOM     67  C   UNL A   1      42.204  32.802  30.284  1.00  0.00     0.031 C 
ATOM     68  C   UNL A   1      47.866  31.757  28.347  1.00  0.00     0.029 A 
ATOM     69  C   UNL A   1      46.528  31.595  28.672  1.00  0.00     0.049 A 
ATOM     70  H   UNL A   1      45.326  29.867  28.527  1.00  0.00     0.167 HD
ATOM     71  C   UNL A   1      44.309  32.328  29.503  1.00  0.00     0.074 A 
ATOM     72  C   UNL A   1      43.397  33.322  30.033  1.00  0.00     0.031 C 
ATOM     73  C   UNL A   1      45.609  32.571  29.202  1.00  0.00     0.031 A 
BRANCH  60  74
ATOM     74  C   UNL A   1      48.652  27.652  27.009  1.00  0.00    -0.014 A 
ATOM     75  C   UNL A   1      49.000  27.671  25.645  1.00  0.00     0.010 A 
ATOM     76  C   UNL A   1      49.556  27.100  27.935  1.00  0.00     0.010 A 
ATOM     77  C   UNL A   1      50.208  27.113  25.215  1.00  0.00     0.020 A 
ATOM     78  C   UNL A   1      50.778  26.571  27.514  1.00  0.00     0.020 A 
ATOM     79  C   UNL A   1      51.089  26.567  26.153  1.00  0.00     0.054 A 
BRANCH  79  80
ATOM     80  S   UNL A   1      52.660  25.872  25.570  1.00  0.00     0.124 S 
ATOM     81  O   UNL A   1      52.430  24.437  25.724  1.00  0.00    -0.237 OA
ATOM     82  O   UNL A   1      52.729  26.353  24.192  1.00  0.00    -0.237 OA
ATOM     83  O   UNL A   1      53.652  26.444  26.477  1.00  0.00    -0.744 OA
ENDBRANCH  79  80
ENDBRANCH  60  74
BRANCH  61  84
ATOM     84  C   UNL A   1      39.856  31.045  30.367  1.00  0.00    -0.014 A 
ATOM     85  C   UNL A   1      39.432  30.757  31.676  1.00  0.00     0.010 A 
ATOM     86  C   UNL A   1      39.030  31.827  29.539  1.00  0.00     0.010 A 
ATOM     87  C   UNL A   1      38.197  31.221  32.139  1.00  0.00     0.020 A 
ATOM     88  C   UNL A   1      37.808  32.319  30.007  1.00  0.00     0.020 A 
ATOM     89  C   UNL A   1      37.395  32.002  31.302  1.00  0.00     0.054 A 
BRANCH  89  90
ATOM     90  S   UNL A   1      35.817  32.633  31.939  1.00  0.00     0.124 S 
ATOM     91  O   UNL A   1      36.012  32.535  33.382  1.00  0.00    -0.237 OA
ATOM     92  O   UNL A   1      35.780  33.988  31.395  1.00  0.00    -0.237 OA
ATOM     93  O   UNL A   1      34.830  31.716  31.376  1.00  0.00    -0.744 OA
ENDBRANCH  89  90
ENDBRANCH  61  84
BRANCH  73  94
ATOM     94  C   UNL A   1      46.117  33.978  29.393  1.00  0.00    -0.014 A 
ATOM     95  C   UNL A   1      46.689  34.397  30.607  1.00  0.00     0.010 A 
ATOM     96  C   UNL A   1      46.054  34.884  28.317  1.00  0.00     0.010 A 
ATOM     97  C   UNL A   1      47.147  35.710  30.756  1.00  0.00     0.020 A 
ATOM     98  C   UNL A   1      46.543  36.187  28.452  1.00  0.00     0.020 A 
ATOM     99  C   UNL A   1      47.067  36.597  29.678  1.00  0.00     0.054 A 
BRANCH  99 100
ATOM    100  S   UNL A   1      47.687  38.288  29.891  1.00  0.00     0.124 S 
ATOM    101  O   UNL A   1      48.028  38.310  31.310  1.00  0.00    -0.237 OA
ATOM    102  O   UNL A   1      48.821  38.332  28.971  1.00  0.00    -0.237 OA
ATOM    103  O   UNL A   1      46.552  39.125  29.510  1.00  0.00    -0.744 OA
ENDBRANCH  99 100
ENDBRANCH  73  94
ENDBRANCH  47  48
ENDBRANCH  40  42
ENDBRANCH  39  40
ENDBRANCH  38  39
ENDBRANCH  37  38
ENDBRANCH  36  37
ENDBRANCH  35  36
ENDBRANCH  34  35
ENDBRANCH   1  34
TORSDOF 29
ENDMDL
