MODEL 1
REMARK VINA RESULT:     -10.0      0.000      0.000
REMARK SMILES O=C(OCCOCCOCCOCCOC(=O)c1nnn(Cc2ccccc2Cl)c1-c1ccc(Cl)cc1)c1ccc(-c2c3nc(c(-c4ccc(S(=O)(=O)[O-])cc4)c4ccc([nH]4)c(-c4ccc(S(=O)(=O)[O-])cc4)c4nc(c(-c5ccc(S(=O)(=O)[O-])cc5)c5ccc2[nH]5)C=C4)C=C3)cc1
REMARK SMILES IDX 8 1 7 2 6 3 5 4 4 5 3 6 2 7 1 8 38 9 39 10 97 11 40 12 96 13
REMARK SMILES IDX 41 14 42 15 43 16 90 17 44 18 95 19 89 20 91 21 45 22 94 23
REMARK SMILES IDX 88 24 87 25 46 27 76 28 57 29 75 30 58 31 61 32 74 33 92 34
REMARK SMILES IDX 59 35 60 36 73 38 93 39 62 40 47 41 48 42 56 43 49 44 55 45
REMARK SMILES IDX 50 46 51 47 52 48 53 49 54 50 77 51 78 52 86 53 79 54 85 55
REMARK SMILES IDX 80 56 81 57 82 58 83 59 84 60 63 61 64 62 72 63 65 64 71 65
REMARK SMILES IDX 66 66 67 67 68 68 69 69 70 70 9 71 10 72 11 73 12 74 13 75
REMARK SMILES IDX 14 76 15 77 16 78 17 79 18 80 19 81 30 82 20 83 21 84 31 85
REMARK SMILES IDX 32 86 37 87 33 88 36 89 34 90 35 91 22 92 23 93 24 94 28 95
REMARK SMILES IDX 25 96 27 97 29 98 26 99
REMARK H PARENT 91 26 61 37
REMARK Flexibility Score: inf
ROOT
ATOM      1  C   UNL A   1      36.170  22.275  25.725  1.00  0.00     0.188 C 
ENDROOT
BRANCH   1   2
ATOM      2  C   UNL A   1      36.777  21.133  24.899  1.00  0.00     0.188 C 
BRANCH   2   3
ATOM      3  O   UNL A   1      38.018  20.547  25.239  1.00  0.00    -0.376 OA
BRANCH   3   4
ATOM      4  C   UNL A   1      39.102  21.109  25.948  1.00  0.00     0.202 C 
BRANCH   4   5
ATOM      5  C   UNL A   1      40.391  20.418  26.403  1.00  0.00     0.261 C 
BRANCH   5   6
ATOM      6  O   UNL A   1      41.480  21.231  26.813  1.00  0.00    -0.460 OA
BRANCH   6   7
ATOM      7  C   UNL A   1      42.245  22.086  26.110  1.00  0.00     0.338 C 
ATOM      8  O   UNL A   1      42.892  21.631  25.167  1.00  0.00    -0.246 OA
BRANCH   7   9
ATOM      9  C   UNL A   1      42.446  23.515  26.470  1.00  0.00     0.060 A 
ATOM     10  C   UNL A   1      43.666  24.191  26.514  1.00  0.00     0.016 A 
ATOM     11  C   UNL A   1      41.270  24.215  26.808  1.00  0.00     0.016 A 
ATOM     12  C   UNL A   1      43.737  25.472  27.029  1.00  0.00     0.010 A 
ATOM     13  C   UNL A   1      41.331  25.505  27.306  1.00  0.00     0.010 A 
ATOM     14  C   UNL A   1      42.579  26.088  27.487  1.00  0.00    -0.014 A 
BRANCH  14  15
ATOM     15  C   UNL A   1      42.752  27.316  28.236  1.00  0.00     0.031 A 
ATOM     16  C   UNL A   1      44.028  28.037  28.043  1.00  0.00     0.074 A 
ATOM     17  C   UNL A   1      41.779  27.764  29.051  1.00  0.00     0.049 A 
ATOM     18  N   UNL A   1      44.956  28.266  28.915  1.00  0.00    -0.248 NA
ATOM     19  C   UNL A   1      44.353  28.477  26.680  1.00  0.00     0.031 C 
ATOM     20  C   UNL A   1      40.397  27.282  29.134  1.00  0.00     0.029 A 
ATOM     21  N   UNL A   1      41.792  28.834  29.891  1.00  0.00    -0.354 N 
ATOM     22  C   UNL A   1      45.890  29.067  28.266  1.00  0.00     0.074 A 
ATOM     23  C   UNL A   1      45.549  29.038  26.865  1.00  0.00     0.031 C 
ATOM     24  C   UNL A   1      39.651  28.205  29.775  1.00  0.00     0.029 A 
ATOM     25  C   UNL A   1      40.525  29.261  30.256  1.00  0.00     0.049 A 
ATOM     26  H   UNL A   1      42.620  29.262  30.207  1.00  0.00     0.167 HD
ATOM     27  C   UNL A   1      46.734  29.892  28.946  1.00  0.00     0.031 A 
ATOM     28  C   UNL A   1      40.207  30.448  30.823  1.00  0.00     0.031 A 
ATOM     29  C   UNL A   1      46.840  29.545  30.338  1.00  0.00     0.049 A 
ATOM     30  C   UNL A   1      41.436  30.996  31.447  1.00  0.00     0.074 A 
ATOM     31  C   UNL A   1      47.241  28.424  31.036  1.00  0.00     0.029 A 
ATOM     32  N   UNL A   1      46.179  30.341  31.242  1.00  0.00    -0.354 N 
ATOM     33  N   UNL A   1      42.018  30.463  32.486  1.00  0.00    -0.248 NA
ATOM     34  C   UNL A   1      42.262  31.917  30.681  1.00  0.00     0.031 C 
ATOM     35  C   UNL A   1      46.418  28.395  32.200  1.00  0.00     0.029 A 
ATOM     36  C   UNL A   1      45.586  29.515  32.162  1.00  0.00     0.049 A 
ATOM     37  H   UNL A   1      46.137  31.324  31.231  1.00  0.00     0.167 HD
ATOM     38  C   UNL A   1      43.376  30.648  32.272  1.00  0.00     0.074 A 
ATOM     39  C   UNL A   1      43.456  31.652  31.216  1.00  0.00     0.031 C 
ATOM     40  C   UNL A   1      44.297  29.771  32.773  1.00  0.00     0.031 A 
BRANCH  27  41
ATOM     41  C   UNL A   1      47.138  31.251  28.427  1.00  0.00    -0.014 A 
ATOM     42  C   UNL A   1      46.151  32.240  28.244  1.00  0.00     0.010 A 
ATOM     43  C   UNL A   1      48.398  31.488  27.837  1.00  0.00     0.010 A 
ATOM     44  C   UNL A   1      46.392  33.366  27.443  1.00  0.00     0.020 A 
ATOM     45  C   UNL A   1      48.665  32.628  27.081  1.00  0.00     0.020 A 
ATOM     46  C   UNL A   1      47.644  33.538  26.851  1.00  0.00     0.054 A 
BRANCH  46  47
ATOM     47  S   UNL A   1      47.908  34.913  25.704  1.00  0.00     0.124 S 
ATOM     48  O   UNL A   1      46.719  34.828  24.862  1.00  0.00    -0.237 OA
ATOM     49  O   UNL A   1      47.969  36.062  26.603  1.00  0.00    -0.237 OA
ATOM     50  O   UNL A   1      49.170  34.573  25.050  1.00  0.00    -0.744 OA
ENDBRANCH  46  47
ENDBRANCH  27  41
BRANCH  28  51
ATOM     51  C   UNL A   1      38.991  31.253  30.562  1.00  0.00    -0.014 A 
ATOM     52  C   UNL A   1      39.027  32.354  29.692  1.00  0.00     0.010 A 
ATOM     53  C   UNL A   1      37.726  30.782  30.975  1.00  0.00     0.010 A 
ATOM     54  C   UNL A   1      37.839  32.927  29.208  1.00  0.00     0.020 A 
ATOM     55  C   UNL A   1      36.539  31.357  30.512  1.00  0.00     0.020 A 
ATOM     56  C   UNL A   1      36.602  32.412  29.608  1.00  0.00     0.054 A 
BRANCH  56  57
ATOM     57  S   UNL A   1      35.080  33.038  28.843  1.00  0.00     0.124 S 
ATOM     58  O   UNL A   1      34.741  34.166  29.705  1.00  0.00    -0.237 OA
ATOM     59  O   UNL A   1      35.522  33.382  27.495  1.00  0.00    -0.237 OA
ATOM     60  O   UNL A   1      34.163  31.902  28.920  1.00  0.00    -0.744 OA
ENDBRANCH  56  57
ENDBRANCH  28  51
BRANCH  40  61
ATOM     61  C   UNL A   1      43.860  28.804  33.849  1.00  0.00    -0.014 A 
ATOM     62  C   UNL A   1      44.283  28.892  35.189  1.00  0.00     0.010 A 
ATOM     63  C   UNL A   1      42.871  27.858  33.520  1.00  0.00     0.010 A 
ATOM     64  C   UNL A   1      43.753  28.037  36.166  1.00  0.00     0.020 A 
ATOM     65  C   UNL A   1      42.325  27.017  34.492  1.00  0.00     0.020 A 
ATOM     66  C   UNL A   1      42.775  27.103  35.810  1.00  0.00     0.054 A 
BRANCH  66  67
ATOM     67  S   UNL A   1      42.052  26.041  37.092  1.00  0.00     0.124 S 
ATOM     68  O   UNL A   1      42.181  24.709  36.509  1.00  0.00    -0.237 OA
ATOM     69  O   UNL A   1      42.901  26.307  38.250  1.00  0.00    -0.237 OA
ATOM     70  O   UNL A   1      40.679  26.531  37.217  1.00  0.00    -0.744 OA
ENDBRANCH  66  67
ENDBRANCH  40  61
ENDBRANCH  14  15
ENDBRANCH   7   9
ENDBRANCH   6   7
ENDBRANCH   5   6
ENDBRANCH   4   5
ENDBRANCH   3   4
ENDBRANCH   2   3
ENDBRANCH   1   2
BRANCH   1  71
ATOM     71  O   UNL A   1      35.927  23.474  25.010  1.00  0.00    -0.377 OA
BRANCH  71  72
ATOM     72  C   UNL A   1      35.102  23.311  23.874  1.00  0.00     0.188 C 
BRANCH  72  73
ATOM     73  C   UNL A   1      33.623  22.990  24.176  1.00  0.00     0.188 C 
BRANCH  73  74
ATOM     74  O   UNL A   1      33.195  22.006  25.116  1.00  0.00    -0.376 OA
BRANCH  74  75
ATOM     75  C   UNL A   1      32.074  22.211  25.953  1.00  0.00     0.202 C 
BRANCH  75  76
ATOM     76  C   UNL A   1      31.673  23.668  26.186  1.00  0.00     0.261 C 
BRANCH  76  77
ATOM     77  O   UNL A   1      30.662  24.145  25.294  1.00  0.00    -0.458 OA
BRANCH  77  78
ATOM     78  C   UNL A   1      29.935  25.217  25.728  1.00  0.00     0.361 C 
ATOM     79  O   UNL A   1      29.373  25.305  26.812  1.00  0.00    -0.244 OA
BRANCH  78  80
ATOM     80  C   UNL A   1      29.907  26.265  24.726  1.00  0.00     0.198 A 
ATOM     81  N   UNL A   1      28.942  26.360  23.762  1.00  0.00    -0.122 NA
ATOM     82  C   UNL A   1      30.779  27.342  24.631  1.00  0.00     0.104 A 
ATOM     83  N   UNL A   1      29.147  27.480  23.090  1.00  0.00    -0.066 NA
ATOM     84  N   UNL A   1      30.284  28.042  23.556  1.00  0.00    -0.239 N 
BRANCH  82  85
ATOM     85  C   UNL A   1      31.959  27.609  25.444  1.00  0.00     0.002 A 
ATOM     86  C   UNL A   1      31.803  28.336  26.636  1.00  0.00     0.012 A 
ATOM     87  C   UNL A   1      33.248  27.326  24.983  1.00  0.00     0.012 A 
ATOM     88  C   UNL A   1      32.911  28.813  27.333  1.00  0.00     0.021 A 
ATOM     89  C   UNL A   1      34.363  27.788  25.694  1.00  0.00     0.021 A 
ATOM     90  C   UNL A   1      34.189  28.540  26.855  1.00  0.00     0.041 A 
ATOM     91  Cl  UNL A   1      35.557  29.164  27.690  1.00  0.00    -0.084 Cl
ENDBRANCH  82  85
BRANCH  84  92
ATOM     92  C   UNL A   1      30.858  29.162  22.829  1.00  0.00     0.183 C 
BRANCH  92  93
ATOM     93  C   UNL A   1      29.820  30.244  22.631  1.00  0.00    -0.008 A 
ATOM     94  C   UNL A   1      29.079  30.257  21.434  1.00  0.00     0.007 A 
ATOM     95  C   UNL A   1      29.492  31.176  23.631  1.00  0.00     0.046 A 
ATOM     96  C   UNL A   1      28.036  31.165  21.248  1.00  0.00     0.000 A 
ATOM     97  C   UNL A   1      28.439  32.078  23.442  1.00  0.00     0.021 A 
ATOM     98  Cl  UNL A   1      30.352  31.270  25.126  1.00  0.00    -0.084 Cl
ATOM     99  C   UNL A   1      27.711  32.070  22.253  1.00  0.00     0.002 A 
ENDBRANCH  92  93
ENDBRANCH  84  92
ENDBRANCH  78  80
ENDBRANCH  77  78
ENDBRANCH  76  77
ENDBRANCH  75  76
ENDBRANCH  74  75
ENDBRANCH  73  74
ENDBRANCH  72  73
ENDBRANCH  71  72
ENDBRANCH   1  71
TORSDOF 26
ENDMDL
MODEL 2
REMARK VINA RESULT:      -8.9      8.387     13.588
REMARK SMILES O=C(OCCOCCOCCOCCOC(=O)c1nnn(Cc2ccccc2Cl)c1-c1ccc(Cl)cc1)c1ccc(-c2c3nc(c(-c4ccc(S(=O)(=O)[O-])cc4)c4ccc([nH]4)c(-c4ccc(S(=O)(=O)[O-])cc4)c4nc(c(-c5ccc(S(=O)(=O)[O-])cc5)c5ccc2[nH]5)C=C4)C=C3)cc1
REMARK SMILES IDX 8 1 7 2 6 3 5 4 4 5 3 6 2 7 1 8 38 9 39 10 97 11 40 12 96 13
REMARK SMILES IDX 41 14 42 15 43 16 90 17 44 18 95 19 89 20 91 21 45 22 94 23
REMARK SMILES IDX 88 24 87 25 46 27 76 28 57 29 75 30 58 31 61 32 74 33 92 34
REMARK SMILES IDX 59 35 60 36 73 38 93 39 62 40 47 41 48 42 56 43 49 44 55 45
REMARK SMILES IDX 50 46 51 47 52 48 53 49 54 50 77 51 78 52 86 53 79 54 85 55
REMARK SMILES IDX 80 56 81 57 82 58 83 59 84 60 63 61 64 62 72 63 65 64 71 65
REMARK SMILES IDX 66 66 67 67 68 68 69 69 70 70 9 71 10 72 11 73 12 74 13 75
REMARK SMILES IDX 14 76 15 77 16 78 17 79 18 80 19 81 30 82 20 83 21 84 31 85
REMARK SMILES IDX 32 86 37 87 33 88 36 89 34 90 35 91 22 92 23 93 24 94 28 95
REMARK SMILES IDX 25 96 27 97 29 98 26 99
REMARK H PARENT 91 26 61 37
REMARK Flexibility Score: inf
ROOT
ATOM      1  C   UNL A   1      50.372  19.573  38.107  1.00  0.00     0.188 C 
ENDROOT
BRANCH   1   2
ATOM      2  C   UNL A   1      51.135  19.259  36.813  1.00  0.00     0.188 C 
BRANCH   2   3
ATOM      3  O   UNL A   1      51.463  20.270  35.879  1.00  0.00    -0.376 OA
BRANCH   3   4
ATOM      4  C   UNL A   1      52.256  21.424  36.059  1.00  0.00     0.202 C 
BRANCH   4   5
ATOM      5  C   UNL A   1      52.090  22.795  35.396  1.00  0.00     0.261 C 
BRANCH   5   6
ATOM      6  O   UNL A   1      51.834  22.839  34.001  1.00  0.00    -0.460 OA
BRANCH   6   7
ATOM      7  C   UNL A   1      52.237  23.720  33.066  1.00  0.00     0.338 C 
ATOM      8  O   UNL A   1      53.445  23.932  32.964  1.00  0.00    -0.246 OA
BRANCH   7   9
ATOM      9  C   UNL A   1      51.311  24.530  32.231  1.00  0.00     0.060 A 
ATOM     10  C   UNL A   1      49.916  24.488  32.266  1.00  0.00     0.016 A 
ATOM     11  C   UNL A   1      51.940  25.400  31.317  1.00  0.00     0.016 A 
ATOM     12  C   UNL A   1      49.173  25.166  31.319  1.00  0.00     0.010 A 
ATOM     13  C   UNL A   1      51.200  26.098  30.377  1.00  0.00     0.010 A 
ATOM     14  C   UNL A   1      49.825  25.905  30.340  1.00  0.00    -0.014 A 
BRANCH  14  15
ATOM     15  C   UNL A   1      49.012  26.384  29.240  1.00  0.00     0.031 A 
ATOM     16  C   UNL A   1      47.823  27.188  29.595  1.00  0.00     0.074 A 
ATOM     17  C   UNL A   1      49.350  26.107  27.967  1.00  0.00     0.049 A 
ATOM     18  N   UNL A   1      46.578  26.902  29.396  1.00  0.00    -0.248 NA
ATOM     19  C   UNL A   1      48.049  28.426  30.352  1.00  0.00     0.031 C 
ATOM     20  C   UNL A   1      50.615  25.545  27.486  1.00  0.00     0.029 A 
ATOM     21  N   UNL A   1      48.674  26.391  26.822  1.00  0.00    -0.354 N 
ATOM     22  C   UNL A   1      45.865  28.023  29.811  1.00  0.00     0.074 A 
ATOM     23  C   UNL A   1      46.800  28.859  30.524  1.00  0.00     0.031 C 
ATOM     24  C   UNL A   1      50.715  25.765  26.159  1.00  0.00     0.029 A 
ATOM     25  C   UNL A   1      49.473  26.354  25.689  1.00  0.00     0.049 A 
ATOM     26  H   UNL A   1      47.712  26.601  26.800  1.00  0.00     0.167 HD
ATOM     27  C   UNL A   1      44.620  28.306  29.337  1.00  0.00     0.031 A 
ATOM     28  C   UNL A   1      49.170  26.867  24.474  1.00  0.00     0.031 A 
ATOM     29  C   UNL A   1      43.989  27.165  28.730  1.00  0.00     0.049 A 
ATOM     30  C   UNL A   1      47.697  27.014  24.398  1.00  0.00     0.074 A 
ATOM     31  C   UNL A   1      43.628  25.905  29.161  1.00  0.00     0.029 A 
ATOM     32  N   UNL A   1      43.930  27.129  27.357  1.00  0.00    -0.354 N 
ATOM     33  N   UNL A   1      46.871  26.005  24.365  1.00  0.00    -0.248 NA
ATOM     34  C   UNL A   1      47.098  28.291  24.758  1.00  0.00     0.031 C 
ATOM     35  C   UNL A   1      43.807  25.057  28.030  1.00  0.00     0.029 A 
ATOM     36  C   UNL A   1      44.235  25.852  26.965  1.00  0.00     0.049 A 
ATOM     37  H   UNL A   1      43.709  27.884  26.764  1.00  0.00     0.167 HD
ATOM     38  C   UNL A   1      45.764  26.421  25.090  1.00  0.00     0.074 A 
ATOM     39  C   UNL A   1      45.909  27.870  25.197  1.00  0.00     0.031 C 
ATOM     40  C   UNL A   1      44.986  25.526  25.768  1.00  0.00     0.031 A 
BRANCH  27  41
ATOM     41  C   UNL A   1      44.152  29.717  29.069  1.00  0.00    -0.014 A 
ATOM     42  C   UNL A   1      44.595  30.381  27.909  1.00  0.00     0.010 A 
ATOM     43  C   UNL A   1      43.535  30.507  30.063  1.00  0.00     0.010 A 
ATOM     44  C   UNL A   1      44.499  31.775  27.788  1.00  0.00     0.020 A 
ATOM     45  C   UNL A   1      43.389  31.887  29.933  1.00  0.00     0.020 A 
ATOM     46  C   UNL A   1      43.913  32.518  28.815  1.00  0.00     0.054 A 
BRANCH  46  47
ATOM     47  S   UNL A   1      43.919  34.325  28.724  1.00  0.00     0.124 S 
ATOM     48  O   UNL A   1      43.050  34.567  27.576  1.00  0.00    -0.237 OA
ATOM     49  O   UNL A   1      43.374  34.705  30.025  1.00  0.00    -0.237 OA
ATOM     50  O   UNL A   1      45.330  34.652  28.526  1.00  0.00    -0.744 OA
ENDBRANCH  46  47
ENDBRANCH  27  41
BRANCH  28  51
ATOM     51  C   UNL A   1      50.110  27.525  23.535  1.00  0.00    -0.014 A 
ATOM     52  C   UNL A   1      49.891  27.486  22.149  1.00  0.00     0.010 A 
ATOM     53  C   UNL A   1      51.094  28.412  24.022  1.00  0.00     0.010 A 
ATOM     54  C   UNL A   1      50.592  28.347  21.287  1.00  0.00     0.020 A 
ATOM     55  C   UNL A   1      51.807  29.259  23.170  1.00  0.00     0.020 A 
ATOM     56  C   UNL A   1      51.533  29.241  21.807  1.00  0.00     0.054 A 
BRANCH  56  57
ATOM     57  S   UNL A   1      52.302  30.468  20.713  1.00  0.00     0.124 S 
ATOM     58  O   UNL A   1      53.648  29.930  20.540  1.00  0.00    -0.237 OA
ATOM     59  O   UNL A   1      51.445  30.421  19.532  1.00  0.00    -0.237 OA
ATOM     60  O   UNL A   1      52.225  31.710  21.481  1.00  0.00    -0.744 OA
ENDBRANCH  56  57
ENDBRANCH  28  51
BRANCH  40  61
ATOM     61  C   UNL A   1      45.125  24.057  25.443  1.00  0.00    -0.014 A 
ATOM     62  C   UNL A   1      45.757  23.130  26.293  1.00  0.00     0.010 A 
ATOM     63  C   UNL A   1      44.462  23.572  24.300  1.00  0.00     0.010 A 
ATOM     64  C   UNL A   1      45.753  21.761  25.992  1.00  0.00     0.020 A 
ATOM     65  C   UNL A   1      44.437  22.207  24.004  1.00  0.00     0.020 A 
ATOM     66  C   UNL A   1      45.090  21.308  24.847  1.00  0.00     0.054 A 
BRANCH  66  67
ATOM     67  S   UNL A   1      45.039  19.528  24.497  1.00  0.00     0.124 S 
ATOM     68  O   UNL A   1      46.433  19.130  24.674  1.00  0.00    -0.237 OA
ATOM     69  O   UNL A   1      44.108  19.025  25.505  1.00  0.00    -0.237 OA
ATOM     70  O   UNL A   1      44.545  19.457  23.122  1.00  0.00    -0.744 OA
ENDBRANCH  66  67
ENDBRANCH  40  61
ENDBRANCH  14  15
ENDBRANCH   7   9
ENDBRANCH   6   7
ENDBRANCH   5   6
ENDBRANCH   4   5
ENDBRANCH   3   4
ENDBRANCH   2   3
ENDBRANCH   1   2
BRANCH   1  71
ATOM     71  O   UNL A   1      48.961  19.615  37.980  1.00  0.00    -0.377 OA
BRANCH  71  72
ATOM     72  C   UNL A   1      48.286  19.992  39.164  1.00  0.00     0.188 C 
BRANCH  72  73
ATOM     73  C   UNL A   1      46.755  19.800  39.139  1.00  0.00     0.188 C 
BRANCH  73  74
ATOM     74  O   UNL A   1      45.849  20.688  38.488  1.00  0.00    -0.376 OA
BRANCH  74  75
ATOM     75  C   UNL A   1      46.247  21.972  38.049  1.00  0.00     0.202 C 
BRANCH  75  76
ATOM     76  C   UNL A   1      46.721  22.063  36.598  1.00  0.00     0.261 C 
BRANCH  76  77
ATOM     77  O   UNL A   1      46.024  23.035  35.815  1.00  0.00    -0.458 OA
BRANCH  77  78
ATOM     78  C   UNL A   1      46.551  24.294  35.812  1.00  0.00     0.361 C 
ATOM     79  O   UNL A   1      47.377  24.724  36.609  1.00  0.00    -0.244 OA
BRANCH  78  80
ATOM     80  C   UNL A   1      46.005  25.084  34.726  1.00  0.00     0.198 A 
ATOM     81  N   UNL A   1      46.730  25.463  33.630  1.00  0.00    -0.122 NA
ATOM     82  C   UNL A   1      44.688  25.506  34.592  1.00  0.00     0.104 A 
ATOM     83  N   UNL A   1      45.910  26.070  32.789  1.00  0.00    -0.066 NA
ATOM     84  N   UNL A   1      44.699  26.163  33.383  1.00  0.00    -0.239 N 
BRANCH  82  85
ATOM     85  C   UNL A   1      43.596  25.337  35.540  1.00  0.00     0.002 A 
ATOM     86  C   UNL A   1      42.518  24.507  35.184  1.00  0.00     0.012 A 
ATOM     87  C   UNL A   1      43.503  26.111  36.701  1.00  0.00     0.012 A 
ATOM     88  C   UNL A   1      41.352  24.484  35.945  1.00  0.00     0.021 A 
ATOM     89  C   UNL A   1      42.338  26.072  37.477  1.00  0.00     0.021 A 
ATOM     90  C   UNL A   1      41.264  25.272  37.087  1.00  0.00     0.041 A 
ATOM     91  Cl  UNL A   1      39.809  25.278  38.004  1.00  0.00    -0.084 Cl
ENDBRANCH  82  85
BRANCH  84  92
ATOM     92  C   UNL A   1      43.680  26.993  32.764  1.00  0.00     0.183 C 
BRANCH  92  93
ATOM     93  C   UNL A   1      43.170  28.018  33.751  1.00  0.00    -0.008 A 
ATOM     94  C   UNL A   1      41.823  27.952  34.157  1.00  0.00     0.007 A 
ATOM     95  C   UNL A   1      44.005  28.971  34.359  1.00  0.00     0.046 A 
ATOM     96  C   UNL A   1      41.331  28.804  35.147  1.00  0.00     0.000 A 
ATOM     97  C   UNL A   1      43.509  29.817  35.357  1.00  0.00     0.021 A 
ATOM     98  Cl  UNL A   1      45.664  29.162  33.919  1.00  0.00    -0.084 Cl
ATOM     99  C   UNL A   1      42.174  29.731  35.753  1.00  0.00     0.002 A 
ENDBRANCH  92  93
ENDBRANCH  84  92
ENDBRANCH  78  80
ENDBRANCH  77  78
ENDBRANCH  76  77
ENDBRANCH  75  76
ENDBRANCH  74  75
ENDBRANCH  73  74
ENDBRANCH  72  73
ENDBRANCH  71  72
ENDBRANCH   1  71
TORSDOF 26
ENDMDL
MODEL 3
REMARK VINA RESULT:      -8.8      8.224     14.037
REMARK SMILES O=C(OCCOCCOCCOCCOC(=O)c1nnn(Cc2ccccc2Cl)c1-c1ccc(Cl)cc1)c1ccc(-c2c3nc(c(-c4ccc(S(=O)(=O)[O-])cc4)c4ccc([nH]4)c(-c4ccc(S(=O)(=O)[O-])cc4)c4nc(c(-c5ccc(S(=O)(=O)[O-])cc5)c5ccc2[nH]5)C=C4)C=C3)cc1
REMARK SMILES IDX 8 1 7 2 6 3 5 4 4 5 3 6 2 7 1 8 38 9 39 10 97 11 40 12 96 13
REMARK SMILES IDX 41 14 42 15 43 16 90 17 44 18 95 19 89 20 91 21 45 22 94 23
REMARK SMILES IDX 88 24 87 25 46 27 76 28 57 29 75 30 58 31 61 32 74 33 92 34
REMARK SMILES IDX 59 35 60 36 73 38 93 39 62 40 47 41 48 42 56 43 49 44 55 45
REMARK SMILES IDX 50 46 51 47 52 48 53 49 54 50 77 51 78 52 86 53 79 54 85 55
REMARK SMILES IDX 80 56 81 57 82 58 83 59 84 60 63 61 64 62 72 63 65 64 71 65
REMARK SMILES IDX 66 66 67 67 68 68 69 69 70 70 9 71 10 72 11 73 12 74 13 75
REMARK SMILES IDX 14 76 15 77 16 78 17 79 18 80 19 81 30 82 20 83 21 84 31 85
REMARK SMILES IDX 32 86 37 87 33 88 36 89 34 90 35 91 22 92 23 93 24 94 28 95
REMARK SMILES IDX 25 96 27 97 29 98 26 99
REMARK H PARENT 91 26 61 37
REMARK Flexibility Score: inf
ROOT
ATOM      1  C   UNL A   1      50.512  19.322  37.995  1.00  0.00     0.188 C 
ENDROOT
BRANCH   1   2
ATOM      2  C   UNL A   1      51.144  19.117  36.611  1.00  0.00     0.188 C 
BRANCH   2   3
ATOM      3  O   UNL A   1      51.403  20.203  35.744  1.00  0.00    -0.376 OA
BRANCH   3   4
ATOM      4  C   UNL A   1      52.338  21.250  35.885  1.00  0.00     0.202 C 
BRANCH   4   5
ATOM      5  C   UNL A   1      52.225  22.691  35.377  1.00  0.00     0.261 C 
BRANCH   5   6
ATOM      6  O   UNL A   1      51.870  22.899  34.019  1.00  0.00    -0.460 OA
BRANCH   6   7
ATOM      7  C   UNL A   1      52.198  23.893  33.172  1.00  0.00     0.338 C 
ATOM      8  O   UNL A   1      53.367  24.279  33.169  1.00  0.00    -0.246 OA
BRANCH   7   9
ATOM      9  C   UNL A   1      51.217  24.626  32.328  1.00  0.00     0.060 A 
ATOM     10  C   UNL A   1      49.826  24.551  32.425  1.00  0.00     0.016 A 
ATOM     11  C   UNL A   1      51.784  25.450  31.336  1.00  0.00     0.016 A 
ATOM     12  C   UNL A   1      49.026  25.148  31.470  1.00  0.00     0.010 A 
ATOM     13  C   UNL A   1      50.988  26.068  30.386  1.00  0.00     0.010 A 
ATOM     14  C   UNL A   1      49.617  25.840  30.420  1.00  0.00    -0.014 A 
BRANCH  14  15
ATOM     15  C   UNL A   1      48.748  26.227  29.327  1.00  0.00     0.031 A 
ATOM     16  C   UNL A   1      47.583  27.070  29.674  1.00  0.00     0.074 A 
ATOM     17  C   UNL A   1      49.015  25.837  28.068  1.00  0.00     0.049 A 
ATOM     18  N   UNL A   1      46.328  26.778  29.569  1.00  0.00    -0.248 NA
ATOM     19  C   UNL A   1      47.855  28.368  30.306  1.00  0.00     0.031 C 
ATOM     20  C   UNL A   1      50.250  25.224  27.570  1.00  0.00     0.029 A 
ATOM     21  N   UNL A   1      48.279  26.025  26.940  1.00  0.00    -0.354 N 
ATOM     22  C   UNL A   1      45.643  27.937  29.921  1.00  0.00     0.074 A 
ATOM     23  C   UNL A   1      46.618  28.824  30.507  1.00  0.00     0.031 C 
ATOM     24  C   UNL A   1      50.278  25.326  26.225  1.00  0.00     0.029 A 
ATOM     25  C   UNL A   1      49.014  25.883  25.773  1.00  0.00     0.049 A 
ATOM     26  H   UNL A   1      47.318  26.241  26.952  1.00  0.00     0.167 HD
ATOM     27  C   UNL A   1      44.375  28.188  29.492  1.00  0.00     0.031 A 
ATOM     28  C   UNL A   1      48.648  26.289  24.536  1.00  0.00     0.031 A 
ATOM     29  C   UNL A   1      43.707  27.004  29.022  1.00  0.00     0.049 A 
ATOM     30  C   UNL A   1      47.173  26.442  24.526  1.00  0.00     0.074 A 
ATOM     31  C   UNL A   1      43.366  25.789  29.582  1.00  0.00     0.029 A 
ATOM     32  N   UNL A   1      43.573  26.848  27.664  1.00  0.00    -0.354 N 
ATOM     33  N   UNL A   1      46.343  25.441  24.627  1.00  0.00    -0.248 NA
ATOM     34  C   UNL A   1      46.600  27.750  24.805  1.00  0.00     0.031 C 
ATOM     35  C   UNL A   1      43.480  24.844  28.521  1.00  0.00     0.029 A 
ATOM     36  C   UNL A   1      43.852  25.539  27.369  1.00  0.00     0.049 A 
ATOM     37  H   UNL A   1      43.324  27.549  27.019  1.00  0.00     0.167 HD
ATOM     38  C   UNL A   1      45.279  25.928  25.371  1.00  0.00     0.074 A 
ATOM     39  C   UNL A   1      45.435  27.379  25.343  1.00  0.00     0.031 C 
ATOM     40  C   UNL A   1      44.535  25.103  26.167  1.00  0.00     0.031 A 
BRANCH  27  41
ATOM     41  C   UNL A   1      43.898  29.574  29.127  1.00  0.00    -0.014 A 
ATOM     42  C   UNL A   1      44.271  30.125  27.885  1.00  0.00     0.010 A 
ATOM     43  C   UNL A   1      43.351  30.458  30.081  1.00  0.00     0.010 A 
ATOM     44  C   UNL A   1      44.174  31.503  27.644  1.00  0.00     0.020 A 
ATOM     45  C   UNL A   1      43.204  31.822  29.835  1.00  0.00     0.020 A 
ATOM     46  C   UNL A   1      43.659  32.343  28.634  1.00  0.00     0.054 A 
BRANCH  46  47
ATOM     47  S   UNL A   1      43.669  34.134  28.378  1.00  0.00     0.124 S 
ATOM     48  O   UNL A   1      43.510  34.228  26.930  1.00  0.00    -0.237 OA
ATOM     49  O   UNL A   1      42.523  34.569  29.172  1.00  0.00    -0.237 OA
ATOM     50  O   UNL A   1      44.971  34.545  28.897  1.00  0.00    -0.744 OA
ENDBRANCH  46  47
ENDBRANCH  27  41
BRANCH  28  51
ATOM     51  C   UNL A   1      49.538  26.854  23.494  1.00  0.00    -0.014 A 
ATOM     52  C   UNL A   1      49.119  26.940  22.156  1.00  0.00     0.010 A 
ATOM     53  C   UNL A   1      50.712  27.546  23.862  1.00  0.00     0.010 A 
ATOM     54  C   UNL A   1      49.819  27.737  21.235  1.00  0.00     0.020 A 
ATOM     55  C   UNL A   1      51.424  28.326  22.947  1.00  0.00     0.020 A 
ATOM     56  C   UNL A   1      50.957  28.439  21.642  1.00  0.00     0.054 A 
BRANCH  56  57
ATOM     57  S   UNL A   1      51.751  29.602  20.497  1.00  0.00     0.124 S 
ATOM     58  O   UNL A   1      53.162  29.462  20.840  1.00  0.00    -0.237 OA
ATOM     59  O   UNL A   1      51.361  29.076  19.191  1.00  0.00    -0.237 OA
ATOM     60  O   UNL A   1      51.153  30.891  20.844  1.00  0.00    -0.744 OA
ENDBRANCH  56  57
ENDBRANCH  28  51
BRANCH  40  61
ATOM     61  C   UNL A   1      44.651  23.610  25.965  1.00  0.00    -0.014 A 
ATOM     62  C   UNL A   1      43.555  22.782  25.655  1.00  0.00     0.010 A 
ATOM     63  C   UNL A   1      45.940  23.048  25.945  1.00  0.00     0.010 A 
ATOM     64  C   UNL A   1      43.742  21.423  25.363  1.00  0.00     0.020 A 
ATOM     65  C   UNL A   1      46.136  21.699  25.637  1.00  0.00     0.020 A 
ATOM     66  C   UNL A   1      45.034  20.890  25.356  1.00  0.00     0.054 A 
BRANCH  66  67
ATOM     67  S   UNL A   1      45.273  19.145  24.920  1.00  0.00     0.124 S 
ATOM     68  O   UNL A   1      45.269  19.179  23.461  1.00  0.00    -0.237 OA
ATOM     69  O   UNL A   1      46.557  18.828  25.539  1.00  0.00    -0.237 OA
ATOM     70  O   UNL A   1      44.122  18.474  25.526  1.00  0.00    -0.744 OA
ENDBRANCH  66  67
ENDBRANCH  40  61
ENDBRANCH  14  15
ENDBRANCH   7   9
ENDBRANCH   6   7
ENDBRANCH   5   6
ENDBRANCH   4   5
ENDBRANCH   3   4
ENDBRANCH   2   3
ENDBRANCH   1   2
BRANCH   1  71
ATOM     71  O   UNL A   1      49.098  19.236  38.032  1.00  0.00    -0.377 OA
BRANCH  71  72
ATOM     72  C   UNL A   1      48.549  19.312  39.333  1.00  0.00     0.188 C 
BRANCH  72  73
ATOM     73  C   UNL A   1      47.045  18.980  39.433  1.00  0.00     0.188 C 
BRANCH  73  74
ATOM     74  O   UNL A   1      46.016  19.744  38.807  1.00  0.00    -0.376 OA
BRANCH  74  75
ATOM     75  C   UNL A   1      46.295  20.674  37.780  1.00  0.00     0.202 C 
BRANCH  75  76
ATOM     76  C   UNL A   1      45.701  20.351  36.408  1.00  0.00     0.261 C 
BRANCH  76  77
ATOM     77  O   UNL A   1      45.261  21.498  35.676  1.00  0.00    -0.458 OA
BRANCH  77  78
ATOM     78  C   UNL A   1      46.071  21.907  34.656  1.00  0.00     0.361 C 
ATOM     79  O   UNL A   1      47.100  21.349  34.296  1.00  0.00    -0.244 OA
BRANCH  78  80
ATOM     80  C   UNL A   1      45.555  23.111  34.034  1.00  0.00     0.198 A 
ATOM     81  N   UNL A   1      44.712  23.101  32.957  1.00  0.00    -0.122 NA
ATOM     82  C   UNL A   1      45.766  24.416  34.459  1.00  0.00     0.104 A 
ATOM     83  N   UNL A   1      44.349  24.349  32.714  1.00  0.00    -0.066 NA
ATOM     84  N   UNL A   1      45.026  25.153  33.563  1.00  0.00    -0.239 N 
BRANCH  82  85
ATOM     85  C   UNL A   1      46.616  24.873  35.550  1.00  0.00     0.002 A 
ATOM     86  C   UNL A   1      47.973  25.125  35.285  1.00  0.00     0.012 A 
ATOM     87  C   UNL A   1      46.167  24.891  36.874  1.00  0.00     0.012 A 
ATOM     88  C   UNL A   1      48.876  25.343  36.324  1.00  0.00     0.021 A 
ATOM     89  C   UNL A   1      47.071  25.131  37.917  1.00  0.00     0.021 A 
ATOM     90  C   UNL A   1      48.421  25.340  37.638  1.00  0.00     0.041 A 
ATOM     91  Cl  UNL A   1      49.540  25.567  38.923  1.00  0.00    -0.084 Cl
ENDBRANCH  82  85
BRANCH  84  92
ATOM     92  C   UNL A   1      44.983  26.590  33.349  1.00  0.00     0.183 C 
BRANCH  92  93
ATOM     93  C   UNL A   1      44.777  27.308  34.663  1.00  0.00    -0.008 A 
ATOM     94  C   UNL A   1      45.783  28.181  35.119  1.00  0.00     0.007 A 
ATOM     95  C   UNL A   1      43.583  27.221  35.400  1.00  0.00     0.046 A 
ATOM     96  C   UNL A   1      45.596  28.951  36.268  1.00  0.00     0.000 A 
ATOM     97  C   UNL A   1      43.398  28.002  36.546  1.00  0.00     0.021 A 
ATOM     98  Cl  UNL A   1      42.295  26.163  34.951  1.00  0.00    -0.084 Cl
ATOM     99  C   UNL A   1      44.402  28.868  36.977  1.00  0.00     0.002 A 
ENDBRANCH  92  93
ENDBRANCH  84  92
ENDBRANCH  78  80
ENDBRANCH  77  78
ENDBRANCH  76  77
ENDBRANCH  75  76
ENDBRANCH  74  75
ENDBRANCH  73  74
ENDBRANCH  72  73
ENDBRANCH  71  72
ENDBRANCH   1  71
TORSDOF 26
ENDMDL
