MODEL 1
REMARK VINA RESULT:      -9.4      0.000      0.000
REMARK SMILES O=C(OCCOCCOCCOCCOC(=O)c1c[nH]c(=O)c(-c2cccc([N+](=O)[O-])c2)c1)c1ccc(-c2c3nc(c(-c4ccc(S(=O)(=O)[O-])cc4)c4ccc([nH]4)c(-c4ccc(S(=O)(=O)[O-])cc4)c4nc(c(-c5ccc(S(=O)(=O)[O-])cc5)c5ccc2[nH]5)C=C4)C=C3)cc1
REMARK SMILES IDX 8 1 7 2 6 3 5 4 4 5 3 6 2 7 1 8 34 9 35 10 93 11 36 12 92 13
REMARK SMILES IDX 37 14 38 15 39 16 86 17 40 18 91 19 85 20 87 21 41 22 90 23
REMARK SMILES IDX 84 24 83 25 42 27 72 28 53 29 71 30 54 31 57 32 70 33 88 34
REMARK SMILES IDX 55 35 56 36 69 38 89 39 58 40 43 41 44 42 52 43 45 44 51 45
REMARK SMILES IDX 46 46 47 47 48 48 49 49 50 50 73 51 74 52 82 53 75 54 81 55
REMARK SMILES IDX 76 56 77 57 78 58 79 59 80 60 59 61 60 62 68 63 61 64 67 65
REMARK SMILES IDX 62 66 63 67 64 68 65 69 66 70 9 71 10 72 11 73 12 74 13 75
REMARK SMILES IDX 14 76 15 77 16 78 17 79 18 80 19 81 33 82 20 83 23 84 21 85
REMARK SMILES IDX 22 87 24 88 25 89 32 90 26 91 28 92 27 93 29 94 30 95 31 96
REMARK H PARENT 87 26 57 37 20 86
REMARK Flexibility Score: inf
ROOT
ATOM      1  C   UNL A   1      38.146  22.174  25.790  1.00  0.00     0.188 C 
ENDROOT
BRANCH   1   2
ATOM      2  C   UNL A   1      39.395  21.294  25.837  1.00  0.00     0.188 C 
BRANCH   2   3
ATOM      3  O   UNL A   1      39.925  21.249  27.163  1.00  0.00    -0.376 OA
BRANCH   3   4
ATOM      4  C   UNL A   1      41.060  22.079  27.399  1.00  0.00     0.202 C 
BRANCH   4   5
ATOM      5  C   UNL A   1      41.753  22.562  26.125  1.00  0.00     0.261 C 
BRANCH   5   6
ATOM      6  O   UNL A   1      42.611  23.685  26.374  1.00  0.00    -0.460 OA
BRANCH   6   7
ATOM      7  C   UNL A   1      42.340  24.996  26.148  1.00  0.00     0.338 C 
ATOM      8  O   UNL A   1      42.286  25.381  24.981  1.00  0.00    -0.246 OA
BRANCH   7   9
ATOM      9  C   UNL A   1      42.092  26.007  27.228  1.00  0.00     0.060 A 
ATOM     10  C   UNL A   1      42.692  27.265  27.320  1.00  0.00     0.016 A 
ATOM     11  C   UNL A   1      41.108  25.686  28.178  1.00  0.00     0.016 A 
ATOM     12  C   UNL A   1      42.370  28.160  28.334  1.00  0.00     0.010 A 
ATOM     13  C   UNL A   1      40.758  26.587  29.190  1.00  0.00     0.010 A 
ATOM     14  C   UNL A   1      41.404  27.824  29.276  1.00  0.00    -0.014 A 
BRANCH  14  15
ATOM     15  C   UNL A   1      41.186  28.742  30.407  1.00  0.00     0.031 A 
ATOM     16  C   UNL A   1      42.125  28.655  31.572  1.00  0.00     0.074 A 
ATOM     17  C   UNL A   1      40.241  29.696  30.324  1.00  0.00     0.049 A 
ATOM     18  N   UNL A   1      42.097  29.305  32.702  1.00  0.00    -0.248 NA
ATOM     19  C   UNL A   1      43.259  27.722  31.438  1.00  0.00     0.031 C 
ATOM     20  C   UNL A   1      39.374  29.931  29.166  1.00  0.00     0.029 A 
ATOM     21  N   UNL A   1      39.863  30.658  31.223  1.00  0.00    -0.354 N 
ATOM     22  C   UNL A   1      43.183  28.832  33.429  1.00  0.00     0.074 A 
ATOM     23  C   UNL A   1      43.860  27.854  32.611  1.00  0.00     0.031 C 
ATOM     24  C   UNL A   1      38.565  30.972  29.426  1.00  0.00     0.029 A 
ATOM     25  C   UNL A   1      38.809  31.431  30.789  1.00  0.00     0.049 A 
ATOM     26  H   UNL A   1      40.302  30.785  32.094  1.00  0.00     0.167 HD
ATOM     27  C   UNL A   1      43.558  29.178  34.680  1.00  0.00     0.031 A 
ATOM     28  C   UNL A   1      38.097  32.365  31.449  1.00  0.00     0.031 A 
ATOM     29  C   UNL A   1      42.854  30.150  35.468  1.00  0.00     0.049 A 
ATOM     30  C   UNL A   1      38.474  32.653  32.879  1.00  0.00     0.074 A 
ATOM     31  C   UNL A   1      43.107  30.557  36.764  1.00  0.00     0.029 A 
ATOM     32  N   UNL A   1      41.749  30.863  35.026  1.00  0.00    -0.354 N 
ATOM     33  N   UNL A   1      39.479  32.174  33.577  1.00  0.00    -0.248 NA
ATOM     34  C   UNL A   1      37.614  33.583  33.621  1.00  0.00     0.031 C 
ATOM     35  C   UNL A   1      42.116  31.475  37.126  1.00  0.00     0.029 A 
ATOM     36  C   UNL A   1      41.283  31.683  36.035  1.00  0.00     0.049 A 
ATOM     37  H   UNL A   1      41.354  30.795  34.126  1.00  0.00     0.167 HD
ATOM     38  C   UNL A   1      39.374  32.747  34.838  1.00  0.00     0.074 A 
ATOM     39  C   UNL A   1      38.227  33.634  34.795  1.00  0.00     0.031 C 
ATOM     40  C   UNL A   1      40.139  32.553  35.939  1.00  0.00     0.031 A 
BRANCH  27  41
ATOM     41  C   UNL A   1      44.716  28.441  35.290  1.00  0.00    -0.014 A 
ATOM     42  C   UNL A   1      46.012  28.985  35.310  1.00  0.00     0.010 A 
ATOM     43  C   UNL A   1      44.490  27.181  35.875  1.00  0.00     0.010 A 
ATOM     44  C   UNL A   1      47.065  28.273  35.892  1.00  0.00     0.020 A 
ATOM     45  C   UNL A   1      45.536  26.476  36.475  1.00  0.00     0.020 A 
ATOM     46  C   UNL A   1      46.820  27.023  36.472  1.00  0.00     0.054 A 
BRANCH  46  47
ATOM     47  S   UNL A   1      48.196  26.140  37.258  1.00  0.00     0.124 S 
ATOM     48  O   UNL A   1      49.355  26.739  36.599  1.00  0.00    -0.237 OA
ATOM     49  O   UNL A   1      48.031  26.483  38.669  1.00  0.00    -0.237 OA
ATOM     50  O   UNL A   1      47.946  24.739  36.927  1.00  0.00    -0.744 OA
ENDBRANCH  46  47
ENDBRANCH  27  41
BRANCH  28  51
ATOM     51  C   UNL A   1      36.907  33.007  30.819  1.00  0.00    -0.014 A 
ATOM     52  C   UNL A   1      37.043  33.947  29.783  1.00  0.00     0.010 A 
ATOM     53  C   UNL A   1      35.614  32.708  31.294  1.00  0.00     0.010 A 
ATOM     54  C   UNL A   1      35.917  34.600  29.262  1.00  0.00     0.020 A 
ATOM     55  C   UNL A   1      34.486  33.332  30.756  1.00  0.00     0.020 A 
ATOM     56  C   UNL A   1      34.647  34.292  29.757  1.00  0.00     0.054 A 
BRANCH  56  57
ATOM     57  S   UNL A   1      33.200  35.146  29.071  1.00  0.00     0.124 S 
ATOM     58  O   UNL A   1      32.670  34.148  28.147  1.00  0.00    -0.237 OA
ATOM     59  O   UNL A   1      32.390  35.405  30.258  1.00  0.00    -0.237 OA
ATOM     60  O   UNL A   1      33.772  36.337  28.446  1.00  0.00    -0.744 OA
ENDBRANCH  56  57
ENDBRANCH  28  51
BRANCH  40  61
ATOM     61  C   UNL A   1      39.767  33.326  37.173  1.00  0.00    -0.014 A 
ATOM     62  C   UNL A   1      38.756  32.862  38.033  1.00  0.00     0.010 A 
ATOM     63  C   UNL A   1      40.492  34.481  37.512  1.00  0.00     0.010 A 
ATOM     64  C   UNL A   1      38.462  33.557  39.206  1.00  0.00     0.020 A 
ATOM     65  C   UNL A   1      40.219  35.161  38.699  1.00  0.00     0.020 A 
ATOM     66  C   UNL A   1      39.198  34.700  39.533  1.00  0.00     0.054 A 
BRANCH  66  67
ATOM     67  S   UNL A   1      38.843  35.547  41.095  1.00  0.00     0.124 S 
ATOM     68  O   UNL A   1      38.404  36.861  40.634  1.00  0.00    -0.237 OA
ATOM     69  O   UNL A   1      37.803  34.708  41.686  1.00  0.00    -0.237 OA
ATOM     70  O   UNL A   1      40.124  35.528  41.798  1.00  0.00    -0.744 OA
ENDBRANCH  66  67
ENDBRANCH  40  61
ENDBRANCH  14  15
ENDBRANCH   7   9
ENDBRANCH   6   7
ENDBRANCH   5   6
ENDBRANCH   4   5
ENDBRANCH   3   4
ENDBRANCH   2   3
ENDBRANCH   1   2
BRANCH   1  71
ATOM     71  O   UNL A   1      37.623  22.416  24.485  1.00  0.00    -0.377 OA
BRANCH  71  72
ATOM     72  C   UNL A   1      36.248  22.113  24.276  1.00  0.00     0.188 C 
BRANCH  72  73
ATOM     73  C   UNL A   1      35.479  21.316  25.354  1.00  0.00     0.188 C 
BRANCH  73  74
ATOM     74  O   UNL A   1      34.316  21.954  25.860  1.00  0.00    -0.376 OA
BRANCH  74  75
ATOM     75  C   UNL A   1      33.493  21.159  26.711  1.00  0.00     0.202 C 
BRANCH  75  76
ATOM     76  C   UNL A   1      32.961  21.916  27.932  1.00  0.00     0.261 C 
BRANCH  76  77
ATOM     77  O   UNL A   1      32.581  23.280  27.677  1.00  0.00    -0.460 OA
BRANCH  77  78
ATOM     78  C   UNL A   1      31.403  23.520  27.058  1.00  0.00     0.339 C 
ATOM     79  O   UNL A   1      30.306  23.076  27.352  1.00  0.00    -0.246 OA
BRANCH  78  80
ATOM     80  C   UNL A   1      31.646  24.575  26.042  1.00  0.00     0.077 A 
ATOM     81  C   UNL A   1      31.583  24.263  24.738  1.00  0.00     0.101 A 
ATOM     82  C   UNL A   1      31.849  25.951  26.431  1.00  0.00     0.031 A 
ATOM     83  N   UNL A   1      31.655  25.255  23.787  1.00  0.00    -0.328 N 
ATOM     84  C   UNL A   1      32.013  26.936  25.527  1.00  0.00     0.048 A 
ATOM     85  C   UNL A   1      31.836  26.595  24.073  1.00  0.00     0.255 A 
ATOM     86  H   UNL A   1      31.574  24.993  22.842  1.00  0.00     0.169 HD
ATOM     87  O   UNL A   1      31.857  27.441  23.185  1.00  0.00    -0.269 OA
BRANCH  84  88
ATOM     88  C   UNL A   1      32.431  28.267  26.006  1.00  0.00    -0.006 A 
ATOM     89  C   UNL A   1      31.517  29.334  25.880  1.00  0.00     0.009 A 
ATOM     90  C   UNL A   1      33.683  28.515  26.583  1.00  0.00     0.094 A 
ATOM     91  C   UNL A   1      31.847  30.627  26.273  1.00  0.00     0.008 A 
ATOM     92  C   UNL A   1      34.007  29.821  26.988  1.00  0.00     0.270 A 
ATOM     93  C   UNL A   1      33.098  30.877  26.826  1.00  0.00     0.085 A 
BRANCH  92  94
ATOM     94  N   UNL A   1      35.317  30.100  27.590  1.00  0.00     0.062 N 
ATOM     95  O   UNL A   1      35.518  31.245  28.023  1.00  0.00    -0.258 OA
ATOM     96  O   UNL A   1      36.146  29.182  27.632  1.00  0.00    -0.258 OA
ENDBRANCH  92  94
ENDBRANCH  84  88
ENDBRANCH  78  80
ENDBRANCH  77  78
ENDBRANCH  76  77
ENDBRANCH  75  76
ENDBRANCH  74  75
ENDBRANCH  73  74
ENDBRANCH  72  73
ENDBRANCH  71  72
ENDBRANCH   1  71
TORSDOF 25
ENDMDL
MODEL 2
REMARK VINA RESULT:      -9.3      2.390      9.279
REMARK SMILES O=C(OCCOCCOCCOCCOC(=O)c1c[nH]c(=O)c(-c2cccc([N+](=O)[O-])c2)c1)c1ccc(-c2c3nc(c(-c4ccc(S(=O)(=O)[O-])cc4)c4ccc([nH]4)c(-c4ccc(S(=O)(=O)[O-])cc4)c4nc(c(-c5ccc(S(=O)(=O)[O-])cc5)c5ccc2[nH]5)C=C4)C=C3)cc1
REMARK SMILES IDX 8 1 7 2 6 3 5 4 4 5 3 6 2 7 1 8 34 9 35 10 93 11 36 12 92 13
REMARK SMILES IDX 37 14 38 15 39 16 86 17 40 18 91 19 85 20 87 21 41 22 90 23
REMARK SMILES IDX 84 24 83 25 42 27 72 28 53 29 71 30 54 31 57 32 70 33 88 34
REMARK SMILES IDX 55 35 56 36 69 38 89 39 58 40 43 41 44 42 52 43 45 44 51 45
REMARK SMILES IDX 46 46 47 47 48 48 49 49 50 50 73 51 74 52 82 53 75 54 81 55
REMARK SMILES IDX 76 56 77 57 78 58 79 59 80 60 59 61 60 62 68 63 61 64 67 65
REMARK SMILES IDX 62 66 63 67 64 68 65 69 66 70 9 71 10 72 11 73 12 74 13 75
REMARK SMILES IDX 14 76 15 77 16 78 17 79 18 80 19 81 33 82 20 83 23 84 21 85
REMARK SMILES IDX 22 87 24 88 25 89 32 90 26 91 28 92 27 93 29 94 30 95 31 96
REMARK H PARENT 87 26 57 37 20 86
REMARK Flexibility Score: inf
ROOT
ATOM      1  C   UNL A   1      45.774  22.023  25.203  1.00  0.00     0.188 C 
ENDROOT
BRANCH   1   2
ATOM      2  C   UNL A   1      45.030  22.645  24.021  1.00  0.00     0.188 C 
BRANCH   2   3
ATOM      3  O   UNL A   1      43.661  22.874  24.357  1.00  0.00    -0.376 OA
BRANCH   3   4
ATOM      4  C   UNL A   1      43.425  23.355  25.678  1.00  0.00     0.202 C 
BRANCH   4   5
ATOM      5  C   UNL A   1      43.756  24.836  25.869  1.00  0.00     0.261 C 
BRANCH   5   6
ATOM      6  O   UNL A   1      42.867  25.684  25.130  1.00  0.00    -0.460 OA
BRANCH   6   7
ATOM      7  C   UNL A   1      42.570  26.985  25.380  1.00  0.00     0.338 C 
ATOM      8  O   UNL A   1      42.523  27.759  24.425  1.00  0.00    -0.246 OA
BRANCH   7   9
ATOM      9  C   UNL A   1      42.285  27.543  26.743  1.00  0.00     0.060 A 
ATOM     10  C   UNL A   1      41.413  26.991  27.684  1.00  0.00     0.016 A 
ATOM     11  C   UNL A   1      43.029  28.671  27.130  1.00  0.00     0.016 A 
ATOM     12  C   UNL A   1      41.242  27.552  28.944  1.00  0.00     0.010 A 
ATOM     13  C   UNL A   1      42.883  29.231  28.404  1.00  0.00     0.010 A 
ATOM     14  C   UNL A   1      41.973  28.676  29.309  1.00  0.00    -0.014 A 
BRANCH  14  15
ATOM     15  C   UNL A   1      41.669  29.316  30.600  1.00  0.00     0.031 A 
ATOM     16  C   UNL A   1      40.458  30.195  30.680  1.00  0.00     0.074 A 
ATOM     17  C   UNL A   1      42.401  29.014  31.688  1.00  0.00     0.049 A 
ATOM     18  N   UNL A   1      40.025  30.912  31.678  1.00  0.00    -0.248 NA
ATOM     19  C   UNL A   1      39.609  30.260  29.475  1.00  0.00     0.031 C 
ATOM     20  C   UNL A   1      43.517  28.063  31.721  1.00  0.00     0.029 A 
ATOM     21  N   UNL A   1      42.309  29.461  32.979  1.00  0.00    -0.354 N 
ATOM     22  C   UNL A   1      38.879  31.545  31.213  1.00  0.00     0.074 A 
ATOM     23  C   UNL A   1      38.671  31.117  29.850  1.00  0.00     0.031 C 
ATOM     24  C   UNL A   1      44.002  27.998  32.972  1.00  0.00     0.029 A 
ATOM     25  C   UNL A   1      43.281  28.950  33.809  1.00  0.00     0.049 A 
ATOM     26  H   UNL A   1      41.613  30.087  33.285  1.00  0.00     0.167 HD
ATOM     27  C   UNL A   1      38.089  32.422  31.870  1.00  0.00     0.031 A 
ATOM     28  C   UNL A   1      43.577  29.265  35.085  1.00  0.00     0.031 A 
ATOM     29  C   UNL A   1      38.332  32.832  33.224  1.00  0.00     0.049 A 
ATOM     30  C   UNL A   1      42.743  30.325  35.757  1.00  0.00     0.074 A 
ATOM     31  C   UNL A   1      37.632  33.745  33.988  1.00  0.00     0.029 A 
ATOM     32  N   UNL A   1      39.367  32.350  34.014  1.00  0.00    -0.354 N 
ATOM     33  N   UNL A   1      41.682  30.950  35.299  1.00  0.00    -0.248 NA
ATOM     34  C   UNL A   1      43.154  30.742  37.104  1.00  0.00     0.031 C 
ATOM     35  C   UNL A   1      38.281  33.859  35.222  1.00  0.00     0.029 A 
ATOM     36  C   UNL A   1      39.349  32.973  35.246  1.00  0.00     0.049 A 
ATOM     37  H   UNL A   1      40.018  31.665  33.737  1.00  0.00     0.167 HD
ATOM     38  C   UNL A   1      41.297  31.831  36.301  1.00  0.00     0.074 A 
ATOM     39  C   UNL A   1      42.219  31.633  37.403  1.00  0.00     0.031 C 
ATOM     40  C   UNL A   1      40.287  32.734  36.313  1.00  0.00     0.031 A 
BRANCH  27  41
ATOM     41  C   UNL A   1      36.960  33.052  31.106  1.00  0.00    -0.014 A 
ATOM     42  C   UNL A   1      37.182  33.793  29.932  1.00  0.00     0.010 A 
ATOM     43  C   UNL A   1      35.643  32.875  31.568  1.00  0.00     0.010 A 
ATOM     44  C   UNL A   1      36.107  34.359  29.243  1.00  0.00     0.020 A 
ATOM     45  C   UNL A   1      34.563  33.423  30.870  1.00  0.00     0.020 A 
ATOM     46  C   UNL A   1      34.803  34.170  29.716  1.00  0.00     0.054 A 
BRANCH  46  47
ATOM     47  S   UNL A   1      33.421  34.880  28.778  1.00  0.00     0.124 S 
ATOM     48  O   UNL A   1      32.609  35.472  29.839  1.00  0.00    -0.237 OA
ATOM     49  O   UNL A   1      34.091  35.832  27.896  1.00  0.00    -0.237 OA
ATOM     50  O   UNL A   1      32.827  33.726  28.108  1.00  0.00    -0.744 OA
ENDBRANCH  46  47
ENDBRANCH  27  41
BRANCH  28  51
ATOM     51  C   UNL A   1      44.761  28.665  35.767  1.00  0.00    -0.014 A 
ATOM     52  C   UNL A   1      46.026  29.276  35.713  1.00  0.00     0.010 A 
ATOM     53  C   UNL A   1      44.632  27.435  36.443  1.00  0.00     0.010 A 
ATOM     54  C   UNL A   1      47.142  28.654  36.290  1.00  0.00     0.020 A 
ATOM     55  C   UNL A   1      45.735  26.827  37.048  1.00  0.00     0.020 A 
ATOM     56  C   UNL A   1      46.989  27.429  36.947  1.00  0.00     0.054 A 
BRANCH  56  57
ATOM     57  S   UNL A   1      48.444  26.637  37.689  1.00  0.00     0.124 S 
ATOM     58  O   UNL A   1      49.505  27.029  36.766  1.00  0.00    -0.237 OA
ATOM     59  O   UNL A   1      48.499  27.249  39.013  1.00  0.00    -0.237 OA
ATOM     60  O   UNL A   1      48.099  25.217  37.682  1.00  0.00    -0.744 OA
ENDBRANCH  56  57
ENDBRANCH  28  51
BRANCH  40  61
ATOM     61  C   UNL A   1      40.123  33.557  37.559  1.00  0.00    -0.014 A 
ATOM     62  C   UNL A   1      39.487  33.025  38.693  1.00  0.00     0.010 A 
ATOM     63  C   UNL A   1      40.685  34.845  37.618  1.00  0.00     0.010 A 
ATOM     64  C   UNL A   1      39.396  33.778  39.864  1.00  0.00     0.020 A 
ATOM     65  C   UNL A   1      40.620  35.589  38.796  1.00  0.00     0.020 A 
ATOM     66  C   UNL A   1      39.966  35.053  39.909  1.00  0.00     0.054 A 
BRANCH  66  67
ATOM     67  S   UNL A   1      39.893  35.986  41.461  1.00  0.00     0.124 S 
ATOM     68  O   UNL A   1      40.359  34.998  42.430  1.00  0.00    -0.237 OA
ATOM     69  O   UNL A   1      40.805  37.099  41.209  1.00  0.00    -0.237 OA
ATOM     70  O   UNL A   1      38.484  36.356  41.576  1.00  0.00    -0.744 OA
ENDBRANCH  66  67
ENDBRANCH  40  61
ENDBRANCH  14  15
ENDBRANCH   7   9
ENDBRANCH   6   7
ENDBRANCH   5   6
ENDBRANCH   4   5
ENDBRANCH   3   4
ENDBRANCH   2   3
ENDBRANCH   1   2
BRANCH   1  71
ATOM     71  O   UNL A   1      46.275  20.706  24.980  1.00  0.00    -0.377 OA
BRANCH  71  72
ATOM     72  C   UNL A   1      45.646  19.942  23.957  1.00  0.00     0.188 C 
BRANCH  72  73
ATOM     73  C   UNL A   1      44.628  18.847  24.351  1.00  0.00     0.188 C 
BRANCH  73  74
ATOM     74  O   UNL A   1      43.639  19.252  25.286  1.00  0.00    -0.376 OA
BRANCH  74  75
ATOM     75  C   UNL A   1      43.495  18.421  26.436  1.00  0.00     0.202 C 
BRANCH  75  76
ATOM     76  C   UNL A   1      42.313  18.808  27.329  1.00  0.00     0.261 C 
BRANCH  76  77
ATOM     77  O   UNL A   1      41.612  19.997  26.920  1.00  0.00    -0.460 OA
BRANCH  77  78
ATOM     78  C   UNL A   1      40.489  19.865  26.179  1.00  0.00     0.339 C 
ATOM     79  O   UNL A   1      40.094  18.865  25.601  1.00  0.00    -0.246 OA
BRANCH  78  80
ATOM     80  C   UNL A   1      39.709  21.119  26.331  1.00  0.00     0.077 A 
ATOM     81  C   UNL A   1      40.182  22.099  27.117  1.00  0.00     0.101 A 
ATOM     82  C   UNL A   1      38.502  21.342  25.571  1.00  0.00     0.031 A 
ATOM     83  N   UNL A   1      39.552  23.322  27.151  1.00  0.00    -0.328 N 
ATOM     84  C   UNL A   1      37.808  22.494  25.647  1.00  0.00     0.048 A 
ATOM     85  C   UNL A   1      38.402  23.622  26.446  1.00  0.00     0.255 A 
ATOM     86  H   UNL A   1      39.944  24.027  27.713  1.00  0.00     0.169 HD
ATOM     87  O   UNL A   1      37.902  24.742  26.486  1.00  0.00    -0.269 OA
BRANCH  84  88
ATOM     88  C   UNL A   1      36.479  22.557  25.012  1.00  0.00    -0.006 A 
ATOM     89  C   UNL A   1      36.386  23.121  23.723  1.00  0.00     0.009 A 
ATOM     90  C   UNL A   1      35.314  22.080  25.625  1.00  0.00     0.094 A 
ATOM     91  C   UNL A   1      35.165  23.252  23.069  1.00  0.00     0.008 A 
ATOM     92  C   UNL A   1      34.084  22.204  24.956  1.00  0.00     0.270 A 
ATOM     93  C   UNL A   1      34.006  22.797  23.687  1.00  0.00     0.085 A 
BRANCH  92  94
ATOM     94  N   UNL A   1      32.852  21.713  25.586  1.00  0.00     0.062 N 
ATOM     95  O   UNL A   1      32.136  20.945  24.925  1.00  0.00    -0.258 OA
ATOM     96  O   UNL A   1      32.595  22.091  26.737  1.00  0.00    -0.258 OA
ENDBRANCH  92  94
ENDBRANCH  84  88
ENDBRANCH  78  80
ENDBRANCH  77  78
ENDBRANCH  76  77
ENDBRANCH  75  76
ENDBRANCH  74  75
ENDBRANCH  73  74
ENDBRANCH  72  73
ENDBRANCH  71  72
ENDBRANCH   1  71
TORSDOF 25
ENDMDL
MODEL 3
REMARK VINA RESULT:      -9.1      1.336      8.091
REMARK SMILES O=C(OCCOCCOCCOCCOC(=O)c1c[nH]c(=O)c(-c2cccc([N+](=O)[O-])c2)c1)c1ccc(-c2c3nc(c(-c4ccc(S(=O)(=O)[O-])cc4)c4ccc([nH]4)c(-c4ccc(S(=O)(=O)[O-])cc4)c4nc(c(-c5ccc(S(=O)(=O)[O-])cc5)c5ccc2[nH]5)C=C4)C=C3)cc1
REMARK SMILES IDX 8 1 7 2 6 3 5 4 4 5 3 6 2 7 1 8 34 9 35 10 93 11 36 12 92 13
REMARK SMILES IDX 37 14 38 15 39 16 86 17 40 18 91 19 85 20 87 21 41 22 90 23
REMARK SMILES IDX 84 24 83 25 42 27 72 28 53 29 71 30 54 31 57 32 70 33 88 34
REMARK SMILES IDX 55 35 56 36 69 38 89 39 58 40 43 41 44 42 52 43 45 44 51 45
REMARK SMILES IDX 46 46 47 47 48 48 49 49 50 50 73 51 74 52 82 53 75 54 81 55
REMARK SMILES IDX 76 56 77 57 78 58 79 59 80 60 59 61 60 62 68 63 61 64 67 65
REMARK SMILES IDX 62 66 63 67 64 68 65 69 66 70 9 71 10 72 11 73 12 74 13 75
REMARK SMILES IDX 14 76 15 77 16 78 17 79 18 80 19 81 33 82 20 83 23 84 21 85
REMARK SMILES IDX 22 87 24 88 25 89 32 90 26 91 28 92 27 93 29 94 30 95 31 96
REMARK H PARENT 87 26 57 37 20 86
REMARK Flexibility Score: inf
ROOT
ATOM      1  C   UNL A   1      39.083  22.042  26.123  1.00  0.00     0.188 C 
ENDROOT
BRANCH   1   2
ATOM      2  C   UNL A   1      40.423  21.487  26.608  1.00  0.00     0.188 C 
BRANCH   2   3
ATOM      3  O   UNL A   1      41.028  22.388  27.537  1.00  0.00    -0.376 OA
BRANCH   3   4
ATOM      4  C   UNL A   1      42.388  22.721  27.272  1.00  0.00     0.202 C 
BRANCH   4   5
ATOM      5  C   UNL A   1      42.633  23.261  25.862  1.00  0.00     0.261 C 
BRANCH   5   6
ATOM      6  O   UNL A   1      42.999  24.648  25.875  1.00  0.00    -0.460 OA
BRANCH   6   7
ATOM      7  C   UNL A   1      42.175  25.718  26.015  1.00  0.00     0.338 C 
ATOM      8  O   UNL A   1      41.579  26.120  25.017  1.00  0.00    -0.246 OA
BRANCH   7   9
ATOM      9  C   UNL A   1      41.935  26.439  27.308  1.00  0.00     0.060 A 
ATOM     10  C   UNL A   1      41.002  26.077  28.283  1.00  0.00     0.016 A 
ATOM     11  C   UNL A   1      42.785  27.521  27.593  1.00  0.00     0.016 A 
ATOM     12  C   UNL A   1      40.876  26.779  29.476  1.00  0.00     0.010 A 
ATOM     13  C   UNL A   1      42.684  28.222  28.800  1.00  0.00     0.010 A 
ATOM     14  C   UNL A   1      41.714  27.857  29.739  1.00  0.00    -0.014 A 
BRANCH  14  15
ATOM     15  C   UNL A   1      41.463  28.653  30.952  1.00  0.00     0.031 A 
ATOM     16  C   UNL A   1      40.290  29.586  30.949  1.00  0.00     0.074 A 
ATOM     17  C   UNL A   1      42.206  28.449  32.055  1.00  0.00     0.049 A 
ATOM     18  N   UNL A   1      39.908  30.432  31.864  1.00  0.00    -0.248 NA
ATOM     19  C   UNL A   1      39.419  29.548  29.759  1.00  0.00     0.031 C 
ATOM     20  C   UNL A   1      43.282  27.461  32.180  1.00  0.00     0.029 A 
ATOM     21  N   UNL A   1      42.159  29.045  33.287  1.00  0.00    -0.354 N 
ATOM     22  C   UNL A   1      38.779  31.054  31.347  1.00  0.00     0.074 A 
ATOM     23  C   UNL A   1      38.525  30.481  30.047  1.00  0.00     0.031 C 
ATOM     24  C   UNL A   1      43.792  27.521  33.422  1.00  0.00     0.029 A 
ATOM     25  C   UNL A   1      43.128  28.593  34.154  1.00  0.00     0.049 A 
ATOM     26  H   UNL A   1      41.496  29.731  33.529  1.00  0.00     0.167 HD
ATOM     27  C   UNL A   1      38.039  32.034  31.911  1.00  0.00     0.031 A 
ATOM     28  C   UNL A   1      43.463  29.040  35.380  1.00  0.00     0.031 A 
ATOM     29  C   UNL A   1      38.327  32.586  33.205  1.00  0.00     0.049 A 
ATOM     30  C   UNL A   1      42.687  30.204  35.938  1.00  0.00     0.074 A 
ATOM     31  C   UNL A   1      37.680  33.611  33.869  1.00  0.00     0.029 A 
ATOM     32  N   UNL A   1      39.358  32.155  34.027  1.00  0.00    -0.354 N 
ATOM     33  N   UNL A   1      41.642  30.816  35.428  1.00  0.00    -0.248 NA
ATOM     34  C   UNL A   1      43.142  30.756  37.220  1.00  0.00     0.031 C 
ATOM     35  C   UNL A   1      38.360  33.839  35.070  1.00  0.00     0.029 A 
ATOM     36  C   UNL A   1      39.391  32.917  35.179  1.00  0.00     0.049 A 
ATOM     37  H   UNL A   1      39.975  31.416  33.821  1.00  0.00     0.167 HD
ATOM     38  C   UNL A   1      41.314  31.823  36.327  1.00  0.00     0.074 A 
ATOM     39  C   UNL A   1      42.250  31.715  37.430  1.00  0.00     0.031 C 
ATOM     40  C   UNL A   1      40.341  32.764  36.251  1.00  0.00     0.031 A 
BRANCH  27  41
ATOM     41  C   UNL A   1      36.920  32.619  31.098  1.00  0.00    -0.014 A 
ATOM     42  C   UNL A   1      35.590  32.189  31.252  1.00  0.00     0.010 A 
ATOM     43  C   UNL A   1      37.209  33.639  30.174  1.00  0.00     0.010 A 
ATOM     44  C   UNL A   1      34.572  32.760  30.483  1.00  0.00     0.020 A 
ATOM     45  C   UNL A   1      36.191  34.225  29.417  1.00  0.00     0.020 A 
ATOM     46  C   UNL A   1      34.879  33.776  29.571  1.00  0.00     0.054 A 
BRANCH  46  47
ATOM     47  S   UNL A   1      33.533  34.529  28.616  1.00  0.00     0.124 S 
ATOM     48  O   UNL A   1      32.589  34.903  29.668  1.00  0.00    -0.237 OA
ATOM     49  O   UNL A   1      34.201  35.644  27.948  1.00  0.00    -0.237 OA
ATOM     50  O   UNL A   1      33.088  33.454  27.733  1.00  0.00    -0.744 OA
ENDBRANCH  46  47
ENDBRANCH  27  41
BRANCH  28  51
ATOM     51  C   UNL A   1      44.636  28.473  36.107  1.00  0.00    -0.014 A 
ATOM     52  C   UNL A   1      44.510  27.346  36.937  1.00  0.00     0.010 A 
ATOM     53  C   UNL A   1      45.894  29.099  36.005  1.00  0.00     0.010 A 
ATOM     54  C   UNL A   1      45.606  26.879  37.676  1.00  0.00     0.020 A 
ATOM     55  C   UNL A   1      46.998  28.619  36.714  1.00  0.00     0.020 A 
ATOM     56  C   UNL A   1      46.841  27.524  37.564  1.00  0.00     0.054 A 
BRANCH  56  57
ATOM     57  S   UNL A   1      48.250  26.907  38.527  1.00  0.00     0.124 S 
ATOM     58  O   UNL A   1      49.106  28.087  38.602  1.00  0.00    -0.237 OA
ATOM     59  O   UNL A   1      47.624  26.498  39.781  1.00  0.00    -0.237 OA
ATOM     60  O   UNL A   1      48.766  25.809  37.711  1.00  0.00    -0.744 OA
ENDBRANCH  56  57
ENDBRANCH  28  51
BRANCH  40  61
ATOM     61  C   UNL A   1      40.238  33.731  37.395  1.00  0.00    -0.014 A 
ATOM     62  C   UNL A   1      39.459  33.426  38.525  1.00  0.00     0.010 A 
ATOM     63  C   UNL A   1      40.991  34.918  37.371  1.00  0.00     0.010 A 
ATOM     64  C   UNL A   1      39.420  34.306  39.607  1.00  0.00     0.020 A 
ATOM     65  C   UNL A   1      40.976  35.785  38.463  1.00  0.00     0.020 A 
ATOM     66  C   UNL A   1      40.182  35.478  39.570  1.00  0.00     0.054 A 
BRANCH  66  67
ATOM     67  S   UNL A   1      40.167  36.572  41.015  1.00  0.00     0.124 S 
ATOM     68  O   UNL A   1      38.770  36.504  41.432  1.00  0.00    -0.237 OA
ATOM     69  O   UNL A   1      41.124  35.931  41.913  1.00  0.00    -0.237 OA
ATOM     70  O   UNL A   1      40.595  37.861  40.476  1.00  0.00    -0.744 OA
ENDBRANCH  66  67
ENDBRANCH  40  61
ENDBRANCH  14  15
ENDBRANCH   7   9
ENDBRANCH   6   7
ENDBRANCH   5   6
ENDBRANCH   4   5
ENDBRANCH   3   4
ENDBRANCH   2   3
ENDBRANCH   1   2
BRANCH   1  71
ATOM     71  O   UNL A   1      38.382  21.211  25.197  1.00  0.00    -0.377 OA
BRANCH  71  72
ATOM     72  C   UNL A   1      37.181  21.736  24.643  1.00  0.00     0.188 C 
BRANCH  72  73
ATOM     73  C   UNL A   1      36.572  23.024  25.244  1.00  0.00     0.188 C 
BRANCH  73  74
ATOM     74  O   UNL A   1      35.674  22.818  26.325  1.00  0.00    -0.376 OA
BRANCH  74  75
ATOM     75  C   UNL A   1      35.045  21.539  26.373  1.00  0.00     0.202 C 
BRANCH  75  76
ATOM     76  C   UNL A   1      33.552  21.602  26.712  1.00  0.00     0.261 C 
BRANCH  76  77
ATOM     77  O   UNL A   1      32.679  21.091  25.688  1.00  0.00    -0.460 OA
BRANCH  77  78
ATOM     78  C   UNL A   1      31.670  21.875  25.246  1.00  0.00     0.339 C 
ATOM     79  O   UNL A   1      30.548  21.976  25.715  1.00  0.00    -0.246 OA
BRANCH  78  80
ATOM     80  C   UNL A   1      32.221  22.740  24.174  1.00  0.00     0.077 A 
ATOM     81  C   UNL A   1      32.574  22.193  23.000  1.00  0.00     0.101 A 
ATOM     82  C   UNL A   1      32.291  24.173  24.336  1.00  0.00     0.031 A 
ATOM     83  N   UNL A   1      32.943  22.999  21.946  1.00  0.00    -0.328 N 
ATOM     84  C   UNL A   1      32.733  24.986  23.357  1.00  0.00     0.048 A 
ATOM     85  C   UNL A   1      33.025  24.377  22.013  1.00  0.00     0.255 A 
ATOM     86  H   UNL A   1      33.165  22.565  21.091  1.00  0.00     0.169 HD
ATOM     87  O   UNL A   1      33.325  25.047  21.031  1.00  0.00    -0.269 OA
BRANCH  84  88
ATOM     88  C   UNL A   1      32.979  26.405  23.678  1.00  0.00    -0.006 A 
ATOM     89  C   UNL A   1      32.834  27.353  22.644  1.00  0.00     0.009 A 
ATOM     90  C   UNL A   1      33.339  26.849  24.956  1.00  0.00     0.094 A 
ATOM     91  C   UNL A   1      33.083  28.706  22.855  1.00  0.00     0.008 A 
ATOM     92  C   UNL A   1      33.580  28.218  25.166  1.00  0.00     0.270 A 
ATOM     93  C   UNL A   1      33.462  29.143  24.118  1.00  0.00     0.085 A 
BRANCH  92  94
ATOM     94  N   UNL A   1      33.963  28.701  26.498  1.00  0.00     0.062 N 
ATOM     95  O   UNL A   1      33.400  28.191  27.479  1.00  0.00    -0.258 OA
ATOM     96  O   UNL A   1      34.823  29.589  26.571  1.00  0.00    -0.258 OA
ENDBRANCH  92  94
ENDBRANCH  84  88
ENDBRANCH  78  80
ENDBRANCH  77  78
ENDBRANCH  76  77
ENDBRANCH  75  76
ENDBRANCH  74  75
ENDBRANCH  73  74
ENDBRANCH  72  73
ENDBRANCH  71  72
ENDBRANCH   1  71
TORSDOF 25
ENDMDL
