MODEL 1
REMARK VINA RESULT:      -9.4      0.000      0.000
REMARK SMILES O=C(C[C@H]1CN(c2nc(C3CC3)ns2)CCO1)OCCOCCOCCOCCOC(=O)c1ccc(-c2c3nc(c(-c4ccc(S(=O)(=O)[O-])cc4)c4ccc([nH]4)c(-c4ccc(S(=O)(=O)[O-])cc4)c4nc(c(-c5ccc(S(=O)(=O)[O-])cc5)c5ccc2[nH]5)C=C4)C=C3)cc1
REMARK SMILES IDX 24 1 23 2 22 3 21 4 20 5 19 6 18 7 2 8 1 9 3 10 4 11 5 12
REMARK SMILES IDX 17 13 6 14 16 15 15 16 7 17 8 18 14 19 9 20 13 21 10 22
REMARK SMILES IDX 11 23 12 24 25 25 26 26 27 27 28 28 29 29 30 30 31 31 32 32
REMARK SMILES IDX 33 33 34 34 92 35 35 36 91 37 36 38 37 39 38 40 85 41 39 42
REMARK SMILES IDX 90 43 84 44 86 45 40 46 89 47 83 48 82 49 41 51 71 52 52 53
REMARK SMILES IDX 70 54 53 55 56 56 69 57 87 58 54 59 55 60 68 62 88 63 57 64
REMARK SMILES IDX 42 65 43 66 51 67 44 68 50 69 45 70 46 71 47 72 48 73 49 74
REMARK SMILES IDX 72 75 73 76 81 77 74 78 80 79 75 80 76 81 77 82 78 83 79 84
REMARK SMILES IDX 58 85 59 86 67 87 60 88 66 89 61 90 62 91 63 92 64 93 65 94
REMARK H PARENT 86 50 56 61
REMARK Flexibility Score: inf
ROOT
ATOM      1  O   UNL A   1      32.524  37.137  30.864  1.00  0.00    -0.377 OA
ENDROOT
BRANCH   1   2
ATOM      2  C   UNL A   1      33.392  36.523  29.919  1.00  0.00     0.188 C 
BRANCH   2   3
ATOM      3  C   UNL A   1      33.190  35.014  29.707  1.00  0.00     0.188 C 
BRANCH   3   4
ATOM      4  O   UNL A   1      34.269  34.337  29.092  1.00  0.00    -0.376 OA
BRANCH   4   5
ATOM      5  C   UNL A   1      34.351  32.931  29.096  1.00  0.00     0.202 C 
BRANCH   5   6
ATOM      6  C   UNL A   1      34.752  32.172  27.846  1.00  0.00     0.261 C 
BRANCH   6   7
ATOM      7  O   UNL A   1      34.083  30.930  27.605  1.00  0.00    -0.463 OA
BRANCH   7   8
ATOM      8  C   UNL A   1      34.709  29.768  27.360  1.00  0.00     0.308 C 
ATOM      9  O   UNL A   1      35.749  29.474  27.943  1.00  0.00    -0.252 OA
BRANCH   8  10
ATOM     10  C   UNL A   1      34.164  28.911  26.261  1.00  0.00     0.156 C 
BRANCH  10  11
ATOM     11  C   UNL A   1      33.186  27.825  26.702  1.00  0.00     0.148 C 
ATOM     12  C   UNL A   1      31.715  27.925  26.246  1.00  0.00     0.151 C 
ATOM     13  O   UNL A   1      33.718  26.505  26.437  1.00  0.00    -0.374 OA
ATOM     14  N   UNL A   1      31.540  27.483  24.865  1.00  0.00    -0.342 N 
ATOM     15  C   UNL A   1      33.570  26.073  25.078  1.00  0.00     0.182 C 
ATOM     16  C   UNL A   1      32.132  26.189  24.519  1.00  0.00     0.147 C 
BRANCH  14  17
ATOM     17  C   UNL A   1      30.795  28.232  23.995  1.00  0.00     0.205 A 
ATOM     18  N   UNL A   1      30.313  29.425  24.289  1.00  0.00    -0.203 NA
ATOM     19  S   UNL A   1      30.470  27.847  22.335  1.00  0.00     0.004 S 
ATOM     20  C   UNL A   1      29.709  29.983  23.165  1.00  0.00     0.147 A 
ATOM     21  N   UNL A   1      29.651  29.268  22.043  1.00  0.00    -0.174 NA
BRANCH  20  22
ATOM     22  C   UNL A   1      29.126  31.402  23.172  1.00  0.00     0.059 C 
ATOM     23  C   UNL A   1      28.288  31.903  22.017  1.00  0.00     0.012 C 
ATOM     24  C   UNL A   1      27.633  31.593  23.329  1.00  0.00     0.012 C 
ENDBRANCH  20  22
ENDBRANCH  14  17
ENDBRANCH  10  11
ENDBRANCH   8  10
ENDBRANCH   7   8
ENDBRANCH   6   7
ENDBRANCH   5   6
ENDBRANCH   4   5
ENDBRANCH   3   4
ENDBRANCH   2   3
ENDBRANCH   1   2
BRANCH   1  25
ATOM     25  C   UNL A   1      32.631  36.685  32.206  1.00  0.00     0.188 C 
BRANCH  25  26
ATOM     26  C   UNL A   1      34.005  36.874  32.896  1.00  0.00     0.188 C 
BRANCH  26  27
ATOM     27  O   UNL A   1      34.433  36.045  33.964  1.00  0.00    -0.376 OA
BRANCH  27  28
ATOM     28  C   UNL A   1      35.356  35.006  33.705  1.00  0.00     0.202 C 
BRANCH  28  29
ATOM     29  C   UNL A   1      35.021  33.953  32.634  1.00  0.00     0.261 C 
BRANCH  29  30
ATOM     30  O   UNL A   1      35.320  32.582  32.960  1.00  0.00    -0.460 OA
BRANCH  30  31
ATOM     31  C   UNL A   1      36.467  32.380  33.653  1.00  0.00     0.338 C 
ATOM     32  O   UNL A   1      36.579  32.306  34.870  1.00  0.00    -0.246 OA
BRANCH  31  33
ATOM     33  C   UNL A   1      37.577  32.036  32.729  1.00  0.00     0.060 A 
ATOM     34  C   UNL A   1      38.764  31.522  33.280  1.00  0.00     0.016 A 
ATOM     35  C   UNL A   1      37.483  32.241  31.351  1.00  0.00     0.016 A 
ATOM     36  C   UNL A   1      39.875  31.278  32.475  1.00  0.00     0.010 A 
ATOM     37  C   UNL A   1      38.613  32.036  30.547  1.00  0.00     0.010 A 
ATOM     38  C   UNL A   1      39.829  31.612  31.118  1.00  0.00    -0.014 A 
BRANCH  38  39
ATOM     39  C   UNL A   1      41.114  31.818  30.402  1.00  0.00     0.031 A 
ATOM     40  C   UNL A   1      41.765  33.175  30.520  1.00  0.00     0.074 A 
ATOM     41  C   UNL A   1      41.736  30.825  29.741  1.00  0.00     0.049 A 
ATOM     42  N   UNL A   1      42.877  33.615  29.990  1.00  0.00    -0.248 NA
ATOM     43  C   UNL A   1      41.065  34.168  31.355  1.00  0.00     0.031 C 
ATOM     44  C   UNL A   1      41.249  29.453  29.611  1.00  0.00     0.029 A 
ATOM     45  N   UNL A   1      42.924  30.827  29.052  1.00  0.00    -0.354 N 
ATOM     46  C   UNL A   1      43.006  34.930  30.424  1.00  0.00     0.074 A 
ATOM     47  C   UNL A   1      41.842  35.231  31.226  1.00  0.00     0.031 C 
ATOM     48  C   UNL A   1      42.124  28.750  28.870  1.00  0.00     0.029 A 
ATOM     49  C   UNL A   1      43.217  29.627  28.449  1.00  0.00     0.049 A 
ATOM     50  H   UNL A   1      43.511  31.616  28.994  1.00  0.00     0.167 HD
ATOM     51  C   UNL A   1      44.008  35.810  30.190  1.00  0.00     0.031 A 
ATOM     52  C   UNL A   1      44.236  29.287  27.632  1.00  0.00     0.031 A 
ATOM     53  C   UNL A   1      45.156  35.518  29.375  1.00  0.00     0.049 A 
ATOM     54  C   UNL A   1      45.293  30.314  27.305  1.00  0.00     0.074 A 
ATOM     55  C   UNL A   1      46.219  36.346  29.058  1.00  0.00     0.029 A 
ATOM     56  N   UNL A   1      45.391  34.305  28.746  1.00  0.00    -0.354 N 
ATOM     57  N   UNL A   1      45.403  31.554  27.724  1.00  0.00    -0.248 NA
ATOM     58  C   UNL A   1      46.374  29.890  26.401  1.00  0.00     0.031 C 
ATOM     59  C   UNL A   1      47.067  35.651  28.191  1.00  0.00     0.029 A 
ATOM     60  C   UNL A   1      46.571  34.368  28.027  1.00  0.00     0.049 A 
ATOM     61  H   UNL A   1      44.805  33.516  28.803  1.00  0.00     0.167 HD
ATOM     62  C   UNL A   1      46.579  32.044  27.161  1.00  0.00     0.074 A 
ATOM     63  C   UNL A   1      47.155  30.961  26.393  1.00  0.00     0.031 C 
ATOM     64  C   UNL A   1      47.134  33.278  27.269  1.00  0.00     0.031 A 
BRANCH  51  65
ATOM     65  C   UNL A   1      43.888  37.181  30.804  1.00  0.00    -0.014 A 
ATOM     66  C   UNL A   1      44.150  37.392  32.170  1.00  0.00     0.010 A 
ATOM     67  C   UNL A   1      43.543  38.281  29.997  1.00  0.00     0.010 A 
ATOM     68  C   UNL A   1      44.039  38.671  32.723  1.00  0.00     0.020 A 
ATOM     69  C   UNL A   1      43.462  39.565  30.540  1.00  0.00     0.020 A 
ATOM     70  C   UNL A   1      43.699  39.750  31.904  1.00  0.00     0.054 A 
BRANCH  70  71
ATOM     71  S   UNL A   1      43.602  41.404  32.643  1.00  0.00     0.124 S 
ATOM     72  O   UNL A   1      44.806  41.437  33.469  1.00  0.00    -0.237 OA
ATOM     73  O   UNL A   1      43.620  42.277  31.473  1.00  0.00    -0.237 OA
ATOM     74  O   UNL A   1      42.342  41.381  33.382  1.00  0.00    -0.744 OA
ENDBRANCH  70  71
ENDBRANCH  51  65
BRANCH  52  75
ATOM     75  C   UNL A   1      44.293  27.924  27.031  1.00  0.00    -0.014 A 
ATOM     76  C   UNL A   1      43.632  27.631  25.824  1.00  0.00     0.010 A 
ATOM     77  C   UNL A   1      44.988  26.892  27.688  1.00  0.00     0.010 A 
ATOM     78  C   UNL A   1      43.638  26.332  25.306  1.00  0.00     0.020 A 
ATOM     79  C   UNL A   1      45.027  25.600  27.157  1.00  0.00     0.020 A 
ATOM     80  C   UNL A   1      44.338  25.324  25.975  1.00  0.00     0.054 A 
BRANCH  80  81
ATOM     81  S   UNL A   1      44.356  23.653  25.268  1.00  0.00     0.124 S 
ATOM     82  O   UNL A   1      45.323  23.791  24.185  1.00  0.00    -0.237 OA
ATOM     83  O   UNL A   1      44.787  22.839  26.402  1.00  0.00    -0.237 OA
ATOM     84  O   UNL A   1      42.972  23.442  24.850  1.00  0.00    -0.744 OA
ENDBRANCH  80  81
ENDBRANCH  52  75
BRANCH  64  85
ATOM     85  C   UNL A   1      48.455  33.510  26.579  1.00  0.00    -0.014 A 
ATOM     86  C   UNL A   1      49.573  32.696  26.834  1.00  0.00     0.010 A 
ATOM     87  C   UNL A   1      48.566  34.542  25.628  1.00  0.00     0.010 A 
ATOM     88  C   UNL A   1      50.789  32.942  26.191  1.00  0.00     0.020 A 
ATOM     89  C   UNL A   1      49.770  34.769  24.956  1.00  0.00     0.020 A 
ATOM     90  C   UNL A   1      50.881  33.979  25.258  1.00  0.00     0.054 A 
BRANCH  90  91
ATOM     91  S   UNL A   1      52.466  34.267  24.424  1.00  0.00     0.124 S 
ATOM     92  O   UNL A   1      53.422  33.777  25.413  1.00  0.00    -0.237 OA
ATOM     93  O   UNL A   1      52.342  33.459  23.214  1.00  0.00    -0.237 OA
ATOM     94  O   UNL A   1      52.485  35.711  24.203  1.00  0.00    -0.744 OA
ENDBRANCH  90  91
ENDBRANCH  64  85
ENDBRANCH  38  39
ENDBRANCH  31  33
ENDBRANCH  30  31
ENDBRANCH  29  30
ENDBRANCH  28  29
ENDBRANCH  27  28
ENDBRANCH  26  27
ENDBRANCH  25  26
ENDBRANCH   1  25
TORSDOF 26
ENDMDL
MODEL 2
REMARK VINA RESULT:      -9.0      3.115      4.198
REMARK SMILES O=C(C[C@H]1CN(c2nc(C3CC3)ns2)CCO1)OCCOCCOCCOCCOC(=O)c1ccc(-c2c3nc(c(-c4ccc(S(=O)(=O)[O-])cc4)c4ccc([nH]4)c(-c4ccc(S(=O)(=O)[O-])cc4)c4nc(c(-c5ccc(S(=O)(=O)[O-])cc5)c5ccc2[nH]5)C=C4)C=C3)cc1
REMARK SMILES IDX 24 1 23 2 22 3 21 4 20 5 19 6 18 7 2 8 1 9 3 10 4 11 5 12
REMARK SMILES IDX 17 13 6 14 16 15 15 16 7 17 8 18 14 19 9 20 13 21 10 22
REMARK SMILES IDX 11 23 12 24 25 25 26 26 27 27 28 28 29 29 30 30 31 31 32 32
REMARK SMILES IDX 33 33 34 34 92 35 35 36 91 37 36 38 37 39 38 40 85 41 39 42
REMARK SMILES IDX 90 43 84 44 86 45 40 46 89 47 83 48 82 49 41 51 71 52 52 53
REMARK SMILES IDX 70 54 53 55 56 56 69 57 87 58 54 59 55 60 68 62 88 63 57 64
REMARK SMILES IDX 42 65 43 66 51 67 44 68 50 69 45 70 46 71 47 72 48 73 49 74
REMARK SMILES IDX 72 75 73 76 81 77 74 78 80 79 75 80 76 81 77 82 78 83 79 84
REMARK SMILES IDX 58 85 59 86 67 87 60 88 66 89 61 90 62 91 63 92 64 93 65 94
REMARK H PARENT 86 50 56 61
REMARK Flexibility Score: inf
ROOT
ATOM      1  O   UNL A   1      32.614  37.035  31.253  1.00  0.00    -0.377 OA
ENDROOT
BRANCH   1   2
ATOM      2  C   UNL A   1      33.345  36.540  30.136  1.00  0.00     0.188 C 
BRANCH   2   3
ATOM      3  C   UNL A   1      32.870  35.193  29.571  1.00  0.00     0.188 C 
BRANCH   3   4
ATOM      4  O   UNL A   1      33.657  34.664  28.520  1.00  0.00    -0.376 OA
BRANCH   4   5
ATOM      5  C   UNL A   1      33.333  33.437  27.908  1.00  0.00     0.202 C 
BRANCH   5   6
ATOM      6  C   UNL A   1      34.176  32.200  28.155  1.00  0.00     0.261 C 
BRANCH   6   7
ATOM      7  O   UNL A   1      33.803  31.016  27.441  1.00  0.00    -0.463 OA
BRANCH   7   8
ATOM      8  C   UNL A   1      34.629  29.986  27.200  1.00  0.00     0.308 C 
ATOM      9  O   UNL A   1      35.723  29.909  27.754  1.00  0.00    -0.252 OA
BRANCH   8  10
ATOM     10  C   UNL A   1      34.223  29.012  26.141  1.00  0.00     0.156 C 
BRANCH  10  11
ATOM     11  C   UNL A   1      33.292  27.892  26.602  1.00  0.00     0.148 C 
ATOM     12  C   UNL A   1      31.812  27.935  26.166  1.00  0.00     0.151 C 
ATOM     13  O   UNL A   1      33.870  26.591  26.339  1.00  0.00    -0.374 OA
ATOM     14  N   UNL A   1      31.635  27.476  24.791  1.00  0.00    -0.342 N 
ATOM     15  C   UNL A   1      33.719  26.144  24.986  1.00  0.00     0.182 C 
ATOM     16  C   UNL A   1      32.271  26.203  24.445  1.00  0.00     0.147 C 
BRANCH  14  17
ATOM     17  C   UNL A   1      30.851  28.191  23.926  1.00  0.00     0.205 A 
ATOM     18  N   UNL A   1      30.301  29.351  24.230  1.00  0.00    -0.203 NA
ATOM     19  S   UNL A   1      30.553  27.805  22.262  1.00  0.00     0.004 S 
ATOM     20  C   UNL A   1      29.669  29.885  23.111  1.00  0.00     0.147 A 
ATOM     21  N   UNL A   1      29.655  29.180  21.981  1.00  0.00    -0.174 NA
BRANCH  20  22
ATOM     22  C   UNL A   1      29.006  31.269  23.131  1.00  0.00     0.059 C 
ATOM     23  C   UNL A   1      27.893  31.611  22.166  1.00  0.00     0.012 C 
ATOM     24  C   UNL A   1      27.579  31.403  23.616  1.00  0.00     0.012 C 
ENDBRANCH  20  22
ENDBRANCH  14  17
ENDBRANCH  10  11
ENDBRANCH   8  10
ENDBRANCH   7   8
ENDBRANCH   6   7
ENDBRANCH   5   6
ENDBRANCH   4   5
ENDBRANCH   3   4
ENDBRANCH   2   3
ENDBRANCH   1   2
BRANCH   1  25
ATOM     25  C   UNL A   1      32.680  36.263  32.442  1.00  0.00     0.188 C 
BRANCH  25  26
ATOM     26  C   UNL A   1      34.090  36.024  33.039  1.00  0.00     0.188 C 
BRANCH  26  27
ATOM     27  O   UNL A   1      34.652  34.727  33.148  1.00  0.00    -0.376 OA
BRANCH  27  28
ATOM     28  C   UNL A   1      35.867  34.442  32.484  1.00  0.00     0.202 C 
BRANCH  28  29
ATOM     29  C   UNL A   1      35.834  33.684  31.146  1.00  0.00     0.261 C 
BRANCH  29  30
ATOM     30  O   UNL A   1      36.161  32.282  31.188  1.00  0.00    -0.460 OA
BRANCH  30  31
ATOM     31  C   UNL A   1      36.991  31.903  32.191  1.00  0.00     0.338 C 
ATOM     32  O   UNL A   1      36.659  31.498  33.297  1.00  0.00    -0.246 OA
BRANCH  31  33
ATOM     33  C   UNL A   1      38.392  31.832  31.704  1.00  0.00     0.060 A 
ATOM     34  C   UNL A   1      38.615  31.857  30.317  1.00  0.00     0.016 A 
ATOM     35  C   UNL A   1      39.473  31.710  32.580  1.00  0.00     0.016 A 
ATOM     36  C   UNL A   1      39.898  31.690  29.799  1.00  0.00     0.010 A 
ATOM     37  C   UNL A   1      40.759  31.500  32.059  1.00  0.00     0.010 A 
ATOM     38  C   UNL A   1      40.962  31.429  30.667  1.00  0.00    -0.014 A 
BRANCH  38  39
ATOM     39  C   UNL A   1      42.177  30.778  30.112  1.00  0.00     0.031 A 
ATOM     40  C   UNL A   1      43.452  31.586  30.094  1.00  0.00     0.074 A 
ATOM     41  C   UNL A   1      42.187  29.492  29.716  1.00  0.00     0.049 A 
ATOM     42  N   UNL A   1      44.640  31.259  29.658  1.00  0.00    -0.248 NA
ATOM     43  C   UNL A   1      43.371  32.949  30.649  1.00  0.00     0.031 C 
ATOM     44  C   UNL A   1      41.042  28.584  29.747  1.00  0.00     0.029 A 
ATOM     45  N   UNL A   1      43.208  28.729  29.207  1.00  0.00    -0.354 N 
ATOM     46  C   UNL A   1      45.444  32.372  29.884  1.00  0.00     0.074 A 
ATOM     47  C   UNL A   1      44.601  33.397  30.456  1.00  0.00     0.031 C 
ATOM     48  C   UNL A   1      41.423  27.388  29.260  1.00  0.00     0.029 A 
ATOM     49  C   UNL A   1      42.828  27.456  28.855  1.00  0.00     0.049 A 
ATOM     50  H   UNL A   1      44.129  29.064  29.102  1.00  0.00     0.167 HD
ATOM     51  C   UNL A   1      46.768  32.528  29.650  1.00  0.00     0.031 A 
ATOM     52  C   UNL A   1      43.527  26.470  28.255  1.00  0.00     0.031 A 
ATOM     53  C   UNL A   1      47.602  31.516  29.061  1.00  0.00     0.049 A 
ATOM     54  C   UNL A   1      44.979  26.700  27.913  1.00  0.00     0.074 A 
ATOM     55  C   UNL A   1      48.952  31.579  28.763  1.00  0.00     0.029 A 
ATOM     56  N   UNL A   1      47.166  30.257  28.679  1.00  0.00    -0.354 N 
ATOM     57  N   UNL A   1      45.726  27.757  28.134  1.00  0.00    -0.248 NA
ATOM     58  C   UNL A   1      45.688  25.595  27.250  1.00  0.00     0.031 C 
ATOM     59  C   UNL A   1      49.318  30.379  28.147  1.00  0.00     0.029 A 
ATOM     60  C   UNL A   1      48.215  29.541  28.129  1.00  0.00     0.049 A 
ATOM     61  H   UNL A   1      46.246  29.921  28.783  1.00  0.00     0.167 HD
ATOM     62  C   UNL A   1      46.997  27.431  27.666  1.00  0.00     0.074 A 
ATOM     63  C   UNL A   1      46.922  26.071  27.174  1.00  0.00     0.031 C 
ATOM     64  C   UNL A   1      48.125  28.185  27.646  1.00  0.00     0.031 A 
BRANCH  51  65
ATOM     65  C   UNL A   1      47.386  33.855  30.007  1.00  0.00    -0.014 A 
ATOM     66  C   UNL A   1      47.321  34.949  29.125  1.00  0.00     0.010 A 
ATOM     67  C   UNL A   1      48.011  34.021  31.257  1.00  0.00     0.010 A 
ATOM     68  C   UNL A   1      47.896  36.175  29.473  1.00  0.00     0.020 A 
ATOM     69  C   UNL A   1      48.558  35.254  31.621  1.00  0.00     0.020 A 
ATOM     70  C   UNL A   1      48.508  36.320  30.721  1.00  0.00     0.054 A 
BRANCH  70  71
ATOM     71  S   UNL A   1      49.209  37.934  31.160  1.00  0.00     0.124 S 
ATOM     72  O   UNL A   1      48.907  38.018  32.587  1.00  0.00    -0.237 OA
ATOM     73  O   UNL A   1      50.621  37.770  30.826  1.00  0.00    -0.237 OA
ATOM     74  O   UNL A   1      48.476  38.874  30.314  1.00  0.00    -0.744 OA
ENDBRANCH  70  71
ENDBRANCH  51  65
BRANCH  52  75
ATOM     75  C   UNL A   1      42.859  25.185  27.900  1.00  0.00    -0.014 A 
ATOM     76  C   UNL A   1      42.279  24.992  26.633  1.00  0.00     0.010 A 
ATOM     77  C   UNL A   1      42.770  24.151  28.850  1.00  0.00     0.010 A 
ATOM     78  C   UNL A   1      41.597  23.806  26.337  1.00  0.00     0.020 A 
ATOM     79  C   UNL A   1      42.121  22.951  28.547  1.00  0.00     0.020 A 
ATOM     80  C   UNL A   1      41.525  22.792  27.295  1.00  0.00     0.054 A 
BRANCH  80  81
ATOM     81  S   UNL A   1      40.662  21.252  26.876  1.00  0.00     0.124 S 
ATOM     82  O   UNL A   1      40.760  20.498  28.121  1.00  0.00    -0.237 OA
ATOM     83  O   UNL A   1      39.324  21.728  26.529  1.00  0.00    -0.237 OA
ATOM     84  O   UNL A   1      41.435  20.719  25.757  1.00  0.00    -0.744 OA
ENDBRANCH  80  81
ENDBRANCH  52  75
BRANCH  64  85
ATOM     85  C   UNL A   1      49.384  27.543  27.118  1.00  0.00    -0.014 A 
ATOM     86  C   UNL A   1      49.735  27.618  25.758  1.00  0.00     0.010 A 
ATOM     87  C   UNL A   1      50.251  26.884  28.010  1.00  0.00     0.010 A 
ATOM     88  C   UNL A   1      50.901  27.002  25.293  1.00  0.00     0.020 A 
ATOM     89  C   UNL A   1      51.435  26.299  27.556  1.00  0.00     0.020 A 
ATOM     90  C   UNL A   1      51.742  26.344  26.195  1.00  0.00     0.054 A 
BRANCH  90  91
ATOM     91  S   UNL A   1      53.258  25.568  25.569  1.00  0.00     0.124 S 
ATOM     92  O   UNL A   1      54.221  25.897  26.616  1.00  0.00    -0.237 OA
ATOM     93  O   UNL A   1      52.882  24.160  25.481  1.00  0.00    -0.237 OA
ATOM     94  O   UNL A   1      53.483  26.229  24.286  1.00  0.00    -0.744 OA
ENDBRANCH  90  91
ENDBRANCH  64  85
ENDBRANCH  38  39
ENDBRANCH  31  33
ENDBRANCH  30  31
ENDBRANCH  29  30
ENDBRANCH  28  29
ENDBRANCH  27  28
ENDBRANCH  26  27
ENDBRANCH  25  26
ENDBRANCH   1  25
TORSDOF 26
ENDMDL
MODEL 3
REMARK VINA RESULT:      -8.5      6.846     11.874
REMARK SMILES O=C(C[C@H]1CN(c2nc(C3CC3)ns2)CCO1)OCCOCCOCCOCCOC(=O)c1ccc(-c2c3nc(c(-c4ccc(S(=O)(=O)[O-])cc4)c4ccc([nH]4)c(-c4ccc(S(=O)(=O)[O-])cc4)c4nc(c(-c5ccc(S(=O)(=O)[O-])cc5)c5ccc2[nH]5)C=C4)C=C3)cc1
REMARK SMILES IDX 24 1 23 2 22 3 21 4 20 5 19 6 18 7 2 8 1 9 3 10 4 11 5 12
REMARK SMILES IDX 17 13 6 14 16 15 15 16 7 17 8 18 14 19 9 20 13 21 10 22
REMARK SMILES IDX 11 23 12 24 25 25 26 26 27 27 28 28 29 29 30 30 31 31 32 32
REMARK SMILES IDX 33 33 34 34 92 35 35 36 91 37 36 38 37 39 38 40 85 41 39 42
REMARK SMILES IDX 90 43 84 44 86 45 40 46 89 47 83 48 82 49 41 51 71 52 52 53
REMARK SMILES IDX 70 54 53 55 56 56 69 57 87 58 54 59 55 60 68 62 88 63 57 64
REMARK SMILES IDX 42 65 43 66 51 67 44 68 50 69 45 70 46 71 47 72 48 73 49 74
REMARK SMILES IDX 72 75 73 76 81 77 74 78 80 79 75 80 76 81 77 82 78 83 79 84
REMARK SMILES IDX 58 85 59 86 67 87 60 88 66 89 61 90 62 91 63 92 64 93 65 94
REMARK H PARENT 86 50 56 61
REMARK Flexibility Score: inf
ROOT
ATOM      1  O   UNL A   1      34.135  34.143  27.840  1.00  0.00    -0.377 OA
ENDROOT
BRANCH   1   2
ATOM      2  C   UNL A   1      35.137  33.134  27.908  1.00  0.00     0.188 C 
BRANCH   2   3
ATOM      3  C   UNL A   1      34.653  31.739  28.332  1.00  0.00     0.188 C 
BRANCH   3   4
ATOM      4  O   UNL A   1      35.395  30.654  27.807  1.00  0.00    -0.376 OA
BRANCH   4   5
ATOM      5  C   UNL A   1      34.765  29.455  27.417  1.00  0.00     0.202 C 
BRANCH   5   6
ATOM      6  C   UNL A   1      33.779  29.435  26.266  1.00  0.00     0.261 C 
BRANCH   6   7
ATOM      7  O   UNL A   1      34.119  28.615  25.143  1.00  0.00    -0.463 OA
BRANCH   7   8
ATOM      8  C   UNL A   1      33.236  28.174  24.232  1.00  0.00     0.308 C 
ATOM      9  O   UNL A   1      32.706  28.948  23.439  1.00  0.00    -0.252 OA
BRANCH   8  10
ATOM     10  C   UNL A   1      32.829  26.737  24.306  1.00  0.00     0.156 C 
BRANCH  10  11
ATOM     11  C   UNL A   1      32.300  26.139  23.004  1.00  0.00     0.148 C 
ATOM     12  C   UNL A   1      32.800  24.743  22.574  1.00  0.00     0.151 C 
ATOM     13  O   UNL A   1      30.855  26.208  22.949  1.00  0.00    -0.374 OA
ATOM     14  N   UNL A   1      32.128  23.673  23.307  1.00  0.00    -0.342 N 
ATOM     15  C   UNL A   1      30.188  25.173  23.684  1.00  0.00     0.182 C 
ATOM     16  C   UNL A   1      30.666  23.739  23.354  1.00  0.00     0.147 C 
BRANCH  14  17
ATOM     17  C   UNL A   1      32.858  22.647  23.841  1.00  0.00     0.205 A 
ATOM     18  N   UNL A   1      32.366  21.444  24.070  1.00  0.00    -0.203 NA
ATOM     19  S   UNL A   1      34.560  22.671  24.176  1.00  0.00     0.004 S 
ATOM     20  C   UNL A   1      33.379  20.589  24.498  1.00  0.00     0.147 A 
ATOM     21  N   UNL A   1      34.607  21.078  24.662  1.00  0.00    -0.174 NA
BRANCH  20  22
ATOM     22  C   UNL A   1      33.130  19.099  24.766  1.00  0.00     0.059 C 
ATOM     23  C   UNL A   1      32.520  18.211  23.704  1.00  0.00     0.012 C 
ATOM     24  C   UNL A   1      33.970  18.065  24.049  1.00  0.00     0.012 C 
ENDBRANCH  20  22
ENDBRANCH  14  17
ENDBRANCH  10  11
ENDBRANCH   8  10
ENDBRANCH   7   8
ENDBRANCH   6   7
ENDBRANCH   5   6
ENDBRANCH   4   5
ENDBRANCH   3   4
ENDBRANCH   2   3
ENDBRANCH   1   2
BRANCH   1  25
ATOM     25  C   UNL A   1      34.569  35.479  28.047  1.00  0.00     0.188 C 
BRANCH  25  26
ATOM     26  C   UNL A   1      33.538  36.457  28.665  1.00  0.00     0.188 C 
BRANCH  26  27
ATOM     27  O   UNL A   1      32.380  36.000  29.344  1.00  0.00    -0.376 OA
BRANCH  27  28
ATOM     28  C   UNL A   1      32.398  35.913  30.755  1.00  0.00     0.202 C 
BRANCH  28  29
ATOM     29  C   UNL A   1      33.657  35.382  31.461  1.00  0.00     0.261 C 
BRANCH  29  30
ATOM     30  O   UNL A   1      33.468  34.307  32.400  1.00  0.00    -0.460 OA
BRANCH  30  31
ATOM     31  C   UNL A   1      34.337  33.272  32.290  1.00  0.00     0.338 C 
ATOM     32  O   UNL A   1      34.496  32.556  31.310  1.00  0.00    -0.246 OA
BRANCH  31  33
ATOM     33  C   UNL A   1      35.254  33.240  33.457  1.00  0.00     0.060 A 
ATOM     34  C   UNL A   1      35.084  34.208  34.462  1.00  0.00     0.016 A 
ATOM     35  C   UNL A   1      36.287  32.306  33.560  1.00  0.00     0.016 A 
ATOM     36  C   UNL A   1      35.977  34.291  35.528  1.00  0.00     0.010 A 
ATOM     37  C   UNL A   1      37.211  32.416  34.610  1.00  0.00     0.010 A 
ATOM     38  C   UNL A   1      37.091  33.447  35.562  1.00  0.00    -0.014 A 
BRANCH  38  39
ATOM     39  C   UNL A   1      38.258  33.857  36.385  1.00  0.00     0.031 A 
ATOM     40  C   UNL A   1      38.228  33.510  37.853  1.00  0.00     0.074 A 
ATOM     41  C   UNL A   1      39.347  34.438  35.849  1.00  0.00     0.049 A 
ATOM     42  N   UNL A   1      39.110  33.759  38.787  1.00  0.00    -0.248 NA
ATOM     43  C   UNL A   1      37.042  32.776  38.330  1.00  0.00     0.031 C 
ATOM     44  C   UNL A   1      39.530  34.763  34.436  1.00  0.00     0.029 A 
ATOM     45  N   UNL A   1      40.511  34.857  36.445  1.00  0.00    -0.354 N 
ATOM     46  C   UNL A   1      38.584  33.218  39.955  1.00  0.00     0.074 A 
ATOM     47  C   UNL A   1      37.291  32.663  39.624  1.00  0.00     0.031 C 
ATOM     48  C   UNL A   1      40.732  35.348  34.277  1.00  0.00     0.029 A 
ATOM     49  C   UNL A   1      41.389  35.466  35.579  1.00  0.00     0.049 A 
ATOM     50  H   UNL A   1      40.700  34.733  37.404  1.00  0.00     0.167 HD
ATOM     51  C   UNL A   1      39.130  33.172  41.193  1.00  0.00     0.031 A 
ATOM     52  C   UNL A   1      42.572  36.068  35.817  1.00  0.00     0.031 A 
ATOM     53  C   UNL A   1      40.406  33.741  41.528  1.00  0.00     0.049 A 
ATOM     54  C   UNL A   1      43.118  36.091  37.225  1.00  0.00     0.074 A 
ATOM     55  C   UNL A   1      41.042  33.766  42.757  1.00  0.00     0.029 A 
ATOM     56  N   UNL A   1      41.242  34.388  40.631  1.00  0.00    -0.354 N 
ATOM     57  N   UNL A   1      42.610  35.573  38.319  1.00  0.00    -0.248 NA
ATOM     58  C   UNL A   1      44.407  36.771  37.427  1.00  0.00     0.031 C 
ATOM     59  C   UNL A   1      42.236  34.480  42.614  1.00  0.00     0.029 A 
ATOM     60  C   UNL A   1      42.379  34.834  41.282  1.00  0.00     0.049 A 
ATOM     61  H   UNL A   1      41.055  34.513  39.672  1.00  0.00     0.167 HD
ATOM     62  C   UNL A   1      43.532  35.838  39.330  1.00  0.00     0.074 A 
ATOM     63  C   UNL A   1      44.637  36.539  38.711  1.00  0.00     0.031 C 
ATOM     64  C   UNL A   1      43.473  35.529  40.650  1.00  0.00     0.031 A 
BRANCH  51  65
ATOM     65  C   UNL A   1      38.330  32.504  42.282  1.00  0.00    -0.014 A 
ATOM     66  C   UNL A   1      37.443  33.240  43.090  1.00  0.00     0.010 A 
ATOM     67  C   UNL A   1      38.439  31.115  42.478  1.00  0.00     0.010 A 
ATOM     68  C   UNL A   1      36.705  32.605  44.092  1.00  0.00     0.020 A 
ATOM     69  C   UNL A   1      37.678  30.472  43.458  1.00  0.00     0.020 A 
ATOM     70  C   UNL A   1      36.825  31.224  44.268  1.00  0.00     0.054 A 
BRANCH  70  71
ATOM     71  S   UNL A   1      35.824  30.423  45.551  1.00  0.00     0.124 S 
ATOM     72  O   UNL A   1      34.507  30.371  44.919  1.00  0.00    -0.237 OA
ATOM     73  O   UNL A   1      36.491  29.135  45.718  1.00  0.00    -0.237 OA
ATOM     74  O   UNL A   1      35.930  31.330  46.692  1.00  0.00    -0.744 OA
ENDBRANCH  70  71
ENDBRANCH  51  65
BRANCH  52  75
ATOM     75  C   UNL A   1      43.311  36.737  34.708  1.00  0.00    -0.014 A 
ATOM     76  C   UNL A   1      43.041  38.070  34.352  1.00  0.00     0.010 A 
ATOM     77  C   UNL A   1      44.275  36.022  33.972  1.00  0.00     0.010 A 
ATOM     78  C   UNL A   1      43.694  38.663  33.266  1.00  0.00     0.020 A 
ATOM     79  C   UNL A   1      44.956  36.621  32.909  1.00  0.00     0.020 A 
ATOM     80  C   UNL A   1      44.649  37.935  32.552  1.00  0.00     0.054 A 
BRANCH  80  81
ATOM     81  S   UNL A   1      45.504  38.736  31.167  1.00  0.00     0.124 S 
ATOM     82  O   UNL A   1      45.597  37.651  30.197  1.00  0.00    -0.237 OA
ATOM     83  O   UNL A   1      44.588  39.820  30.819  1.00  0.00    -0.237 OA
ATOM     84  O   UNL A   1      46.773  39.167  31.749  1.00  0.00    -0.744 OA
ENDBRANCH  80  81
ENDBRANCH  52  75
BRANCH  64  85
ATOM     85  C   UNL A   1      44.656  35.903  41.508  1.00  0.00    -0.014 A 
ATOM     86  C   UNL A   1      45.797  35.085  41.587  1.00  0.00     0.010 A 
ATOM     87  C   UNL A   1      44.638  37.119  42.217  1.00  0.00     0.010 A 
ATOM     88  C   UNL A   1      46.874  35.450  42.400  1.00  0.00     0.020 A 
ATOM     89  C   UNL A   1      45.727  37.505  43.002  1.00  0.00     0.020 A 
ATOM     90  C   UNL A   1      46.831  36.657  43.105  1.00  0.00     0.054 A 
BRANCH  90  91
ATOM     91  S   UNL A   1      48.249  37.116  44.140  1.00  0.00     0.124 S 
ATOM     92  O   UNL A   1      49.228  37.539  43.143  1.00  0.00    -0.237 OA
ATOM     93  O   UNL A   1      47.701  38.180  44.976  1.00  0.00    -0.237 OA
ATOM     94  O   UNL A   1      48.576  35.881  44.849  1.00  0.00    -0.744 OA
ENDBRANCH  90  91
ENDBRANCH  64  85
ENDBRANCH  38  39
ENDBRANCH  31  33
ENDBRANCH  30  31
ENDBRANCH  29  30
ENDBRANCH  28  29
ENDBRANCH  27  28
ENDBRANCH  26  27
ENDBRANCH  25  26
ENDBRANCH   1  25
TORSDOF 26
ENDMDL
