MODEL 1
REMARK VINA RESULT:      -6.9      0.000      0.000
REMARK SMILES O=C(CCS(=O)(=O)N1CCN(C(=O)[C@@H]2CCCO2)CC1)OCCOCCOCCOCCOC(=O)c1ccc(-c2c3nc(c(-c4ccc(S(=O)(=O)[O-])cc4)c4ccc([nH]4)c(-c4ccc(S(=O)(=O)[O-])cc4)c4nc(c(-c5ccc(S(=O)(=O)[O-])cc5)c5ccc2[nH]5)C=C4)C=C3)cc1
REMARK SMILES IDX 26 1 25 2 24 3 23 4 22 5 21 6 2 7 1 8 3 9 4 10 5 11 6 12
REMARK SMILES IDX 7 13 8 14 9 15 20 16 10 17 19 18 11 19 12 20 13 21 14 22
REMARK SMILES IDX 15 23 18 24 16 25 17 26 27 27 28 28 29 29 30 30 31 31 32 32
REMARK SMILES IDX 33 33 34 34 35 35 36 36 37 37 95 38 38 39 94 40 39 41 40 42
REMARK SMILES IDX 41 43 88 44 42 45 93 46 87 47 89 48 43 49 92 50 86 51 85 52
REMARK SMILES IDX 44 54 74 55 55 56 73 57 56 58 59 59 72 60 90 61 57 62 58 63
REMARK SMILES IDX 71 65 91 66 60 67 45 68 46 69 54 70 47 71 53 72 48 73 49 74
REMARK SMILES IDX 50 75 51 76 52 77 75 78 76 79 84 80 77 81 83 82 78 83 79 84
REMARK SMILES IDX 80 85 81 86 82 87 61 88 62 89 70 90 63 91 69 92 64 93 65 94
REMARK SMILES IDX 66 95 67 96 68 97
REMARK H PARENT 89 53 59 64
REMARK Flexibility Score: inf
ROOT
ATOM      1  C   UNL A   1      50.232  19.234  38.166  1.00  0.00     0.188 C 
ENDROOT
BRANCH   1   2
ATOM      2  C   UNL A   1      50.673  18.813  39.584  1.00  0.00     0.188 C 
BRANCH   2   3
ATOM      3  O   UNL A   1      51.297  19.752  40.459  1.00  0.00    -0.376 OA
BRANCH   3   4
ATOM      4  C   UNL A   1      50.606  20.572  41.397  1.00  0.00     0.202 C 
BRANCH   4   5
ATOM      5  C   UNL A   1      50.329  20.104  42.812  1.00  0.00     0.261 C 
BRANCH   5   6
ATOM      6  O   UNL A   1      49.649  18.850  42.895  1.00  0.00    -0.463 OA
BRANCH   6   7
ATOM      7  C   UNL A   1      48.766  18.491  43.833  1.00  0.00     0.306 C 
ATOM      8  O   UNL A   1      49.144  18.454  45.003  1.00  0.00    -0.252 OA
BRANCH   7   9
ATOM      9  C   UNL A   1      47.389  18.030  43.462  1.00  0.00     0.140 C 
BRANCH   9  10
ATOM     10  C   UNL A   1      46.162  18.851  43.092  1.00  0.00     0.166 C 
BRANCH  10  11
ATOM     11  S   UNL A   1      45.513  19.317  41.490  1.00  0.00     0.214 S 
ATOM     12  O   UNL A   1      44.552  18.302  41.115  1.00  0.00    -0.212 OA
ATOM     13  O   UNL A   1      45.043  20.678  41.673  1.00  0.00    -0.212 OA
BRANCH  11  14
ATOM     14  N   UNL A   1      46.679  19.386  40.298  1.00  0.00    -0.198 NA
ATOM     15  C   UNL A   1      46.767  18.311  39.251  1.00  0.00     0.123 C 
ATOM     16  C   UNL A   1      47.133  20.618  39.671  1.00  0.00     0.123 C 
ATOM     17  C   UNL A   1      46.056  18.723  37.917  1.00  0.00     0.136 C 
ATOM     18  C   UNL A   1      46.030  21.047  38.730  1.00  0.00     0.136 C 
ATOM     19  N   UNL A   1      46.105  20.178  37.587  1.00  0.00    -0.338 N 
ATOM     20  C   UNL A   1      46.194  20.665  36.294  1.00  0.00     0.251 C 
ATOM     21  O   UNL A   1      46.337  19.901  35.336  1.00  0.00    -0.272 OA
BRANCH  20  22
ATOM     22  C   UNL A   1      46.085  22.210  36.054  1.00  0.00     0.207 C 
ATOM     23  C   UNL A   1      44.726  22.732  35.588  1.00  0.00     0.044 C 
ATOM     24  O   UNL A   1      47.067  22.704  35.123  1.00  0.00    -0.368 OA
ATOM     25  C   UNL A   1      45.079  23.986  34.817  1.00  0.00     0.032 C 
ATOM     26  C   UNL A   1      46.494  23.756  34.336  1.00  0.00     0.161 C 
ENDBRANCH  20  22
ENDBRANCH  11  14
ENDBRANCH  10  11
ENDBRANCH   9  10
ENDBRANCH   7   9
ENDBRANCH   6   7
ENDBRANCH   5   6
ENDBRANCH   4   5
ENDBRANCH   3   4
ENDBRANCH   2   3
ENDBRANCH   1   2
BRANCH   1  27
ATOM     27  O   UNL A   1      51.130  20.104  37.515  1.00  0.00    -0.377 OA
BRANCH  27  28
ATOM     28  C   UNL A   1      50.622  21.298  36.941  1.00  0.00     0.188 C 
BRANCH  28  29
ATOM     29  C   UNL A   1      50.289  22.485  37.864  1.00  0.00     0.188 C 
BRANCH  29  30
ATOM     30  O   UNL A   1      48.907  22.780  37.879  1.00  0.00    -0.376 OA
BRANCH  30  31
ATOM     31  C   UNL A   1      48.470  24.099  38.112  1.00  0.00     0.202 C 
BRANCH  31  32
ATOM     32  C   UNL A   1      48.710  25.190  37.055  1.00  0.00     0.261 C 
BRANCH  32  33
ATOM     33  O   UNL A   1      48.695  26.564  37.469  1.00  0.00    -0.460 OA
BRANCH  33  34
ATOM     34  C   UNL A   1      47.773  26.980  38.377  1.00  0.00     0.338 C 
ATOM     35  O   UNL A   1      47.867  26.919  39.574  1.00  0.00    -0.246 OA
BRANCH  34  36
ATOM     36  C   UNL A   1      46.745  27.761  37.617  1.00  0.00     0.060 A 
ATOM     37  C   UNL A   1      45.426  27.282  37.549  1.00  0.00     0.016 A 
ATOM     38  C   UNL A   1      47.057  29.002  37.053  1.00  0.00     0.016 A 
ATOM     39  C   UNL A   1      44.429  28.030  36.907  1.00  0.00     0.010 A 
ATOM     40  C   UNL A   1      46.070  29.729  36.379  1.00  0.00     0.010 A 
ATOM     41  C   UNL A   1      44.756  29.238  36.279  1.00  0.00    -0.014 A 
BRANCH  41  42
ATOM     42  C   UNL A   1      43.822  29.873  35.311  1.00  0.00     0.031 A 
ATOM     43  C   UNL A   1      42.886  30.929  35.844  1.00  0.00     0.074 A 
ATOM     44  C   UNL A   1      43.750  29.501  34.019  1.00  0.00     0.049 A 
ATOM     45  N   UNL A   1      41.870  31.509  35.262  1.00  0.00    -0.248 NA
ATOM     46  C   UNL A   1      43.126  31.378  37.227  1.00  0.00     0.031 C 
ATOM     47  C   UNL A   1      44.627  28.535  33.359  1.00  0.00     0.029 A 
ATOM     48  N   UNL A   1      42.865  29.877  33.033  1.00  0.00    -0.354 N 
ATOM     49  C   UNL A   1      41.333  32.366  36.215  1.00  0.00     0.074 A 
ATOM     50  C   UNL A   1      42.133  32.233  37.412  1.00  0.00     0.031 C 
ATOM     51  C   UNL A   1      44.214  28.367  32.088  1.00  0.00     0.029 A 
ATOM     52  C   UNL A   1      43.015  29.176  31.857  1.00  0.00     0.049 A 
ATOM     53  H   UNL A   1      42.189  30.582  33.156  1.00  0.00     0.167 HD
ATOM     54  C   UNL A   1      40.257  33.179  36.110  1.00  0.00     0.031 A 
ATOM     55  C   UNL A   1      42.248  29.152  30.746  1.00  0.00     0.031 A 
ATOM     56  C   UNL A   1      39.458  33.307  34.923  1.00  0.00     0.049 A 
ATOM     57  C   UNL A   1      41.005  30.011  30.683  1.00  0.00     0.074 A 
ATOM     58  C   UNL A   1      38.375  34.140  34.707  1.00  0.00     0.029 A 
ATOM     59  N   UNL A   1      39.639  32.573  33.763  1.00  0.00    -0.354 N 
ATOM     60  N   UNL A   1      40.541  30.859  31.571  1.00  0.00    -0.248 NA
ATOM     61  C   UNL A   1      40.179  29.907  29.470  1.00  0.00     0.031 C 
ATOM     62  C   UNL A   1      37.853  33.854  33.443  1.00  0.00     0.029 A 
ATOM     63  C   UNL A   1      38.655  32.897  32.846  1.00  0.00     0.049 A 
ATOM     64  H   UNL A   1      40.359  31.918  33.614  1.00  0.00     0.167 HD
ATOM     65  C   UNL A   1      39.384  31.400  31.013  1.00  0.00     0.074 A 
ATOM     66  C   UNL A   1      39.232  30.806  29.704  1.00  0.00     0.031 C 
ATOM     67  C   UNL A   1      38.522  32.304  31.540  1.00  0.00     0.031 A 
BRANCH  54  68
ATOM     68  C   UNL A   1      39.841  33.963  37.323  1.00  0.00    -0.014 A 
ATOM     69  C   UNL A   1      39.174  33.351  38.399  1.00  0.00     0.010 A 
ATOM     70  C   UNL A   1      40.209  35.318  37.422  1.00  0.00     0.010 A 
ATOM     71  C   UNL A   1      38.879  34.086  39.551  1.00  0.00     0.020 A 
ATOM     72  C   UNL A   1      39.938  36.047  38.581  1.00  0.00     0.020 A 
ATOM     73  C   UNL A   1      39.272  35.426  39.638  1.00  0.00     0.054 A 
BRANCH  73  74
ATOM     74  S   UNL A   1      38.946  36.329  41.177  1.00  0.00     0.124 S 
ATOM     75  O   UNL A   1      37.708  35.703  41.638  1.00  0.00    -0.237 OA
ATOM     76  O   UNL A   1      40.133  36.034  41.975  1.00  0.00    -0.237 OA
ATOM     77  O   UNL A   1      38.817  37.718  40.745  1.00  0.00    -0.744 OA
ENDBRANCH  73  74
ENDBRANCH  54  68
BRANCH  55  78
ATOM     78  C   UNL A   1      42.569  28.225  29.619  1.00  0.00    -0.014 A 
ATOM     79  C   UNL A   1      43.204  28.692  28.454  1.00  0.00     0.010 A 
ATOM     80  C   UNL A   1      42.177  26.875  29.682  1.00  0.00     0.010 A 
ATOM     81  C   UNL A   1      43.408  27.839  27.363  1.00  0.00     0.020 A 
ATOM     82  C   UNL A   1      42.410  26.010  28.608  1.00  0.00     0.020 A 
ATOM     83  C   UNL A   1      43.007  26.503  27.448  1.00  0.00     0.054 A 
BRANCH  83  84
ATOM     84  S   UNL A   1      43.295  25.408  26.030  1.00  0.00     0.124 S 
ATOM     85  O   UNL A   1      44.457  26.027  25.400  1.00  0.00    -0.237 OA
ATOM     86  O   UNL A   1      43.534  24.118  26.673  1.00  0.00    -0.237 OA
ATOM     87  O   UNL A   1      42.049  25.497  25.271  1.00  0.00    -0.744 OA
ENDBRANCH  83  84
ENDBRANCH  55  78
BRANCH  67  88
ATOM     88  C   UNL A   1      37.346  32.734  30.701  1.00  0.00    -0.014 A 
ATOM     89  C   UNL A   1      37.529  33.423  29.490  1.00  0.00     0.010 A 
ATOM     90  C   UNL A   1      36.044  32.360  31.086  1.00  0.00     0.010 A 
ATOM     91  C   UNL A   1      36.431  33.746  28.687  1.00  0.00     0.020 A 
ATOM     92  C   UNL A   1      34.948  32.654  30.271  1.00  0.00     0.020 A 
ATOM     93  C   UNL A   1      35.148  33.353  29.080  1.00  0.00     0.054 A 
BRANCH  93  94
ATOM     94  S   UNL A   1      33.750  33.724  27.985  1.00  0.00     0.124 S 
ATOM     95  O   UNL A   1      34.323  34.723  27.087  1.00  0.00    -0.237 OA
ATOM     96  O   UNL A   1      33.463  32.426  27.381  1.00  0.00    -0.237 OA
ATOM     97  O   UNL A   1      32.720  34.224  28.893  1.00  0.00    -0.744 OA
ENDBRANCH  93  94
ENDBRANCH  67  88
ENDBRANCH  41  42
ENDBRANCH  34  36
ENDBRANCH  33  34
ENDBRANCH  32  33
ENDBRANCH  31  32
ENDBRANCH  30  31
ENDBRANCH  29  30
ENDBRANCH  28  29
ENDBRANCH  27  28
ENDBRANCH   1  27
TORSDOF 27
ENDMDL
MODEL 2
REMARK VINA RESULT:      -6.9      4.555     13.077
REMARK SMILES O=C(CCS(=O)(=O)N1CCN(C(=O)[C@@H]2CCCO2)CC1)OCCOCCOCCOCCOC(=O)c1ccc(-c2c3nc(c(-c4ccc(S(=O)(=O)[O-])cc4)c4ccc([nH]4)c(-c4ccc(S(=O)(=O)[O-])cc4)c4nc(c(-c5ccc(S(=O)(=O)[O-])cc5)c5ccc2[nH]5)C=C4)C=C3)cc1
REMARK SMILES IDX 26 1 25 2 24 3 23 4 22 5 21 6 2 7 1 8 3 9 4 10 5 11 6 12
REMARK SMILES IDX 7 13 8 14 9 15 20 16 10 17 19 18 11 19 12 20 13 21 14 22
REMARK SMILES IDX 15 23 18 24 16 25 17 26 27 27 28 28 29 29 30 30 31 31 32 32
REMARK SMILES IDX 33 33 34 34 35 35 36 36 37 37 95 38 38 39 94 40 39 41 40 42
REMARK SMILES IDX 41 43 88 44 42 45 93 46 87 47 89 48 43 49 92 50 86 51 85 52
REMARK SMILES IDX 44 54 74 55 55 56 73 57 56 58 59 59 72 60 90 61 57 62 58 63
REMARK SMILES IDX 71 65 91 66 60 67 45 68 46 69 54 70 47 71 53 72 48 73 49 74
REMARK SMILES IDX 50 75 51 76 52 77 75 78 76 79 84 80 77 81 83 82 78 83 79 84
REMARK SMILES IDX 80 85 81 86 82 87 61 88 62 89 70 90 63 91 69 92 64 93 65 94
REMARK SMILES IDX 66 95 67 96 68 97
REMARK H PARENT 89 53 59 64
REMARK Flexibility Score: inf
ROOT
ATOM      1  C   UNL A   1      40.882  26.780  26.438  1.00  0.00     0.188 C 
ENDROOT
BRANCH   1   2
ATOM      2  C   UNL A   1      39.825  26.281  27.445  1.00  0.00     0.188 C 
BRANCH   2   3
ATOM      3  O   UNL A   1      39.184  27.192  28.336  1.00  0.00    -0.376 OA
BRANCH   3   4
ATOM      4  C   UNL A   1      39.793  28.357  28.885  1.00  0.00     0.202 C 
BRANCH   4   5
ATOM      5  C   UNL A   1      39.253  29.745  28.606  1.00  0.00     0.261 C 
BRANCH   5   6
ATOM      6  O   UNL A   1      38.348  30.235  29.598  1.00  0.00    -0.463 OA
BRANCH   6   7
ATOM      7  C   UNL A   1      37.014  30.226  29.523  1.00  0.00     0.306 C 
ATOM      8  O   UNL A   1      36.409  29.292  30.047  1.00  0.00    -0.252 OA
BRANCH   7   9
ATOM      9  C   UNL A   1      36.276  31.256  28.721  1.00  0.00     0.140 C 
BRANCH   9  10
ATOM     10  C   UNL A   1      36.063  32.735  29.012  1.00  0.00     0.166 C 
BRANCH  10  11
ATOM     11  S   UNL A   1      35.208  33.546  30.360  1.00  0.00     0.214 S 
ATOM     12  O   UNL A   1      34.556  34.711  29.803  1.00  0.00    -0.212 OA
ATOM     13  O   UNL A   1      34.381  32.503  30.940  1.00  0.00    -0.212 OA
BRANCH  11  14
ATOM     14  N   UNL A   1      36.228  34.059  31.577  1.00  0.00    -0.198 NA
ATOM     15  C   UNL A   1      35.682  34.420  32.930  1.00  0.00     0.123 C 
ATOM     16  C   UNL A   1      37.569  33.538  31.792  1.00  0.00     0.123 C 
ATOM     17  C   UNL A   1      35.821  33.246  33.957  1.00  0.00     0.136 C 
ATOM     18  C   UNL A   1      37.397  32.165  32.404  1.00  0.00     0.136 C 
ATOM     19  N   UNL A   1      37.018  32.373  33.776  1.00  0.00    -0.338 N 
ATOM     20  C   UNL A   1      37.704  31.788  34.827  1.00  0.00     0.251 C 
ATOM     21  O   UNL A   1      37.410  32.044  35.997  1.00  0.00    -0.272 OA
BRANCH  20  22
ATOM     22  C   UNL A   1      38.853  30.768  34.514  1.00  0.00     0.207 C 
ATOM     23  C   UNL A   1      40.028  31.299  33.693  1.00  0.00     0.044 C 
ATOM     24  O   UNL A   1      38.381  29.578  33.853  1.00  0.00    -0.368 OA
ATOM     25  C   UNL A   1      40.554  30.062  32.998  1.00  0.00     0.032 C 
ATOM     26  C   UNL A   1      39.364  29.134  32.909  1.00  0.00     0.161 C 
ENDBRANCH  20  22
ENDBRANCH  11  14
ENDBRANCH  10  11
ENDBRANCH   9  10
ENDBRANCH   7   9
ENDBRANCH   6   7
ENDBRANCH   5   6
ENDBRANCH   4   5
ENDBRANCH   3   4
ENDBRANCH   2   3
ENDBRANCH   1   2
BRANCH   1  27
ATOM     27  O   UNL A   1      41.195  25.856  25.420  1.00  0.00    -0.377 OA
BRANCH  27  28
ATOM     28  C   UNL A   1      42.178  24.867  25.679  1.00  0.00     0.188 C 
BRANCH  28  29
ATOM     29  C   UNL A   1      43.511  25.292  26.321  1.00  0.00     0.188 C 
BRANCH  29  30
ATOM     30  O   UNL A   1      44.224  24.194  26.854  1.00  0.00    -0.376 OA
BRANCH  30  31
ATOM     31  C   UNL A   1      45.399  23.743  26.223  1.00  0.00     0.202 C 
BRANCH  31  32
ATOM     32  C   UNL A   1      45.903  24.432  24.944  1.00  0.00     0.261 C 
BRANCH  32  33
ATOM     33  O   UNL A   1      45.617  25.825  24.754  1.00  0.00    -0.460 OA
BRANCH  33  34
ATOM     34  C   UNL A   1      46.632  26.728  24.786  1.00  0.00     0.338 C 
ATOM     35  O   UNL A   1      47.500  26.859  23.965  1.00  0.00    -0.246 OA
BRANCH  34  36
ATOM     36  C   UNL A   1      46.316  27.690  25.890  1.00  0.00     0.060 A 
ATOM     37  C   UNL A   1      47.367  28.298  26.597  1.00  0.00     0.016 A 
ATOM     38  C   UNL A   1      44.996  28.059  26.165  1.00  0.00     0.016 A 
ATOM     39  C   UNL A   1      47.099  29.257  27.584  1.00  0.00     0.010 A 
ATOM     40  C   UNL A   1      44.728  28.987  27.178  1.00  0.00     0.010 A 
ATOM     41  C   UNL A   1      45.775  29.574  27.911  1.00  0.00    -0.014 A 
BRANCH  41  42
ATOM     42  C   UNL A   1      45.452  30.310  29.163  1.00  0.00     0.031 A 
ATOM     43  C   UNL A   1      45.447  29.521  30.448  1.00  0.00     0.074 A 
ATOM     44  C   UNL A   1      45.114  31.614  29.173  1.00  0.00     0.049 A 
ATOM     45  N   UNL A   1      45.037  29.872  31.637  1.00  0.00    -0.248 NA
ATOM     46  C   UNL A   1      45.965  28.143  30.371  1.00  0.00     0.031 C 
ATOM     47  C   UNL A   1      45.128  32.507  28.017  1.00  0.00     0.029 A 
ATOM     48  N   UNL A   1      44.658  32.406  30.204  1.00  0.00    -0.354 N 
ATOM     49  C   UNL A   1      45.218  28.752  32.441  1.00  0.00     0.074 A 
ATOM     50  C   UNL A   1      45.775  27.711  31.608  1.00  0.00     0.031 C 
ATOM     51  C   UNL A   1      44.666  33.715  28.394  1.00  0.00     0.029 A 
ATOM     52  C   UNL A   1      44.278  33.668  29.804  1.00  0.00     0.049 A 
ATOM     53  H   UNL A   1      44.609  32.099  31.138  1.00  0.00     0.167 HD
ATOM     54  C   UNL A   1      44.930  28.599  33.754  1.00  0.00     0.031 A 
ATOM     55  C   UNL A   1      43.647  34.650  30.484  1.00  0.00     0.031 A 
ATOM     56  C   UNL A   1      44.372  29.632  34.581  1.00  0.00     0.049 A 
ATOM     57  C   UNL A   1      43.264  34.425  31.930  1.00  0.00     0.074 A 
ATOM     58  C   UNL A   1      44.088  29.583  35.935  1.00  0.00     0.029 A 
ATOM     59  N   UNL A   1      43.994  30.887  34.135  1.00  0.00    -0.354 N 
ATOM     60  N   UNL A   1      43.492  33.381  32.692  1.00  0.00    -0.248 NA
ATOM     61  C   UNL A   1      42.532  35.508  32.606  1.00  0.00     0.031 C 
ATOM     62  C   UNL A   1      43.467  30.783  36.291  1.00  0.00     0.029 A 
ATOM     63  C   UNL A   1      43.432  31.604  35.176  1.00  0.00     0.049 A 
ATOM     64  H   UNL A   1      44.108  31.219  33.215  1.00  0.00     0.167 HD
ATOM     65  C   UNL A   1      42.952  33.693  33.938  1.00  0.00     0.074 A 
ATOM     66  C   UNL A   1      42.408  35.030  33.836  1.00  0.00     0.031 C 
ATOM     67  C   UNL A   1      42.904  32.939  35.063  1.00  0.00     0.031 A 
BRANCH  54  68
ATOM     68  C   UNL A   1      45.164  27.251  34.377  1.00  0.00    -0.014 A 
ATOM     69  C   UNL A   1      46.404  26.910  34.946  1.00  0.00     0.010 A 
ATOM     70  C   UNL A   1      44.089  26.347  34.476  1.00  0.00     0.010 A 
ATOM     71  C   UNL A   1      46.564  25.684  35.597  1.00  0.00     0.020 A 
ATOM     72  C   UNL A   1      44.240  25.133  35.148  1.00  0.00     0.020 A 
ATOM     73  C   UNL A   1      45.478  24.808  35.702  1.00  0.00     0.054 A 
BRANCH  73  74
ATOM     74  S   UNL A   1      45.696  23.260  36.623  1.00  0.00     0.124 S 
ATOM     75  O   UNL A   1      47.141  23.058  36.536  1.00  0.00    -0.237 OA
ATOM     76  O   UNL A   1      45.189  23.606  37.948  1.00  0.00    -0.237 OA
ATOM     77  O   UNL A   1      44.888  22.296  35.880  1.00  0.00    -0.744 OA
ENDBRANCH  73  74
ENDBRANCH  54  68
BRANCH  55  78
ATOM     78  C   UNL A   1      43.252  35.917  29.799  1.00  0.00    -0.014 A 
ATOM     79  C   UNL A   1      42.145  35.958  28.931  1.00  0.00     0.010 A 
ATOM     80  C   UNL A   1      44.027  37.080  29.963  1.00  0.00     0.010 A 
ATOM     81  C   UNL A   1      41.845  37.123  28.215  1.00  0.00     0.020 A 
ATOM     82  C   UNL A   1      43.710  38.256  29.276  1.00  0.00     0.020 A 
ATOM     83  C   UNL A   1      42.631  38.264  28.392  1.00  0.00     0.054 A 
BRANCH  83  84
ATOM     84  S   UNL A   1      42.215  39.769  27.469  1.00  0.00     0.124 S 
ATOM     85  O   UNL A   1      41.549  39.227  26.289  1.00  0.00    -0.237 OA
ATOM     86  O   UNL A   1      41.356  40.487  28.408  1.00  0.00    -0.237 OA
ATOM     87  O   UNL A   1      43.515  40.391  27.224  1.00  0.00    -0.744 OA
ENDBRANCH  83  84
ENDBRANCH  55  78
BRANCH  67  88
ATOM     88  C   UNL A   1      42.268  33.539  36.291  1.00  0.00    -0.014 A 
ATOM     89  C   UNL A   1      40.895  33.385  36.549  1.00  0.00     0.010 A 
ATOM     90  C   UNL A   1      43.076  34.185  37.247  1.00  0.00     0.010 A 
ATOM     91  C   UNL A   1      40.338  33.881  37.731  1.00  0.00     0.020 A 
ATOM     92  C   UNL A   1      42.528  34.655  38.443  1.00  0.00     0.020 A 
ATOM     93  C   UNL A   1      41.160  34.508  38.674  1.00  0.00     0.054 A 
BRANCH  93  94
ATOM     94  S   UNL A   1      40.422  35.080  40.229  1.00  0.00     0.124 S 
ATOM     95  O   UNL A   1      39.456  34.023  40.515  1.00  0.00    -0.237 OA
ATOM     96  O   UNL A   1      41.573  35.139  41.126  1.00  0.00    -0.237 OA
ATOM     97  O   UNL A   1      39.842  36.376  39.884  1.00  0.00    -0.744 OA
ENDBRANCH  93  94
ENDBRANCH  67  88
ENDBRANCH  41  42
ENDBRANCH  34  36
ENDBRANCH  33  34
ENDBRANCH  32  33
ENDBRANCH  31  32
ENDBRANCH  30  31
ENDBRANCH  29  30
ENDBRANCH  28  29
ENDBRANCH  27  28
ENDBRANCH   1  27
TORSDOF 27
ENDMDL
MODEL 3
REMARK VINA RESULT:      -6.8      5.766     13.037
REMARK SMILES O=C(CCS(=O)(=O)N1CCN(C(=O)[C@@H]2CCCO2)CC1)OCCOCCOCCOCCOC(=O)c1ccc(-c2c3nc(c(-c4ccc(S(=O)(=O)[O-])cc4)c4ccc([nH]4)c(-c4ccc(S(=O)(=O)[O-])cc4)c4nc(c(-c5ccc(S(=O)(=O)[O-])cc5)c5ccc2[nH]5)C=C4)C=C3)cc1
REMARK SMILES IDX 26 1 25 2 24 3 23 4 22 5 21 6 2 7 1 8 3 9 4 10 5 11 6 12
REMARK SMILES IDX 7 13 8 14 9 15 20 16 10 17 19 18 11 19 12 20 13 21 14 22
REMARK SMILES IDX 15 23 18 24 16 25 17 26 27 27 28 28 29 29 30 30 31 31 32 32
REMARK SMILES IDX 33 33 34 34 35 35 36 36 37 37 95 38 38 39 94 40 39 41 40 42
REMARK SMILES IDX 41 43 88 44 42 45 93 46 87 47 89 48 43 49 92 50 86 51 85 52
REMARK SMILES IDX 44 54 74 55 55 56 73 57 56 58 59 59 72 60 90 61 57 62 58 63
REMARK SMILES IDX 71 65 91 66 60 67 45 68 46 69 54 70 47 71 53 72 48 73 49 74
REMARK SMILES IDX 50 75 51 76 52 77 75 78 76 79 84 80 77 81 83 82 78 83 79 84
REMARK SMILES IDX 80 85 81 86 82 87 61 88 62 89 70 90 63 91 69 92 64 93 65 94
REMARK SMILES IDX 66 95 67 96 68 97
REMARK H PARENT 89 53 59 64
REMARK Flexibility Score: inf
ROOT
ATOM      1  C   UNL A   1      40.862  28.549  27.501  1.00  0.00     0.188 C 
ENDROOT
BRANCH   1   2
ATOM      2  C   UNL A   1      39.845  27.564  28.114  1.00  0.00     0.188 C 
BRANCH   2   3
ATOM      3  O   UNL A   1      39.545  27.605  29.509  1.00  0.00    -0.376 OA
BRANCH   3   4
ATOM      4  C   UNL A   1      40.280  28.349  30.477  1.00  0.00     0.202 C 
BRANCH   4   5
ATOM      5  C   UNL A   1      39.846  29.732  30.918  1.00  0.00     0.261 C 
BRANCH   5   6
ATOM      6  O   UNL A   1      38.980  29.743  32.055  1.00  0.00    -0.463 OA
BRANCH   6   7
ATOM      7  C   UNL A   1      37.728  29.278  32.099  1.00  0.00     0.306 C 
ATOM      8  O   UNL A   1      37.467  28.388  32.907  1.00  0.00    -0.252 OA
BRANCH   7   9
ATOM      9  C   UNL A   1      36.696  29.738  31.112  1.00  0.00     0.140 C 
BRANCH   9  10
ATOM     10  C   UNL A   1      36.040  31.104  30.967  1.00  0.00     0.166 C 
BRANCH  10  11
ATOM     11  S   UNL A   1      35.541  32.294  32.208  1.00  0.00     0.214 S 
ATOM     12  O   UNL A   1      34.128  32.534  32.014  1.00  0.00    -0.212 OA
ATOM     13  O   UNL A   1      35.975  31.708  33.463  1.00  0.00    -0.212 OA
BRANCH  11  14
ATOM     14  N   UNL A   1      36.335  33.756  32.080  1.00  0.00    -0.198 NA
ATOM     15  C   UNL A   1      37.071  34.332  33.257  1.00  0.00     0.123 C 
ATOM     16  C   UNL A   1      37.041  34.199  30.888  1.00  0.00     0.123 C 
ATOM     17  C   UNL A   1      38.607  34.032  33.200  1.00  0.00     0.136 C 
ATOM     18  C   UNL A   1      38.327  33.404  30.836  1.00  0.00     0.136 C 
ATOM     19  N   UNL A   1      39.198  33.969  31.832  1.00  0.00    -0.338 N 
ATOM     20  C   UNL A   1      40.482  34.394  31.533  1.00  0.00     0.251 C 
ATOM     21  O   UNL A   1      41.181  34.947  32.384  1.00  0.00    -0.272 OA
BRANCH  20  22
ATOM     22  C   UNL A   1      41.053  34.140  30.095  1.00  0.00     0.207 C 
ATOM     23  C   UNL A   1      42.542  33.810  30.003  1.00  0.00     0.044 C 
ATOM     24  O   UNL A   1      40.808  35.236  29.192  1.00  0.00    -0.368 OA
ATOM     25  C   UNL A   1      42.921  34.291  28.619  1.00  0.00     0.032 C 
ATOM     26  C   UNL A   1      41.922  35.382  28.304  1.00  0.00     0.161 C 
ENDBRANCH  20  22
ENDBRANCH  11  14
ENDBRANCH  10  11
ENDBRANCH   9  10
ENDBRANCH   7   9
ENDBRANCH   6   7
ENDBRANCH   5   6
ENDBRANCH   4   5
ENDBRANCH   3   4
ENDBRANCH   2   3
ENDBRANCH   1   2
BRANCH   1  27
ATOM     27  O   UNL A   1      41.142  28.319  26.138  1.00  0.00    -0.377 OA
BRANCH  27  28
ATOM     28  C   UNL A   1      42.112  27.341  25.799  1.00  0.00     0.188 C 
BRANCH  28  29
ATOM     29  C   UNL A   1      43.431  27.294  26.593  1.00  0.00     0.188 C 
BRANCH  29  30
ATOM     30  O   UNL A   1      44.049  26.024  26.532  1.00  0.00    -0.376 OA
BRANCH  30  31
ATOM     31  C   UNL A   1      45.177  25.828  25.712  1.00  0.00     0.202 C 
BRANCH  31  32
ATOM     32  C   UNL A   1      45.902  27.034  25.093  1.00  0.00     0.261 C 
BRANCH  32  33
ATOM     33  O   UNL A   1      45.878  28.286  25.794  1.00  0.00    -0.460 OA
BRANCH  33  34
ATOM     34  C   UNL A   1      47.049  28.886  26.135  1.00  0.00     0.338 C 
ATOM     35  O   UNL A   1      48.083  28.839  25.525  1.00  0.00    -0.246 OA
BRANCH  34  36
ATOM     36  C   UNL A   1      46.738  29.822  27.264  1.00  0.00     0.060 A 
ATOM     37  C   UNL A   1      47.705  30.050  28.256  1.00  0.00     0.016 A 
ATOM     38  C   UNL A   1      45.538  30.538  27.292  1.00  0.00     0.016 A 
ATOM     39  C   UNL A   1      47.468  30.976  29.282  1.00  0.00     0.010 A 
ATOM     40  C   UNL A   1      45.286  31.434  28.338  1.00  0.00     0.010 A 
ATOM     41  C   UNL A   1      46.237  31.641  29.353  1.00  0.00    -0.014 A 
BRANCH  41  42
ATOM     42  C   UNL A   1      45.823  32.352  30.592  1.00  0.00     0.031 A 
ATOM     43  C   UNL A   1      45.239  31.521  31.705  1.00  0.00     0.074 A 
ATOM     44  C   UNL A   1      45.898  33.691  30.721  1.00  0.00     0.049 A 
ATOM     45  N   UNL A   1      44.648  31.902  32.806  1.00  0.00    -0.248 NA
ATOM     46  C   UNL A   1      45.324  30.058  31.543  1.00  0.00     0.031 C 
ATOM     47  C   UNL A   1      46.488  34.609  29.750  1.00  0.00     0.029 A 
ATOM     48  N   UNL A   1      45.440  34.515  31.725  1.00  0.00    -0.354 N 
ATOM     49  C   UNL A   1      44.265  30.732  33.451  1.00  0.00     0.074 A 
ATOM     50  C   UNL A   1      44.689  29.627  32.622  1.00  0.00     0.031 C 
ATOM     51  C   UNL A   1      46.323  35.873  30.187  1.00  0.00     0.029 A 
ATOM     52  C   UNL A   1      45.574  35.856  31.445  1.00  0.00     0.049 A 
ATOM     53  H   UNL A   1      45.052  34.177  32.565  1.00  0.00     0.167 HD
ATOM     54  C   UNL A   1      43.603  30.590  34.622  1.00  0.00     0.031 A 
ATOM     55  C   UNL A   1      45.106  36.941  32.099  1.00  0.00     0.031 A 
ATOM     56  C   UNL A   1      43.176  31.688  35.444  1.00  0.00     0.049 A 
ATOM     57  C   UNL A   1      44.299  36.753  33.365  1.00  0.00     0.074 A 
ATOM     58  C   UNL A   1      42.538  31.640  36.670  1.00  0.00     0.029 A 
ATOM     59  N   UNL A   1      43.323  33.026  35.118  1.00  0.00    -0.354 N 
ATOM     60  N   UNL A   1      43.993  35.641  33.992  1.00  0.00    -0.248 NA
ATOM     61  C   UNL A   1      43.769  37.965  34.009  1.00  0.00     0.031 C 
ATOM     62  C   UNL A   1      42.230  32.949  37.050  1.00  0.00     0.029 A 
ATOM     63  C   UNL A   1      42.742  33.812  36.096  1.00  0.00     0.049 A 
ATOM     64  H   UNL A   1      43.774  33.366  34.311  1.00  0.00     0.167 HD
ATOM     65  C   UNL A   1      43.255  36.025  35.111  1.00  0.00     0.074 A 
ATOM     66  C   UNL A   1      43.182  37.469  35.090  1.00  0.00     0.031 C 
ATOM     67  C   UNL A   1      42.685  35.251  36.066  1.00  0.00     0.031 A 
BRANCH  54  68
ATOM     68  C   UNL A   1      43.249  29.199  35.071  1.00  0.00    -0.014 A 
ATOM     69  C   UNL A   1      44.023  28.516  36.025  1.00  0.00     0.010 A 
ATOM     70  C   UNL A   1      42.064  28.607  34.593  1.00  0.00     0.010 A 
ATOM     71  C   UNL A   1      43.619  27.261  36.489  1.00  0.00     0.020 A 
ATOM     72  C   UNL A   1      41.646  27.365  35.074  1.00  0.00     0.020 A 
ATOM     73  C   UNL A   1      42.428  26.698  36.017  1.00  0.00     0.054 A 
BRANCH  73  74
ATOM     74  S   UNL A   1      41.890  25.105  36.698  1.00  0.00     0.124 S 
ATOM     75  O   UNL A   1      43.090  24.657  37.401  1.00  0.00    -0.237 OA
ATOM     76  O   UNL A   1      40.769  25.488  37.551  1.00  0.00    -0.237 OA
ATOM     77  O   UNL A   1      41.534  24.324  35.516  1.00  0.00    -0.744 OA
ENDBRANCH  73  74
ENDBRANCH  54  68
BRANCH  55  78
ATOM     78  C   UNL A   1      45.304  38.312  31.541  1.00  0.00    -0.014 A 
ATOM     79  C   UNL A   1      46.401  39.102  31.929  1.00  0.00     0.010 A 
ATOM     80  C   UNL A   1      44.350  38.861  30.664  1.00  0.00     0.010 A 
ATOM     81  C   UNL A   1      46.522  40.422  31.480  1.00  0.00     0.020 A 
ATOM     82  C   UNL A   1      44.486  40.168  30.185  1.00  0.00     0.020 A 
ATOM     83  C   UNL A   1      45.562  40.946  30.611  1.00  0.00     0.054 A 
BRANCH  83  84
ATOM     84  S   UNL A   1      45.746  42.654  30.026  1.00  0.00     0.124 S 
ATOM     85  O   UNL A   1      44.451  42.901  29.400  1.00  0.00    -0.237 OA
ATOM     86  O   UNL A   1      46.001  43.384  31.265  1.00  0.00    -0.237 OA
ATOM     87  O   UNL A   1      46.881  42.580  29.109  1.00  0.00    -0.744 OA
ENDBRANCH  83  84
ENDBRANCH  55  78
BRANCH  67  88
ATOM     88  C   UNL A   1      41.951  35.938  37.189  1.00  0.00    -0.014 A 
ATOM     89  C   UNL A   1      42.645  36.564  38.238  1.00  0.00     0.010 A 
ATOM     90  C   UNL A   1      40.546  36.038  37.143  1.00  0.00     0.010 A 
ATOM     91  C   UNL A   1      41.949  37.262  39.229  1.00  0.00     0.020 A 
ATOM     92  C   UNL A   1      39.850  36.761  38.114  1.00  0.00     0.020 A 
ATOM     93  C   UNL A   1      40.556  37.362  39.157  1.00  0.00     0.054 A 
BRANCH  93  94
ATOM     94  S   UNL A   1      39.685  38.333  40.418  1.00  0.00     0.124 S 
ATOM     95  O   UNL A   1      38.295  38.217  39.986  1.00  0.00    -0.237 OA
ATOM     96  O   UNL A   1      40.021  37.628  41.652  1.00  0.00    -0.237 OA
ATOM     97  O   UNL A   1      40.266  39.668  40.292  1.00  0.00    -0.744 OA
ENDBRANCH  93  94
ENDBRANCH  67  88
ENDBRANCH  41  42
ENDBRANCH  34  36
ENDBRANCH  33  34
ENDBRANCH  32  33
ENDBRANCH  31  32
ENDBRANCH  30  31
ENDBRANCH  29  30
ENDBRANCH  28  29
ENDBRANCH  27  28
ENDBRANCH   1  27
TORSDOF 27
ENDMDL
