MODEL 1
REMARK VINA RESULT:      -8.7      0.000      0.000
REMARK SMILES C[C@H](O)C[C@@]1(C(=O)OCCOCCOCCOCCOC(=O)c2ccc(-c3c4nc(c(-c5ccc(S(=O)(=O)[O-])cc5)c5ccc([nH]5)c(-c5ccc(S(=O)(=O)[O-])cc5)c5nc(c(-c6ccc(S(=O)(=O)[O-])cc6)c6ccc3[nH]6)C=C5)C=C4)cc2)CCN(C(=O)OC(C)(C)C)C1
REMARK SMILES IDX 14 1 13 2 12 3 11 4 10 5 9 6 8 7 6 8 7 9 5 10 83 11 93 12
REMARK SMILES IDX 84 13 85 14 4 15 2 16 1 17 3 18 86 20 87 21 88 22 89 23
REMARK SMILES IDX 90 24 91 25 92 26 15 27 16 28 17 29 18 30 19 31 20 32 21 33
REMARK SMILES IDX 22 34 23 35 24 36 82 37 25 38 81 39 26 40 27 41 28 42 75 43
REMARK SMILES IDX 29 44 80 45 74 46 76 47 30 48 79 49 73 50 72 51 31 53 61 54
REMARK SMILES IDX 42 55 60 56 43 57 46 58 59 59 77 60 44 61 45 62 58 64 78 65
REMARK SMILES IDX 47 66 32 67 33 68 41 69 34 70 40 71 35 72 36 73 37 74 38 75
REMARK SMILES IDX 39 76 62 77 63 78 71 79 64 80 70 81 65 82 66 83 67 84 68 85
REMARK SMILES IDX 69 86 48 87 49 88 57 89 50 90 56 91 51 92 52 93 53 94 54 95
REMARK SMILES IDX 55 96
REMARK H PARENT 3 19 76 52 46 63
REMARK Flexibility Score: inf
ROOT
ATOM      1  O   UNL A   1      30.679  27.449  21.954  1.00  0.00    -0.377 OA
ENDROOT
BRANCH   1   2
ATOM      2  C   UNL A   1      31.742  26.527  22.111  1.00  0.00     0.188 C 
BRANCH   2   3
ATOM      3  C   UNL A   1      31.612  25.576  23.310  1.00  0.00     0.188 C 
BRANCH   3   4
ATOM      4  O   UNL A   1      32.127  26.122  24.515  1.00  0.00    -0.376 OA
BRANCH   4   5
ATOM      5  C   UNL A   1      31.398  25.961  25.717  1.00  0.00     0.202 C 
BRANCH   5   6
ATOM      6  C   UNL A   1      31.730  24.826  26.700  1.00  0.00     0.261 C 
BRANCH   6   7
ATOM      7  O   UNL A   1      31.752  23.464  26.238  1.00  0.00    -0.463 OA
BRANCH   7   8
ATOM      8  C   UNL A   1      32.635  22.608  26.777  1.00  0.00     0.314 C 
ATOM      9  O   UNL A   1      32.710  22.326  27.973  1.00  0.00    -0.252 OA
BRANCH   8  10
ATOM     10  C   UNL A   1      33.650  22.082  25.780  1.00  0.00     0.090 C 
ATOM     11  C   UNL A   1      33.581  22.635  24.338  1.00  0.00     0.042 C 
ATOM     12  C   UNL A   1      33.415  20.567  25.582  1.00  0.00     0.142 C 
ATOM     13  C   UNL A   1      32.762  21.625  23.524  1.00  0.00     0.124 C 
ATOM     14  N   UNL A   1      32.901  20.371  24.235  1.00  0.00    -0.307 N 
BRANCH  10  15
ATOM     15  C   UNL A   1      35.027  22.333  26.466  1.00  0.00     0.052 C 
BRANCH  15  16
ATOM     16  C   UNL A   1      36.191  22.888  25.602  1.00  0.00     0.112 C 
ATOM     17  C   UNL A   1      37.365  21.919  25.614  1.00  0.00     0.038 C 
BRANCH  16  18
ATOM     18  O   UNL A   1      36.727  24.126  26.056  1.00  0.00    -0.393 OA
ATOM     19  H   UNL A   1      37.223  24.546  25.335  1.00  0.00     0.210 HD
ENDBRANCH  16  18
ENDBRANCH  15  16
ENDBRANCH  10  15
BRANCH  14  20
ATOM     20  C   UNL A   1      32.568  19.111  23.775  1.00  0.00     0.410 C 
ATOM     21  O   UNL A   1      32.032  18.938  22.686  1.00  0.00    -0.224 OA
BRANCH  20  22
ATOM     22  O   UNL A   1      32.858  18.107  24.652  1.00  0.00    -0.444 OA
BRANCH  22  23
ATOM     23  C   UNL A   1      34.038  17.269  24.447  1.00  0.00     0.106 C 
ATOM     24  C   UNL A   1      35.333  18.093  24.527  1.00  0.00     0.056 C 
ATOM     25  C   UNL A   1      34.080  16.072  25.408  1.00  0.00     0.056 C 
ATOM     26  C   UNL A   1      33.925  16.717  23.014  1.00  0.00     0.056 C 
ENDBRANCH  22  23
ENDBRANCH  20  22
ENDBRANCH  14  20
ENDBRANCH   8  10
ENDBRANCH   7   8
ENDBRANCH   6   7
ENDBRANCH   5   6
ENDBRANCH   4   5
ENDBRANCH   3   4
ENDBRANCH   2   3
ENDBRANCH   1   2
BRANCH   1  27
ATOM     27  C   UNL A   1      30.802  28.750  22.523  1.00  0.00     0.188 C 
BRANCH  27  28
ATOM     28  C   UNL A   1      30.455  29.039  24.004  1.00  0.00     0.188 C 
BRANCH  28  29
ATOM     29  O   UNL A   1      31.253  30.030  24.630  1.00  0.00    -0.376 OA
BRANCH  29  30
ATOM     30  C   UNL A   1      31.690  29.847  25.962  1.00  0.00     0.202 C 
BRANCH  30  31
ATOM     31  C   UNL A   1      33.190  29.991  26.239  1.00  0.00     0.261 C 
BRANCH  31  32
ATOM     32  O   UNL A   1      33.563  30.215  27.604  1.00  0.00    -0.460 OA
BRANCH  32  33
ATOM     33  C   UNL A   1      34.283  31.321  27.893  1.00  0.00     0.338 C 
ATOM     34  O   UNL A   1      33.895  32.476  27.887  1.00  0.00    -0.246 OA
BRANCH  33  35
ATOM     35  C   UNL A   1      35.577  30.854  28.432  1.00  0.00     0.060 A 
ATOM     36  C   UNL A   1      35.642  29.620  29.097  1.00  0.00     0.016 A 
ATOM     37  C   UNL A   1      36.739  31.594  28.195  1.00  0.00     0.016 A 
ATOM     38  C   UNL A   1      36.874  29.120  29.519  1.00  0.00     0.010 A 
ATOM     39  C   UNL A   1      37.964  31.111  28.655  1.00  0.00     0.010 A 
ATOM     40  C   UNL A   1      38.035  29.880  29.332  1.00  0.00    -0.014 A 
BRANCH  40  41
ATOM     41  C   UNL A   1      39.298  29.495  29.999  1.00  0.00     0.031 A 
ATOM     42  C   UNL A   1      39.704  30.259  31.228  1.00  0.00     0.074 A 
ATOM     43  C   UNL A   1      40.074  28.505  29.520  1.00  0.00     0.049 A 
ATOM     44  N   UNL A   1      40.814  30.197  31.911  1.00  0.00    -0.248 NA
ATOM     45  C   UNL A   1      38.722  31.224  31.755  1.00  0.00     0.031 C 
ATOM     46  C   UNL A   1      39.756  27.655  28.373  1.00  0.00     0.029 A 
ATOM     47  N   UNL A   1      41.306  28.064  29.935  1.00  0.00    -0.354 N 
ATOM     48  C   UNL A   1      40.668  31.111  32.947  1.00  0.00     0.074 A 
ATOM     49  C   UNL A   1      39.372  31.732  32.790  1.00  0.00     0.031 C 
ATOM     50  C   UNL A   1      40.782  26.811  28.160  1.00  0.00     0.029 A 
ATOM     51  C   UNL A   1      41.845  27.091  29.125  1.00  0.00     0.049 A 
ATOM     52  H   UNL A   1      41.761  28.411  30.735  1.00  0.00     0.167 HD
ATOM     53  C   UNL A   1      41.536  31.404  33.941  1.00  0.00     0.031 A 
ATOM     54  C   UNL A   1      43.070  26.527  29.139  1.00  0.00     0.031 A 
ATOM     55  C   UNL A   1      42.835  30.803  34.076  1.00  0.00     0.049 A 
ATOM     56  C   UNL A   1      44.067  26.964  30.185  1.00  0.00     0.074 A 
ATOM     57  C   UNL A   1      43.794  31.040  35.044  1.00  0.00     0.029 A 
ATOM     58  N   UNL A   1      43.360  29.855  33.212  1.00  0.00    -0.354 N 
ATOM     59  N   UNL A   1      43.911  27.814  31.173  1.00  0.00    -0.248 NA
ATOM     60  C   UNL A   1      45.411  26.368  30.117  1.00  0.00     0.031 C 
ATOM     61  C   UNL A   1      44.923  30.278  34.733  1.00  0.00     0.029 A 
ATOM     62  C   UNL A   1      44.643  29.520  33.606  1.00  0.00     0.049 A 
ATOM     63  H   UNL A   1      42.890  29.477  32.435  1.00  0.00     0.167 HD
ATOM     64  C   UNL A   1      45.127  27.838  31.851  1.00  0.00     0.074 A 
ATOM     65  C   UNL A   1      45.999  26.899  31.179  1.00  0.00     0.031 C 
ATOM     66  C   UNL A   1      45.493  28.576  32.927  1.00  0.00     0.031 A 
BRANCH  53  67
ATOM     67  C   UNL A   1      41.121  32.436  34.952  1.00  0.00    -0.014 A 
ATOM     68  C   UNL A   1      40.565  32.055  36.186  1.00  0.00     0.010 A 
ATOM     69  C   UNL A   1      41.355  33.798  34.696  1.00  0.00     0.010 A 
ATOM     70  C   UNL A   1      40.240  33.020  37.142  1.00  0.00     0.020 A 
ATOM     71  C   UNL A   1      41.056  34.765  35.660  1.00  0.00     0.020 A 
ATOM     72  C   UNL A   1      40.495  34.369  36.876  1.00  0.00     0.054 A 
BRANCH  72  73
ATOM     73  S   UNL A   1      40.126  35.590  38.164  1.00  0.00     0.124 S 
ATOM     74  O   UNL A   1      41.331  35.534  38.988  1.00  0.00    -0.237 OA
ATOM     75  O   UNL A   1      39.948  36.819  37.395  1.00  0.00    -0.237 OA
ATOM     76  O   UNL A   1      38.915  35.074  38.796  1.00  0.00    -0.744 OA
ENDBRANCH  72  73
ENDBRANCH  53  67
BRANCH  54  77
ATOM     77  C   UNL A   1      43.463  25.540  28.093  1.00  0.00    -0.014 A 
ATOM     78  C   UNL A   1      43.286  24.160  28.298  1.00  0.00     0.010 A 
ATOM     79  C   UNL A   1      44.078  25.976  26.904  1.00  0.00     0.010 A 
ATOM     80  C   UNL A   1      43.748  23.236  27.354  1.00  0.00     0.020 A 
ATOM     81  C   UNL A   1      44.512  25.058  25.943  1.00  0.00     0.020 A 
ATOM     82  C   UNL A   1      44.362  23.692  26.184  1.00  0.00     0.054 A 
BRANCH  82  83
ATOM     83  S   UNL A   1      44.949  22.478  24.970  1.00  0.00     0.124 S 
ATOM     84  O   UNL A   1      43.734  21.722  24.685  1.00  0.00    -0.237 OA
ATOM     85  O   UNL A   1      45.435  23.327  23.885  1.00  0.00    -0.237 OA
ATOM     86  O   UNL A   1      45.987  21.747  25.692  1.00  0.00    -0.744 OA
ENDBRANCH  82  83
ENDBRANCH  54  77
BRANCH  66  87
ATOM     87  C   UNL A   1      46.888  28.387  33.464  1.00  0.00    -0.014 A 
ATOM     88  C   UNL A   1      47.920  29.281  33.128  1.00  0.00     0.010 A 
ATOM     89  C   UNL A   1      47.148  27.352  34.382  1.00  0.00     0.010 A 
ATOM     90  C   UNL A   1      49.193  29.130  33.685  1.00  0.00     0.020 A 
ATOM     91  C   UNL A   1      48.412  27.217  34.963  1.00  0.00     0.020 A 
ATOM     92  C   UNL A   1      49.429  28.102  34.604  1.00  0.00     0.054 A 
BRANCH  92  93
ATOM     93  S   UNL A   1      51.073  27.973  35.360  1.00  0.00     0.124 S 
ATOM     94  O   UNL A   1      50.830  27.050  36.463  1.00  0.00    -0.237 OA
ATOM     95  O   UNL A   1      51.886  27.445  34.266  1.00  0.00    -0.237 OA
ATOM     96  O   UNL A   1      51.383  29.345  35.753  1.00  0.00    -0.744 OA
ENDBRANCH  92  93
ENDBRANCH  66  87
ENDBRANCH  40  41
ENDBRANCH  33  35
ENDBRANCH  32  33
ENDBRANCH  31  32
ENDBRANCH  30  31
ENDBRANCH  29  30
ENDBRANCH  28  29
ENDBRANCH  27  28
ENDBRANCH   1  27
TORSDOF 29
ENDMDL
MODEL 2
REMARK VINA RESULT:      -8.6      2.119      8.382
REMARK SMILES C[C@H](O)C[C@@]1(C(=O)OCCOCCOCCOCCOC(=O)c2ccc(-c3c4nc(c(-c5ccc(S(=O)(=O)[O-])cc5)c5ccc([nH]5)c(-c5ccc(S(=O)(=O)[O-])cc5)c5nc(c(-c6ccc(S(=O)(=O)[O-])cc6)c6ccc3[nH]6)C=C5)C=C4)cc2)CCN(C(=O)OC(C)(C)C)C1
REMARK SMILES IDX 14 1 13 2 12 3 11 4 10 5 9 6 8 7 6 8 7 9 5 10 83 11 93 12
REMARK SMILES IDX 84 13 85 14 4 15 2 16 1 17 3 18 86 20 87 21 88 22 89 23
REMARK SMILES IDX 90 24 91 25 92 26 15 27 16 28 17 29 18 30 19 31 20 32 21 33
REMARK SMILES IDX 22 34 23 35 24 36 82 37 25 38 81 39 26 40 27 41 28 42 75 43
REMARK SMILES IDX 29 44 80 45 74 46 76 47 30 48 79 49 73 50 72 51 31 53 61 54
REMARK SMILES IDX 42 55 60 56 43 57 46 58 59 59 77 60 44 61 45 62 58 64 78 65
REMARK SMILES IDX 47 66 32 67 33 68 41 69 34 70 40 71 35 72 36 73 37 74 38 75
REMARK SMILES IDX 39 76 62 77 63 78 71 79 64 80 70 81 65 82 66 83 67 84 68 85
REMARK SMILES IDX 69 86 48 87 49 88 57 89 50 90 56 91 51 92 52 93 53 94 54 95
REMARK SMILES IDX 55 96
REMARK H PARENT 3 19 76 52 46 63
REMARK Flexibility Score: inf
ROOT
ATOM      1  O   UNL A   1      30.932  27.835  22.337  1.00  0.00    -0.377 OA
ENDROOT
BRANCH   1   2
ATOM      2  C   UNL A   1      31.708  26.681  22.069  1.00  0.00     0.188 C 
BRANCH   2   3
ATOM      3  C   UNL A   1      31.234  25.397  22.765  1.00  0.00     0.188 C 
BRANCH   3   4
ATOM      4  O   UNL A   1      31.650  25.310  24.120  1.00  0.00    -0.376 OA
BRANCH   4   5
ATOM      5  C   UNL A   1      30.684  25.413  25.150  1.00  0.00     0.202 C 
BRANCH   5   6
ATOM      6  C   UNL A   1      30.489  24.279  26.170  1.00  0.00     0.261 C 
BRANCH   6   7
ATOM      7  O   UNL A   1      31.089  22.994  25.933  1.00  0.00    -0.463 OA
BRANCH   7   8
ATOM      8  C   UNL A   1      32.143  22.620  26.678  1.00  0.00     0.314 C 
ATOM      9  O   UNL A   1      32.315  22.913  27.861  1.00  0.00    -0.252 OA
BRANCH   8  10
ATOM     10  C   UNL A   1      33.206  21.879  25.888  1.00  0.00     0.090 C 
ATOM     11  C   UNL A   1      32.981  21.726  24.366  1.00  0.00     0.042 C 
ATOM     12  C   UNL A   1      33.263  20.415  26.380  1.00  0.00     0.142 C 
ATOM     13  C   UNL A   1      32.346  20.345  24.159  1.00  0.00     0.124 C 
ATOM     14  N   UNL A   1      32.750  19.570  25.313  1.00  0.00    -0.307 N 
BRANCH  10  15
ATOM     15  C   UNL A   1      34.531  22.622  26.239  1.00  0.00     0.052 C 
BRANCH  15  16
ATOM     16  C   UNL A   1      34.962  23.819  25.350  1.00  0.00     0.112 C 
ATOM     17  C   UNL A   1      36.426  24.157  25.596  1.00  0.00     0.038 C 
BRANCH  16  18
ATOM     18  O   UNL A   1      34.255  25.029  25.601  1.00  0.00    -0.393 OA
ATOM     19  H   UNL A   1      33.572  25.149  24.922  1.00  0.00     0.210 HD
ENDBRANCH  16  18
ENDBRANCH  15  16
ENDBRANCH  10  15
BRANCH  14  20
ATOM     20  C   UNL A   1      32.652  18.201  25.473  1.00  0.00     0.410 C 
ATOM     21  O   UNL A   1      32.304  17.693  26.533  1.00  0.00    -0.224 OA
BRANCH  20  22
ATOM     22  O   UNL A   1      33.006  17.488  24.365  1.00  0.00    -0.444 OA
BRANCH  22  23
ATOM     23  C   UNL A   1      34.375  16.996  24.212  1.00  0.00     0.106 C 
ATOM     24  C   UNL A   1      35.403  18.105  24.485  1.00  0.00     0.056 C 
ATOM     25  C   UNL A   1      34.651  15.757  25.075  1.00  0.00     0.056 C 
ATOM     26  C   UNL A   1      34.516  16.582  22.736  1.00  0.00     0.056 C 
ENDBRANCH  22  23
ENDBRANCH  20  22
ENDBRANCH  14  20
ENDBRANCH   8  10
ENDBRANCH   7   8
ENDBRANCH   6   7
ENDBRANCH   5   6
ENDBRANCH   4   5
ENDBRANCH   3   4
ENDBRANCH   2   3
ENDBRANCH   1   2
BRANCH   1  27
ATOM     27  C   UNL A   1      31.479  28.859  23.163  1.00  0.00     0.188 C 
BRANCH  27  28
ATOM     28  C   UNL A   1      31.108  29.000  24.660  1.00  0.00     0.188 C 
BRANCH  28  29
ATOM     29  O   UNL A   1      31.169  30.318  25.177  1.00  0.00    -0.376 OA
BRANCH  29  30
ATOM     30  C   UNL A   1      31.693  30.546  26.470  1.00  0.00     0.202 C 
BRANCH  30  31
ATOM     31  C   UNL A   1      32.297  31.925  26.754  1.00  0.00     0.261 C 
BRANCH  31  32
ATOM     32  O   UNL A   1      33.129  32.024  27.916  1.00  0.00    -0.460 OA
BRANCH  32  33
ATOM     33  C   UNL A   1      33.505  33.256  28.326  1.00  0.00     0.338 C 
ATOM     34  O   UNL A   1      32.883  34.297  28.202  1.00  0.00    -0.246 OA
BRANCH  33  35
ATOM     35  C   UNL A   1      34.719  33.075  29.149  1.00  0.00     0.060 A 
ATOM     36  C   UNL A   1      35.892  33.765  28.808  1.00  0.00     0.016 A 
ATOM     37  C   UNL A   1      34.666  32.298  30.309  1.00  0.00     0.016 A 
ATOM     38  C   UNL A   1      37.013  33.684  29.634  1.00  0.00     0.010 A 
ATOM     39  C   UNL A   1      35.801  32.185  31.111  1.00  0.00     0.010 A 
ATOM     40  C   UNL A   1      36.983  32.866  30.770  1.00  0.00    -0.014 A 
BRANCH  40  41
ATOM     41  C   UNL A   1      38.230  32.560  31.506  1.00  0.00     0.031 A 
ATOM     42  C   UNL A   1      39.159  31.535  30.918  1.00  0.00     0.074 A 
ATOM     43  C   UNL A   1      38.524  33.162  32.673  1.00  0.00     0.049 A 
ATOM     44  N   UNL A   1      40.238  31.008  31.429  1.00  0.00    -0.248 NA
ATOM     45  C   UNL A   1      38.821  31.039  29.571  1.00  0.00     0.031 C 
ATOM     46  C   UNL A   1      37.732  34.214  33.310  1.00  0.00     0.029 A 
ATOM     47  N   UNL A   1      39.568  32.955  33.540  1.00  0.00    -0.354 N 
ATOM     48  C   UNL A   1      40.710  30.119  30.471  1.00  0.00     0.074 A 
ATOM     49  C   UNL A   1      39.788  30.160  29.357  1.00  0.00     0.031 C 
ATOM     50  C   UNL A   1      38.306  34.540  34.482  1.00  0.00     0.029 A 
ATOM     51  C   UNL A   1      39.478  33.692  34.698  1.00  0.00     0.049 A 
ATOM     52  H   UNL A   1      40.311  32.337  33.351  1.00  0.00     0.167 HD
ATOM     53  C   UNL A   1      41.815  29.341  30.513  1.00  0.00     0.031 A 
ATOM     54  C   UNL A   1      40.231  33.651  35.816  1.00  0.00     0.031 A 
ATOM     55  C   UNL A   1      42.712  29.284  31.634  1.00  0.00     0.049 A 
ATOM     56  C   UNL A   1      41.386  32.682  35.889  1.00  0.00     0.074 A 
ATOM     57  C   UNL A   1      43.856  28.519  31.781  1.00  0.00     0.029 A 
ATOM     58  N   UNL A   1      42.563  30.013  32.804  1.00  0.00    -0.354 N 
ATOM     59  N   UNL A   1      41.836  31.861  34.969  1.00  0.00    -0.248 NA
ATOM     60  C   UNL A   1      42.134  32.628  37.155  1.00  0.00     0.031 C 
ATOM     61  C   UNL A   1      44.366  28.741  33.062  1.00  0.00     0.029 A 
ATOM     62  C   UNL A   1      43.576  29.691  33.691  1.00  0.00     0.049 A 
ATOM     63  H   UNL A   1      41.844  30.662  32.978  1.00  0.00     0.167 HD
ATOM     64  C   UNL A   1      42.927  31.212  35.538  1.00  0.00     0.074 A 
ATOM     65  C   UNL A   1      43.088  31.753  36.870  1.00  0.00     0.031 C 
ATOM     66  C   UNL A   1      43.722  30.247  35.011  1.00  0.00     0.031 A 
BRANCH  53  67
ATOM     67  C   UNL A   1      42.105  28.470  29.324  1.00  0.00    -0.014 A 
ATOM     68  C   UNL A   1      42.669  29.009  28.155  1.00  0.00     0.010 A 
ATOM     69  C   UNL A   1      41.878  27.084  29.402  1.00  0.00     0.010 A 
ATOM     70  C   UNL A   1      42.993  28.179  27.079  1.00  0.00     0.020 A 
ATOM     71  C   UNL A   1      42.224  26.247  28.337  1.00  0.00     0.020 A 
ATOM     72  C   UNL A   1      42.774  26.801  27.180  1.00  0.00     0.054 A 
BRANCH  72  73
ATOM     73  S   UNL A   1      43.267  25.743  25.793  1.00  0.00     0.124 S 
ATOM     74  O   UNL A   1      44.692  26.045  25.674  1.00  0.00    -0.237 OA
ATOM     75  O   UNL A   1      42.947  24.406  26.285  1.00  0.00    -0.237 OA
ATOM     76  O   UNL A   1      42.437  26.212  24.686  1.00  0.00    -0.744 OA
ENDBRANCH  72  73
ENDBRANCH  53  67
BRANCH  54  77
ATOM     77  C   UNL A   1      39.886  34.497  36.995  1.00  0.00    -0.014 A 
ATOM     78  C   UNL A   1      40.383  35.808  37.114  1.00  0.00     0.010 A 
ATOM     79  C   UNL A   1      39.103  33.970  38.040  1.00  0.00     0.010 A 
ATOM     80  C   UNL A   1      40.136  36.559  38.269  1.00  0.00     0.020 A 
ATOM     81  C   UNL A   1      38.827  34.729  39.181  1.00  0.00     0.020 A 
ATOM     82  C   UNL A   1      39.363  36.012  39.296  1.00  0.00     0.054 A 
BRANCH  82  83
ATOM     83  S   UNL A   1      39.049  37.004  40.783  1.00  0.00     0.124 S 
ATOM     84  O   UNL A   1      38.145  36.142  41.538  1.00  0.00    -0.237 OA
ATOM     85  O   UNL A   1      40.388  37.163  41.345  1.00  0.00    -0.237 OA
ATOM     86  O   UNL A   1      38.453  38.229  40.256  1.00  0.00    -0.744 OA
ENDBRANCH  82  83
ENDBRANCH  54  77
BRANCH  66  87
ATOM     87  C   UNL A   1      44.852  29.728  35.862  1.00  0.00    -0.014 A 
ATOM     88  C   UNL A   1      44.678  28.602  36.687  1.00  0.00     0.010 A 
ATOM     89  C   UNL A   1      46.125  30.322  35.771  1.00  0.00     0.010 A 
ATOM     90  C   UNL A   1      45.752  28.093  37.421  1.00  0.00     0.020 A 
ATOM     91  C   UNL A   1      47.208  29.797  36.480  1.00  0.00     0.020 A 
ATOM     92  C   UNL A   1      47.012  28.690  37.309  1.00  0.00     0.054 A 
BRANCH  92  93
ATOM     93  S   UNL A   1      48.402  27.966  38.222  1.00  0.00     0.124 S 
ATOM     94  O   UNL A   1      48.261  28.588  39.535  1.00  0.00    -0.237 OA
ATOM     95  O   UNL A   1      48.107  26.536  38.170  1.00  0.00    -0.237 OA
ATOM     96  O   UNL A   1      49.575  28.383  37.458  1.00  0.00    -0.744 OA
ENDBRANCH  92  93
ENDBRANCH  66  87
ENDBRANCH  40  41
ENDBRANCH  33  35
ENDBRANCH  32  33
ENDBRANCH  31  32
ENDBRANCH  30  31
ENDBRANCH  29  30
ENDBRANCH  28  29
ENDBRANCH  27  28
ENDBRANCH   1  27
TORSDOF 29
ENDMDL
MODEL 3
REMARK VINA RESULT:      -8.3      4.882     10.203
REMARK SMILES C[C@H](O)C[C@@]1(C(=O)OCCOCCOCCOCCOC(=O)c2ccc(-c3c4nc(c(-c5ccc(S(=O)(=O)[O-])cc5)c5ccc([nH]5)c(-c5ccc(S(=O)(=O)[O-])cc5)c5nc(c(-c6ccc(S(=O)(=O)[O-])cc6)c6ccc3[nH]6)C=C5)C=C4)cc2)CCN(C(=O)OC(C)(C)C)C1
REMARK SMILES IDX 14 1 13 2 12 3 11 4 10 5 9 6 8 7 6 8 7 9 5 10 83 11 93 12
REMARK SMILES IDX 84 13 85 14 4 15 2 16 1 17 3 18 86 20 87 21 88 22 89 23
REMARK SMILES IDX 90 24 91 25 92 26 15 27 16 28 17 29 18 30 19 31 20 32 21 33
REMARK SMILES IDX 22 34 23 35 24 36 82 37 25 38 81 39 26 40 27 41 28 42 75 43
REMARK SMILES IDX 29 44 80 45 74 46 76 47 30 48 79 49 73 50 72 51 31 53 61 54
REMARK SMILES IDX 42 55 60 56 43 57 46 58 59 59 77 60 44 61 45 62 58 64 78 65
REMARK SMILES IDX 47 66 32 67 33 68 41 69 34 70 40 71 35 72 36 73 37 74 38 75
REMARK SMILES IDX 39 76 62 77 63 78 71 79 64 80 70 81 65 82 66 83 67 84 68 85
REMARK SMILES IDX 69 86 48 87 49 88 57 89 50 90 56 91 51 92 52 93 53 94 54 95
REMARK SMILES IDX 55 96
REMARK H PARENT 3 19 76 52 46 63
REMARK Flexibility Score: inf
ROOT
ATOM      1  O   UNL A   1      35.232  33.467  28.876  1.00  0.00    -0.377 OA
ENDROOT
BRANCH   1   2
ATOM      2  C   UNL A   1      34.883  32.147  28.501  1.00  0.00     0.188 C 
BRANCH   2   3
ATOM      3  C   UNL A   1      36.035  31.298  27.944  1.00  0.00     0.188 C 
BRANCH   3   4
ATOM      4  O   UNL A   1      35.598  30.267  27.071  1.00  0.00    -0.376 OA
BRANCH   4   5
ATOM      5  C   UNL A   1      35.008  29.101  27.614  1.00  0.00     0.202 C 
BRANCH   5   6
ATOM      6  C   UNL A   1      33.645  28.595  27.115  1.00  0.00     0.261 C 
BRANCH   6   7
ATOM      7  O   UNL A   1      33.559  27.336  26.426  1.00  0.00    -0.463 OA
BRANCH   7   8
ATOM      8  C   UNL A   1      33.508  27.330  25.083  1.00  0.00     0.314 C 
ATOM      9  O   UNL A   1      34.179  28.052  24.346  1.00  0.00    -0.252 OA
BRANCH   8  10
ATOM     10  C   UNL A   1      32.434  26.416  24.525  1.00  0.00     0.090 C 
ATOM     11  C   UNL A   1      32.386  26.233  22.990  1.00  0.00     0.042 C 
ATOM     12  C   UNL A   1      31.048  27.022  24.846  1.00  0.00     0.142 C 
ATOM     13  C   UNL A   1      31.338  27.224  22.467  1.00  0.00     0.124 C 
ATOM     14  N   UNL A   1      30.460  27.468  23.593  1.00  0.00    -0.307 N 
BRANCH  10  15
ATOM     15  C   UNL A   1      32.632  25.075  25.296  1.00  0.00     0.052 C 
BRANCH  15  16
ATOM     16  C   UNL A   1      31.393  24.416  25.958  1.00  0.00     0.112 C 
ATOM     17  C   UNL A   1      31.827  23.503  27.096  1.00  0.00     0.038 C 
BRANCH  16  18
ATOM     18  O   UNL A   1      30.627  23.588  25.090  1.00  0.00    -0.393 OA
ATOM     19  H   UNL A   1      29.684  23.699  25.288  1.00  0.00     0.210 HD
ENDBRANCH  16  18
ENDBRANCH  15  16
ENDBRANCH  10  15
BRANCH  14  20
ATOM     20  C   UNL A   1      29.222  28.083  23.565  1.00  0.00     0.410 C 
ATOM     21  O   UNL A   1      28.190  27.456  23.355  1.00  0.00    -0.224 OA
BRANCH  20  22
ATOM     22  O   UNL A   1      29.271  29.433  23.757  1.00  0.00    -0.444 OA
BRANCH  22  23
ATOM     23  C   UNL A   1      28.883  30.344  22.681  1.00  0.00     0.106 C 
ATOM     24  C   UNL A   1      27.568  29.904  22.020  1.00  0.00     0.056 C 
ATOM     25  C   UNL A   1      28.809  31.804  23.149  1.00  0.00     0.056 C 
ATOM     26  C   UNL A   1      29.994  30.247  21.619  1.00  0.00     0.056 C 
ENDBRANCH  22  23
ENDBRANCH  20  22
ENDBRANCH  14  20
ENDBRANCH   8  10
ENDBRANCH   7   8
ENDBRANCH   6   7
ENDBRANCH   5   6
ENDBRANCH   4   5
ENDBRANCH   3   4
ENDBRANCH   2   3
ENDBRANCH   1   2
BRANCH   1  27
ATOM     27  C   UNL A   1      34.272  34.267  29.562  1.00  0.00     0.188 C 
BRANCH  27  28
ATOM     28  C   UNL A   1      34.334  34.503  31.091  1.00  0.00     0.188 C 
BRANCH  28  29
ATOM     29  O   UNL A   1      35.410  33.867  31.759  1.00  0.00    -0.376 OA
BRANCH  29  30
ATOM     30  C   UNL A   1      35.257  32.551  32.251  1.00  0.00     0.202 C 
BRANCH  30  31
ATOM     31  C   UNL A   1      36.533  31.764  32.570  1.00  0.00     0.261 C 
BRANCH  31  32
ATOM     32  O   UNL A   1      36.750  30.574  31.803  1.00  0.00    -0.460 OA
BRANCH  32  33
ATOM     33  C   UNL A   1      37.392  29.543  32.396  1.00  0.00     0.338 C 
ATOM     34  O   UNL A   1      36.987  28.853  33.316  1.00  0.00    -0.246 OA
BRANCH  33  35
ATOM     35  C   UNL A   1      38.590  29.264  31.579  1.00  0.00     0.060 A 
ATOM     36  C   UNL A   1      39.749  28.774  32.199  1.00  0.00     0.016 A 
ATOM     37  C   UNL A   1      38.533  29.399  30.189  1.00  0.00     0.016 A 
ATOM     38  C   UNL A   1      40.853  28.410  31.427  1.00  0.00     0.010 A 
ATOM     39  C   UNL A   1      39.652  29.073  29.423  1.00  0.00     0.010 A 
ATOM     40  C   UNL A   1      40.821  28.591  30.039  1.00  0.00    -0.014 A 
BRANCH  40  41
ATOM     41  C   UNL A   1      42.059  28.462  29.238  1.00  0.00     0.031 A 
ATOM     42  C   UNL A   1      42.378  27.116  28.652  1.00  0.00     0.074 A 
ATOM     43  C   UNL A   1      42.888  29.505  29.051  1.00  0.00     0.049 A 
ATOM     44  N   UNL A   1      43.453  26.720  28.027  1.00  0.00    -0.248 NA
ATOM     45  C   UNL A   1      41.341  26.076  28.791  1.00  0.00     0.031 C 
ATOM     46  C   UNL A   1      42.655  30.871  29.520  1.00  0.00     0.029 A 
ATOM     47  N   UNL A   1      44.110  29.567  28.428  1.00  0.00    -0.354 N 
ATOM     48  C   UNL A   1      43.226  25.389  27.698  1.00  0.00     0.074 A 
ATOM     49  C   UNL A   1      41.922  25.037  28.212  1.00  0.00     0.031 C 
ATOM     50  C   UNL A   1      43.716  31.631  29.190  1.00  0.00     0.029 A 
ATOM     51  C   UNL A   1      44.719  30.796  28.528  1.00  0.00     0.049 A 
ATOM     52  H   UNL A   1      44.513  28.803  27.955  1.00  0.00     0.167 HD
ATOM     53  C   UNL A   1      44.032  24.538  27.024  1.00  0.00     0.031 A 
ATOM     54  C   UNL A   1      45.958  31.186  28.165  1.00  0.00     0.031 A 
ATOM     55  C   UNL A   1      45.340  24.886  26.539  1.00  0.00     0.049 A 
ATOM     56  C   UNL A   1      46.886  30.181  27.527  1.00  0.00     0.074 A 
ATOM     57  C   UNL A   1      46.241  24.091  25.853  1.00  0.00     0.029 A 
ATOM     58  N   UNL A   1      45.937  26.126  26.698  1.00  0.00    -0.354 N 
ATOM     59  N   UNL A   1      46.654  28.931  27.202  1.00  0.00    -0.248 NA
ATOM     60  C   UNL A   1      48.249  30.637  27.212  1.00  0.00     0.031 C 
ATOM     61  C   UNL A   1      47.407  24.833  25.648  1.00  0.00     0.029 A 
ATOM     62  C   UNL A   1      47.208  26.110  26.152  1.00  0.00     0.049 A 
ATOM     63  H   UNL A   1      45.520  26.903  27.135  1.00  0.00     0.167 HD
ATOM     64  C   UNL A   1      47.832  28.461  26.627  1.00  0.00     0.074 A 
ATOM     65  C   UNL A   1      48.765  29.567  26.624  1.00  0.00     0.031 C 
ATOM     66  C   UNL A   1      48.120  27.224  26.152  1.00  0.00     0.031 A 
BRANCH  53  67
ATOM     67  C   UNL A   1      43.535  23.140  26.789  1.00  0.00    -0.014 A 
ATOM     68  C   UNL A   1      43.491  22.597  25.493  1.00  0.00     0.010 A 
ATOM     69  C   UNL A   1      43.174  22.334  27.884  1.00  0.00     0.010 A 
ATOM     70  C   UNL A   1      43.086  21.275  25.294  1.00  0.00     0.020 A 
ATOM     71  C   UNL A   1      42.792  21.003  27.692  1.00  0.00     0.020 A 
ATOM     72  C   UNL A   1      42.746  20.484  26.396  1.00  0.00     0.054 A 
BRANCH  72  73
ATOM     73  S   UNL A   1      42.289  18.753  26.111  1.00  0.00     0.124 S 
ATOM     74  O   UNL A   1      40.864  18.863  25.807  1.00  0.00    -0.237 OA
ATOM     75  O   UNL A   1      43.144  18.381  24.986  1.00  0.00    -0.237 OA
ATOM     76  O   UNL A   1      42.607  18.096  27.375  1.00  0.00    -0.744 OA
ENDBRANCH  72  73
ENDBRANCH  53  67
BRANCH  54  77
ATOM     77  C   UNL A   1      46.434  32.569  28.455  1.00  0.00    -0.014 A 
ATOM     78  C   UNL A   1      46.309  33.592  27.498  1.00  0.00     0.010 A 
ATOM     79  C   UNL A   1      47.074  32.856  29.675  1.00  0.00     0.010 A 
ATOM     80  C   UNL A   1      46.847  34.861  27.740  1.00  0.00     0.020 A 
ATOM     81  C   UNL A   1      47.585  34.131  29.934  1.00  0.00     0.020 A 
ATOM     82  C   UNL A   1      47.485  35.120  28.956  1.00  0.00     0.054 A 
BRANCH  82  83
ATOM     83  S   UNL A   1      48.172  36.774  29.252  1.00  0.00     0.124 S 
ATOM     84  O   UNL A   1      46.980  37.538  29.606  1.00  0.00    -0.237 OA
ATOM     85  O   UNL A   1      49.115  36.533  30.341  1.00  0.00    -0.237 OA
ATOM     86  O   UNL A   1      48.784  37.124  27.973  1.00  0.00    -0.744 OA
ENDBRANCH  82  83
ENDBRANCH  54  77
BRANCH  66  87
ATOM     87  C   UNL A   1      49.490  27.000  25.568  1.00  0.00    -0.014 A 
ATOM     88  C   UNL A   1      49.751  27.266  24.211  1.00  0.00     0.010 A 
ATOM     89  C   UNL A   1      50.550  26.600  26.404  1.00  0.00     0.010 A 
ATOM     90  C   UNL A   1      51.042  27.115  23.698  1.00  0.00     0.020 A 
ATOM     91  C   UNL A   1      51.847  26.478  25.901  1.00  0.00     0.020 A 
ATOM     92  C   UNL A   1      52.083  26.727  24.547  1.00  0.00     0.054 A 
BRANCH  92  93
ATOM     93  S   UNL A   1      53.760  26.605  23.867  1.00  0.00     0.124 S 
ATOM     94  O   UNL A   1      54.347  25.551  24.688  1.00  0.00    -0.237 OA
ATOM     95  O   UNL A   1      53.512  26.250  22.472  1.00  0.00    -0.237 OA
ATOM     96  O   UNL A   1      54.318  27.939  24.075  1.00  0.00    -0.744 OA
ENDBRANCH  92  93
ENDBRANCH  66  87
ENDBRANCH  40  41
ENDBRANCH  33  35
ENDBRANCH  32  33
ENDBRANCH  31  32
ENDBRANCH  30  31
ENDBRANCH  29  30
ENDBRANCH  28  29
ENDBRANCH  27  28
ENDBRANCH   1  27
TORSDOF 29
ENDMDL
