MODEL 1
REMARK VINA RESULT:      -8.0      0.000      0.000
REMARK SMILES COc1cc(S(=O)(=O)Nc2cccc(C(=O)OCCOCCOCCOCCOC(=O)c3ccc(-c4c5nc(c(-c6ccc(S(=O)(=O)[O-])cc6)c6ccc([nH]6)c(-c6ccc(S(=O)(=O)[O-])cc6)c6nc(c(-c7ccc(S(=O)(=O)[O-])cc7)c7ccc4[nH]7)C=C6)C=C5)cc3)c2)c(OC)cc1C
REMARK SMILES IDX 22 1 21 2 20 3 19 4 18 5 17 6 15 7 16 8 14 9 10 10 11 11
REMARK SMILES IDX 92 12 12 13 13 14 9 15 6 17 7 18 8 19 5 20 3 21 4 22 97 23
REMARK SMILES IDX 96 24 98 25 93 26 2 27 1 28 94 29 95 30 23 31 24 32 25 33
REMARK SMILES IDX 26 34 27 35 28 36 29 37 30 38 31 39 32 40 33 41 91 42 34 43
REMARK SMILES IDX 90 44 35 45 36 46 37 47 84 48 38 49 89 50 83 51 85 52 39 53
REMARK SMILES IDX 88 54 82 55 81 56 40 58 70 59 51 60 69 61 52 62 55 63 68 64
REMARK SMILES IDX 86 65 53 66 54 67 67 69 87 70 56 71 41 72 42 73 50 74 43 75
REMARK SMILES IDX 49 76 44 77 45 78 46 79 47 80 48 81 71 82 72 83 80 84 73 85
REMARK SMILES IDX 79 86 74 87 75 88 76 89 77 90 78 91 57 92 58 93 66 94 59 95
REMARK SMILES IDX 65 96 60 97 61 98 62 99 63 100 64 101
REMARK H PARENT 9 16 85 57 55 68
REMARK Flexibility Score: inf
ROOT
ATOM      1  C   UNL A   1      33.971  25.278  23.177  1.00  0.00     0.188 C 
ENDROOT
BRANCH   1   2
ATOM      2  C   UNL A   1      33.135  26.580  23.209  1.00  0.00     0.188 C 
BRANCH   2   3
ATOM      3  O   UNL A   1      33.647  27.856  22.877  1.00  0.00    -0.376 OA
BRANCH   3   4
ATOM      4  C   UNL A   1      33.519  28.872  23.860  1.00  0.00     0.202 C 
BRANCH   4   5
ATOM      5  C   UNL A   1      33.474  28.520  25.330  1.00  0.00     0.261 C 
BRANCH   5   6
ATOM      6  O   UNL A   1      33.820  29.674  26.062  1.00  0.00    -0.460 OA
BRANCH   6   7
ATOM      7  C   UNL A   1      32.910  29.930  27.001  1.00  0.00     0.338 C 
ATOM      8  O   UNL A   1      32.217  29.142  27.598  1.00  0.00    -0.246 OA
BRANCH   7   9
ATOM      9  C   UNL A   1      33.134  31.335  27.381  1.00  0.00     0.062 A 
ATOM     10  C   UNL A   1      34.280  32.646  28.949  1.00  0.00     0.050 A 
ATOM     11  C   UNL A   1      33.527  33.770  28.618  1.00  0.00     0.027 A 
ATOM     12  C   UNL A   1      34.212  31.487  28.217  1.00  0.00     0.042 A 
ATOM     13  C   UNL A   1      32.585  33.681  27.596  1.00  0.00     0.003 A 
ATOM     14  C   UNL A   1      32.351  32.440  27.005  1.00  0.00     0.016 A 
BRANCH  10  15
ATOM     15  N   UNL A   1      34.949  32.560  30.196  1.00  0.00    -0.279 N 
ATOM     16  H   UNL A   1      34.570  32.104  30.981  1.00  0.00     0.180 HD
BRANCH  15  17
ATOM     17  S   UNL A   1      36.509  33.337  30.205  1.00  0.00     0.265 S 
ATOM     18  O   UNL A   1      36.421  34.157  31.404  1.00  0.00    -0.201 OA
ATOM     19  O   UNL A   1      36.738  33.998  28.941  1.00  0.00    -0.201 OA
BRANCH  17  20
ATOM     20  C   UNL A   1      37.798  32.127  30.471  1.00  0.00     0.133 A 
ATOM     21  C   UNL A   1      38.888  30.203  29.475  1.00  0.00     0.123 A 
ATOM     22  C   UNL A   1      37.937  31.214  29.418  1.00  0.00     0.073 A 
ATOM     23  C   UNL A   1      39.859  30.198  30.467  1.00  0.00    -0.005 A 
ATOM     24  C   UNL A   1      39.690  31.068  31.535  1.00  0.00     0.055 A 
ATOM     25  C   UNL A   1      40.980  29.211  30.523  1.00  0.00     0.048 C 
ATOM     26  C   UNL A   1      38.576  31.916  31.624  1.00  0.00     0.139 A 
BRANCH  21  27
ATOM     27  O   UNL A   1      38.799  29.210  28.539  1.00  0.00    -0.496 OA
ATOM     28  C   UNL A   1      37.722  29.505  27.640  1.00  0.00     0.278 C 
ENDBRANCH  21  27
BRANCH  26  29
ATOM     29  O   UNL A   1      38.211  32.389  32.852  1.00  0.00    -0.495 OA
ATOM     30  C   UNL A   1      39.015  31.995  33.986  1.00  0.00     0.278 C 
ENDBRANCH  26  29
ENDBRANCH  17  20
ENDBRANCH  15  17
ENDBRANCH  10  15
ENDBRANCH   7   9
ENDBRANCH   6   7
ENDBRANCH   5   6
ENDBRANCH   4   5
ENDBRANCH   3   4
ENDBRANCH   2   3
ENDBRANCH   1   2
BRANCH   1  31
ATOM     31  O   UNL A   1      33.392  24.055  23.590  1.00  0.00    -0.377 OA
BRANCH  31  32
ATOM     32  C   UNL A   1      34.031  22.838  23.180  1.00  0.00     0.188 C 
BRANCH  32  33
ATOM     33  C   UNL A   1      34.666  21.949  24.234  1.00  0.00     0.188 C 
BRANCH  33  34
ATOM     34  O   UNL A   1      35.940  22.527  24.517  1.00  0.00    -0.376 OA
BRANCH  34  35
ATOM     35  C   UNL A   1      37.027  21.641  24.679  1.00  0.00     0.202 C 
BRANCH  35  36
ATOM     36  C   UNL A   1      37.837  21.921  25.938  1.00  0.00     0.261 C 
BRANCH  36  37
ATOM     37  O   UNL A   1      39.214  22.286  25.634  1.00  0.00    -0.460 OA
BRANCH  37  38
ATOM     38  C   UNL A   1      40.261  21.817  26.383  1.00  0.00     0.338 C 
ATOM     39  O   UNL A   1      40.603  20.643  26.361  1.00  0.00    -0.246 OA
BRANCH  38  40
ATOM     40  C   UNL A   1      41.134  22.881  26.964  1.00  0.00     0.060 A 
ATOM     41  C   UNL A   1      41.252  24.167  26.413  1.00  0.00     0.016 A 
ATOM     42  C   UNL A   1      41.892  22.587  28.073  1.00  0.00     0.016 A 
ATOM     43  C   UNL A   1      42.297  25.049  26.800  1.00  0.00     0.010 A 
ATOM     44  C   UNL A   1      42.941  23.430  28.406  1.00  0.00     0.010 A 
ATOM     45  C   UNL A   1      43.223  24.647  27.755  1.00  0.00    -0.014 A 
BRANCH  45  46
ATOM     46  C   UNL A   1      44.527  25.300  28.112  1.00  0.00     0.031 A 
ATOM     47  C   UNL A   1      45.705  25.077  27.172  1.00  0.00     0.074 A 
ATOM     48  C   UNL A   1      44.540  26.353  28.986  1.00  0.00     0.049 A 
ATOM     49  N   UNL A   1      46.828  25.713  27.189  1.00  0.00    -0.248 NA
ATOM     50  C   UNL A   1      45.673  24.124  26.055  1.00  0.00     0.031 C 
ATOM     51  C   UNL A   1      45.393  27.555  28.931  1.00  0.00     0.029 A 
ATOM     52  N   UNL A   1      43.718  26.682  30.050  1.00  0.00    -0.354 N 
ATOM     53  C   UNL A   1      47.473  25.540  25.962  1.00  0.00     0.074 A 
ATOM     54  C   UNL A   1      46.724  24.499  25.311  1.00  0.00     0.031 C 
ATOM     55  C   UNL A   1      45.098  28.422  29.913  1.00  0.00     0.029 A 
ATOM     56  C   UNL A   1      44.269  27.702  30.838  1.00  0.00     0.049 A 
ATOM     57  H   UNL A   1      42.852  26.252  30.231  1.00  0.00     0.167 HD
ATOM     58  C   UNL A   1      48.480  26.401  25.597  1.00  0.00     0.031 A 
ATOM     59  C   UNL A   1      44.693  27.443  32.113  1.00  0.00     0.031 A 
ATOM     60  C   UNL A   1      48.807  27.310  26.716  1.00  0.00     0.049 A 
ATOM     61  C   UNL A   1      46.232  27.347  32.149  1.00  0.00     0.074 A 
ATOM     62  C   UNL A   1      48.808  28.684  26.897  1.00  0.00     0.029 A 
ATOM     63  N   UNL A   1      48.980  26.763  27.987  1.00  0.00    -0.354 N 
ATOM     64  N   UNL A   1      46.956  27.022  31.096  1.00  0.00    -0.248 NA
ATOM     65  C   UNL A   1      47.084  27.824  33.244  1.00  0.00     0.031 C 
ATOM     66  C   UNL A   1      48.856  28.942  28.296  1.00  0.00     0.029 A 
ATOM     67  C   UNL A   1      48.927  27.730  28.967  1.00  0.00     0.049 A 
ATOM     68  H   UNL A   1      49.123  25.805  28.163  1.00  0.00     0.167 HD
ATOM     69  C   UNL A   1      48.269  27.356  31.296  1.00  0.00     0.074 A 
ATOM     70  C   UNL A   1      48.308  27.802  32.678  1.00  0.00     0.031 C 
ATOM     71  C   UNL A   1      49.250  27.379  30.340  1.00  0.00     0.031 A 
BRANCH  58  72
ATOM     72  C   UNL A   1      49.088  26.598  24.190  1.00  0.00    -0.014 A 
ATOM     73  C   UNL A   1      50.293  27.334  24.058  1.00  0.00     0.010 A 
ATOM     74  C   UNL A   1      48.566  26.119  22.969  1.00  0.00     0.010 A 
ATOM     75  C   UNL A   1      50.928  27.592  22.827  1.00  0.00     0.020 A 
ATOM     76  C   UNL A   1      49.203  26.355  21.718  1.00  0.00     0.020 A 
ATOM     77  C   UNL A   1      50.386  27.089  21.656  1.00  0.00     0.054 A 
BRANCH  77  78
ATOM     78  S   UNL A   1      51.289  27.356  20.099  1.00  0.00     0.124 S 
ATOM     79  O   UNL A   1      52.295  26.297  20.122  1.00  0.00    -0.237 OA
ATOM     80  O   UNL A   1      50.242  27.202  19.092  1.00  0.00    -0.237 OA
ATOM     81  O   UNL A   1      51.821  28.712  20.231  1.00  0.00    -0.744 OA
ENDBRANCH  77  78
ENDBRANCH  58  72
BRANCH  59  82
ATOM     82  C   UNL A   1      43.565  26.790  32.874  1.00  0.00    -0.014 A 
ATOM     83  C   UNL A   1      43.970  25.589  33.524  1.00  0.00     0.010 A 
ATOM     84  C   UNL A   1      42.633  27.607  33.552  1.00  0.00     0.010 A 
ATOM     85  C   UNL A   1      43.736  25.393  34.896  1.00  0.00     0.020 A 
ATOM     86  C   UNL A   1      42.385  27.400  34.932  1.00  0.00     0.020 A 
ATOM     87  C   UNL A   1      42.997  26.334  35.607  1.00  0.00     0.054 A 
BRANCH  87  88
ATOM     88  S   UNL A   1      43.088  26.297  37.433  1.00  0.00     0.124 S 
ATOM     89  O   UNL A   1      43.815  27.521  37.736  1.00  0.00    -0.237 OA
ATOM     90  O   UNL A   1      41.679  26.279  37.827  1.00  0.00    -0.237 OA
ATOM     91  O   UNL A   1      43.801  25.056  37.703  1.00  0.00    -0.744 OA
ENDBRANCH  87  88
ENDBRANCH  59  82
BRANCH  71  92
ATOM     92  C   UNL A   1      50.703  27.068  30.624  1.00  0.00    -0.014 A 
ATOM     93  C   UNL A   1      51.110  25.901  31.280  1.00  0.00     0.010 A 
ATOM     94  C   UNL A   1      51.721  27.856  30.019  1.00  0.00     0.010 A 
ATOM     95  C   UNL A   1      52.461  25.564  31.377  1.00  0.00     0.020 A 
ATOM     96  C   UNL A   1      53.067  27.495  30.056  1.00  0.00     0.020 A 
ATOM     97  C   UNL A   1      53.430  26.358  30.762  1.00  0.00     0.054 A 
BRANCH  97  98
ATOM     98  S   UNL A   1      55.157  25.853  30.874  1.00  0.00     0.124 S 
ATOM     99  O   UNL A   1      55.815  27.122  31.177  1.00  0.00    -0.237 OA
ATOM    100  O   UNL A   1      55.134  24.883  31.966  1.00  0.00    -0.237 OA
ATOM    101  O   UNL A   1      55.447  25.295  29.557  1.00  0.00    -0.744 OA
ENDBRANCH  97  98
ENDBRANCH  71  92
ENDBRANCH  45  46
ENDBRANCH  38  40
ENDBRANCH  37  38
ENDBRANCH  36  37
ENDBRANCH  35  36
ENDBRANCH  34  35
ENDBRANCH  33  34
ENDBRANCH  32  33
ENDBRANCH  31  32
ENDBRANCH   1  31
TORSDOF 28
ENDMDL
MODEL 2
REMARK VINA RESULT:      -7.6      4.527      8.690
REMARK SMILES COc1cc(S(=O)(=O)Nc2cccc(C(=O)OCCOCCOCCOCCOC(=O)c3ccc(-c4c5nc(c(-c6ccc(S(=O)(=O)[O-])cc6)c6ccc([nH]6)c(-c6ccc(S(=O)(=O)[O-])cc6)c6nc(c(-c7ccc(S(=O)(=O)[O-])cc7)c7ccc4[nH]7)C=C6)C=C5)cc3)c2)c(OC)cc1C
REMARK SMILES IDX 22 1 21 2 20 3 19 4 18 5 17 6 15 7 16 8 14 9 10 10 11 11
REMARK SMILES IDX 92 12 12 13 13 14 9 15 6 17 7 18 8 19 5 20 3 21 4 22 97 23
REMARK SMILES IDX 96 24 98 25 93 26 2 27 1 28 94 29 95 30 23 31 24 32 25 33
REMARK SMILES IDX 26 34 27 35 28 36 29 37 30 38 31 39 32 40 33 41 91 42 34 43
REMARK SMILES IDX 90 44 35 45 36 46 37 47 84 48 38 49 89 50 83 51 85 52 39 53
REMARK SMILES IDX 88 54 82 55 81 56 40 58 70 59 51 60 69 61 52 62 55 63 68 64
REMARK SMILES IDX 86 65 53 66 54 67 67 69 87 70 56 71 41 72 42 73 50 74 43 75
REMARK SMILES IDX 49 76 44 77 45 78 46 79 47 80 48 81 71 82 72 83 80 84 73 85
REMARK SMILES IDX 79 86 74 87 75 88 76 89 77 90 78 91 57 92 58 93 66 94 59 95
REMARK SMILES IDX 65 96 60 97 61 98 62 99 63 100 64 101
REMARK H PARENT 9 16 85 57 55 68
REMARK Flexibility Score: inf
ROOT
ATOM      1  C   UNL A   1      33.891  26.195  25.564  1.00  0.00     0.188 C 
ENDROOT
BRANCH   1   2
ATOM      2  C   UNL A   1      33.080  27.206  26.410  1.00  0.00     0.188 C 
BRANCH   2   3
ATOM      3  O   UNL A   1      32.703  28.492  25.956  1.00  0.00    -0.376 OA
BRANCH   3   4
ATOM      4  C   UNL A   1      33.624  29.548  26.190  1.00  0.00     0.202 C 
BRANCH   4   5
ATOM      5  C   UNL A   1      34.719  29.400  27.223  1.00  0.00     0.261 C 
BRANCH   5   6
ATOM      6  O   UNL A   1      34.954  30.669  27.788  1.00  0.00    -0.460 OA
BRANCH   6   7
ATOM      7  C   UNL A   1      35.786  30.580  28.824  1.00  0.00     0.338 C 
ATOM      8  O   UNL A   1      36.722  29.831  28.964  1.00  0.00    -0.246 OA
BRANCH   7   9
ATOM      9  C   UNL A   1      35.523  31.782  29.635  1.00  0.00     0.062 A 
ATOM     10  C   UNL A   1      35.906  32.668  31.770  1.00  0.00     0.050 A 
ATOM     11  C   UNL A   1      34.953  33.665  31.569  1.00  0.00     0.027 A 
ATOM     12  C   UNL A   1      36.318  31.845  30.752  1.00  0.00     0.042 A 
ATOM     13  C   UNL A   1      34.307  33.751  30.338  1.00  0.00     0.003 A 
ATOM     14  C   UNL A   1      34.558  32.771  29.379  1.00  0.00     0.016 A 
BRANCH  10  15
ATOM     15  N   UNL A   1      36.299  32.290  33.078  1.00  0.00    -0.279 N 
ATOM     16  H   UNL A   1      36.384  31.353  33.366  1.00  0.00     0.180 HD
BRANCH  15  17
ATOM     17  S   UNL A   1      36.618  33.644  34.128  1.00  0.00     0.265 S 
ATOM     18  O   UNL A   1      35.387  33.714  34.900  1.00  0.00    -0.201 OA
ATOM     19  O   UNL A   1      37.000  34.796  33.345  1.00  0.00    -0.201 OA
BRANCH  17  20
ATOM     20  C   UNL A   1      37.943  33.245  35.261  1.00  0.00     0.133 A 
ATOM     21  C   UNL A   1      40.184  32.325  35.378  1.00  0.00     0.123 A 
ATOM     22  C   UNL A   1      39.071  32.699  34.635  1.00  0.00     0.073 A 
ATOM     23  C   UNL A   1      40.293  32.675  36.717  1.00  0.00    -0.005 A 
ATOM     24  C   UNL A   1      39.159  33.168  37.346  1.00  0.00     0.055 A 
ATOM     25  C   UNL A   1      41.509  32.409  37.545  1.00  0.00     0.048 C 
ATOM     26  C   UNL A   1      37.939  33.298  36.666  1.00  0.00     0.139 A 
BRANCH  21  27
ATOM     27  O   UNL A   1      41.136  31.577  34.742  1.00  0.00    -0.496 OA
ATOM     28  C   UNL A   1      40.493  30.542  33.986  1.00  0.00     0.278 C 
ENDBRANCH  21  27
BRANCH  26  29
ATOM     29  O   UNL A   1      36.784  33.331  37.396  1.00  0.00    -0.495 OA
ATOM     30  C   UNL A   1      36.789  32.677  38.684  1.00  0.00     0.278 C 
ENDBRANCH  26  29
ENDBRANCH  17  20
ENDBRANCH  15  17
ENDBRANCH  10  15
ENDBRANCH   7   9
ENDBRANCH   6   7
ENDBRANCH   5   6
ENDBRANCH   4   5
ENDBRANCH   3   4
ENDBRANCH   2   3
ENDBRANCH   1   2
BRANCH   1  31
ATOM     31  O   UNL A   1      34.266  24.949  26.120  1.00  0.00    -0.377 OA
BRANCH  31  32
ATOM     32  C   UNL A   1      35.063  24.069  25.315  1.00  0.00     0.188 C 
BRANCH  32  33
ATOM     33  C   UNL A   1      36.208  23.312  25.964  1.00  0.00     0.188 C 
BRANCH  33  34
ATOM     34  O   UNL A   1      37.387  24.062  25.674  1.00  0.00    -0.376 OA
BRANCH  34  35
ATOM     35  C   UNL A   1      38.529  23.795  26.459  1.00  0.00     0.202 C 
BRANCH  35  36
ATOM     36  C   UNL A   1      39.054  22.377  26.277  1.00  0.00     0.261 C 
BRANCH  36  37
ATOM     37  O   UNL A   1      40.235  22.122  27.089  1.00  0.00    -0.460 OA
BRANCH  37  38
ATOM     38  C   UNL A   1      41.494  22.135  26.547  1.00  0.00     0.338 C 
ATOM     39  O   UNL A   1      41.731  21.674  25.440  1.00  0.00    -0.246 OA
BRANCH  38  40
ATOM     40  C   UNL A   1      42.465  23.022  27.255  1.00  0.00     0.060 A 
ATOM     41  C   UNL A   1      43.818  22.691  27.439  1.00  0.00     0.016 A 
ATOM     42  C   UNL A   1      42.018  24.207  27.789  1.00  0.00     0.016 A 
ATOM     43  C   UNL A   1      44.638  23.398  28.359  1.00  0.00     0.010 A 
ATOM     44  C   UNL A   1      42.807  24.857  28.724  1.00  0.00     0.010 A 
ATOM     45  C   UNL A   1      44.106  24.452  29.091  1.00  0.00    -0.014 A 
BRANCH  45  46
ATOM     46  C   UNL A   1      44.705  25.149  30.278  1.00  0.00     0.031 A 
ATOM     47  C   UNL A   1      44.472  24.528  31.649  1.00  0.00     0.074 A 
ATOM     48  C   UNL A   1      45.731  26.037  30.096  1.00  0.00     0.049 A 
ATOM     49  N   UNL A   1      45.070  24.850  32.746  1.00  0.00    -0.248 NA
ATOM     50  C   UNL A   1      43.554  23.404  31.877  1.00  0.00     0.031 C 
ATOM     51  C   UNL A   1      46.905  26.243  30.963  1.00  0.00     0.029 A 
ATOM     52  N   UNL A   1      46.054  26.872  29.040  1.00  0.00    -0.354 N 
ATOM     53  C   UNL A   1      44.913  23.820  33.676  1.00  0.00     0.074 A 
ATOM     54  C   UNL A   1      43.918  22.962  33.091  1.00  0.00     0.031 C 
ATOM     55  C   UNL A   1      47.751  27.151  30.451  1.00  0.00     0.029 A 
ATOM     56  C   UNL A   1      47.031  27.811  29.399  1.00  0.00     0.049 A 
ATOM     57  H   UNL A   1      45.647  26.814  28.146  1.00  0.00     0.167 HD
ATOM     58  C   UNL A   1      45.752  23.751  34.763  1.00  0.00     0.031 A 
ATOM     59  C   UNL A   1      46.720  29.141  29.481  1.00  0.00     0.031 A 
ATOM     60  C   UNL A   1      46.615  24.950  34.819  1.00  0.00     0.049 A 
ATOM     61  C   UNL A   1      46.573  29.559  30.958  1.00  0.00     0.074 A 
ATOM     62  C   UNL A   1      47.982  25.176  34.807  1.00  0.00     0.029 A 
ATOM     63  N   UNL A   1      46.025  26.202  34.653  1.00  0.00    -0.354 N 
ATOM     64  N   UNL A   1      46.256  28.710  31.916  1.00  0.00    -0.248 NA
ATOM     65  C   UNL A   1      46.988  30.850  31.518  1.00  0.00     0.031 C 
ATOM     66  C   UNL A   1      48.196  26.551  34.507  1.00  0.00     0.029 A 
ATOM     67  C   UNL A   1      46.963  27.173  34.377  1.00  0.00     0.049 A 
ATOM     68  H   UNL A   1      45.058  26.373  34.723  1.00  0.00     0.167 HD
ATOM     69  C   UNL A   1      46.541  29.246  33.144  1.00  0.00     0.074 A 
ATOM     70  C   UNL A   1      46.944  30.610  32.844  1.00  0.00     0.031 C 
ATOM     71  C   UNL A   1      46.560  28.569  34.335  1.00  0.00     0.031 A 
BRANCH  58  72
ATOM     72  C   UNL A   1      45.971  22.551  35.711  1.00  0.00    -0.014 A 
ATOM     73  C   UNL A   1      45.797  22.736  37.106  1.00  0.00     0.010 A 
ATOM     74  C   UNL A   1      46.343  21.240  35.343  1.00  0.00     0.010 A 
ATOM     75  C   UNL A   1      45.986  21.720  38.064  1.00  0.00     0.020 A 
ATOM     76  C   UNL A   1      46.522  20.197  36.295  1.00  0.00     0.020 A 
ATOM     77  C   UNL A   1      46.338  20.445  37.654  1.00  0.00     0.054 A 
BRANCH  77  78
ATOM     78  S   UNL A   1      46.473  19.137  38.913  1.00  0.00     0.124 S 
ATOM     79  O   UNL A   1      47.843  18.662  38.740  1.00  0.00    -0.237 OA
ATOM     80  O   UNL A   1      46.215  19.862  40.155  1.00  0.00    -0.237 OA
ATOM     81  O   UNL A   1      45.436  18.179  38.533  1.00  0.00    -0.744 OA
ENDBRANCH  77  78
ENDBRANCH  58  72
BRANCH  59  82
ATOM     82  C   UNL A   1      46.081  29.570  28.182  1.00  0.00    -0.014 A 
ATOM     83  C   UNL A   1      44.830  30.221  28.378  1.00  0.00     0.010 A 
ATOM     84  C   UNL A   1      46.904  30.056  27.142  1.00  0.00     0.010 A 
ATOM     85  C   UNL A   1      44.574  31.482  27.815  1.00  0.00     0.020 A 
ATOM     86  C   UNL A   1      46.637  31.321  26.562  1.00  0.00     0.020 A 
ATOM     87  C   UNL A   1      45.509  32.054  26.958  1.00  0.00     0.054 A 
BRANCH  87  88
ATOM     88  S   UNL A   1      45.371  33.843  26.607  1.00  0.00     0.124 S 
ATOM     89  O   UNL A   1      44.013  34.144  27.038  1.00  0.00    -0.237 OA
ATOM     90  O   UNL A   1      46.441  34.418  27.422  1.00  0.00    -0.237 OA
ATOM     91  O   UNL A   1      45.607  33.917  25.171  1.00  0.00    -0.744 OA
ENDBRANCH  87  88
ENDBRANCH  59  82
BRANCH  71  92
ATOM     92  C   UNL A   1      46.193  29.197  35.662  1.00  0.00    -0.014 A 
ATOM     93  C   UNL A   1      47.154  29.632  36.581  1.00  0.00     0.010 A 
ATOM     94  C   UNL A   1      44.845  29.576  35.911  1.00  0.00     0.010 A 
ATOM     95  C   UNL A   1      46.788  30.357  37.716  1.00  0.00     0.020 A 
ATOM     96  C   UNL A   1      44.477  30.353  37.008  1.00  0.00     0.020 A 
ATOM     97  C   UNL A   1      45.455  30.717  37.921  1.00  0.00     0.054 A 
BRANCH  97  98
ATOM     98  S   UNL A   1      45.039  31.696  39.377  1.00  0.00     0.124 S 
ATOM     99  O   UNL A   1      46.192  31.445  40.238  1.00  0.00    -0.237 OA
ATOM    100  O   UNL A   1      44.947  33.049  38.833  1.00  0.00    -0.237 OA
ATOM    101  O   UNL A   1      43.777  31.126  39.836  1.00  0.00    -0.744 OA
ENDBRANCH  97  98
ENDBRANCH  71  92
ENDBRANCH  45  46
ENDBRANCH  38  40
ENDBRANCH  37  38
ENDBRANCH  36  37
ENDBRANCH  35  36
ENDBRANCH  34  35
ENDBRANCH  33  34
ENDBRANCH  32  33
ENDBRANCH  31  32
ENDBRANCH   1  31
TORSDOF 28
ENDMDL
MODEL 3
REMARK VINA RESULT:      -7.5      5.378     13.015
REMARK SMILES COc1cc(S(=O)(=O)Nc2cccc(C(=O)OCCOCCOCCOCCOC(=O)c3ccc(-c4c5nc(c(-c6ccc(S(=O)(=O)[O-])cc6)c6ccc([nH]6)c(-c6ccc(S(=O)(=O)[O-])cc6)c6nc(c(-c7ccc(S(=O)(=O)[O-])cc7)c7ccc4[nH]7)C=C6)C=C5)cc3)c2)c(OC)cc1C
REMARK SMILES IDX 22 1 21 2 20 3 19 4 18 5 17 6 15 7 16 8 14 9 10 10 11 11
REMARK SMILES IDX 92 12 12 13 13 14 9 15 6 17 7 18 8 19 5 20 3 21 4 22 97 23
REMARK SMILES IDX 96 24 98 25 93 26 2 27 1 28 94 29 95 30 23 31 24 32 25 33
REMARK SMILES IDX 26 34 27 35 28 36 29 37 30 38 31 39 32 40 33 41 91 42 34 43
REMARK SMILES IDX 90 44 35 45 36 46 37 47 84 48 38 49 89 50 83 51 85 52 39 53
REMARK SMILES IDX 88 54 82 55 81 56 40 58 70 59 51 60 69 61 52 62 55 63 68 64
REMARK SMILES IDX 86 65 53 66 54 67 67 69 87 70 56 71 41 72 42 73 50 74 43 75
REMARK SMILES IDX 49 76 44 77 45 78 46 79 47 80 48 81 71 82 72 83 80 84 73 85
REMARK SMILES IDX 79 86 74 87 75 88 76 89 77 90 78 91 57 92 58 93 66 94 59 95
REMARK SMILES IDX 65 96 60 97 61 98 62 99 63 100 64 101
REMARK H PARENT 9 16 85 57 55 68
REMARK Flexibility Score: inf
ROOT
ATOM      1  C   UNL A   1      46.193  20.394  24.760  1.00  0.00     0.188 C 
ENDROOT
BRANCH   1   2
ATOM      2  C   UNL A   1      45.330  19.140  24.476  1.00  0.00     0.188 C 
BRANCH   2   3
ATOM      3  O   UNL A   1      43.918  19.121  24.550  1.00  0.00    -0.376 OA
BRANCH   3   4
ATOM      4  C   UNL A   1      43.347  18.981  25.842  1.00  0.00     0.202 C 
BRANCH   4   5
ATOM      5  C   UNL A   1      42.817  20.187  26.584  1.00  0.00     0.261 C 
BRANCH   5   6
ATOM      6  O   UNL A   1      41.456  19.955  26.870  1.00  0.00    -0.460 OA
BRANCH   6   7
ATOM      7  C   UNL A   1      40.754  21.084  26.781  1.00  0.00     0.338 C 
ATOM      8  O   UNL A   1      41.103  22.201  27.078  1.00  0.00    -0.246 OA
BRANCH   7   9
ATOM      9  C   UNL A   1      39.576  20.742  25.967  1.00  0.00     0.062 A 
ATOM     10  C   UNL A   1      37.489  21.592  25.323  1.00  0.00     0.050 A 
ATOM     11  C   UNL A   1      37.080  20.343  24.859  1.00  0.00     0.027 A 
ATOM     12  C   UNL A   1      38.784  21.833  25.707  1.00  0.00     0.042 A 
ATOM     13  C   UNL A   1      37.974  19.275  24.904  1.00  0.00     0.003 A 
ATOM     14  C   UNL A   1      39.215  19.464  25.509  1.00  0.00     0.016 A 
BRANCH  10  15
ATOM     15  N   UNL A   1      36.539  22.588  25.662  1.00  0.00    -0.279 N 
ATOM     16  H   UNL A   1      36.787  23.469  26.022  1.00  0.00     0.180 HD
BRANCH  15  17
ATOM     17  S   UNL A   1      34.889  22.103  25.379  1.00  0.00     0.265 S 
ATOM     18  O   UNL A   1      34.642  21.226  26.513  1.00  0.00    -0.201 OA
ATOM     19  O   UNL A   1      34.758  21.553  24.050  1.00  0.00    -0.201 OA
BRANCH  17  20
ATOM     20  C   UNL A   1      33.798  23.511  25.537  1.00  0.00     0.133 A 
ATOM     21  C   UNL A   1      31.828  24.319  26.698  1.00  0.00     0.123 A 
ATOM     22  C   UNL A   1      32.768  23.322  26.466  1.00  0.00     0.073 A 
ATOM     23  C   UNL A   1      32.005  25.594  26.180  1.00  0.00    -0.005 A 
ATOM     24  C   UNL A   1      32.993  25.766  25.220  1.00  0.00     0.055 A 
ATOM     25  C   UNL A   1      31.099  26.744  26.483  1.00  0.00     0.048 C 
ATOM     26  C   UNL A   1      33.780  24.694  24.775  1.00  0.00     0.139 A 
BRANCH  21  27
ATOM     27  O   UNL A   1      30.721  23.975  27.422  1.00  0.00    -0.496 OA
ATOM     28  C   UNL A   1      30.061  22.876  26.781  1.00  0.00     0.278 C 
ENDBRANCH  21  27
BRANCH  26  29
ATOM     29  O   UNL A   1      34.385  24.789  23.554  1.00  0.00    -0.495 OA
ATOM     30  C   UNL A   1      33.935  25.837  22.666  1.00  0.00     0.278 C 
ENDBRANCH  26  29
ENDBRANCH  17  20
ENDBRANCH  15  17
ENDBRANCH  10  15
ENDBRANCH   7   9
ENDBRANCH   6   7
ENDBRANCH   5   6
ENDBRANCH   4   5
ENDBRANCH   3   4
ENDBRANCH   2   3
ENDBRANCH   1   2
BRANCH   1  31
ATOM     31  O   UNL A   1      45.669  21.450  25.541  1.00  0.00    -0.377 OA
BRANCH  31  32
ATOM     32  C   UNL A   1      45.946  22.795  25.123  1.00  0.00     0.188 C 
BRANCH  32  33
ATOM     33  C   UNL A   1      44.851  23.841  25.236  1.00  0.00     0.188 C 
BRANCH  33  34
ATOM     34  O   UNL A   1      43.996  23.398  26.290  1.00  0.00    -0.376 OA
BRANCH  34  35
ATOM     35  C   UNL A   1      44.355  23.761  27.605  1.00  0.00     0.202 C 
BRANCH  35  36
ATOM     36  C   UNL A   1      43.826  25.132  28.006  1.00  0.00     0.261 C 
BRANCH  36  37
ATOM     37  O   UNL A   1      42.447  25.334  27.581  1.00  0.00    -0.460 OA
BRANCH  37  38
ATOM     38  C   UNL A   1      41.781  26.502  27.842  1.00  0.00     0.338 C 
ATOM     39  O   UNL A   1      40.567  26.599  27.732  1.00  0.00    -0.246 OA
BRANCH  38  40
ATOM     40  C   UNL A   1      42.590  27.531  28.562  1.00  0.00     0.060 A 
ATOM     41  C   UNL A   1      42.934  27.428  29.920  1.00  0.00     0.016 A 
ATOM     42  C   UNL A   1      42.993  28.657  27.883  1.00  0.00     0.016 A 
ATOM     43  C   UNL A   1      43.438  28.541  30.646  1.00  0.00     0.010 A 
ATOM     44  C   UNL A   1      43.432  29.752  28.609  1.00  0.00     0.010 A 
ATOM     45  C   UNL A   1      43.611  29.762  30.007  1.00  0.00    -0.014 A 
BRANCH  45  46
ATOM     46  C   UNL A   1      43.874  31.103  30.629  1.00  0.00     0.031 A 
ATOM     47  C   UNL A   1      42.733  31.759  31.395  1.00  0.00     0.074 A 
ATOM     48  C   UNL A   1      45.164  31.507  30.846  1.00  0.00     0.049 A 
ATOM     49  N   UNL A   1      42.822  32.789  32.166  1.00  0.00    -0.248 NA
ATOM     50  C   UNL A   1      41.360  31.234  31.398  1.00  0.00     0.031 C 
ATOM     51  C   UNL A   1      45.684  32.272  31.995  1.00  0.00     0.029 A 
ATOM     52  N   UNL A   1      46.345  31.228  30.180  1.00  0.00    -0.354 N 
ATOM     53  C   UNL A   1      41.700  32.841  32.997  1.00  0.00     0.074 A 
ATOM     54  C   UNL A   1      40.800  31.869  32.438  1.00  0.00     0.031 C 
ATOM     55  C   UNL A   1      47.014  32.442  31.920  1.00  0.00     0.029 A 
ATOM     56  C   UNL A   1      47.383  32.081  30.581  1.00  0.00     0.049 A 
ATOM     57  H   UNL A   1      46.444  30.517  29.507  1.00  0.00     0.167 HD
ATOM     58  C   UNL A   1      41.734  33.607  34.138  1.00  0.00     0.031 A 
ATOM     59  C   UNL A   1      47.895  33.008  29.715  1.00  0.00     0.031 A 
ATOM     60  C   UNL A   1      42.982  34.397  34.186  1.00  0.00     0.049 A 
ATOM     61  C   UNL A   1      47.358  34.411  30.064  1.00  0.00     0.074 A 
ATOM     62  C   UNL A   1      44.047  34.497  35.067  1.00  0.00     0.029 A 
ATOM     63  N   UNL A   1      43.374  35.092  33.043  1.00  0.00    -0.354 N 
ATOM     64  N   UNL A   1      46.218  34.606  30.697  1.00  0.00    -0.248 NA
ATOM     65  C   UNL A   1      48.124  35.658  29.966  1.00  0.00     0.031 C 
ATOM     66  C   UNL A   1      45.117  35.147  34.389  1.00  0.00     0.029 A 
ATOM     67  C   UNL A   1      44.694  35.481  33.111  1.00  0.00     0.049 A 
ATOM     68  H   UNL A   1      42.781  35.282  32.280  1.00  0.00     0.167 HD
ATOM     69  C   UNL A   1      46.157  35.882  31.190  1.00  0.00     0.074 A 
ATOM     70  C   UNL A   1      47.349  36.520  30.656  1.00  0.00     0.031 C 
ATOM     71  C   UNL A   1      45.238  36.357  32.088  1.00  0.00     0.031 A 
BRANCH  58  72
ATOM     72  C   UNL A   1      40.762  33.553  35.338  1.00  0.00    -0.014 A 
ATOM     73  C   UNL A   1      40.316  32.291  35.806  1.00  0.00     0.010 A 
ATOM     74  C   UNL A   1      40.240  34.653  36.052  1.00  0.00     0.010 A 
ATOM     75  C   UNL A   1      39.418  32.122  36.878  1.00  0.00     0.020 A 
ATOM     76  C   UNL A   1      39.345  34.500  37.149  1.00  0.00     0.020 A 
ATOM     77  C   UNL A   1      38.942  33.230  37.558  1.00  0.00     0.054 A 
BRANCH  77  78
ATOM     78  S   UNL A   1      37.866  32.965  39.001  1.00  0.00     0.124 S 
ATOM     79  O   UNL A   1      36.588  32.607  38.391  1.00  0.00    -0.237 OA
ATOM     80  O   UNL A   1      38.544  31.883  39.711  1.00  0.00    -0.237 OA
ATOM     81  O   UNL A   1      37.879  34.255  39.690  1.00  0.00    -0.744 OA
ENDBRANCH  77  78
ENDBRANCH  58  72
BRANCH  59  82
ATOM     82  C   UNL A   1      48.301  32.307  28.440  1.00  0.00    -0.014 A 
ATOM     83  C   UNL A   1      47.832  32.979  27.276  1.00  0.00     0.010 A 
ATOM     84  C   UNL A   1      49.576  31.703  28.366  1.00  0.00     0.010 A 
ATOM     85  C   UNL A   1      48.711  33.327  26.237  1.00  0.00     0.020 A 
ATOM     86  C   UNL A   1      50.457  32.042  27.310  1.00  0.00     0.020 A 
ATOM     87  C   UNL A   1      50.038  32.909  26.292  1.00  0.00     0.054 A 
BRANCH  87  88
ATOM     88  S   UNL A   1      51.244  33.733  25.193  1.00  0.00     0.124 S 
ATOM     89  O   UNL A   1      50.443  34.782  24.577  1.00  0.00    -0.237 OA
ATOM     90  O   UNL A   1      52.277  34.185  26.125  1.00  0.00    -0.237 OA
ATOM     91  O   UNL A   1      51.668  32.660  24.304  1.00  0.00    -0.744 OA
ENDBRANCH  87  88
ENDBRANCH  59  82
BRANCH  71  92
ATOM     92  C   UNL A   1      44.741  37.786  32.101  1.00  0.00    -0.014 A 
ATOM     93  C   UNL A   1      44.000  38.336  31.050  1.00  0.00     0.010 A 
ATOM     94  C   UNL A   1      44.821  38.546  33.300  1.00  0.00     0.010 A 
ATOM     95  C   UNL A   1      43.415  39.598  31.165  1.00  0.00     0.020 A 
ATOM     96  C   UNL A   1      44.187  39.779  33.448  1.00  0.00     0.020 A 
ATOM     97  C   UNL A   1      43.507  40.310  32.362  1.00  0.00     0.054 A 
BRANCH  97  98
ATOM     98  S   UNL A   1      42.692  41.914  32.477  1.00  0.00     0.124 S 
ATOM     99  O   UNL A   1      41.648  41.642  33.462  1.00  0.00    -0.237 OA
ATOM    100  O   UNL A   1      43.772  42.786  32.934  1.00  0.00    -0.237 OA
ATOM    101  O   UNL A   1      42.223  42.169  31.119  1.00  0.00    -0.744 OA
ENDBRANCH  97  98
ENDBRANCH  71  92
ENDBRANCH  45  46
ENDBRANCH  38  40
ENDBRANCH  37  38
ENDBRANCH  36  37
ENDBRANCH  35  36
ENDBRANCH  34  35
ENDBRANCH  33  34
ENDBRANCH  32  33
ENDBRANCH  31  32
ENDBRANCH   1  31
TORSDOF 28
ENDMDL
