MODEL 1
REMARK VINA RESULT:      -9.6      0.000      0.000
REMARK SMILES O=C(CC1(NC(=O)c2ccncc2Cl)CCCCC1)OCCOCCOCCOCCOC(=O)c1ccc(-c2c3nc(c(-c4ccc(S(=O)(=O)[O-])cc4)c4ccc([nH]4)c(-c4ccc(S(=O)(=O)[O-])cc4)c4nc(c(-c5ccc(S(=O)(=O)[O-])cc5)c5ccc2[nH]5)C=C4)C=C3)cc1
REMARK SMILES IDX 26 1 25 2 24 3 23 4 22 5 21 6 20 7 2 8 1 9 3 10 4 11 15 12
REMARK SMILES IDX 19 13 16 14 18 15 17 16 5 17 6 18 7 20 8 21 9 22 13 23 10 24
REMARK SMILES IDX 12 25 14 26 11 27 27 28 28 29 29 30 30 31 31 32 32 33 33 34
REMARK SMILES IDX 34 35 35 36 36 37 94 38 37 39 93 40 38 41 39 42 40 43 87 44
REMARK SMILES IDX 41 45 92 46 86 47 88 48 42 49 91 50 85 51 84 52 43 54 73 55
REMARK SMILES IDX 54 56 72 57 55 58 58 59 71 60 89 61 56 62 57 63 70 65 90 66
REMARK SMILES IDX 59 67 44 68 45 69 53 70 46 71 52 72 47 73 48 74 49 75 50 76
REMARK SMILES IDX 51 77 74 78 75 79 83 80 76 81 82 82 77 83 78 84 79 85 80 86
REMARK SMILES IDX 81 87 60 88 61 89 69 90 62 91 68 92 63 93 64 94 65 95 66 96
REMARK SMILES IDX 67 97
REMARK H PARENT 5 19 88 53 58 64
REMARK Flexibility Score: inf
ROOT
ATOM      1  O   UNL A   1      30.366  28.674  23.830  1.00  0.00    -0.377 OA
ENDROOT
BRANCH   1   2
ATOM      2  C   UNL A   1      30.460  28.149  22.507  1.00  0.00     0.188 C 
BRANCH   2   3
ATOM      3  C   UNL A   1      30.631  26.637  22.445  1.00  0.00     0.188 C 
BRANCH   3   4
ATOM      4  O   UNL A   1      31.253  26.313  21.199  1.00  0.00    -0.376 OA
BRANCH   4   5
ATOM      5  C   UNL A   1      32.480  25.595  21.239  1.00  0.00     0.202 C 
BRANCH   5   6
ATOM      6  C   UNL A   1      33.557  26.131  22.167  1.00  0.00     0.261 C 
BRANCH   6   7
ATOM      7  O   UNL A   1      34.610  25.228  22.602  1.00  0.00    -0.463 OA
BRANCH   7   8
ATOM      8  C   UNL A   1      34.664  24.217  23.487  1.00  0.00     0.308 C 
ATOM      9  O   UNL A   1      34.284  23.096  23.147  1.00  0.00    -0.252 OA
BRANCH   8  10
ATOM     10  C   UNL A   1      35.193  24.432  24.880  1.00  0.00     0.151 C 
BRANCH  10  11
ATOM     11  C   UNL A   1      36.005  23.283  25.512  1.00  0.00     0.051 C 
ATOM     12  C   UNL A   1      36.213  22.166  24.462  1.00  0.00     0.029 C 
ATOM     13  C   UNL A   1      37.418  23.761  25.970  1.00  0.00     0.029 C 
ATOM     14  C   UNL A   1      37.120  21.038  24.952  1.00  0.00     0.002 C 
ATOM     15  C   UNL A   1      38.406  22.660  26.355  1.00  0.00     0.002 C 
ATOM     16  C   UNL A   1      38.499  21.580  25.289  1.00  0.00     0.000 C 
BRANCH  11  17
ATOM     17  N   UNL A   1      35.300  22.700  26.704  1.00  0.00    -0.346 N 
ATOM     18  C   UNL A   1      34.010  22.374  27.051  1.00  0.00     0.253 C 
ATOM     19  H   UNL A   1      35.931  22.498  27.432  1.00  0.00     0.164 HD
ATOM     20  O   UNL A   1      33.830  21.705  28.068  1.00  0.00    -0.269 OA
BRANCH  18  21
ATOM     21  C   UNL A   1      32.814  22.913  26.386  1.00  0.00     0.061 A 
ATOM     22  C   UNL A   1      32.281  24.082  26.945  1.00  0.00     0.035 A 
ATOM     23  C   UNL A   1      32.099  22.263  25.386  1.00  0.00     0.072 A 
ATOM     24  C   UNL A   1      31.117  24.604  26.409  1.00  0.00     0.112 A 
ATOM     25  C   UNL A   1      30.981  22.909  24.873  1.00  0.00     0.132 A 
ATOM     26  Cl  UNL A   1      32.417  20.662  24.860  1.00  0.00    -0.082 Cl
ATOM     27  N   UNL A   1      30.483  24.074  25.347  1.00  0.00    -0.263 NA
ENDBRANCH  18  21
ENDBRANCH  11  17
ENDBRANCH  10  11
ENDBRANCH   8  10
ENDBRANCH   7   8
ENDBRANCH   6   7
ENDBRANCH   5   6
ENDBRANCH   4   5
ENDBRANCH   3   4
ENDBRANCH   2   3
ENDBRANCH   1   2
BRANCH   1  28
ATOM     28  C   UNL A   1      31.228  28.110  24.817  1.00  0.00     0.188 C 
BRANCH  28  29
ATOM     29  C   UNL A   1      32.609  28.757  24.951  1.00  0.00     0.188 C 
BRANCH  29  30
ATOM     30  O   UNL A   1      32.644  30.144  25.284  1.00  0.00    -0.376 OA
BRANCH  30  31
ATOM     31  C   UNL A   1      32.310  30.469  26.632  1.00  0.00     0.202 C 
BRANCH  31  32
ATOM     32  C   UNL A   1      33.457  30.244  27.629  1.00  0.00     0.261 C 
BRANCH  32  33
ATOM     33  O   UNL A   1      34.443  31.276  27.576  1.00  0.00    -0.460 OA
BRANCH  33  34
ATOM     34  C   UNL A   1      35.052  31.520  28.764  1.00  0.00     0.338 C 
ATOM     35  O   UNL A   1      34.618  32.169  29.702  1.00  0.00    -0.246 OA
BRANCH  34  36
ATOM     36  C   UNL A   1      36.262  30.681  28.817  1.00  0.00     0.060 A 
ATOM     37  C   UNL A   1      36.579  30.043  30.027  1.00  0.00     0.016 A 
ATOM     38  C   UNL A   1      37.026  30.456  27.667  1.00  0.00     0.016 A 
ATOM     39  C   UNL A   1      37.709  29.232  30.105  1.00  0.00     0.010 A 
ATOM     40  C   UNL A   1      38.162  29.658  27.748  1.00  0.00     0.010 A 
ATOM     41  C   UNL A   1      38.537  29.096  28.981  1.00  0.00    -0.014 A 
BRANCH  41  42
ATOM     42  C   UNL A   1      39.951  28.704  29.156  1.00  0.00     0.031 A 
ATOM     43  C   UNL A   1      40.885  29.785  29.634  1.00  0.00     0.074 A 
ATOM     44  C   UNL A   1      40.398  27.476  28.850  1.00  0.00     0.049 A 
ATOM     45  N   UNL A   1      42.182  29.763  29.771  1.00  0.00    -0.248 NA
ATOM     46  C   UNL A   1      40.264  31.076  29.992  1.00  0.00     0.031 C 
ATOM     47  C   UNL A   1      39.573  26.354  28.404  1.00  0.00     0.029 A 
ATOM     48  N   UNL A   1      41.675  26.975  28.851  1.00  0.00    -0.354 N 
ATOM     49  C   UNL A   1      42.529  31.031  30.223  1.00  0.00     0.074 A 
ATOM     50  C   UNL A   1      41.317  31.808  30.314  1.00  0.00     0.031 C 
ATOM     51  C   UNL A   1      40.370  25.299  28.156  1.00  0.00     0.029 A 
ATOM     52  C   UNL A   1      41.761  25.683  28.393  1.00  0.00     0.049 A 
ATOM     53  H   UNL A   1      42.456  27.494  29.152  1.00  0.00     0.167 HD
ATOM     54  C   UNL A   1      43.755  31.512  30.532  1.00  0.00     0.031 A 
ATOM     55  C   UNL A   1      42.847  24.916  28.170  1.00  0.00     0.031 A 
ATOM     56  C   UNL A   1      44.958  30.744  30.391  1.00  0.00     0.049 A 
ATOM     57  C   UNL A   1      44.212  25.491  28.461  1.00  0.00     0.074 A 
ATOM     58  C   UNL A   1      46.258  31.123  30.662  1.00  0.00     0.029 A 
ATOM     59  N   UNL A   1      45.002  29.439  29.924  1.00  0.00    -0.354 N 
ATOM     60  N   UNL A   1      44.525  26.683  28.916  1.00  0.00    -0.248 NA
ATOM     61  C   UNL A   1      45.368  24.619  28.214  1.00  0.00     0.031 C 
ATOM     62  C   UNL A   1      47.096  30.059  30.312  1.00  0.00     0.029 A 
ATOM     63  C   UNL A   1      46.310  28.999  29.881  1.00  0.00     0.049 A 
ATOM     64  H   UNL A   1      44.217  28.905  29.663  1.00  0.00     0.167 HD
ATOM     65  C   UNL A   1      45.910  26.693  29.038  1.00  0.00     0.074 A 
ATOM     66  C   UNL A   1      46.374  25.385  28.617  1.00  0.00     0.031 C 
ATOM     67  C   UNL A   1      46.731  27.686  29.462  1.00  0.00     0.031 A 
BRANCH  54  68
ATOM     68  C   UNL A   1      43.835  32.937  31.003  1.00  0.00    -0.014 A 
ATOM     69  C   UNL A   1      43.567  33.276  32.343  1.00  0.00     0.010 A 
ATOM     70  C   UNL A   1      44.171  33.955  30.093  1.00  0.00     0.010 A 
ATOM     71  C   UNL A   1      43.596  34.610  32.755  1.00  0.00     0.020 A 
ATOM     72  C   UNL A   1      44.227  35.289  30.508  1.00  0.00     0.020 A 
ATOM     73  C   UNL A   1      43.924  35.609  31.834  1.00  0.00     0.054 A 
BRANCH  73  74
ATOM     74  S   UNL A   1      43.975  37.332  32.399  1.00  0.00     0.124 S 
ATOM     75  O   UNL A   1      45.376  37.482  32.784  1.00  0.00    -0.237 OA
ATOM     76  O   UNL A   1      43.569  38.072  31.207  1.00  0.00    -0.237 OA
ATOM     77  O   UNL A   1      43.019  37.363  33.503  1.00  0.00    -0.744 OA
ENDBRANCH  73  74
ENDBRANCH  54  68
BRANCH  55  78
ATOM     78  C   UNL A   1      42.695  23.533  27.636  1.00  0.00    -0.014 A 
ATOM     79  C   UNL A   1      42.493  22.447  28.506  1.00  0.00     0.010 A 
ATOM     80  C   UNL A   1      42.744  23.296  26.249  1.00  0.00     0.010 A 
ATOM     81  C   UNL A   1      42.355  21.150  28.001  1.00  0.00     0.020 A 
ATOM     82  C   UNL A   1      42.580  22.003  25.740  1.00  0.00     0.020 A 
ATOM     83  C   UNL A   1      42.394  20.936  26.621  1.00  0.00     0.054 A 
BRANCH  83  84
ATOM     84  S   UNL A   1      42.145  19.254  25.986  1.00  0.00     0.124 S 
ATOM     85  O   UNL A   1      42.629  18.435  27.094  1.00  0.00    -0.237 OA
ATOM     86  O   UNL A   1      40.704  19.216  25.753  1.00  0.00    -0.237 OA
ATOM     87  O   UNL A   1      42.965  19.221  24.776  1.00  0.00    -0.744 OA
ENDBRANCH  83  84
ENDBRANCH  55  78
BRANCH  67  88
ATOM     88  C   UNL A   1      48.202  27.388  29.536  1.00  0.00    -0.014 A 
ATOM     89  C   UNL A   1      49.056  27.649  28.450  1.00  0.00     0.010 A 
ATOM     90  C   UNL A   1      48.746  26.914  30.744  1.00  0.00     0.010 A 
ATOM     91  C   UNL A   1      50.428  27.416  28.565  1.00  0.00     0.020 A 
ATOM     92  C   UNL A   1      50.120  26.706  30.870  1.00  0.00     0.020 A 
ATOM     93  C   UNL A   1      50.952  26.947  29.775  1.00  0.00     0.054 A 
BRANCH  93  94
ATOM     94  S   UNL A   1      52.743  26.703  29.916  1.00  0.00     0.124 S 
ATOM     95  O   UNL A   1      53.215  28.062  30.164  1.00  0.00    -0.237 OA
ATOM     96  O   UNL A   1      52.854  25.782  31.044  1.00  0.00    -0.237 OA
ATOM     97  O   UNL A   1      53.117  26.139  28.620  1.00  0.00    -0.744 OA
ENDBRANCH  93  94
ENDBRANCH  67  88
ENDBRANCH  41  42
ENDBRANCH  34  36
ENDBRANCH  33  34
ENDBRANCH  32  33
ENDBRANCH  31  32
ENDBRANCH  30  31
ENDBRANCH  29  30
ENDBRANCH  28  29
ENDBRANCH   1  28
TORSDOF 26
ENDMDL
MODEL 2
REMARK VINA RESULT:      -8.8      1.453      1.950
REMARK SMILES O=C(CC1(NC(=O)c2ccncc2Cl)CCCCC1)OCCOCCOCCOCCOC(=O)c1ccc(-c2c3nc(c(-c4ccc(S(=O)(=O)[O-])cc4)c4ccc([nH]4)c(-c4ccc(S(=O)(=O)[O-])cc4)c4nc(c(-c5ccc(S(=O)(=O)[O-])cc5)c5ccc2[nH]5)C=C4)C=C3)cc1
REMARK SMILES IDX 26 1 25 2 24 3 23 4 22 5 21 6 20 7 2 8 1 9 3 10 4 11 15 12
REMARK SMILES IDX 19 13 16 14 18 15 17 16 5 17 6 18 7 20 8 21 9 22 13 23 10 24
REMARK SMILES IDX 12 25 14 26 11 27 27 28 28 29 29 30 30 31 31 32 32 33 33 34
REMARK SMILES IDX 34 35 35 36 36 37 94 38 37 39 93 40 38 41 39 42 40 43 87 44
REMARK SMILES IDX 41 45 92 46 86 47 88 48 42 49 91 50 85 51 84 52 43 54 73 55
REMARK SMILES IDX 54 56 72 57 55 58 58 59 71 60 89 61 56 62 57 63 70 65 90 66
REMARK SMILES IDX 59 67 44 68 45 69 53 70 46 71 52 72 47 73 48 74 49 75 50 76
REMARK SMILES IDX 51 77 74 78 75 79 83 80 76 81 82 82 77 83 78 84 79 85 80 86
REMARK SMILES IDX 81 87 60 88 61 89 69 90 62 91 68 92 63 93 64 94 65 95 66 96
REMARK SMILES IDX 67 97
REMARK H PARENT 5 19 88 53 58 64
REMARK Flexibility Score: inf
ROOT
ATOM      1  O   UNL A   1      30.260  28.385  24.125  1.00  0.00    -0.377 OA
ENDROOT
BRANCH   1   2
ATOM      2  C   UNL A   1      30.441  28.087  22.742  1.00  0.00     0.188 C 
BRANCH   2   3
ATOM      3  C   UNL A   1      30.640  26.607  22.442  1.00  0.00     0.188 C 
BRANCH   3   4
ATOM      4  O   UNL A   1      31.311  26.497  21.184  1.00  0.00    -0.376 OA
BRANCH   4   5
ATOM      5  C   UNL A   1      32.599  25.894  21.172  1.00  0.00     0.202 C 
BRANCH   5   6
ATOM      6  C   UNL A   1      33.206  25.549  22.522  1.00  0.00     0.261 C 
BRANCH   6   7
ATOM      7  O   UNL A   1      34.416  24.746  22.552  1.00  0.00    -0.463 OA
BRANCH   7   8
ATOM      8  C   UNL A   1      34.924  23.857  23.425  1.00  0.00     0.308 C 
ATOM      9  O   UNL A   1      34.911  22.659  23.143  1.00  0.00    -0.252 OA
BRANCH   8  10
ATOM     10  C   UNL A   1      35.516  24.307  24.735  1.00  0.00     0.151 C 
BRANCH  10  11
ATOM     11  C   UNL A   1      36.333  23.270  25.533  1.00  0.00     0.051 C 
ATOM     12  C   UNL A   1      36.567  22.018  24.655  1.00  0.00     0.029 C 
ATOM     13  C   UNL A   1      37.735  23.828  25.933  1.00  0.00     0.029 C 
ATOM     14  C   UNL A   1      37.482  20.984  25.310  1.00  0.00     0.002 C 
ATOM     15  C   UNL A   1      38.731  22.806  26.481  1.00  0.00     0.002 C 
ATOM     16  C   UNL A   1      38.850  21.587  25.581  1.00  0.00     0.000 C 
BRANCH  11  17
ATOM     17  N   UNL A   1      35.621  22.854  26.788  1.00  0.00    -0.346 N 
ATOM     18  C   UNL A   1      34.358  22.435  27.138  1.00  0.00     0.253 C 
ATOM     19  H   UNL A   1      36.218  22.891  27.570  1.00  0.00     0.164 HD
ATOM     20  O   UNL A   1      34.189  21.970  28.265  1.00  0.00    -0.269 OA
BRANCH  18  21
ATOM     21  C   UNL A   1      33.157  22.661  26.321  1.00  0.00     0.061 A 
ATOM     22  C   UNL A   1      32.384  23.776  26.670  1.00  0.00     0.035 A 
ATOM     23  C   UNL A   1      32.659  21.772  25.376  1.00  0.00     0.072 A 
ATOM     24  C   UNL A   1      31.205  24.008  25.985  1.00  0.00     0.112 A 
ATOM     25  C   UNL A   1      31.501  22.135  24.699  1.00  0.00     0.132 A 
ATOM     26  Cl  UNL A   1      33.291  20.199  25.105  1.00  0.00    -0.082 Cl
ATOM     27  N   UNL A   1      30.771  23.242  24.966  1.00  0.00    -0.263 NA
ENDBRANCH  18  21
ENDBRANCH  11  17
ENDBRANCH  10  11
ENDBRANCH   8  10
ENDBRANCH   7   8
ENDBRANCH   6   7
ENDBRANCH   5   6
ENDBRANCH   4   5
ENDBRANCH   3   4
ENDBRANCH   2   3
ENDBRANCH   1   2
BRANCH   1  28
ATOM     28  C   UNL A   1      31.037  27.637  25.060  1.00  0.00     0.188 C 
BRANCH  28  29
ATOM     29  C   UNL A   1      32.430  28.192  25.370  1.00  0.00     0.188 C 
BRANCH  29  30
ATOM     30  O   UNL A   1      32.639  29.584  25.137  1.00  0.00    -0.376 OA
BRANCH  30  31
ATOM     31  C   UNL A   1      32.030  30.470  26.074  1.00  0.00     0.202 C 
BRANCH  31  32
ATOM     32  C   UNL A   1      32.823  30.633  27.380  1.00  0.00     0.261 C 
BRANCH  32  33
ATOM     33  O   UNL A   1      34.232  30.505  27.190  1.00  0.00    -0.460 OA
BRANCH  33  34
ATOM     34  C   UNL A   1      34.976  31.191  28.093  1.00  0.00     0.338 C 
ATOM     35  O   UNL A   1      34.661  32.199  28.704  1.00  0.00    -0.246 OA
BRANCH  34  36
ATOM     36  C   UNL A   1      36.177  30.384  28.375  1.00  0.00     0.060 A 
ATOM     37  C   UNL A   1      36.238  29.681  29.588  1.00  0.00     0.016 A 
ATOM     38  C   UNL A   1      37.189  30.252  27.418  1.00  0.00     0.016 A 
ATOM     39  C   UNL A   1      37.354  28.898  29.878  1.00  0.00     0.010 A 
ATOM     40  C   UNL A   1      38.309  29.481  27.713  1.00  0.00     0.010 A 
ATOM     41  C   UNL A   1      38.418  28.855  28.967  1.00  0.00    -0.014 A 
BRANCH  41  42
ATOM     42  C   UNL A   1      39.772  28.492  29.437  1.00  0.00     0.031 A 
ATOM     43  C   UNL A   1      40.436  29.473  30.369  1.00  0.00     0.074 A 
ATOM     44  C   UNL A   1      40.405  27.386  29.016  1.00  0.00     0.049 A 
ATOM     45  N   UNL A   1      41.648  29.472  30.850  1.00  0.00    -0.248 NA
ATOM     46  C   UNL A   1      39.615  30.620  30.805  1.00  0.00     0.031 C 
ATOM     47  C   UNL A   1      39.842  26.364  28.135  1.00  0.00     0.029 A 
ATOM     48  N   UNL A   1      41.683  26.952  29.263  1.00  0.00    -0.354 N 
ATOM     49  C   UNL A   1      41.736  30.617  31.635  1.00  0.00     0.074 A 
ATOM     50  C   UNL A   1      40.469  31.302  31.550  1.00  0.00     0.031 C 
ATOM     51  C   UNL A   1      40.779  25.427  27.900  1.00  0.00     0.029 A 
ATOM     52  C   UNL A   1      42.015  25.804  28.585  1.00  0.00     0.049 A 
ATOM     53  H   UNL A   1      42.302  27.419  29.868  1.00  0.00     0.167 HD
ATOM     54  C   UNL A   1      42.784  31.064  32.362  1.00  0.00     0.031 A 
ATOM     55  C   UNL A   1      43.194  25.154  28.515  1.00  0.00     0.031 A 
ATOM     56  C   UNL A   1      44.054  30.399  32.400  1.00  0.00     0.049 A 
ATOM     57  C   UNL A   1      44.371  25.702  29.283  1.00  0.00     0.074 A 
ATOM     58  C   UNL A   1      45.195  30.760  33.091  1.00  0.00     0.029 A 
ATOM     59  N   UNL A   1      44.351  29.239  31.701  1.00  0.00    -0.354 N 
ATOM     60  N   UNL A   1      44.434  26.771  30.046  1.00  0.00    -0.248 NA
ATOM     61  C   UNL A   1      45.634  24.959  29.186  1.00  0.00     0.031 C 
ATOM     62  C   UNL A   1      46.198  29.839  32.770  1.00  0.00     0.029 A 
ATOM     63  C   UNL A   1      45.663  28.875  31.928  1.00  0.00     0.049 A 
ATOM     64  H   UNL A   1      43.718  28.748  31.128  1.00  0.00     0.167 HD
ATOM     65  C   UNL A   1      45.732  26.809  30.543  1.00  0.00     0.074 A 
ATOM     66  C   UNL A   1      46.418  25.652  30.001  1.00  0.00     0.031 C 
ATOM     67  C   UNL A   1      46.309  27.712  31.375  1.00  0.00     0.031 A 
BRANCH  54  68
ATOM     68  C   UNL A   1      42.594  32.345  33.125  1.00  0.00    -0.014 A 
ATOM     69  C   UNL A   1      42.039  32.346  34.419  1.00  0.00     0.010 A 
ATOM     70  C   UNL A   1      42.964  33.569  32.538  1.00  0.00     0.010 A 
ATOM     71  C   UNL A   1      41.823  33.548  35.095  1.00  0.00     0.020 A 
ATOM     72  C   UNL A   1      42.773  34.772  33.223  1.00  0.00     0.020 A 
ATOM     73  C   UNL A   1      42.189  34.755  34.492  1.00  0.00     0.054 A 
BRANCH  73  74
ATOM     74  S   UNL A   1      41.916  36.301  35.401  1.00  0.00     0.124 S 
ATOM     75  O   UNL A   1      42.416  37.297  34.458  1.00  0.00    -0.237 OA
ATOM     76  O   UNL A   1      40.469  36.301  35.605  1.00  0.00    -0.237 OA
ATOM     77  O   UNL A   1      42.713  36.135  36.613  1.00  0.00    -0.744 OA
ENDBRANCH  73  74
ENDBRANCH  54  68
BRANCH  55  78
ATOM     78  C   UNL A   1      43.326  23.925  27.682  1.00  0.00    -0.014 A 
ATOM     79  C   UNL A   1      43.995  23.965  26.446  1.00  0.00     0.010 A 
ATOM     80  C   UNL A   1      42.787  22.703  28.125  1.00  0.00     0.010 A 
ATOM     81  C   UNL A   1      44.114  22.811  25.665  1.00  0.00     0.020 A 
ATOM     82  C   UNL A   1      42.926  21.541  27.358  1.00  0.00     0.020 A 
ATOM     83  C   UNL A   1      43.583  21.604  26.128  1.00  0.00     0.054 A 
BRANCH  83  84
ATOM     84  S   UNL A   1      43.807  20.106  25.128  1.00  0.00     0.124 S 
ATOM     85  O   UNL A   1      44.297  20.652  23.866  1.00  0.00    -0.237 OA
ATOM     86  O   UNL A   1      44.781  19.349  25.912  1.00  0.00    -0.237 OA
ATOM     87  O   UNL A   1      42.468  19.522  25.082  1.00  0.00    -0.744 OA
ENDBRANCH  83  84
ENDBRANCH  55  78
BRANCH  67  88
ATOM     88  C   UNL A   1      47.733  27.465  31.786  1.00  0.00    -0.014 A 
ATOM     89  C   UNL A   1      48.047  26.589  32.840  1.00  0.00     0.010 A 
ATOM     90  C   UNL A   1      48.773  28.059  31.048  1.00  0.00     0.010 A 
ATOM     91  C   UNL A   1      49.381  26.332  33.165  1.00  0.00     0.020 A 
ATOM     92  C   UNL A   1      50.107  27.784  31.354  1.00  0.00     0.020 A 
ATOM     93  C   UNL A   1      50.403  26.931  32.419  1.00  0.00     0.054 A 
BRANCH  93  94
ATOM     94  S   UNL A   1      52.126  26.541  32.827  1.00  0.00     0.124 S 
ATOM     95  O   UNL A   1      52.343  27.348  34.024  1.00  0.00    -0.237 OA
ATOM     96  O   UNL A   1      52.086  25.096  33.040  1.00  0.00    -0.237 OA
ATOM     97  O   UNL A   1      52.867  26.969  31.642  1.00  0.00    -0.744 OA
ENDBRANCH  93  94
ENDBRANCH  67  88
ENDBRANCH  41  42
ENDBRANCH  34  36
ENDBRANCH  33  34
ENDBRANCH  32  33
ENDBRANCH  31  32
ENDBRANCH  30  31
ENDBRANCH  29  30
ENDBRANCH  28  29
ENDBRANCH   1  28
TORSDOF 26
ENDMDL
MODEL 3
REMARK VINA RESULT:      -7.5      3.564      8.559
REMARK SMILES O=C(CC1(NC(=O)c2ccncc2Cl)CCCCC1)OCCOCCOCCOCCOC(=O)c1ccc(-c2c3nc(c(-c4ccc(S(=O)(=O)[O-])cc4)c4ccc([nH]4)c(-c4ccc(S(=O)(=O)[O-])cc4)c4nc(c(-c5ccc(S(=O)(=O)[O-])cc5)c5ccc2[nH]5)C=C4)C=C3)cc1
REMARK SMILES IDX 26 1 25 2 24 3 23 4 22 5 21 6 20 7 2 8 1 9 3 10 4 11 15 12
REMARK SMILES IDX 19 13 16 14 18 15 17 16 5 17 6 18 7 20 8 21 9 22 13 23 10 24
REMARK SMILES IDX 12 25 14 26 11 27 27 28 28 29 29 30 30 31 31 32 32 33 33 34
REMARK SMILES IDX 34 35 35 36 36 37 94 38 37 39 93 40 38 41 39 42 40 43 87 44
REMARK SMILES IDX 41 45 92 46 86 47 88 48 42 49 91 50 85 51 84 52 43 54 73 55
REMARK SMILES IDX 54 56 72 57 55 58 58 59 71 60 89 61 56 62 57 63 70 65 90 66
REMARK SMILES IDX 59 67 44 68 45 69 53 70 46 71 52 72 47 73 48 74 49 75 50 76
REMARK SMILES IDX 51 77 74 78 75 79 83 80 76 81 82 82 77 83 78 84 79 85 80 86
REMARK SMILES IDX 81 87 60 88 61 89 69 90 62 91 68 92 63 93 64 94 65 95 66 96
REMARK SMILES IDX 67 97
REMARK H PARENT 5 19 88 53 58 64
REMARK Flexibility Score: inf
ROOT
ATOM      1  O   UNL A   1      31.483  28.604  25.520  1.00  0.00    -0.377 OA
ENDROOT
BRANCH   1   2
ATOM      2  C   UNL A   1      31.683  27.578  24.550  1.00  0.00     0.188 C 
BRANCH   2   3
ATOM      3  C   UNL A   1      30.465  26.695  24.315  1.00  0.00     0.188 C 
BRANCH   3   4
ATOM      4  O   UNL A   1      30.595  26.098  23.022  1.00  0.00    -0.376 OA
BRANCH   4   5
ATOM      5  C   UNL A   1      31.500  25.009  22.884  1.00  0.00     0.202 C 
BRANCH   5   6
ATOM      6  C   UNL A   1      31.391  23.895  23.912  1.00  0.00     0.261 C 
BRANCH   6   7
ATOM      7  O   UNL A   1      31.451  22.518  23.450  1.00  0.00    -0.463 OA
BRANCH   7   8
ATOM      8  C   UNL A   1      31.855  21.364  24.009  1.00  0.00     0.308 C 
ATOM      9  O   UNL A   1      31.573  21.131  25.185  1.00  0.00    -0.252 OA
BRANCH   8  10
ATOM     10  C   UNL A   1      32.636  20.349  23.217  1.00  0.00     0.151 C 
BRANCH  10  11
ATOM     11  C   UNL A   1      33.230  19.155  23.991  1.00  0.00     0.051 C 
ATOM     12  C   UNL A   1      32.476  18.988  25.332  1.00  0.00     0.029 C 
ATOM     13  C   UNL A   1      33.072  17.819  23.198  1.00  0.00     0.029 C 
ATOM     14  C   UNL A   1      32.903  17.747  26.114  1.00  0.00     0.002 C 
ATOM     15  C   UNL A   1      33.371  16.538  23.976  1.00  0.00     0.002 C 
ATOM     16  C   UNL A   1      32.630  16.491  25.303  1.00  0.00     0.000 C 
BRANCH  11  17
ATOM     17  N   UNL A   1      34.690  19.355  24.280  1.00  0.00    -0.346 N 
ATOM     18  C   UNL A   1      35.458  20.196  25.052  1.00  0.00     0.253 C 
ATOM     19  H   UNL A   1      35.248  18.713  23.784  1.00  0.00     0.164 HD
ATOM     20  O   UNL A   1      36.649  19.926  25.202  1.00  0.00    -0.269 OA
BRANCH  18  21
ATOM     21  C   UNL A   1      34.996  21.492  25.573  1.00  0.00     0.061 A 
ATOM     22  C   UNL A   1      34.360  21.454  26.820  1.00  0.00     0.035 A 
ATOM     23  C   UNL A   1      34.989  22.681  24.854  1.00  0.00     0.072 A 
ATOM     24  C   UNL A   1      33.841  22.628  27.337  1.00  0.00     0.112 A 
ATOM     25  C   UNL A   1      34.505  23.816  25.494  1.00  0.00     0.132 A 
ATOM     26  Cl  UNL A   1      35.392  22.805  23.191  1.00  0.00    -0.082 Cl
ATOM     27  N   UNL A   1      33.948  23.822  26.727  1.00  0.00    -0.263 NA
ENDBRANCH  18  21
ENDBRANCH  11  17
ENDBRANCH  10  11
ENDBRANCH   8  10
ENDBRANCH   7   8
ENDBRANCH   6   7
ENDBRANCH   5   6
ENDBRANCH   4   5
ENDBRANCH   3   4
ENDBRANCH   2   3
ENDBRANCH   1   2
BRANCH   1  28
ATOM     28  C   UNL A   1      31.953  28.350  26.844  1.00  0.00     0.188 C 
BRANCH  28  29
ATOM     29  C   UNL A   1      33.351  28.882  27.174  1.00  0.00     0.188 C 
BRANCH  29  30
ATOM     30  O   UNL A   1      33.772  30.061  26.489  1.00  0.00    -0.376 OA
BRANCH  30  31
ATOM     31  C   UNL A   1      33.119  31.269  26.871  1.00  0.00     0.202 C 
BRANCH  31  32
ATOM     32  C   UNL A   1      33.466  31.742  28.291  1.00  0.00     0.261 C 
BRANCH  32  33
ATOM     33  O   UNL A   1      34.874  31.840  28.511  1.00  0.00    -0.460 OA
BRANCH  33  34
ATOM     34  C   UNL A   1      35.218  32.057  29.804  1.00  0.00     0.338 C 
ATOM     35  O   UNL A   1      34.526  32.539  30.687  1.00  0.00    -0.246 OA
BRANCH  34  36
ATOM     36  C   UNL A   1      36.524  31.411  30.026  1.00  0.00     0.060 A 
ATOM     37  C   UNL A   1      36.567  30.242  30.801  1.00  0.00     0.016 A 
ATOM     38  C   UNL A   1      37.677  31.901  29.404  1.00  0.00     0.016 A 
ATOM     39  C   UNL A   1      37.784  29.599  31.017  1.00  0.00     0.010 A 
ATOM     40  C   UNL A   1      38.895  31.268  29.630  1.00  0.00     0.010 A 
ATOM     41  C   UNL A   1      38.957  30.154  30.486  1.00  0.00    -0.014 A 
BRANCH  41  42
ATOM     42  C   UNL A   1      40.264  29.830  31.097  1.00  0.00     0.031 A 
ATOM     43  C   UNL A   1      41.012  28.672  30.490  1.00  0.00     0.074 A 
ATOM     44  C   UNL A   1      40.735  30.485  32.170  1.00  0.00     0.049 A 
ATOM     45  N   UNL A   1      42.116  28.099  30.881  1.00  0.00    -0.248 NA
ATOM     46  C   UNL A   1      40.418  28.072  29.279  1.00  0.00     0.031 C 
ATOM     47  C   UNL A   1      40.100  31.633  32.817  1.00  0.00     0.029 A 
ATOM     48  N   UNL A   1      41.861  30.256  32.920  1.00  0.00    -0.354 N 
ATOM     49  C   UNL A   1      42.343  27.072  29.972  1.00  0.00     0.074 A 
ATOM     50  C   UNL A   1      41.255  27.080  29.025  1.00  0.00     0.031 C 
ATOM     51  C   UNL A   1      40.839  31.996  33.881  1.00  0.00     0.029 A 
ATOM     52  C   UNL A   1      41.977  31.086  34.008  1.00  0.00     0.049 A 
ATOM     53  H   UNL A   1      42.522  29.561  32.699  1.00  0.00     0.167 HD
ATOM     54  C   UNL A   1      43.368  26.191  29.931  1.00  0.00     0.031 A 
ATOM     55  C   UNL A   1      42.888  31.086  35.001  1.00  0.00     0.031 A 
ATOM     56  C   UNL A   1      44.418  26.162  30.907  1.00  0.00     0.049 A 
ATOM     57  C   UNL A   1      43.990  30.056  34.973  1.00  0.00     0.074 A 
ATOM     58  C   UNL A   1      45.505  25.312  30.978  1.00  0.00     0.029 A 
ATOM     59  N   UNL A   1      44.500  27.021  31.993  1.00  0.00    -0.354 N 
ATOM     60  N   UNL A   1      44.210  29.106  34.091  1.00  0.00    -0.248 NA
ATOM     61  C   UNL A   1      44.968  30.097  36.068  1.00  0.00     0.031 C 
ATOM     62  C   UNL A   1      46.220  25.628  32.138  1.00  0.00     0.029 A 
ATOM     63  C   UNL A   1      45.610  26.712  32.754  1.00  0.00     0.049 A 
ATOM     64  H   UNL A   1      43.861  27.743  32.191  1.00  0.00     0.167 HD
ATOM     65  C   UNL A   1      45.368  28.459  34.509  1.00  0.00     0.074 A 
ATOM     66  C   UNL A   1      45.806  29.129  35.718  1.00  0.00     0.031 C 
ATOM     67  C   UNL A   1      46.017  27.408  33.948  1.00  0.00     0.031 A 
BRANCH  54  68
ATOM     68  C   UNL A   1      43.358  25.177  28.821  1.00  0.00    -0.014 A 
ATOM     69  C   UNL A   1      43.924  25.467  27.566  1.00  0.00     0.010 A 
ATOM     70  C   UNL A   1      42.764  23.919  29.030  1.00  0.00     0.010 A 
ATOM     71  C   UNL A   1      43.864  24.533  26.529  1.00  0.00     0.020 A 
ATOM     72  C   UNL A   1      42.724  22.972  28.003  1.00  0.00     0.020 A 
ATOM     73  C   UNL A   1      43.261  23.292  26.754  1.00  0.00     0.054 A 
BRANCH  73  74
ATOM     74  S   UNL A   1      43.213  22.089  25.396  1.00  0.00     0.124 S 
ATOM     75  O   UNL A   1      41.831  21.624  25.454  1.00  0.00    -0.237 OA
ATOM     76  O   UNL A   1      43.553  22.906  24.233  1.00  0.00    -0.237 OA
ATOM     77  O   UNL A   1      44.220  21.101  25.774  1.00  0.00    -0.744 OA
ENDBRANCH  73  74
ENDBRANCH  54  68
BRANCH  55  78
ATOM     78  C   UNL A   1      42.795  32.081  36.107  1.00  0.00    -0.014 A 
ATOM     79  C   UNL A   1      42.077  31.785  37.278  1.00  0.00     0.010 A 
ATOM     80  C   UNL A   1      43.433  33.331  35.996  1.00  0.00     0.010 A 
ATOM     81  C   UNL A   1      41.988  32.722  38.313  1.00  0.00     0.020 A 
ATOM     82  C   UNL A   1      43.368  34.261  37.040  1.00  0.00     0.020 A 
ATOM     83  C   UNL A   1      42.638  33.953  38.190  1.00  0.00     0.054 A 
BRANCH  83  84
ATOM     84  S   UNL A   1      42.565  35.127  39.572  1.00  0.00     0.124 S 
ATOM     85  O   UNL A   1      43.438  36.200  39.108  1.00  0.00    -0.237 OA
ATOM     86  O   UNL A   1      41.141  35.450  39.635  1.00  0.00    -0.237 OA
ATOM     87  O   UNL A   1      43.069  34.352  40.705  1.00  0.00    -0.744 OA
ENDBRANCH  83  84
ENDBRANCH  55  78
BRANCH  67  88
ATOM     88  C   UNL A   1      47.288  26.947  34.604  1.00  0.00    -0.014 A 
ATOM     89  C   UNL A   1      47.269  26.032  35.670  1.00  0.00     0.010 A 
ATOM     90  C   UNL A   1      48.523  27.379  34.086  1.00  0.00     0.010 A 
ATOM     91  C   UNL A   1      48.467  25.575  36.224  1.00  0.00     0.020 A 
ATOM     92  C   UNL A   1      49.722  26.904  34.620  1.00  0.00     0.020 A 
ATOM     93  C   UNL A   1      49.687  26.014  35.695  1.00  0.00     0.054 A 
BRANCH  93  94
ATOM     94  S   UNL A   1      51.227  25.366  36.397  1.00  0.00     0.124 S 
ATOM     95  O   UNL A   1      52.122  25.396  35.243  1.00  0.00    -0.237 OA
ATOM     96  O   UNL A   1      51.529  26.330  37.452  1.00  0.00    -0.237 OA
ATOM     97  O   UNL A   1      50.859  24.032  36.867  1.00  0.00    -0.744 OA
ENDBRANCH  93  94
ENDBRANCH  67  88
ENDBRANCH  41  42
ENDBRANCH  34  36
ENDBRANCH  33  34
ENDBRANCH  32  33
ENDBRANCH  31  32
ENDBRANCH  30  31
ENDBRANCH  29  30
ENDBRANCH  28  29
ENDBRANCH   1  28
TORSDOF 26
ENDMDL
