MODEL 1
REMARK VINA RESULT:      -8.6      0.000      0.000
REMARK SMILES CC(C)CCN(C(=O)N[C@H](C(=O)OCCOCCOCCOCCOC(=O)c1ccc(-c2c3nc(c(-c4ccc(S(=O)(=O)[O-])cc4)c4ccc([nH]4)c(-c4ccc(S(=O)(=O)[O-])cc4)c4nc(c(-c5ccc(S(=O)(=O)[O-])cc5)c5ccc2[nH]5)C=C4)C=C3)cc1)[C@H](C)O)C1CCCC1
REMARK SMILES IDX 18 1 17 2 16 3 15 4 14 5 13 6 11 7 12 8 10 9 9 10 7 11 8 12
REMARK SMILES IDX 6 14 5 15 4 16 2 17 1 18 3 19 91 20 92 21 95 22 93 23 94 24
REMARK SMILES IDX 88 25 89 26 90 27 19 29 20 30 21 31 22 32 23 33 24 34 25 35
REMARK SMILES IDX 26 36 27 37 28 38 29 39 87 40 30 41 86 42 31 43 32 44 33 45
REMARK SMILES IDX 80 46 34 47 85 48 79 49 81 50 35 51 84 52 78 53 77 54 36 56
REMARK SMILES IDX 66 57 47 58 65 59 48 60 51 61 64 62 82 63 49 64 50 65 63 67
REMARK SMILES IDX 83 68 52 69 37 70 38 71 46 72 39 73 45 74 40 75 41 76 42 77
REMARK SMILES IDX 43 78 44 79 67 80 68 81 76 82 69 83 75 84 70 85 71 86 72 87
REMARK SMILES IDX 73 88 74 89 53 90 54 91 62 92 55 93 61 94 56 95 57 96 58 97
REMARK SMILES IDX 59 98 60 99
REMARK H PARENT 9 13 90 28 81 55 51 66
REMARK Flexibility Score: inf
ROOT
ATOM      1  C   UNL A   1      33.433  30.711  27.440  1.00  0.00     0.188 C 
ENDROOT
BRANCH   1   2
ATOM      2  C   UNL A   1      32.192  30.418  26.569  1.00  0.00     0.188 C 
BRANCH   2   3
ATOM      3  O   UNL A   1      32.344  29.831  25.290  1.00  0.00    -0.376 OA
BRANCH   3   4
ATOM      4  C   UNL A   1      31.279  29.382  24.474  1.00  0.00     0.202 C 
BRANCH   4   5
ATOM      5  C   UNL A   1      31.399  28.832  23.052  1.00  0.00     0.261 C 
BRANCH   5   6
ATOM      6  O   UNL A   1      31.480  27.424  22.898  1.00  0.00    -0.462 OA
BRANCH   6   7
ATOM      7  C   UNL A   1      30.705  26.679  23.726  1.00  0.00     0.331 C 
ATOM      8  O   UNL A   1      29.482  26.729  23.753  1.00  0.00    -0.250 OA
BRANCH   7   9
ATOM      9  C   UNL A   1      31.587  25.734  24.568  1.00  0.00     0.222 C 
BRANCH   9  10
ATOM     10  N   UNL A   1      32.962  25.515  24.060  1.00  0.00    -0.322 N 
ATOM     11  C   UNL A   1      33.853  24.507  23.923  1.00  0.00     0.318 C 
ATOM     12  O   UNL A   1      34.779  24.798  23.163  1.00  0.00    -0.249 OA
ATOM     13  H   UNL A   1      33.340  26.358  23.721  1.00  0.00     0.166 HD
BRANCH  11  14
ATOM     14  N   UNL A   1      33.759  23.302  24.587  1.00  0.00    -0.322 N 
BRANCH  14  15
ATOM     15  C   UNL A   1      34.384  23.049  25.877  1.00  0.00     0.122 C 
BRANCH  15  16
ATOM     16  C   UNL A   1      35.549  22.090  26.069  1.00  0.00     0.024 C 
BRANCH  16  17
ATOM     17  C   UNL A   1      36.896  22.482  25.450  1.00  0.00    -0.016 C 
ATOM     18  C   UNL A   1      36.960  22.260  23.936  1.00  0.00     0.007 C 
ATOM     19  C   UNL A   1      37.139  23.958  25.769  1.00  0.00     0.007 C 
ENDBRANCH  16  17
ENDBRANCH  15  16
ENDBRANCH  14  15
BRANCH  14  20
ATOM     20  C   UNL A   1      33.305  22.090  23.883  1.00  0.00     0.087 C 
ATOM     21  C   UNL A   1      32.464  21.142  24.734  1.00  0.00     0.025 C 
ATOM     22  C   UNL A   1      32.454  22.150  22.603  1.00  0.00     0.025 C 
ATOM     23  C   UNL A   1      32.185  20.011  23.754  1.00  0.00     0.002 C 
ATOM     24  C   UNL A   1      31.975  20.704  22.407  1.00  0.00     0.002 C 
ENDBRANCH  14  20
ENDBRANCH  11  14
ENDBRANCH   9  10
BRANCH   9  25
ATOM     25  C   UNL A   1      31.446  26.028  26.081  1.00  0.00     0.145 C 
ATOM     26  C   UNL A   1      32.636  26.729  26.719  1.00  0.00     0.041 C 
BRANCH  25  27
ATOM     27  O   UNL A   1      31.265  24.787  26.794  1.00  0.00    -0.391 OA
ATOM     28  H   UNL A   1      32.127  24.456  27.091  1.00  0.00     0.211 HD
ENDBRANCH  25  27
ENDBRANCH   9  25
ENDBRANCH   7   9
ENDBRANCH   6   7
ENDBRANCH   5   6
ENDBRANCH   4   5
ENDBRANCH   3   4
ENDBRANCH   2   3
ENDBRANCH   1   2
BRANCH   1  29
ATOM     29  O   UNL A   1      33.896  32.043  27.427  1.00  0.00    -0.377 OA
BRANCH  29  30
ATOM     30  C   UNL A   1      32.967  33.101  27.620  1.00  0.00     0.188 C 
BRANCH  30  31
ATOM     31  C   UNL A   1      33.369  34.416  28.329  1.00  0.00     0.188 C 
BRANCH  31  32
ATOM     32  O   UNL A   1      32.770  34.624  29.596  1.00  0.00    -0.376 OA
BRANCH  32  33
ATOM     33  C   UNL A   1      33.187  35.702  30.410  1.00  0.00     0.202 C 
BRANCH  33  34
ATOM     34  C   UNL A   1      33.734  35.373  31.807  1.00  0.00     0.261 C 
BRANCH  34  35
ATOM     35  O   UNL A   1      34.893  34.532  31.843  1.00  0.00    -0.460 OA
BRANCH  35  36
ATOM     36  C   UNL A   1      34.669  33.219  32.051  1.00  0.00     0.338 C 
ATOM     37  O   UNL A   1      33.648  32.710  32.489  1.00  0.00    -0.246 OA
BRANCH  36  38
ATOM     38  C   UNL A   1      35.797  32.467  31.474  1.00  0.00     0.060 A 
ATOM     39  C   UNL A   1      36.543  31.624  32.308  1.00  0.00     0.016 A 
ATOM     40  C   UNL A   1      36.124  32.607  30.123  1.00  0.00     0.016 A 
ATOM     41  C   UNL A   1      37.668  30.975  31.810  1.00  0.00     0.010 A 
ATOM     42  C   UNL A   1      37.269  31.978  29.631  1.00  0.00     0.010 A 
ATOM     43  C   UNL A   1      38.074  31.211  30.491  1.00  0.00    -0.014 A 
BRANCH  43  44
ATOM     44  C   UNL A   1      39.479  30.920  30.122  1.00  0.00     0.031 A 
ATOM     45  C   UNL A   1      40.493  32.015  30.343  1.00  0.00     0.074 A 
ATOM     46  C   UNL A   1      39.862  29.710  29.680  1.00  0.00     0.049 A 
ATOM     47  N   UNL A   1      41.776  32.024  30.094  1.00  0.00    -0.248 NA
ATOM     48  C   UNL A   1      39.987  33.270  30.929  1.00  0.00     0.031 C 
ATOM     49  C   UNL A   1      38.986  28.554  29.497  1.00  0.00     0.029 A 
ATOM     50  N   UNL A   1      41.103  29.255  29.313  1.00  0.00    -0.354 N 
ATOM     51  C   UNL A   1      42.227  33.276  30.496  1.00  0.00     0.074 A 
ATOM     52  C   UNL A   1      41.078  34.019  30.958  1.00  0.00     0.031 C 
ATOM     53  C   UNL A   1      39.721  27.520  29.047  1.00  0.00     0.029 A 
ATOM     54  C   UNL A   1      41.107  27.951  28.881  1.00  0.00     0.049 A 
ATOM     55  H   UNL A   1      41.915  29.811  29.355  1.00  0.00     0.167 HD
ATOM     56  C   UNL A   1      43.489  33.762  30.497  1.00  0.00     0.031 A 
ATOM     57  C   UNL A   1      42.118  27.202  28.394  1.00  0.00     0.031 A 
ATOM     58  C   UNL A   1      44.629  33.028  30.019  1.00  0.00     0.049 A 
ATOM     59  C   UNL A   1      43.499  27.808  28.304  1.00  0.00     0.074 A 
ATOM     60  C   UNL A   1      45.947  33.437  29.944  1.00  0.00     0.029 A 
ATOM     61  N   UNL A   1      44.583  31.728  29.540  1.00  0.00    -0.354 N 
ATOM     62  N   UNL A   1      43.909  28.999  28.674  1.00  0.00    -0.248 NA
ATOM     63  C   UNL A   1      44.558  26.955  27.746  1.00  0.00     0.031 C 
ATOM     64  C   UNL A   1      46.692  32.401  29.372  1.00  0.00     0.029 A 
ATOM     65  C   UNL A   1      45.850  31.320  29.161  1.00  0.00     0.049 A 
ATOM     66  H   UNL A   1      43.769  31.176  29.477  1.00  0.00     0.167 HD
ATOM     67  C   UNL A   1      45.284  29.015  28.443  1.00  0.00     0.074 A 
ATOM     68  C   UNL A   1      45.631  27.714  27.914  1.00  0.00     0.031 C 
ATOM     69  C   UNL A   1      46.180  30.013  28.656  1.00  0.00     0.031 A 
BRANCH  56  70
ATOM     70  C   UNL A   1      43.697  35.160  31.017  1.00  0.00    -0.014 A 
ATOM     71  C   UNL A   1      43.721  36.262  30.142  1.00  0.00     0.010 A 
ATOM     72  C   UNL A   1      43.833  35.380  32.399  1.00  0.00     0.010 A 
ATOM     73  C   UNL A   1      43.898  37.556  30.638  1.00  0.00     0.020 A 
ATOM     74  C   UNL A   1      43.979  36.676  32.902  1.00  0.00     0.020 A 
ATOM     75  C   UNL A   1      44.021  37.755  32.017  1.00  0.00     0.054 A 
BRANCH  75  76
ATOM     76  S   UNL A   1      44.200  39.451  32.634  1.00  0.00     0.124 S 
ATOM     77  O   UNL A   1      45.550  39.793  32.194  1.00  0.00    -0.237 OA
ATOM     78  O   UNL A   1      43.118  40.153  31.951  1.00  0.00    -0.237 OA
ATOM     79  O   UNL A   1      44.034  39.313  34.079  1.00  0.00    -0.744 OA
ENDBRANCH  75  76
ENDBRANCH  56  70
BRANCH  57  80
ATOM     80  C   UNL A   1      41.878  25.804  27.935  1.00  0.00    -0.014 A 
ATOM     81  C   UNL A   1      41.980  24.724  28.830  1.00  0.00     0.010 A 
ATOM     82  C   UNL A   1      41.610  25.540  26.579  1.00  0.00     0.010 A 
ATOM     83  C   UNL A   1      41.872  23.408  28.372  1.00  0.00     0.020 A 
ATOM     84  C   UNL A   1      41.465  24.226  26.122  1.00  0.00     0.020 A 
ATOM     85  C   UNL A   1      41.619  23.167  27.018  1.00  0.00     0.054 A 
BRANCH  85  86
ATOM     86  S   UNL A   1      41.485  21.452  26.445  1.00  0.00     0.124 S 
ATOM     87  O   UNL A   1      41.905  20.703  27.624  1.00  0.00    -0.237 OA
ATOM     88  O   UNL A   1      40.071  21.345  26.096  1.00  0.00    -0.237 OA
ATOM     89  O   UNL A   1      42.404  21.398  25.310  1.00  0.00    -0.744 OA
ENDBRANCH  85  86
ENDBRANCH  57  80
BRANCH  69  90
ATOM     90  C   UNL A   1      47.634  29.705  28.404  1.00  0.00    -0.014 A 
ATOM     91  C   UNL A   1      48.455  29.130  29.390  1.00  0.00     0.010 A 
ATOM     92  C   UNL A   1      48.179  29.980  27.136  1.00  0.00     0.010 A 
ATOM     93  C   UNL A   1      49.809  28.893  29.131  1.00  0.00     0.020 A 
ATOM     94  C   UNL A   1      49.521  29.709  26.860  1.00  0.00     0.020 A 
ATOM     95  C   UNL A   1      50.334  29.190  27.869  1.00  0.00     0.054 A 
BRANCH  95  96
ATOM     96  S   UNL A   1      52.090  28.871  27.556  1.00  0.00     0.124 S 
ATOM     97  O   UNL A   1      52.046  28.143  26.290  1.00  0.00    -0.237 OA
ATOM     98  O   UNL A   1      52.653  30.217  27.487  1.00  0.00    -0.237 OA
ATOM     99  O   UNL A   1      52.513  28.084  28.712  1.00  0.00    -0.744 OA
ENDBRANCH  95  96
ENDBRANCH  69  90
ENDBRANCH  43  44
ENDBRANCH  36  38
ENDBRANCH  35  36
ENDBRANCH  34  35
ENDBRANCH  33  34
ENDBRANCH  32  33
ENDBRANCH  31  32
ENDBRANCH  30  31
ENDBRANCH  29  30
ENDBRANCH   1  29
TORSDOF 31
ENDMDL
MODEL 2
REMARK VINA RESULT:      -7.3      1.859      3.172
REMARK SMILES CC(C)CCN(C(=O)N[C@H](C(=O)OCCOCCOCCOCCOC(=O)c1ccc(-c2c3nc(c(-c4ccc(S(=O)(=O)[O-])cc4)c4ccc([nH]4)c(-c4ccc(S(=O)(=O)[O-])cc4)c4nc(c(-c5ccc(S(=O)(=O)[O-])cc5)c5ccc2[nH]5)C=C4)C=C3)cc1)[C@H](C)O)C1CCCC1
REMARK SMILES IDX 18 1 17 2 16 3 15 4 14 5 13 6 11 7 12 8 10 9 9 10 7 11 8 12
REMARK SMILES IDX 6 14 5 15 4 16 2 17 1 18 3 19 91 20 92 21 95 22 93 23 94 24
REMARK SMILES IDX 88 25 89 26 90 27 19 29 20 30 21 31 22 32 23 33 24 34 25 35
REMARK SMILES IDX 26 36 27 37 28 38 29 39 87 40 30 41 86 42 31 43 32 44 33 45
REMARK SMILES IDX 80 46 34 47 85 48 79 49 81 50 35 51 84 52 78 53 77 54 36 56
REMARK SMILES IDX 66 57 47 58 65 59 48 60 51 61 64 62 82 63 49 64 50 65 63 67
REMARK SMILES IDX 83 68 52 69 37 70 38 71 46 72 39 73 45 74 40 75 41 76 42 77
REMARK SMILES IDX 43 78 44 79 67 80 68 81 76 82 69 83 75 84 70 85 71 86 72 87
REMARK SMILES IDX 73 88 74 89 53 90 54 91 62 92 55 93 61 94 56 95 57 96 58 97
REMARK SMILES IDX 59 98 60 99
REMARK H PARENT 9 13 90 28 81 55 51 66
REMARK Flexibility Score: inf
ROOT
ATOM      1  C   UNL A   1      34.269  29.428  27.590  1.00  0.00     0.188 C 
ENDROOT
BRANCH   1   2
ATOM      2  C   UNL A   1      33.375  28.495  26.743  1.00  0.00     0.188 C 
BRANCH   2   3
ATOM      3  O   UNL A   1      33.949  27.687  25.733  1.00  0.00    -0.376 OA
BRANCH   3   4
ATOM      4  C   UNL A   1      33.648  26.320  25.522  1.00  0.00     0.202 C 
BRANCH   4   5
ATOM      5  C   UNL A   1      34.149  25.451  24.368  1.00  0.00     0.261 C 
BRANCH   5   6
ATOM      6  O   UNL A   1      35.421  24.839  24.512  1.00  0.00    -0.462 OA
BRANCH   6   7
ATOM      7  C   UNL A   1      35.518  23.546  24.115  1.00  0.00     0.331 C 
ATOM      8  O   UNL A   1      35.245  23.149  22.989  1.00  0.00    -0.250 OA
BRANCH   7   9
ATOM      9  C   UNL A   1      36.072  22.679  25.265  1.00  0.00     0.222 C 
BRANCH   9  10
ATOM     10  N   UNL A   1      36.064  21.216  25.028  1.00  0.00    -0.322 N 
ATOM     11  C   UNL A   1      35.174  20.217  24.827  1.00  0.00     0.318 C 
ATOM     12  O   UNL A   1      35.706  19.194  24.390  1.00  0.00    -0.249 OA
ATOM     13  H   UNL A   1      36.984  20.866  25.013  1.00  0.00     0.166 HD
BRANCH  11  14
ATOM     14  N   UNL A   1      33.829  20.317  25.114  1.00  0.00    -0.322 N 
BRANCH  14  15
ATOM     15  C   UNL A   1      32.984  19.165  25.396  1.00  0.00     0.122 C 
BRANCH  15  16
ATOM     16  C   UNL A   1      32.434  18.247  24.317  1.00  0.00     0.024 C 
BRANCH  16  17
ATOM     17  C   UNL A   1      32.874  16.778  24.346  1.00  0.00    -0.016 C 
ATOM     18  C   UNL A   1      34.013  16.462  23.373  1.00  0.00     0.007 C 
ATOM     19  C   UNL A   1      33.310  16.455  25.776  1.00  0.00     0.007 C 
ENDBRANCH  16  17
ENDBRANCH  15  16
ENDBRANCH  14  15
BRANCH  14  20
ATOM     20  C   UNL A   1      33.089  21.557  24.823  1.00  0.00     0.087 C 
ATOM     21  C   UNL A   1      32.333  21.547  23.497  1.00  0.00     0.025 C 
ATOM     22  C   UNL A   1      32.002  22.108  25.763  1.00  0.00     0.025 C 
ATOM     23  C   UNL A   1      31.714  22.937  23.482  1.00  0.00     0.002 C 
ATOM     24  C   UNL A   1      31.315  23.203  24.934  1.00  0.00     0.002 C 
ENDBRANCH  14  20
ENDBRANCH  11  14
ENDBRANCH   9  10
BRANCH   9  25
ATOM     25  C   UNL A   1      37.373  23.279  25.850  1.00  0.00     0.145 C 
ATOM     26  C   UNL A   1      38.497  22.282  26.088  1.00  0.00     0.041 C 
BRANCH  25  27
ATOM     27  O   UNL A   1      37.086  23.891  27.124  1.00  0.00    -0.391 OA
ATOM     28  H   UNL A   1      36.754  24.792  26.983  1.00  0.00     0.211 HD
ENDBRANCH  25  27
ENDBRANCH   9  25
ENDBRANCH   7   9
ENDBRANCH   6   7
ENDBRANCH   5   6
ENDBRANCH   4   5
ENDBRANCH   3   4
ENDBRANCH   2   3
ENDBRANCH   1   2
BRANCH   1  29
ATOM     29  O   UNL A   1      34.369  30.762  27.142  1.00  0.00    -0.377 OA
BRANCH  29  30
ATOM     30  C   UNL A   1      33.297  31.660  27.398  1.00  0.00     0.188 C 
BRANCH  30  31
ATOM     31  C   UNL A   1      33.550  33.130  27.808  1.00  0.00     0.188 C 
BRANCH  31  32
ATOM     32  O   UNL A   1      33.594  33.365  29.205  1.00  0.00    -0.376 OA
BRANCH  32  33
ATOM     33  C   UNL A   1      33.809  34.672  29.698  1.00  0.00     0.202 C 
BRANCH  33  34
ATOM     34  C   UNL A   1      34.183  34.825  31.180  1.00  0.00     0.261 C 
BRANCH  34  35
ATOM     35  O   UNL A   1      35.410  34.206  31.582  1.00  0.00    -0.460 OA
BRANCH  35  36
ATOM     36  C   UNL A   1      35.371  32.869  31.762  1.00  0.00     0.338 C 
ATOM     37  O   UNL A   1      34.417  32.208  32.141  1.00  0.00    -0.246 OA
BRANCH  36  38
ATOM     38  C   UNL A   1      36.624  32.302  31.232  1.00  0.00     0.060 A 
ATOM     39  C   UNL A   1      37.515  31.688  32.122  1.00  0.00     0.016 A 
ATOM     40  C   UNL A   1      36.921  32.390  29.870  1.00  0.00     0.016 A 
ATOM     41  C   UNL A   1      38.746  31.228  31.663  1.00  0.00     0.010 A 
ATOM     42  C   UNL A   1      38.166  31.954  29.415  1.00  0.00     0.010 A 
ATOM     43  C   UNL A   1      39.102  31.428  30.324  1.00  0.00    -0.014 A 
BRANCH  43  44
ATOM     44  C   UNL A   1      40.537  31.381  29.960  1.00  0.00     0.031 A 
ATOM     45  C   UNL A   1      41.383  32.574  30.331  1.00  0.00     0.074 A 
ATOM     46  C   UNL A   1      41.093  30.296  29.395  1.00  0.00     0.049 A 
ATOM     47  N   UNL A   1      42.654  32.791  30.118  1.00  0.00    -0.248 NA
ATOM     48  C   UNL A   1      40.699  33.670  31.042  1.00  0.00     0.031 C 
ATOM     49  C   UNL A   1      40.391  29.058  29.058  1.00  0.00     0.029 A 
ATOM     50  N   UNL A   1      42.388  30.065  29.010  1.00  0.00    -0.354 N 
ATOM     51  C   UNL A   1      42.919  34.039  30.670  1.00  0.00     0.074 A 
ATOM     52  C   UNL A   1      41.672  34.555  31.184  1.00  0.00     0.031 C 
ATOM     53  C   UNL A   1      41.269  28.196  28.513  1.00  0.00     0.029 A 
ATOM     54  C   UNL A   1      42.582  28.833  28.433  1.00  0.00     0.049 A 
ATOM     55  H   UNL A   1      43.113  30.720  29.136  1.00  0.00     0.167 HD
ATOM     56  C   UNL A   1      44.099  34.693  30.759  1.00  0.00     0.031 A 
ATOM     57  C   UNL A   1      43.693  28.295  27.890  1.00  0.00     0.031 A 
ATOM     58  C   UNL A   1      45.336  34.186  30.231  1.00  0.00     0.049 A 
ATOM     59  C   UNL A   1      44.975  29.094  27.906  1.00  0.00     0.074 A 
ATOM     60  C   UNL A   1      46.584  34.781  30.236  1.00  0.00     0.029 A 
ATOM     61  N   UNL A   1      45.480  32.957  29.606  1.00  0.00    -0.354 N 
ATOM     62  N   UNL A   1      45.209  30.280  28.419  1.00  0.00    -0.248 NA
ATOM     63  C   UNL A   1      46.150  28.469  27.282  1.00  0.00     0.031 C 
ATOM     64  C   UNL A   1      47.474  33.933  29.571  1.00  0.00     0.029 A 
ATOM     65  C   UNL A   1      46.795  32.777  29.217  1.00  0.00     0.049 A 
ATOM     66  H   UNL A   1      44.753  32.308  29.460  1.00  0.00     0.167 HD
ATOM     67  C   UNL A   1      46.569  30.515  28.227  1.00  0.00     0.074 A 
ATOM     68  C   UNL A   1      47.103  29.345  27.563  1.00  0.00     0.031 C 
ATOM     69  C   UNL A   1      47.312  31.596  28.575  1.00  0.00     0.031 A 
BRANCH  56  70
ATOM     70  C   UNL A   1      44.102  36.036  31.440  1.00  0.00    -0.014 A 
ATOM     71  C   UNL A   1      44.192  37.226  30.693  1.00  0.00     0.010 A 
ATOM     72  C   UNL A   1      43.974  36.113  32.838  1.00  0.00     0.010 A 
ATOM     73  C   UNL A   1      44.176  38.467  31.335  1.00  0.00     0.020 A 
ATOM     74  C   UNL A   1      43.928  37.354  33.481  1.00  0.00     0.020 A 
ATOM     75  C   UNL A   1      44.040  38.522  32.725  1.00  0.00     0.054 A 
BRANCH  75  76
ATOM     76  S   UNL A   1      43.973  40.149  33.525  1.00  0.00     0.124 S 
ATOM     77  O   UNL A   1      42.579  40.533  33.314  1.00  0.00    -0.237 OA
ATOM     78  O   UNL A   1      44.339  39.841  34.904  1.00  0.00    -0.237 OA
ATOM     79  O   UNL A   1      44.953  40.940  32.785  1.00  0.00    -0.744 OA
ENDBRANCH  75  76
ENDBRANCH  56  70
BRANCH  57  80
ATOM     80  C   UNL A   1      43.659  26.940  27.269  1.00  0.00    -0.014 A 
ATOM     81  C   UNL A   1      43.281  26.772  25.925  1.00  0.00     0.010 A 
ATOM     82  C   UNL A   1      43.943  25.799  28.043  1.00  0.00     0.010 A 
ATOM     83  C   UNL A   1      43.136  25.492  25.381  1.00  0.00     0.020 A 
ATOM     84  C   UNL A   1      43.835  24.518  27.493  1.00  0.00     0.020 A 
ATOM     85  C   UNL A   1      43.410  24.372  26.172  1.00  0.00     0.054 A 
BRANCH  85  86
ATOM     86  S   UNL A   1      43.213  22.721  25.447  1.00  0.00     0.124 S 
ATOM     87  O   UNL A   1      44.244  21.958  26.144  1.00  0.00    -0.237 OA
ATOM     88  O   UNL A   1      41.834  22.387  25.793  1.00  0.00    -0.237 OA
ATOM     89  O   UNL A   1      43.454  22.941  24.023  1.00  0.00    -0.744 OA
ENDBRANCH  85  86
ENDBRANCH  57  80
BRANCH  69  90
ATOM     90  C   UNL A   1      48.798  31.527  28.327  1.00  0.00    -0.014 A 
ATOM     91  C   UNL A   1      49.375  31.992  27.133  1.00  0.00     0.010 A 
ATOM     92  C   UNL A   1      49.634  31.003  29.332  1.00  0.00     0.010 A 
ATOM     93  C   UNL A   1      50.753  31.877  26.924  1.00  0.00     0.020 A 
ATOM     94  C   UNL A   1      51.015  30.923  29.143  1.00  0.00     0.020 A 
ATOM     95  C   UNL A   1      51.563  31.338  27.929  1.00  0.00     0.054 A 
BRANCH  95  96
ATOM     96  S   UNL A   1      53.347  31.203  27.636  1.00  0.00     0.124 S 
ATOM     97  O   UNL A   1      53.835  32.486  28.135  1.00  0.00    -0.237 OA
ATOM     98  O   UNL A   1      53.715  30.037  28.436  1.00  0.00    -0.237 OA
ATOM     99  O   UNL A   1      53.449  31.017  26.190  1.00  0.00    -0.744 OA
ENDBRANCH  95  96
ENDBRANCH  69  90
ENDBRANCH  43  44
ENDBRANCH  36  38
ENDBRANCH  35  36
ENDBRANCH  34  35
ENDBRANCH  33  34
ENDBRANCH  32  33
ENDBRANCH  31  32
ENDBRANCH  30  31
ENDBRANCH  29  30
ENDBRANCH   1  29
TORSDOF 31
ENDMDL
MODEL 3
REMARK VINA RESULT:      -7.2      3.260      4.218
REMARK SMILES CC(C)CCN(C(=O)N[C@H](C(=O)OCCOCCOCCOCCOC(=O)c1ccc(-c2c3nc(c(-c4ccc(S(=O)(=O)[O-])cc4)c4ccc([nH]4)c(-c4ccc(S(=O)(=O)[O-])cc4)c4nc(c(-c5ccc(S(=O)(=O)[O-])cc5)c5ccc2[nH]5)C=C4)C=C3)cc1)[C@H](C)O)C1CCCC1
REMARK SMILES IDX 18 1 17 2 16 3 15 4 14 5 13 6 11 7 12 8 10 9 9 10 7 11 8 12
REMARK SMILES IDX 6 14 5 15 4 16 2 17 1 18 3 19 91 20 92 21 95 22 93 23 94 24
REMARK SMILES IDX 88 25 89 26 90 27 19 29 20 30 21 31 22 32 23 33 24 34 25 35
REMARK SMILES IDX 26 36 27 37 28 38 29 39 87 40 30 41 86 42 31 43 32 44 33 45
REMARK SMILES IDX 80 46 34 47 85 48 79 49 81 50 35 51 84 52 78 53 77 54 36 56
REMARK SMILES IDX 66 57 47 58 65 59 48 60 51 61 64 62 82 63 49 64 50 65 63 67
REMARK SMILES IDX 83 68 52 69 37 70 38 71 46 72 39 73 45 74 40 75 41 76 42 77
REMARK SMILES IDX 43 78 44 79 67 80 68 81 76 82 69 83 75 84 70 85 71 86 72 87
REMARK SMILES IDX 73 88 74 89 53 90 54 91 62 92 55 93 61 94 56 95 57 96 58 97
REMARK SMILES IDX 59 98 60 99
REMARK H PARENT 9 13 90 28 81 55 51 66
REMARK Flexibility Score: inf
ROOT
ATOM      1  C   UNL A   1      34.851  29.659  27.774  1.00  0.00     0.188 C 
ENDROOT
BRANCH   1   2
ATOM      2  C   UNL A   1      33.837  28.702  27.108  1.00  0.00     0.188 C 
BRANCH   2   3
ATOM      3  O   UNL A   1      34.230  27.910  26.004  1.00  0.00    -0.376 OA
BRANCH   3   4
ATOM      4  C   UNL A   1      33.841  26.566  25.793  1.00  0.00     0.202 C 
BRANCH   4   5
ATOM      5  C   UNL A   1      32.409  26.029  25.783  1.00  0.00     0.261 C 
BRANCH   5   6
ATOM      6  O   UNL A   1      31.759  25.917  24.528  1.00  0.00    -0.462 OA
BRANCH   6   7
ATOM      7  C   UNL A   1      31.461  24.662  24.110  1.00  0.00     0.331 C 
ATOM      8  O   UNL A   1      30.593  23.958  24.611  1.00  0.00    -0.250 OA
BRANCH   7   9
ATOM      9  C   UNL A   1      32.330  24.289  22.891  1.00  0.00     0.222 C 
BRANCH   9  10
ATOM     10  N   UNL A   1      32.104  22.935  22.332  1.00  0.00    -0.322 N 
ATOM     11  C   UNL A   1      32.280  21.640  22.682  1.00  0.00     0.318 C 
ATOM     12  O   UNL A   1      31.653  20.867  21.956  1.00  0.00    -0.249 OA
ATOM     13  H   UNL A   1      31.706  22.997  21.433  1.00  0.00     0.166 HD
BRANCH  11  14
ATOM     14  N   UNL A   1      33.097  21.228  23.713  1.00  0.00    -0.322 N 
BRANCH  14  15
ATOM     15  C   UNL A   1      33.392  19.829  23.989  1.00  0.00     0.122 C 
BRANCH  15  16
ATOM     16  C   UNL A   1      32.412  18.699  23.721  1.00  0.00     0.024 C 
BRANCH  16  17
ATOM     17  C   UNL A   1      32.814  17.291  24.174  1.00  0.00    -0.016 C 
ATOM     18  C   UNL A   1      34.149  16.819  23.591  1.00  0.00     0.007 C 
ATOM     19  C   UNL A   1      32.892  17.302  25.702  1.00  0.00     0.007 C 
ENDBRANCH  16  17
ENDBRANCH  15  16
ENDBRANCH  14  15
BRANCH  14  20
ATOM     20  C   UNL A   1      33.455  22.151  24.805  1.00  0.00     0.087 C 
ATOM     21  C   UNL A   1      32.966  21.718  26.185  1.00  0.00     0.025 C 
ATOM     22  C   UNL A   1      34.913  22.522  25.126  1.00  0.00     0.025 C 
ATOM     23  C   UNL A   1      33.459  22.862  27.060  1.00  0.00     0.002 C 
ATOM     24  C   UNL A   1      34.824  23.236  26.483  1.00  0.00     0.002 C 
ENDBRANCH  14  20
ENDBRANCH  11  14
ENDBRANCH   9  10
BRANCH   9  25
ATOM     25  C   UNL A   1      32.410  25.454  21.876  1.00  0.00     0.145 C 
ATOM     26  C   UNL A   1      33.554  26.431  22.100  1.00  0.00     0.041 C 
BRANCH  25  27
ATOM     27  O   UNL A   1      31.191  26.222  21.935  1.00  0.00    -0.391 OA
ATOM     28  H   UNL A   1      30.442  25.662  21.680  1.00  0.00     0.211 HD
ENDBRANCH  25  27
ENDBRANCH   9  25
ENDBRANCH   7   9
ENDBRANCH   6   7
ENDBRANCH   5   6
ENDBRANCH   4   5
ENDBRANCH   3   4
ENDBRANCH   2   3
ENDBRANCH   1   2
BRANCH   1  29
ATOM     29  O   UNL A   1      34.834  30.993  27.317  1.00  0.00    -0.377 OA
BRANCH  29  30
ATOM     30  C   UNL A   1      33.795  31.861  27.751  1.00  0.00     0.188 C 
BRANCH  30  31
ATOM     31  C   UNL A   1      34.084  33.314  28.195  1.00  0.00     0.188 C 
BRANCH  31  32
ATOM     32  O   UNL A   1      34.085  33.527  29.596  1.00  0.00    -0.376 OA
BRANCH  32  33
ATOM     33  C   UNL A   1      33.941  34.834  30.116  1.00  0.00     0.202 C 
BRANCH  33  34
ATOM     34  C   UNL A   1      33.995  35.007  31.640  1.00  0.00     0.261 C 
BRANCH  34  35
ATOM     35  O   UNL A   1      35.122  34.417  32.297  1.00  0.00    -0.460 OA
BRANCH  35  36
ATOM     36  C   UNL A   1      35.032  33.098  32.566  1.00  0.00     0.338 C 
ATOM     37  O   UNL A   1      34.009  32.452  32.729  1.00  0.00    -0.246 OA
BRANCH  36  38
ATOM     38  C   UNL A   1      36.379  32.514  32.437  1.00  0.00     0.060 A 
ATOM     39  C   UNL A   1      37.383  32.932  33.319  1.00  0.00     0.016 A 
ATOM     40  C   UNL A   1      36.650  31.573  31.440  1.00  0.00     0.016 A 
ATOM     41  C   UNL A   1      38.684  32.466  33.160  1.00  0.00     0.010 A 
ATOM     42  C   UNL A   1      37.960  31.128  31.263  1.00  0.00     0.010 A 
ATOM     43  C   UNL A   1      38.988  31.621  32.086  1.00  0.00    -0.014 A 
BRANCH  43  44
ATOM     44  C   UNL A   1      40.399  31.518  31.645  1.00  0.00     0.031 A 
ATOM     45  C   UNL A   1      40.960  32.669  30.848  1.00  0.00     0.074 A 
ATOM     46  C   UNL A   1      41.181  30.485  32.001  1.00  0.00     0.049 A 
ATOM     47  N   UNL A   1      42.152  32.823  30.334  1.00  0.00    -0.248 NA
ATOM     48  C   UNL A   1      40.049  33.802  30.599  1.00  0.00     0.031 C 
ATOM     49  C   UNL A   1      40.771  29.352  32.830  1.00  0.00     0.029 A 
ATOM     50  N   UNL A   1      42.497  30.230  31.708  1.00  0.00    -0.354 N 
ATOM     51  C   UNL A   1      42.134  34.065  29.710  1.00  0.00     0.074 A 
ATOM     52  C   UNL A   1      40.803  34.604  29.864  1.00  0.00     0.031 C 
ATOM     53  C   UNL A   1      41.819  28.520  32.977  1.00  0.00     0.029 A 
ATOM     54  C   UNL A   1      42.958  29.045  32.227  1.00  0.00     0.049 A 
ATOM     55  H   UNL A   1      43.058  30.840  31.177  1.00  0.00     0.167 HD
ATOM     56  C   UNL A   1      43.140  34.711  29.078  1.00  0.00     0.031 A 
ATOM     57  C   UNL A   1      44.162  28.450  32.095  1.00  0.00     0.031 A 
ATOM     58  C   UNL A   1      44.459  34.165  28.910  1.00  0.00     0.049 A 
ATOM     59  C   UNL A   1      45.235  29.145  31.291  1.00  0.00     0.074 A 
ATOM     60  C   UNL A   1      45.545  34.720  28.258  1.00  0.00     0.029 A 
ATOM     61  N   UNL A   1      44.872  32.938  29.405  1.00  0.00    -0.354 N 
ATOM     62  N   UNL A   1      45.201  30.314  30.693  1.00  0.00    -0.248 NA
ATOM     63  C   UNL A   1      46.520  28.443  31.160  1.00  0.00     0.031 C 
ATOM     64  C   UNL A   1      46.601  33.806  28.316  1.00  0.00     0.029 A 
ATOM     65  C   UNL A   1      46.195  32.714  29.068  1.00  0.00     0.049 A 
ATOM     66  H   UNL A   1      44.307  32.316  29.920  1.00  0.00     0.167 HD
ATOM     67  C   UNL A   1      46.476  30.508  30.165  1.00  0.00     0.074 A 
ATOM     68  C   UNL A   1      47.256  29.343  30.524  1.00  0.00     0.031 C 
ATOM     69  C   UNL A   1      46.961  31.557  29.453  1.00  0.00     0.031 A 
BRANCH  56  70
ATOM     70  C   UNL A   1      42.845  36.073  28.509  1.00  0.00    -0.014 A 
ATOM     71  C   UNL A   1      43.164  37.242  29.226  1.00  0.00     0.010 A 
ATOM     72  C   UNL A   1      42.279  36.190  27.228  1.00  0.00     0.010 A 
ATOM     73  C   UNL A   1      42.900  38.501  28.680  1.00  0.00     0.020 A 
ATOM     74  C   UNL A   1      42.042  37.448  26.665  1.00  0.00     0.020 A 
ATOM     75  C   UNL A   1      42.345  38.595  27.401  1.00  0.00     0.054 A 
BRANCH  75  76
ATOM     76  S   UNL A   1      42.061  40.243  26.699  1.00  0.00     0.124 S 
ATOM     77  O   UNL A   1      43.396  40.609  26.234  1.00  0.00    -0.237 OA
ATOM     78  O   UNL A   1      41.080  39.977  25.651  1.00  0.00    -0.237 OA
ATOM     79  O   UNL A   1      41.563  41.021  27.831  1.00  0.00    -0.744 OA
ENDBRANCH  75  76
ENDBRANCH  56  70
BRANCH  57  80
ATOM     80  C   UNL A   1      44.429  27.122  32.716  1.00  0.00    -0.014 A 
ATOM     81  C   UNL A   1      44.172  25.932  32.012  1.00  0.00     0.010 A 
ATOM     82  C   UNL A   1      44.882  27.040  34.046  1.00  0.00     0.010 A 
ATOM     83  C   UNL A   1      44.312  24.690  32.639  1.00  0.00     0.020 A 
ATOM     84  C   UNL A   1      45.058  25.799  34.666  1.00  0.00     0.020 A 
ATOM     85  C   UNL A   1      44.749  24.632  33.965  1.00  0.00     0.054 A 
BRANCH  85  86
ATOM     86  S   UNL A   1      44.921  23.011  34.760  1.00  0.00     0.124 S 
ATOM     87  O   UNL A   1      44.818  23.354  36.175  1.00  0.00    -0.237 OA
ATOM     88  O   UNL A   1      43.794  22.266  34.205  1.00  0.00    -0.237 OA
ATOM     89  O   UNL A   1      46.237  22.553  34.322  1.00  0.00    -0.744 OA
ENDBRANCH  85  86
ENDBRANCH  57  80
BRANCH  69  90
ATOM     90  C   UNL A   1      48.426  31.536  29.096  1.00  0.00    -0.014 A 
ATOM     91  C   UNL A   1      48.895  30.931  27.916  1.00  0.00     0.010 A 
ATOM     92  C   UNL A   1      49.347  32.161  29.956  1.00  0.00     0.010 A 
ATOM     93  C   UNL A   1      50.265  30.899  27.637  1.00  0.00     0.020 A 
ATOM     94  C   UNL A   1      50.712  32.166  29.661  1.00  0.00     0.020 A 
ATOM     95  C   UNL A   1      51.165  31.512  28.514  1.00  0.00     0.054 A 
BRANCH  95  96
ATOM     96  S   UNL A   1      52.935  31.461  28.128  1.00  0.00     0.124 S 
ATOM     97  O   UNL A   1      53.406  32.724  28.690  1.00  0.00    -0.237 OA
ATOM     98  O   UNL A   1      53.380  30.258  28.827  1.00  0.00    -0.237 OA
ATOM     99  O   UNL A   1      52.971  31.376  26.670  1.00  0.00    -0.744 OA
ENDBRANCH  95  96
ENDBRANCH  69  90
ENDBRANCH  43  44
ENDBRANCH  36  38
ENDBRANCH  35  36
ENDBRANCH  34  35
ENDBRANCH  33  34
ENDBRANCH  32  33
ENDBRANCH  31  32
ENDBRANCH  30  31
ENDBRANCH  29  30
ENDBRANCH   1  29
TORSDOF 31
ENDMDL
