MODEL 1
REMARK VINA RESULT:      -9.8      0.000      0.000
REMARK SMILES Cc1ccc2n[nH]cc2c1C(=O)OCCOCCOCCOCCOC(=O)c1ccc(-c2c3nc(c(-c4ccc(S(=O)(=O)[O-])cc4)c4ccc([nH]4)c(-c4ccc(S(=O)(=O)[O-])cc4)c4nc(c(-c5ccc(S(=O)(=O)[O-])cc5)c5ccc2[nH]5)C=C4)C=C3)cc1
REMARK SMILES IDX 20 1 19 2 18 3 17 4 16 5 15 6 14 7 13 8 11 9 12 10 10 11
REMARK SMILES IDX 1 12 2 13 3 14 4 15 9 16 5 17 8 18 6 19 7 20 21 22 22 23
REMARK SMILES IDX 23 24 24 25 25 26 26 27 27 28 28 29 29 30 87 31 30 32 86 33
REMARK SMILES IDX 31 34 32 35 33 36 80 37 34 38 85 39 79 40 81 41 35 42 84 43
REMARK SMILES IDX 78 44 77 45 36 47 66 48 47 49 65 50 48 51 51 52 64 53 82 54
REMARK SMILES IDX 49 55 50 56 63 58 83 59 52 60 37 61 38 62 46 63 39 64 45 65
REMARK SMILES IDX 40 66 41 67 42 68 43 69 44 70 67 71 68 72 76 73 69 74 75 75
REMARK SMILES IDX 70 76 71 77 72 78 73 79 74 80 53 81 54 82 62 83 55 84 61 85
REMARK SMILES IDX 56 86 57 87 58 88 59 89 60 90
REMARK H PARENT 7 21 81 46 51 57
REMARK Flexibility Score: inf
ROOT
ATOM      1  C   UNL A   1      42.372  19.270  27.283  1.00  0.00     0.188 C 
ENDROOT
BRANCH   1   2
ATOM      2  O   UNL A   1      41.845  20.556  27.537  1.00  0.00    -0.377 OA
BRANCH   2   3
ATOM      3  C   UNL A   1      40.529  20.771  27.071  1.00  0.00     0.188 C 
BRANCH   3   4
ATOM      4  C   UNL A   1      40.215  22.052  26.270  1.00  0.00     0.188 C 
BRANCH   4   5
ATOM      5  O   UNL A   1      38.939  22.617  26.498  1.00  0.00    -0.376 OA
BRANCH   5   6
ATOM      6  C   UNL A   1      37.752  22.103  25.922  1.00  0.00     0.202 C 
BRANCH   6   7
ATOM      7  C   UNL A   1      37.495  22.169  24.410  1.00  0.00     0.261 C 
BRANCH   7   8
ATOM      8  O   UNL A   1      36.629  23.217  23.986  1.00  0.00    -0.460 OA
BRANCH   8   9
ATOM      9  C   UNL A   1      35.536  23.436  24.748  1.00  0.00     0.339 C 
ATOM     10  O   UNL A   1      35.446  24.267  25.641  1.00  0.00    -0.246 OA
BRANCH   9  11
ATOM     11  C   UNL A   1      34.394  22.733  24.120  1.00  0.00     0.074 A 
ATOM     12  C   UNL A   1      33.824  24.575  22.421  1.00  0.00     0.045 C 
ATOM     13  C   UNL A   1      33.582  23.216  23.044  1.00  0.00    -0.036 A 
ATOM     14  C   UNL A   1      32.410  22.508  22.591  1.00  0.00     0.006 A 
ATOM     15  C   UNL A   1      31.914  21.326  23.180  1.00  0.00     0.031 A 
ATOM     16  C   UNL A   1      33.846  21.579  24.708  1.00  0.00     0.034 A 
ATOM     17  C   UNL A   1      32.643  20.897  24.298  1.00  0.00     0.093 A 
ATOM     18  C   UNL A   1      34.261  20.952  25.855  1.00  0.00     0.114 A 
ATOM     19  N   UNL A   1      32.370  19.901  25.159  1.00  0.00    -0.176 NA
ATOM     20  N   UNL A   1      33.340  19.978  26.087  1.00  0.00    -0.284 N 
ATOM     21  H   UNL A   1      33.380  19.381  26.869  1.00  0.00     0.189 HD
ENDBRANCH   9  11
ENDBRANCH   8   9
ENDBRANCH   7   8
ENDBRANCH   6   7
ENDBRANCH   5   6
ENDBRANCH   4   5
ENDBRANCH   3   4
ENDBRANCH   2   3
ENDBRANCH   1   2
BRANCH   1  22
ATOM     22  C   UNL A   1      42.271  18.884  25.789  1.00  0.00     0.188 C 
BRANCH  22  23
ATOM     23  O   UNL A   1      43.403  18.322  25.139  1.00  0.00    -0.376 OA
BRANCH  23  24
ATOM     24  C   UNL A   1      44.674  18.501  25.748  1.00  0.00     0.202 C 
BRANCH  24  25
ATOM     25  C   UNL A   1      45.908  18.997  24.941  1.00  0.00     0.261 C 
BRANCH  25  26
ATOM     26  O   UNL A   1      46.154  20.417  24.922  1.00  0.00    -0.460 OA
BRANCH  26  27
ATOM     27  C   UNL A   1      45.249  21.242  24.328  1.00  0.00     0.338 C 
ATOM     28  O   UNL A   1      44.503  20.956  23.409  1.00  0.00    -0.246 OA
BRANCH  27  29
ATOM     29  C   UNL A   1      45.073  22.435  25.220  1.00  0.00     0.060 A 
ATOM     30  C   UNL A   1      44.693  22.316  26.559  1.00  0.00     0.016 A 
ATOM     31  C   UNL A   1      44.958  23.683  24.578  1.00  0.00     0.016 A 
ATOM     32  C   UNL A   1      44.068  23.403  27.191  1.00  0.00     0.010 A 
ATOM     33  C   UNL A   1      44.307  24.756  25.204  1.00  0.00     0.010 A 
ATOM     34  C   UNL A   1      43.823  24.617  26.506  1.00  0.00    -0.014 A 
BRANCH  34  35
ATOM     35  C   UNL A   1      43.391  25.789  27.304  1.00  0.00     0.031 A 
ATOM     36  C   UNL A   1      44.354  26.911  27.127  1.00  0.00     0.074 A 
ATOM     37  C   UNL A   1      42.249  26.042  27.991  1.00  0.00     0.049 A 
ATOM     38  N   UNL A   1      45.136  27.435  28.010  1.00  0.00    -0.248 NA
ATOM     39  C   UNL A   1      44.592  27.369  25.748  1.00  0.00     0.031 C 
ATOM     40  C   UNL A   1      41.021  25.252  28.026  1.00  0.00     0.029 A 
ATOM     41  N   UNL A   1      41.918  27.138  28.761  1.00  0.00    -0.354 N 
ATOM     42  C   UNL A   1      45.845  28.421  27.334  1.00  0.00     0.074 A 
ATOM     43  C   UNL A   1      45.604  28.213  25.930  1.00  0.00     0.031 C 
ATOM     44  C   UNL A   1      40.035  25.959  28.629  1.00  0.00     0.029 A 
ATOM     45  C   UNL A   1      40.562  27.232  29.090  1.00  0.00     0.049 A 
ATOM     46  H   UNL A   1      42.583  27.801  29.056  1.00  0.00     0.167 HD
ATOM     47  C   UNL A   1      46.412  29.475  27.979  1.00  0.00     0.031 A 
ATOM     48  C   UNL A   1      39.894  28.292  29.631  1.00  0.00     0.031 A 
ATOM     49  C   UNL A   1      46.540  29.238  29.390  1.00  0.00     0.049 A 
ATOM     50  C   UNL A   1      40.886  29.182  30.269  1.00  0.00     0.074 A 
ATOM     51  C   UNL A   1      47.199  28.300  30.160  1.00  0.00     0.029 A 
ATOM     52  N   UNL A   1      45.620  29.833  30.216  1.00  0.00    -0.354 N 
ATOM     53  N   UNL A   1      41.541  28.881  31.351  1.00  0.00    -0.248 NA
ATOM     54  C   UNL A   1      41.439  30.266  29.476  1.00  0.00     0.031 C 
ATOM     55  C   UNL A   1      46.335  28.057  31.264  1.00  0.00     0.029 A 
ATOM     56  C   UNL A   1      45.233  28.905  31.146  1.00  0.00     0.049 A 
ATOM     57  H   UNL A   1      45.296  30.761  30.150  1.00  0.00     0.167 HD
ATOM     58  C   UNL A   1      42.806  29.402  31.142  1.00  0.00     0.074 A 
ATOM     59  C   UNL A   1      42.656  30.324  30.017  1.00  0.00     0.031 C 
ATOM     60  C   UNL A   1      43.903  28.831  31.716  1.00  0.00     0.031 A 
BRANCH  47  61
ATOM     61  C   UNL A   1      46.518  30.847  27.367  1.00  0.00    -0.014 A 
ATOM     62  C   UNL A   1      45.435  31.749  27.300  1.00  0.00     0.010 A 
ATOM     63  C   UNL A   1      47.792  31.360  27.055  1.00  0.00     0.010 A 
ATOM     64  C   UNL A   1      45.595  33.079  26.913  1.00  0.00     0.020 A 
ATOM     65  C   UNL A   1      47.974  32.708  26.714  1.00  0.00     0.020 A 
ATOM     66  C   UNL A   1      46.868  33.553  26.632  1.00  0.00     0.054 A 
BRANCH  66  67
ATOM     67  S   UNL A   1      47.046  35.302  26.214  1.00  0.00     0.124 S 
ATOM     68  O   UNL A   1      47.406  35.881  27.505  1.00  0.00    -0.237 OA
ATOM     69  O   UNL A   1      48.110  35.277  25.215  1.00  0.00    -0.237 OA
ATOM     70  O   UNL A   1      45.725  35.668  25.711  1.00  0.00    -0.744 OA
ENDBRANCH  66  67
ENDBRANCH  47  61
BRANCH  48  71
ATOM     71  C   UNL A   1      38.517  28.792  29.330  1.00  0.00    -0.014 A 
ATOM     72  C   UNL A   1      38.202  29.216  28.027  1.00  0.00     0.010 A 
ATOM     73  C   UNL A   1      37.637  29.177  30.369  1.00  0.00     0.010 A 
ATOM     74  C   UNL A   1      37.127  30.077  27.778  1.00  0.00     0.020 A 
ATOM     75  C   UNL A   1      36.556  30.046  30.127  1.00  0.00     0.020 A 
ATOM     76  C   UNL A   1      36.341  30.530  28.836  1.00  0.00     0.054 A 
BRANCH  76  77
ATOM     77  S   UNL A   1      35.129  31.841  28.499  1.00  0.00     0.124 S 
ATOM     78  O   UNL A   1      34.065  31.102  27.824  1.00  0.00    -0.237 OA
ATOM     79  O   UNL A   1      34.802  32.322  29.840  1.00  0.00    -0.237 OA
ATOM     80  O   UNL A   1      35.861  32.788  27.663  1.00  0.00    -0.744 OA
ENDBRANCH  76  77
ENDBRANCH  48  71
BRANCH  60  81
ATOM     81  C   UNL A   1      43.718  27.855  32.860  1.00  0.00    -0.014 A 
ATOM     82  C   UNL A   1      43.875  28.370  34.160  1.00  0.00     0.010 A 
ATOM     83  C   UNL A   1      43.570  26.462  32.707  1.00  0.00     0.010 A 
ATOM     84  C   UNL A   1      43.927  27.527  35.269  1.00  0.00     0.020 A 
ATOM     85  C   UNL A   1      43.589  25.609  33.823  1.00  0.00     0.020 A 
ATOM     86  C   UNL A   1      43.796  26.150  35.095  1.00  0.00     0.054 A 
BRANCH  86  87
ATOM     87  S   UNL A   1      43.924  25.096  36.564  1.00  0.00     0.124 S 
ATOM     88  O   UNL A   1      43.838  23.755  35.987  1.00  0.00    -0.237 OA
ATOM     89  O   UNL A   1      45.232  25.458  37.108  1.00  0.00    -0.237 OA
ATOM     90  O   UNL A   1      42.784  25.492  37.384  1.00  0.00    -0.744 OA
ENDBRANCH  86  87
ENDBRANCH  60  81
ENDBRANCH  34  35
ENDBRANCH  27  29
ENDBRANCH  26  27
ENDBRANCH  25  26
ENDBRANCH  24  25
ENDBRANCH  23  24
ENDBRANCH  22  23
ENDBRANCH   1  22
TORSDOF 23
ENDMDL
MODEL 2
REMARK VINA RESULT:      -9.8      2.896     10.302
REMARK SMILES Cc1ccc2n[nH]cc2c1C(=O)OCCOCCOCCOCCOC(=O)c1ccc(-c2c3nc(c(-c4ccc(S(=O)(=O)[O-])cc4)c4ccc([nH]4)c(-c4ccc(S(=O)(=O)[O-])cc4)c4nc(c(-c5ccc(S(=O)(=O)[O-])cc5)c5ccc2[nH]5)C=C4)C=C3)cc1
REMARK SMILES IDX 20 1 19 2 18 3 17 4 16 5 15 6 14 7 13 8 11 9 12 10 10 11
REMARK SMILES IDX 1 12 2 13 3 14 4 15 9 16 5 17 8 18 6 19 7 20 21 22 22 23
REMARK SMILES IDX 23 24 24 25 25 26 26 27 27 28 28 29 29 30 87 31 30 32 86 33
REMARK SMILES IDX 31 34 32 35 33 36 80 37 34 38 85 39 79 40 81 41 35 42 84 43
REMARK SMILES IDX 78 44 77 45 36 47 66 48 47 49 65 50 48 51 51 52 64 53 82 54
REMARK SMILES IDX 49 55 50 56 63 58 83 59 52 60 37 61 38 62 46 63 39 64 45 65
REMARK SMILES IDX 40 66 41 67 42 68 43 69 44 70 67 71 68 72 76 73 69 74 75 75
REMARK SMILES IDX 70 76 71 77 72 78 73 79 74 80 53 81 54 82 62 83 55 84 61 85
REMARK SMILES IDX 56 86 57 87 58 88 59 89 60 90
REMARK H PARENT 7 21 81 46 51 57
REMARK Flexibility Score: inf
ROOT
ATOM      1  C   UNL A   1      34.126  31.581  27.674  1.00  0.00     0.188 C 
ENDROOT
BRANCH   1   2
ATOM      2  O   UNL A   1      32.748  31.281  27.756  1.00  0.00    -0.377 OA
BRANCH   2   3
ATOM      3  C   UNL A   1      32.350  30.092  27.104  1.00  0.00     0.188 C 
BRANCH   3   4
ATOM      4  C   UNL A   1      32.409  30.024  25.563  1.00  0.00     0.188 C 
BRANCH   4   5
ATOM      5  O   UNL A   1      31.661  28.982  24.969  1.00  0.00    -0.376 OA
BRANCH   5   6
ATOM      6  C   UNL A   1      32.250  27.947  24.203  1.00  0.00     0.202 C 
BRANCH   6   7
ATOM      7  C   UNL A   1      33.675  27.447  24.484  1.00  0.00     0.261 C 
BRANCH   7   8
ATOM      8  O   UNL A   1      34.007  26.196  23.890  1.00  0.00    -0.460 OA
BRANCH   8   9
ATOM      9  C   UNL A   1      32.976  25.365  23.626  1.00  0.00     0.339 C 
ATOM     10  O   UNL A   1      32.354  25.314  22.574  1.00  0.00    -0.246 OA
BRANCH   9  11
ATOM     11  C   UNL A   1      32.936  24.335  24.690  1.00  0.00     0.074 A 
ATOM     12  C   UNL A   1      34.858  22.898  23.770  1.00  0.00     0.045 C 
ATOM     13  C   UNL A   1      33.785  23.188  24.799  1.00  0.00    -0.036 A 
ATOM     14  C   UNL A   1      33.577  22.174  25.804  1.00  0.00     0.006 A 
ATOM     15  C   UNL A   1      32.510  22.170  26.726  1.00  0.00     0.031 A 
ATOM     16  C   UNL A   1      31.861  24.276  25.595  1.00  0.00     0.034 A 
ATOM     17  C   UNL A   1      31.614  23.237  26.564  1.00  0.00     0.093 A 
ATOM     18  C   UNL A   1      30.773  25.109  25.652  1.00  0.00     0.114 A 
ATOM     19  N   UNL A   1      30.437  23.457  27.177  1.00  0.00    -0.176 NA
ATOM     20  N   UNL A   1      29.952  24.567  26.591  1.00  0.00    -0.284 N 
ATOM     21  H   UNL A   1      29.077  24.954  26.823  1.00  0.00     0.189 HD
ENDBRANCH   9  11
ENDBRANCH   8   9
ENDBRANCH   7   8
ENDBRANCH   6   7
ENDBRANCH   5   6
ENDBRANCH   4   5
ENDBRANCH   3   4
ENDBRANCH   2   3
ENDBRANCH   1   2
BRANCH   1  22
ATOM     22  C   UNL A   1      34.418  33.066  27.991  1.00  0.00     0.188 C 
BRANCH  22  23
ATOM     23  O   UNL A   1      33.341  33.930  28.324  1.00  0.00    -0.376 OA
BRANCH  23  24
ATOM     24  C   UNL A   1      33.651  35.167  28.948  1.00  0.00     0.202 C 
BRANCH  24  25
ATOM     25  C   UNL A   1      33.389  35.411  30.462  1.00  0.00     0.261 C 
BRANCH  25  26
ATOM     26  O   UNL A   1      34.475  35.137  31.369  1.00  0.00    -0.460 OA
BRANCH  26  27
ATOM     27  C   UNL A   1      34.509  33.946  32.028  1.00  0.00     0.338 C 
ATOM     28  O   UNL A   1      33.658  33.513  32.782  1.00  0.00    -0.246 OA
BRANCH  27  29
ATOM     29  C   UNL A   1      35.585  33.112  31.397  1.00  0.00     0.060 A 
ATOM     30  C   UNL A   1      35.474  31.726  31.267  1.00  0.00     0.016 A 
ATOM     31  C   UNL A   1      36.848  33.720  31.266  1.00  0.00     0.016 A 
ATOM     32  C   UNL A   1      36.642  30.955  31.154  1.00  0.00     0.010 A 
ATOM     33  C   UNL A   1      38.013  32.944  31.183  1.00  0.00     0.010 A 
ATOM     34  C   UNL A   1      37.926  31.551  31.162  1.00  0.00    -0.014 A 
BRANCH  34  35
ATOM     35  C   UNL A   1      39.086  30.704  30.792  1.00  0.00     0.031 A 
ATOM     36  C   UNL A   1      39.918  30.424  31.995  1.00  0.00     0.074 A 
ATOM     37  C   UNL A   1      39.399  30.052  29.646  1.00  0.00     0.049 A 
ATOM     38  N   UNL A   1      41.124  30.813  32.237  1.00  0.00    -0.248 NA
ATOM     39  C   UNL A   1      39.239  29.786  33.136  1.00  0.00     0.031 C 
ATOM     40  C   UNL A   1      38.579  29.885  28.448  1.00  0.00     0.029 A 
ATOM     41  N   UNL A   1      40.523  29.312  29.340  1.00  0.00    -0.354 N 
ATOM     42  C   UNL A   1      41.426  30.312  33.498  1.00  0.00     0.074 A 
ATOM     43  C   UNL A   1      40.186  29.854  34.068  1.00  0.00     0.031 C 
ATOM     44  C   UNL A   1      39.148  28.972  27.623  1.00  0.00     0.029 A 
ATOM     45  C   UNL A   1      40.410  28.527  28.189  1.00  0.00     0.049 A 
ATOM     46  H   UNL A   1      41.340  29.337  29.888  1.00  0.00     0.167 HD
ATOM     47  C   UNL A   1      42.706  30.109  33.908  1.00  0.00     0.031 A 
ATOM     48  C   UNL A   1      41.240  27.532  27.759  1.00  0.00     0.031 A 
ATOM     49  C   UNL A   1      43.652  30.823  33.095  1.00  0.00     0.049 A 
ATOM     50  C   UNL A   1      42.547  27.705  28.425  1.00  0.00     0.074 A 
ATOM     51  C   UNL A   1      43.865  32.154  32.797  1.00  0.00     0.029 A 
ATOM     52  N   UNL A   1      44.339  30.104  32.150  1.00  0.00    -0.354 N 
ATOM     53  N   UNL A   1      43.370  28.677  28.167  1.00  0.00    -0.248 NA
ATOM     54  C   UNL A   1      42.773  26.999  29.674  1.00  0.00     0.031 C 
ATOM     55  C   UNL A   1      44.277  32.166  31.435  1.00  0.00     0.029 A 
ATOM     56  C   UNL A   1      44.359  30.843  30.997  1.00  0.00     0.049 A 
ATOM     57  H   UNL A   1      44.745  29.216  32.278  1.00  0.00     0.167 HD
ATOM     58  C   UNL A   1      43.912  29.003  29.398  1.00  0.00     0.074 A 
ATOM     59  C   UNL A   1      43.581  27.878  30.270  1.00  0.00     0.031 C 
ATOM     60  C   UNL A   1      44.332  30.273  29.665  1.00  0.00     0.031 A 
BRANCH  47  61
ATOM     61  C   UNL A   1      43.102  28.983  34.826  1.00  0.00    -0.014 A 
ATOM     62  C   UNL A   1      43.404  27.683  34.368  1.00  0.00     0.010 A 
ATOM     63  C   UNL A   1      43.417  29.273  36.168  1.00  0.00     0.010 A 
ATOM     64  C   UNL A   1      43.957  26.710  35.200  1.00  0.00     0.020 A 
ATOM     65  C   UNL A   1      44.020  28.319  37.000  1.00  0.00     0.020 A 
ATOM     66  C   UNL A   1      44.271  27.039  36.510  1.00  0.00     0.054 A 
BRANCH  66  67
ATOM     67  S   UNL A   1      45.061  25.775  37.533  1.00  0.00     0.124 S 
ATOM     68  O   UNL A   1      46.079  25.253  36.626  1.00  0.00    -0.237 OA
ATOM     69  O   UNL A   1      45.561  26.555  38.661  1.00  0.00    -0.237 OA
ATOM     70  O   UNL A   1      43.969  24.856  37.844  1.00  0.00    -0.744 OA
ENDBRANCH  66  67
ENDBRANCH  47  61
BRANCH  48  71
ATOM     71  C   UNL A   1      40.895  26.234  27.103  1.00  0.00    -0.014 A 
ATOM     72  C   UNL A   1      39.736  25.543  27.499  1.00  0.00     0.010 A 
ATOM     73  C   UNL A   1      41.858  25.513  26.358  1.00  0.00     0.010 A 
ATOM     74  C   UNL A   1      39.587  24.170  27.267  1.00  0.00     0.020 A 
ATOM     75  C   UNL A   1      41.718  24.131  26.125  1.00  0.00     0.020 A 
ATOM     76  C   UNL A   1      40.602  23.461  26.627  1.00  0.00     0.054 A 
BRANCH  76  77
ATOM     77  S   UNL A   1      40.479  21.649  26.583  1.00  0.00     0.124 S 
ATOM     78  O   UNL A   1      39.173  21.450  25.961  1.00  0.00    -0.237 OA
ATOM     79  O   UNL A   1      41.627  21.273  25.760  1.00  0.00    -0.237 OA
ATOM     80  O   UNL A   1      40.570  21.257  27.987  1.00  0.00    -0.744 OA
ENDBRANCH  76  77
ENDBRANCH  48  71
BRANCH  60  81
ATOM     81  C   UNL A   1      44.543  31.240  28.518  1.00  0.00    -0.014 A 
ATOM     82  C   UNL A   1      45.825  31.260  27.938  1.00  0.00     0.010 A 
ATOM     83  C   UNL A   1      43.612  32.218  28.115  1.00  0.00     0.010 A 
ATOM     84  C   UNL A   1      46.187  32.245  27.019  1.00  0.00     0.020 A 
ATOM     85  C   UNL A   1      43.960  33.194  27.165  1.00  0.00     0.020 A 
ATOM     86  C   UNL A   1      45.257  33.215  26.646  1.00  0.00     0.054 A 
BRANCH  86  87
ATOM     87  S   UNL A   1      45.795  34.503  25.490  1.00  0.00     0.124 S 
ATOM     88  O   UNL A   1      45.433  35.726  26.205  1.00  0.00    -0.237 OA
ATOM     89  O   UNL A   1      47.231  34.251  25.372  1.00  0.00    -0.237 OA
ATOM     90  O   UNL A   1      45.021  34.238  24.281  1.00  0.00    -0.744 OA
ENDBRANCH  86  87
ENDBRANCH  60  81
ENDBRANCH  34  35
ENDBRANCH  27  29
ENDBRANCH  26  27
ENDBRANCH  25  26
ENDBRANCH  24  25
ENDBRANCH  23  24
ENDBRANCH  22  23
ENDBRANCH   1  22
TORSDOF 23
ENDMDL
MODEL 3
REMARK VINA RESULT:      -9.7      3.461      8.569
REMARK SMILES Cc1ccc2n[nH]cc2c1C(=O)OCCOCCOCCOCCOC(=O)c1ccc(-c2c3nc(c(-c4ccc(S(=O)(=O)[O-])cc4)c4ccc([nH]4)c(-c4ccc(S(=O)(=O)[O-])cc4)c4nc(c(-c5ccc(S(=O)(=O)[O-])cc5)c5ccc2[nH]5)C=C4)C=C3)cc1
REMARK SMILES IDX 20 1 19 2 18 3 17 4 16 5 15 6 14 7 13 8 11 9 12 10 10 11
REMARK SMILES IDX 1 12 2 13 3 14 4 15 9 16 5 17 8 18 6 19 7 20 21 22 22 23
REMARK SMILES IDX 23 24 24 25 25 26 26 27 27 28 28 29 29 30 87 31 30 32 86 33
REMARK SMILES IDX 31 34 32 35 33 36 80 37 34 38 85 39 79 40 81 41 35 42 84 43
REMARK SMILES IDX 78 44 77 45 36 47 66 48 47 49 65 50 48 51 51 52 64 53 82 54
REMARK SMILES IDX 49 55 50 56 63 58 83 59 52 60 37 61 38 62 46 63 39 64 45 65
REMARK SMILES IDX 40 66 41 67 42 68 43 69 44 70 67 71 68 72 76 73 69 74 75 75
REMARK SMILES IDX 70 76 71 77 72 78 73 79 74 80 53 81 54 82 62 83 55 84 61 85
REMARK SMILES IDX 56 86 57 87 58 88 59 89 60 90
REMARK H PARENT 7 21 81 46 51 57
REMARK Flexibility Score: inf
ROOT
ATOM      1  C   UNL A   1      31.986  21.407  25.143  1.00  0.00     0.188 C 
ENDROOT
BRANCH   1   2
ATOM      2  O   UNL A   1      31.742  22.423  24.192  1.00  0.00    -0.377 OA
BRANCH   2   3
ATOM      3  C   UNL A   1      30.866  23.448  24.616  1.00  0.00     0.188 C 
BRANCH   3   4
ATOM      4  C   UNL A   1      30.509  23.559  26.113  1.00  0.00     0.188 C 
BRANCH   4   5
ATOM      5  O   UNL A   1      30.995  24.712  26.772  1.00  0.00    -0.376 OA
BRANCH   5   6
ATOM      6  C   UNL A   1      30.547  26.021  26.471  1.00  0.00     0.202 C 
BRANCH   6   7
ATOM      7  C   UNL A   1      31.458  27.245  26.652  1.00  0.00     0.261 C 
BRANCH   7   8
ATOM      8  O   UNL A   1      32.822  27.044  26.296  1.00  0.00    -0.460 OA
BRANCH   8   9
ATOM      9  C   UNL A   1      33.323  27.869  25.352  1.00  0.00     0.339 C 
ATOM     10  O   UNL A   1      34.139  28.759  25.545  1.00  0.00    -0.246 OA
BRANCH   9  11
ATOM     11  C   UNL A   1      32.961  27.318  24.026  1.00  0.00     0.074 A 
ATOM     12  C   UNL A   1      31.015  28.933  23.565  1.00  0.00     0.045 C 
ATOM     13  C   UNL A   1      31.912  27.778  23.167  1.00  0.00    -0.036 A 
ATOM     14  C   UNL A   1      31.557  27.087  21.952  1.00  0.00     0.006 A 
ATOM     15  C   UNL A   1      32.148  25.882  21.517  1.00  0.00     0.031 A 
ATOM     16  C   UNL A   1      33.497  26.095  23.584  1.00  0.00     0.034 A 
ATOM     17  C   UNL A   1      33.108  25.368  22.400  1.00  0.00     0.093 A 
ATOM     18  C   UNL A   1      34.388  25.288  24.244  1.00  0.00     0.114 A 
ATOM     19  N   UNL A   1      33.755  24.189  22.358  1.00  0.00    -0.176 NA
ATOM     20  N   UNL A   1      34.490  24.165  23.484  1.00  0.00    -0.284 N 
ATOM     21  H   UNL A   1      35.054  23.399  23.738  1.00  0.00     0.189 HD
ENDBRANCH   9  11
ENDBRANCH   8   9
ENDBRANCH   7   8
ENDBRANCH   6   7
ENDBRANCH   5   6
ENDBRANCH   4   5
ENDBRANCH   3   4
ENDBRANCH   2   3
ENDBRANCH   1   2
BRANCH   1  22
ATOM     22  C   UNL A   1      32.409  20.077  24.480  1.00  0.00     0.188 C 
BRANCH  22  23
ATOM     23  O   UNL A   1      33.450  19.308  25.067  1.00  0.00    -0.376 OA
BRANCH  23  24
ATOM     24  C   UNL A   1      34.742  19.892  25.147  1.00  0.00     0.202 C 
BRANCH  24  25
ATOM     25  C   UNL A   1      35.085  21.229  24.429  1.00  0.00     0.261 C 
BRANCH  25  26
ATOM     26  O   UNL A   1      36.470  21.627  24.406  1.00  0.00    -0.460 OA
BRANCH  26  27
ATOM     27  C   UNL A   1      37.401  20.834  25.006  1.00  0.00     0.338 C 
ATOM     28  O   UNL A   1      37.493  19.624  24.906  1.00  0.00    -0.246 OA
BRANCH  27  29
ATOM     29  C   UNL A   1      38.495  21.728  25.512  1.00  0.00     0.060 A 
ATOM     30  C   UNL A   1      39.640  21.226  26.135  1.00  0.00     0.016 A 
ATOM     31  C   UNL A   1      38.169  23.090  25.658  1.00  0.00     0.016 A 
ATOM     32  C   UNL A   1      40.359  22.053  27.010  1.00  0.00     0.010 A 
ATOM     33  C   UNL A   1      38.874  23.904  26.557  1.00  0.00     0.010 A 
ATOM     34  C   UNL A   1      39.956  23.385  27.270  1.00  0.00    -0.014 A 
BRANCH  34  35
ATOM     35  C   UNL A   1      40.897  24.265  28.004  1.00  0.00     0.031 A 
ATOM     36  C   UNL A   1      40.315  25.627  28.151  1.00  0.00     0.074 A 
ATOM     37  C   UNL A   1      42.053  24.001  28.663  1.00  0.00     0.049 A 
ATOM     38  N   UNL A   1      40.731  26.732  27.629  1.00  0.00    -0.248 NA
ATOM     39  C   UNL A   1      39.002  25.719  28.813  1.00  0.00     0.031 C 
ATOM     40  C   UNL A   1      42.647  22.699  28.959  1.00  0.00     0.029 A 
ATOM     41  N   UNL A   1      42.919  24.872  29.292  1.00  0.00    -0.354 N 
ATOM     42  C   UNL A   1      39.827  27.700  28.049  1.00  0.00     0.074 A 
ATOM     43  C   UNL A   1      38.703  26.999  28.612  1.00  0.00     0.031 C 
ATOM     44  C   UNL A   1      43.668  22.848  29.837  1.00  0.00     0.029 A 
ATOM     45  C   UNL A   1      43.857  24.260  30.127  1.00  0.00     0.049 A 
ATOM     46  H   UNL A   1      42.879  25.847  29.161  1.00  0.00     0.167 HD
ATOM     47  C   UNL A   1      40.153  29.019  28.101  1.00  0.00     0.031 A 
ATOM     48  C   UNL A   1      44.682  24.845  31.045  1.00  0.00     0.031 A 
ATOM     49  C   UNL A   1      41.324  29.316  27.324  1.00  0.00     0.049 A 
ATOM     50  C   UNL A   1      44.794  26.280  30.712  1.00  0.00     0.074 A 
ATOM     51  C   UNL A   1      41.659  29.197  25.989  1.00  0.00     0.029 A 
ATOM     52  N   UNL A   1      42.506  29.482  28.002  1.00  0.00    -0.354 N 
ATOM     53  N   UNL A   1      45.423  26.735  29.669  1.00  0.00    -0.248 NA
ATOM     54  C   UNL A   1      43.865  27.200  31.343  1.00  0.00     0.031 C 
ATOM     55  C   UNL A   1      43.034  28.832  25.985  1.00  0.00     0.029 A 
ATOM     56  C   UNL A   1      43.481  28.815  27.308  1.00  0.00     0.049 A 
ATOM     57  H   UNL A   1      42.629  29.988  28.837  1.00  0.00     0.167 HD
ATOM     58  C   UNL A   1      44.650  27.801  29.243  1.00  0.00     0.074 A 
ATOM     59  C   UNL A   1      43.760  28.099  30.363  1.00  0.00     0.031 C 
ATOM     60  C   UNL A   1      44.614  28.158  27.927  1.00  0.00     0.031 A 
BRANCH  47  61
ATOM     61  C   UNL A   1      39.604  29.956  29.144  1.00  0.00    -0.014 A 
ATOM     62  C   UNL A   1      38.494  30.799  28.918  1.00  0.00     0.010 A 
ATOM     63  C   UNL A   1      40.049  29.835  30.475  1.00  0.00     0.010 A 
ATOM     64  C   UNL A   1      37.878  31.510  29.947  1.00  0.00     0.020 A 
ATOM     65  C   UNL A   1      39.405  30.505  31.525  1.00  0.00     0.020 A 
ATOM     66  C   UNL A   1      38.332  31.350  31.248  1.00  0.00     0.054 A 
BRANCH  66  67
ATOM     67  S   UNL A   1      37.455  32.226  32.563  1.00  0.00     0.124 S 
ATOM     68  O   UNL A   1      37.321  31.183  33.576  1.00  0.00    -0.237 OA
ATOM     69  O   UNL A   1      38.381  33.306  32.889  1.00  0.00    -0.237 OA
ATOM     70  O   UNL A   1      36.209  32.641  31.925  1.00  0.00    -0.744 OA
ENDBRANCH  66  67
ENDBRANCH  47  61
BRANCH  48  71
ATOM     71  C   UNL A   1      45.089  24.351  32.396  1.00  0.00    -0.014 A 
ATOM     72  C   UNL A   1      44.171  23.626  33.176  1.00  0.00     0.010 A 
ATOM     73  C   UNL A   1      46.227  24.876  33.053  1.00  0.00     0.010 A 
ATOM     74  C   UNL A   1      44.313  23.522  34.565  1.00  0.00     0.020 A 
ATOM     75  C   UNL A   1      46.374  24.780  34.450  1.00  0.00     0.020 A 
ATOM     76  C   UNL A   1      45.386  24.143  35.201  1.00  0.00     0.054 A 
BRANCH  76  77
ATOM     77  S   UNL A   1      45.384  24.200  37.017  1.00  0.00     0.124 S 
ATOM     78  O   UNL A   1      45.566  22.793  37.363  1.00  0.00    -0.237 OA
ATOM     79  O   UNL A   1      46.523  25.068  37.309  1.00  0.00    -0.237 OA
ATOM     80  O   UNL A   1      44.077  24.762  37.349  1.00  0.00    -0.744 OA
ENDBRANCH  76  77
ENDBRANCH  48  71
BRANCH  60  81
ATOM     81  C   UNL A   1      45.679  27.633  26.986  1.00  0.00    -0.014 A 
ATOM     82  C   UNL A   1      46.855  28.397  26.875  1.00  0.00     0.010 A 
ATOM     83  C   UNL A   1      45.504  26.544  26.108  1.00  0.00     0.010 A 
ATOM     84  C   UNL A   1      47.808  28.118  25.896  1.00  0.00     0.020 A 
ATOM     85  C   UNL A   1      46.475  26.237  25.140  1.00  0.00     0.020 A 
ATOM     86  C   UNL A   1      47.609  27.047  25.025  1.00  0.00     0.054 A 
BRANCH  86  87
ATOM     87  S   UNL A   1      48.851  26.761  23.737  1.00  0.00     0.124 S 
ATOM     88  O   UNL A   1      48.250  25.672  22.969  1.00  0.00    -0.237 OA
ATOM     89  O   UNL A   1      48.907  28.052  23.051  1.00  0.00    -0.237 OA
ATOM     90  O   UNL A   1      50.056  26.405  24.481  1.00  0.00    -0.744 OA
ENDBRANCH  86  87
ENDBRANCH  60  81
ENDBRANCH  34  35
ENDBRANCH  27  29
ENDBRANCH  26  27
ENDBRANCH  25  26
ENDBRANCH  24  25
ENDBRANCH  23  24
ENDBRANCH  22  23
ENDBRANCH   1  22
TORSDOF 23
ENDMDL
