MODEL 1
REMARK VINA RESULT:      -8.9      0.000      0.000
REMARK SMILES COc1ccc(S(=O)(=O)N2CCCC[C@@H]2C(=O)OCCOCCOCCOCCOC(=O)c2ccc(-c3c4nc(c(-c5ccc(S(=O)(=O)[O-])cc5)c5ccc([nH]5)c(-c5ccc(S(=O)(=O)[O-])cc5)c5nc(c(-c6ccc(S(=O)(=O)[O-])cc6)c6ccc3[nH]6)C=C5)C=C4)cc2)cc1C
REMARK SMILES IDX 24 1 23 2 22 3 21 4 20 5 19 6 18 7 16 8 17 9 15 10 10 11
REMARK SMILES IDX 11 12 12 13 14 14 13 15 7 16 8 17 9 18 6 19 3 20 4 21 94 22
REMARK SMILES IDX 5 23 93 24 95 25 2 26 1 27 25 28 26 29 27 30 28 31 29 32
REMARK SMILES IDX 30 33 31 34 32 35 33 36 34 37 92 38 35 39 91 40 36 41 37 42
REMARK SMILES IDX 38 43 85 44 39 45 90 46 84 47 86 48 40 49 89 50 83 51 82 52
REMARK SMILES IDX 41 54 71 55 52 56 70 57 53 58 56 59 69 60 87 61 54 62 55 63
REMARK SMILES IDX 68 65 88 66 57 67 42 68 43 69 51 70 44 71 50 72 45 73 46 74
REMARK SMILES IDX 47 75 48 76 49 77 72 78 73 79 81 80 74 81 80 82 75 83 76 84
REMARK SMILES IDX 77 85 78 86 79 87 58 88 59 89 67 90 60 91 66 92 61 93 62 94
REMARK SMILES IDX 63 95 64 96 65 97
REMARK H PARENT 86 53 56 64
REMARK Flexibility Score: inf
ROOT
ATOM      1  O   UNL A   1      43.080  21.184  25.216  1.00  0.00    -0.377 OA
ENDROOT
BRANCH   1   2
ATOM      2  C   UNL A   1      43.604  19.897  25.355  1.00  0.00     0.188 C 
BRANCH   2   3
ATOM      3  C   UNL A   1      45.151  19.851  25.422  1.00  0.00     0.188 C 
BRANCH   3   4
ATOM      4  O   UNL A   1      46.084  20.905  24.729  1.00  0.00    -0.376 OA
BRANCH   4   5
ATOM      5  C   UNL A   1      45.965  22.496  24.348  1.00  0.00     0.202 C 
BRANCH   5   6
ATOM      6  C   UNL A   1      44.864  23.905  24.667  1.00  0.00     0.261 C 
BRANCH   6   7
ATOM      7  O   UNL A   1      45.110  25.711  24.824  1.00  0.00    -0.462 OA
BRANCH   7   8
ATOM      8  C   UNL A   1      45.953  26.951  25.138  1.00  0.00     0.324 C 
ATOM      9  O   UNL A   1      45.562  28.041  24.687  1.00  0.00    -0.250 OA
BRANCH   8  10
ATOM     10  C   UNL A   1      47.465  27.091  26.090  1.00  0.00     0.183 C 
ATOM     11  N   UNL A   1      47.406  27.552  27.600  1.00  0.00    -0.184 NA
ATOM     12  C   UNL A   1      48.628  27.968  28.352  1.00  0.00     0.103 C 
ATOM     13  C   UNL A   1      49.728  28.574  27.531  1.00  0.00     0.017 C 
ATOM     14  C   UNL A   1      48.876  27.455  25.462  1.00  0.00     0.032 C 
ATOM     15  C   UNL A   1      50.071  27.624  26.407  1.00  0.00     0.004 C 
BRANCH  11  16
ATOM     16  S   UNL A   1      46.274  26.823  28.653  1.00  0.00     0.243 S 
ATOM     17  O   UNL A   1      46.989  26.436  29.844  1.00  0.00    -0.207 OA
ATOM     18  O   UNL A   1      45.497  25.849  27.922  1.00  0.00    -0.207 OA
BRANCH  16  19
ATOM     19  C   UNL A   1      45.182  28.145  29.052  1.00  0.00     0.083 A 
ATOM     20  C   UNL A   1      43.845  30.485  29.572  1.00  0.00     0.121 A 
ATOM     21  C   UNL A   1      44.349  29.729  30.635  1.00  0.00     0.048 A 
ATOM     22  C   UNL A   1      44.098  30.138  28.243  1.00  0.00    -0.008 A 
ATOM     23  C   UNL A   1      45.057  28.563  30.373  1.00  0.00     0.025 A 
ATOM     24  C   UNL A   1      44.639  28.887  27.999  1.00  0.00     0.029 A 
ATOM     25  C   UNL A   1      43.884  31.065  27.086  1.00  0.00     0.048 C 
BRANCH  20  26
ATOM     26  O   UNL A   1      43.040  31.548  29.873  1.00  0.00    -0.496 OA
ATOM     27  C   UNL A   1      43.841  32.552  30.506  1.00  0.00     0.278 C 
ENDBRANCH  20  26
ENDBRANCH  16  19
ENDBRANCH  11  16
ENDBRANCH   8  10
ENDBRANCH   7   8
ENDBRANCH   6   7
ENDBRANCH   5   6
ENDBRANCH   4   5
ENDBRANCH   3   4
ENDBRANCH   2   3
ENDBRANCH   1   2
BRANCH   1  28
ATOM     28  C   UNL A   1      42.540  21.708  26.417  1.00  0.00     0.188 C 
BRANCH  28  29
ATOM     29  C   UNL A   1      41.022  21.746  26.468  1.00  0.00     0.188 C 
BRANCH  29  30
ATOM     30  O   UNL A   1      40.419  23.043  26.397  1.00  0.00    -0.376 OA
BRANCH  30  31
ATOM     31  C   UNL A   1      41.120  24.015  27.183  1.00  0.00     0.202 C 
BRANCH  31  32
ATOM     32  C   UNL A   1      40.836  25.478  26.771  1.00  0.00     0.261 C 
BRANCH  32  33
ATOM     33  O   UNL A   1      39.690  26.013  27.470  1.00  0.00    -0.460 OA
BRANCH  33  34
ATOM     34  C   UNL A   1      39.786  27.292  27.931  1.00  0.00     0.338 C 
ATOM     35  O   UNL A   1      39.827  28.285  27.225  1.00  0.00    -0.246 OA
BRANCH  34  36
ATOM     36  C   UNL A   1      39.923  27.269  29.423  1.00  0.00     0.060 A 
ATOM     37  C   UNL A   1      38.832  27.151  30.269  1.00  0.00     0.016 A 
ATOM     38  C   UNL A   1      41.147  27.610  29.997  1.00  0.00     0.016 A 
ATOM     39  C   UNL A   1      38.977  27.547  31.618  1.00  0.00     0.010 A 
ATOM     40  C   UNL A   1      41.188  28.282  31.223  1.00  0.00     0.010 A 
ATOM     41  C   UNL A   1      40.057  28.379  32.040  1.00  0.00    -0.014 A 
BRANCH  41  42
ATOM     42  C   UNL A   1      40.138  29.374  33.409  1.00  0.00     0.031 A 
ATOM     43  C   UNL A   1      38.986  30.434  32.702  1.00  0.00     0.074 A 
ATOM     44  C   UNL A   1      41.229  29.527  34.645  1.00  0.00     0.049 A 
ATOM     45  N   UNL A   1      39.289  31.587  32.153  1.00  0.00    -0.248 NA
ATOM     46  C   UNL A   1      37.619  30.063  32.267  1.00  0.00     0.031 C 
ATOM     47  C   UNL A   1      41.653  30.701  35.722  1.00  0.00     0.029 A 
ATOM     48  N   UNL A   1      42.486  28.821  35.086  1.00  0.00    -0.354 N 
ATOM     49  C   UNL A   1      38.139  32.247  31.897  1.00  0.00     0.074 A 
ATOM     50  C   UNL A   1      37.213  31.175  31.633  1.00  0.00     0.031 C 
ATOM     51  C   UNL A   1      42.740  30.545  36.472  1.00  0.00     0.029 A 
ATOM     52  C   UNL A   1      43.467  29.587  35.773  1.00  0.00     0.049 A 
ATOM     53  H   UNL A   1      42.622  27.863  34.905  1.00  0.00     0.167 HD
ATOM     54  C   UNL A   1      37.964  33.551  32.270  1.00  0.00     0.031 A 
ATOM     55  C   UNL A   1      44.701  29.923  35.277  1.00  0.00     0.031 A 
ATOM     56  C   UNL A   1      39.090  34.099  33.115  1.00  0.00     0.049 A 
ATOM     57  C   UNL A   1      44.667  31.483  34.846  1.00  0.00     0.074 A 
ATOM     58  C   UNL A   1      39.093  34.519  34.435  1.00  0.00     0.029 A 
ATOM     59  N   UNL A   1      40.477  34.035  32.779  1.00  0.00    -0.354 N 
ATOM     60  N   UNL A   1      43.578  32.139  34.471  1.00  0.00    -0.248 NA
ATOM     61  C   UNL A   1      45.760  32.435  35.011  1.00  0.00     0.031 C 
ATOM     62  C   UNL A   1      40.430  34.639  34.893  1.00  0.00     0.029 A 
ATOM     63  C   UNL A   1      41.325  34.237  33.908  1.00  0.00     0.049 A 
ATOM     64  H   UNL A   1      40.812  33.868  31.869  1.00  0.00     0.167 HD
ATOM     65  C   UNL A   1      43.761  33.509  34.315  1.00  0.00     0.074 A 
ATOM     66  C   UNL A   1      45.169  33.620  34.721  1.00  0.00     0.031 C 
ATOM     67  C   UNL A   1      42.817  34.466  33.896  1.00  0.00     0.031 A 
BRANCH  54  68
ATOM     68  C   UNL A   1      36.509  34.064  32.246  1.00  0.00    -0.014 A 
ATOM     69  C   UNL A   1      35.750  34.130  31.064  1.00  0.00     0.010 A 
ATOM     70  C   UNL A   1      35.868  34.578  33.401  1.00  0.00     0.010 A 
ATOM     71  C   UNL A   1      34.497  34.775  31.005  1.00  0.00     0.020 A 
ATOM     72  C   UNL A   1      34.640  35.268  33.351  1.00  0.00     0.020 A 
ATOM     73  C   UNL A   1      33.961  35.369  32.144  1.00  0.00     0.054 A 
BRANCH  73  74
ATOM     74  S   UNL A   1      32.359  36.217  32.034  1.00  0.00     0.124 S 
ATOM     75  O   UNL A   1      31.423  35.214  32.536  1.00  0.00    -0.237 OA
ATOM     76  O   UNL A   1      32.559  37.376  32.900  1.00  0.00    -0.237 OA
ATOM     77  O   UNL A   1      32.223  36.526  30.611  1.00  0.00    -0.744 OA
ENDBRANCH  73  74
ENDBRANCH  54  68
BRANCH  55  78
ATOM     78  C   UNL A   1      45.412  28.680  34.747  1.00  0.00    -0.014 A 
ATOM     79  C   UNL A   1      46.366  28.920  33.708  1.00  0.00     0.010 A 
ATOM     80  C   UNL A   1      45.509  27.423  35.370  1.00  0.00     0.010 A 
ATOM     81  C   UNL A   1      47.406  28.024  33.383  1.00  0.00     0.020 A 
ATOM     82  C   UNL A   1      46.564  26.513  35.052  1.00  0.00     0.020 A 
ATOM     83  C   UNL A   1      47.505  26.814  34.057  1.00  0.00     0.054 A 
BRANCH  83  84
ATOM     84  S   UNL A   1      48.905  25.689  33.676  1.00  0.00     0.124 S 
ATOM     85  O   UNL A   1      49.164  25.973  32.269  1.00  0.00    -0.237 OA
ATOM     86  O   UNL A   1      49.976  26.112  34.578  1.00  0.00    -0.237 OA
ATOM     87  O   UNL A   1      48.358  24.360  33.945  1.00  0.00    -0.744 OA
ENDBRANCH  83  84
ENDBRANCH  55  78
BRANCH  67  88
ATOM     88  C   UNL A   1      43.150  35.941  33.593  1.00  0.00    -0.014 A 
ATOM     89  C   UNL A   1      43.491  36.444  32.336  1.00  0.00     0.010 A 
ATOM     90  C   UNL A   1      42.998  36.920  34.623  1.00  0.00     0.010 A 
ATOM     91  C   UNL A   1      43.735  37.816  32.138  1.00  0.00     0.020 A 
ATOM     92  C   UNL A   1      43.202  38.284  34.437  1.00  0.00     0.020 A 
ATOM     93  C   UNL A   1      43.590  38.724  33.189  1.00  0.00     0.054 A 
BRANCH  93  94
ATOM     94  S   UNL A   1      43.828  40.489  32.896  1.00  0.00     0.124 S 
ATOM     95  O   UNL A   1      45.009  40.496  32.037  1.00  0.00    -0.237 OA
ATOM     96  O   UNL A   1      42.577  40.873  32.247  1.00  0.00    -0.237 OA
ATOM     97  O   UNL A   1      44.025  41.046  34.233  1.00  0.00    -0.744 OA
ENDBRANCH  93  94
ENDBRANCH  67  88
ENDBRANCH  41  42
ENDBRANCH  34  36
ENDBRANCH  33  34
ENDBRANCH  32  33
ENDBRANCH  31  32
ENDBRANCH  30  31
ENDBRANCH  29  30
ENDBRANCH  28  29
ENDBRANCH   1  28
TORSDOF 26
ENDMDL
MODEL 2
REMARK VINA RESULT:      -8.8      3.332      8.944
REMARK SMILES COc1ccc(S(=O)(=O)N2CCCC[C@@H]2C(=O)OCCOCCOCCOCCOC(=O)c2ccc(-c3c4nc(c(-c5ccc(S(=O)(=O)[O-])cc5)c5ccc([nH]5)c(-c5ccc(S(=O)(=O)[O-])cc5)c5nc(c(-c6ccc(S(=O)(=O)[O-])cc6)c6ccc3[nH]6)C=C5)C=C4)cc2)cc1C
REMARK SMILES IDX 24 1 23 2 22 3 21 4 20 5 19 6 18 7 16 8 17 9 15 10 10 11
REMARK SMILES IDX 11 12 12 13 14 14 13 15 7 16 8 17 9 18 6 19 3 20 4 21 94 22
REMARK SMILES IDX 5 23 93 24 95 25 2 26 1 27 25 28 26 29 27 30 28 31 29 32
REMARK SMILES IDX 30 33 31 34 32 35 33 36 34 37 92 38 35 39 91 40 36 41 37 42
REMARK SMILES IDX 38 43 85 44 39 45 90 46 84 47 86 48 40 49 89 50 83 51 82 52
REMARK SMILES IDX 41 54 71 55 52 56 70 57 53 58 56 59 69 60 87 61 54 62 55 63
REMARK SMILES IDX 68 65 88 66 57 67 42 68 43 69 51 70 44 71 50 72 45 73 46 74
REMARK SMILES IDX 47 75 48 76 49 77 72 78 73 79 81 80 74 81 80 82 75 83 76 84
REMARK SMILES IDX 77 85 78 86 79 87 58 88 59 89 67 90 60 91 66 92 61 93 62 94
REMARK SMILES IDX 63 95 64 96 65 97
REMARK H PARENT 86 53 56 64
REMARK Flexibility Score: inf
ROOT
ATOM      1  O   UNL A   1      52.101  31.494  29.341  1.00  0.00    -0.377 OA
ENDROOT
BRANCH   1   2
ATOM      2  C   UNL A   1      51.500  31.941  30.520  1.00  0.00     0.188 C 
BRANCH   2   3
ATOM      3  C   UNL A   1      49.951  31.935  30.479  1.00  0.00     0.188 C 
BRANCH   3   4
ATOM      4  O   UNL A   1      49.086  30.626  30.476  1.00  0.00    -0.376 OA
BRANCH   4   5
ATOM      5  C   UNL A   1      48.916  29.338  31.478  1.00  0.00     0.202 C 
BRANCH   5   6
ATOM      6  C   UNL A   1      47.696  28.652  32.636  1.00  0.00     0.261 C 
BRANCH   6   7
ATOM      7  O   UNL A   1      46.130  27.726  32.443  1.00  0.00    -0.462 OA
BRANCH   7   8
ATOM      8  C   UNL A   1      45.313  26.497  32.034  1.00  0.00     0.324 C 
ATOM      9  O   UNL A   1      45.448  26.076  30.873  1.00  0.00    -0.250 OA
BRANCH   8  10
ATOM     10  C   UNL A   1      44.153  25.528  32.997  1.00  0.00     0.183 C 
ATOM     11  N   UNL A   1      43.236  26.234  34.072  1.00  0.00    -0.184 NA
ATOM     12  C   UNL A   1      42.473  25.461  35.097  1.00  0.00     0.103 C 
ATOM     13  C   UNL A   1      43.080  24.157  35.520  1.00  0.00     0.017 C 
ATOM     14  C   UNL A   1      44.380  24.006  33.388  1.00  0.00     0.032 C 
ATOM     15  C   UNL A   1      43.344  23.324  34.288  1.00  0.00     0.004 C 
BRANCH  11  16
ATOM     16  S   UNL A   1      42.391  27.658  33.644  1.00  0.00     0.243 S 
ATOM     17  O   UNL A   1      41.145  27.647  34.369  1.00  0.00    -0.207 OA
ATOM     18  O   UNL A   1      42.396  27.804  32.207  1.00  0.00    -0.207 OA
BRANCH  16  19
ATOM     19  C   UNL A   1      43.410  28.942  34.286  1.00  0.00     0.083 A 
ATOM     20  C   UNL A   1      45.287  30.837  34.932  1.00  0.00     0.121 A 
ATOM     21  C   UNL A   1      45.252  29.633  35.642  1.00  0.00     0.048 A 
ATOM     22  C   UNL A   1      44.462  31.060  33.828  1.00  0.00    -0.008 A 
ATOM     23  C   UNL A   1      44.327  28.657  35.294  1.00  0.00     0.025 A 
ATOM     24  C   UNL A   1      43.427  30.165  33.610  1.00  0.00     0.029 A 
ATOM     25  C   UNL A   1      44.676  32.163  32.837  1.00  0.00     0.048 C 
BRANCH  20  26
ATOM     26  O   UNL A   1      46.117  31.822  35.391  1.00  0.00    -0.496 OA
ATOM     27  C   UNL A   1      47.466  31.440  35.106  1.00  0.00     0.278 C 
ENDBRANCH  20  26
ENDBRANCH  16  19
ENDBRANCH  11  16
ENDBRANCH   8  10
ENDBRANCH   7   8
ENDBRANCH   6   7
ENDBRANCH   5   6
ENDBRANCH   4   5
ENDBRANCH   3   4
ENDBRANCH   2   3
ENDBRANCH   1   2
BRANCH   1  28
ATOM     28  C   UNL A   1      52.333  30.096  29.320  1.00  0.00     0.188 C 
BRANCH  28  29
ATOM     29  C   UNL A   1      51.821  29.387  28.078  1.00  0.00     0.188 C 
BRANCH  29  30
ATOM     30  O   UNL A   1      50.527  28.783  28.182  1.00  0.00    -0.376 OA
BRANCH  30  31
ATOM     31  C   UNL A   1      50.597  27.355  28.283  1.00  0.00     0.202 C 
BRANCH  31  32
ATOM     32  C   UNL A   1      50.418  26.621  26.934  1.00  0.00     0.261 C 
BRANCH  32  33
ATOM     33  O   UNL A   1      49.243  27.083  26.231  1.00  0.00    -0.460 OA
BRANCH  33  34
ATOM     34  C   UNL A   1      48.034  26.673  26.709  1.00  0.00     0.338 C 
ATOM     35  O   UNL A   1      47.693  25.510  26.835  1.00  0.00    -0.246 OA
BRANCH  34  36
ATOM     36  C   UNL A   1      47.172  27.873  26.965  1.00  0.00     0.060 A 
ATOM     37  C   UNL A   1      46.697  28.192  28.226  1.00  0.00     0.016 A 
ATOM     38  C   UNL A   1      46.634  28.564  25.880  1.00  0.00     0.016 A 
ATOM     39  C   UNL A   1      45.585  29.060  28.329  1.00  0.00     0.010 A 
ATOM     40  C   UNL A   1      45.369  29.153  25.978  1.00  0.00     0.010 A 
ATOM     41  C   UNL A   1      44.735  29.320  27.213  1.00  0.00    -0.014 A 
BRANCH  41  42
ATOM     42  C   UNL A   1      43.128  29.857  27.225  1.00  0.00     0.031 A 
ATOM     43  C   UNL A   1      43.639  31.362  27.876  1.00  0.00     0.074 A 
ATOM     44  C   UNL A   1      41.667  29.083  27.137  1.00  0.00     0.049 A 
ATOM     45  N   UNL A   1      43.500  31.703  29.136  1.00  0.00    -0.248 NA
ATOM     46  C   UNL A   1      44.612  32.290  27.254  1.00  0.00     0.031 C 
ATOM     47  C   UNL A   1      40.114  29.413  27.584  1.00  0.00     0.029 A 
ATOM     48  N   UNL A   1      41.191  27.668  26.930  1.00  0.00    -0.354 N 
ATOM     49  C   UNL A   1      43.805  33.013  29.255  1.00  0.00     0.074 A 
ATOM     50  C   UNL A   1      44.795  33.200  28.225  1.00  0.00     0.031 C 
ATOM     51  C   UNL A   1      39.196  28.452  27.534  1.00  0.00     0.029 A 
ATOM     52  C   UNL A   1      39.961  27.290  27.535  1.00  0.00     0.049 A 
ATOM     53  H   UNL A   1      41.714  27.028  26.396  1.00  0.00     0.167 HD
ATOM     54  C   UNL A   1      42.984  33.882  29.919  1.00  0.00     0.031 A 
ATOM     55  C   UNL A   1      39.827  26.409  28.578  1.00  0.00     0.031 A 
ATOM     56  C   UNL A   1      41.668  33.272  30.343  1.00  0.00     0.049 A 
ATOM     57  C   UNL A   1      39.523  27.257  29.923  1.00  0.00     0.074 A 
ATOM     58  C   UNL A   1      40.377  33.561  29.933  1.00  0.00     0.029 A 
ATOM     59  N   UNL A   1      41.523  32.055  31.076  1.00  0.00    -0.354 N 
ATOM     60  N   UNL A   1      39.910  28.509  30.129  1.00  0.00    -0.248 NA
ATOM     61  C   UNL A   1      38.614  26.860  30.992  1.00  0.00     0.031 C 
ATOM     62  C   UNL A   1      39.502  32.524  30.348  1.00  0.00     0.029 A 
ATOM     63  C   UNL A   1      40.210  31.507  30.977  1.00  0.00     0.049 A 
ATOM     64  H   UNL A   1      42.250  31.638  31.593  1.00  0.00     0.167 HD
ATOM     65  C   UNL A   1      39.386  29.086  31.282  1.00  0.00     0.074 A 
ATOM     66  C   UNL A   1      38.537  27.982  31.749  1.00  0.00     0.031 C 
ATOM     67  C   UNL A   1      39.632  30.375  31.792  1.00  0.00     0.031 A 
BRANCH  54  68
ATOM     68  C   UNL A   1      43.258  35.379  29.675  1.00  0.00    -0.014 A 
ATOM     69  C   UNL A   1      44.036  36.159  30.549  1.00  0.00     0.010 A 
ATOM     70  C   UNL A   1      42.677  36.090  28.594  1.00  0.00     0.010 A 
ATOM     71  C   UNL A   1      44.128  37.561  30.436  1.00  0.00     0.020 A 
ATOM     72  C   UNL A   1      42.717  37.495  28.492  1.00  0.00     0.020 A 
ATOM     73  C   UNL A   1      43.442  38.227  29.424  1.00  0.00     0.054 A 
BRANCH  73  74
ATOM     74  S   UNL A   1      43.554  40.036  29.316  1.00  0.00     0.124 S 
ATOM     75  O   UNL A   1      42.156  40.455  29.386  1.00  0.00    -0.237 OA
ATOM     76  O   UNL A   1      44.368  40.370  30.481  1.00  0.00    -0.237 OA
ATOM     77  O   UNL A   1      44.200  40.270  28.025  1.00  0.00    -0.744 OA
ENDBRANCH  73  74
ENDBRANCH  54  68
BRANCH  55  78
ATOM     78  C   UNL A   1      40.579  25.115  28.274  1.00  0.00    -0.014 A 
ATOM     79  C   UNL A   1      40.017  24.316  27.229  1.00  0.00     0.010 A 
ATOM     80  C   UNL A   1      41.901  24.793  28.630  1.00  0.00     0.010 A 
ATOM     81  C   UNL A   1      40.747  23.343  26.515  1.00  0.00     0.020 A 
ATOM     82  C   UNL A   1      42.649  23.814  27.906  1.00  0.00     0.020 A 
ATOM     83  C   UNL A   1      42.069  23.089  26.856  1.00  0.00     0.054 A 
BRANCH  83  84
ATOM     84  S   UNL A   1      43.030  21.871  25.873  1.00  0.00     0.124 S 
ATOM     85  O   UNL A   1      43.035  22.474  24.544  1.00  0.00    -0.237 OA
ATOM     86  O   UNL A   1      44.344  21.831  26.515  1.00  0.00    -0.237 OA
ATOM     87  O   UNL A   1      42.246  20.643  25.989  1.00  0.00    -0.744 OA
ENDBRANCH  83  84
ENDBRANCH  55  78
BRANCH  67  88
ATOM     88  C   UNL A   1      39.138  30.875  33.165  1.00  0.00    -0.014 A 
ATOM     89  C   UNL A   1      39.920  30.955  34.318  1.00  0.00     0.010 A 
ATOM     90  C   UNL A   1      37.820  31.415  33.280  1.00  0.00     0.010 A 
ATOM     91  C   UNL A   1      39.401  31.469  35.521  1.00  0.00     0.020 A 
ATOM     92  C   UNL A   1      37.301  31.959  34.452  1.00  0.00     0.020 A 
ATOM     93  C   UNL A   1      38.096  31.965  35.579  1.00  0.00     0.054 A 
BRANCH  93  94
ATOM     94  S   UNL A   1      37.475  32.695  37.108  1.00  0.00     0.124 S 
ATOM     95  O   UNL A   1      37.189  31.510  37.913  1.00  0.00    -0.237 OA
ATOM     96  O   UNL A   1      38.608  33.501  37.556  1.00  0.00    -0.237 OA
ATOM     97  O   UNL A   1      36.304  33.460  36.685  1.00  0.00    -0.744 OA
ENDBRANCH  93  94
ENDBRANCH  67  88
ENDBRANCH  41  42
ENDBRANCH  34  36
ENDBRANCH  33  34
ENDBRANCH  32  33
ENDBRANCH  31  32
ENDBRANCH  30  31
ENDBRANCH  29  30
ENDBRANCH  28  29
ENDBRANCH   1  28
TORSDOF 26
ENDMDL
MODEL 3
REMARK VINA RESULT:      -8.5      4.288     11.406
REMARK SMILES COc1ccc(S(=O)(=O)N2CCCC[C@@H]2C(=O)OCCOCCOCCOCCOC(=O)c2ccc(-c3c4nc(c(-c5ccc(S(=O)(=O)[O-])cc5)c5ccc([nH]5)c(-c5ccc(S(=O)(=O)[O-])cc5)c5nc(c(-c6ccc(S(=O)(=O)[O-])cc6)c6ccc3[nH]6)C=C5)C=C4)cc2)cc1C
REMARK SMILES IDX 24 1 23 2 22 3 21 4 20 5 19 6 18 7 16 8 17 9 15 10 10 11
REMARK SMILES IDX 11 12 12 13 14 14 13 15 7 16 8 17 9 18 6 19 3 20 4 21 94 22
REMARK SMILES IDX 5 23 93 24 95 25 2 26 1 27 25 28 26 29 27 30 28 31 29 32
REMARK SMILES IDX 30 33 31 34 32 35 33 36 34 37 92 38 35 39 91 40 36 41 37 42
REMARK SMILES IDX 38 43 85 44 39 45 90 46 84 47 86 48 40 49 89 50 83 51 82 52
REMARK SMILES IDX 41 54 71 55 52 56 70 57 53 58 56 59 69 60 87 61 54 62 55 63
REMARK SMILES IDX 68 65 88 66 57 67 42 68 43 69 51 70 44 71 50 72 45 73 46 74
REMARK SMILES IDX 47 75 48 76 49 77 72 78 73 79 81 80 74 81 80 82 75 83 76 84
REMARK SMILES IDX 77 85 78 86 79 87 58 88 59 89 67 90 60 91 66 92 61 93 62 94
REMARK SMILES IDX 63 95 64 96 65 97
REMARK H PARENT 86 53 56 64
REMARK Flexibility Score: inf
ROOT
ATOM      1  O   UNL A   1      45.279  26.509  33.601  1.00  0.00    -0.377 OA
ENDROOT
BRANCH   1   2
ATOM      2  C   UNL A   1      45.433  25.721  32.457  1.00  0.00     0.188 C 
BRANCH   2   3
ATOM      3  C   UNL A   1      44.264  25.842  31.447  1.00  0.00     0.188 C 
BRANCH   3   4
ATOM      4  O   UNL A   1      43.612  27.207  31.030  1.00  0.00    -0.376 OA
BRANCH   4   5
ATOM      5  C   UNL A   1      42.295  28.063  31.505  1.00  0.00     0.202 C 
BRANCH   5   6
ATOM      6  C   UNL A   1      41.462  28.561  33.040  1.00  0.00     0.261 C 
BRANCH   6   7
ATOM      7  O   UNL A   1      39.731  28.945  33.489  1.00  0.00    -0.462 OA
BRANCH   7   8
ATOM      8  C   UNL A   1      38.301  29.385  33.159  1.00  0.00     0.324 C 
ATOM      9  O   UNL A   1      37.392  28.551  33.315  1.00  0.00    -0.250 OA
BRANCH   8  10
ATOM     10  C   UNL A   1      37.703  30.966  32.565  1.00  0.00     0.183 C 
ATOM     11  N   UNL A   1      37.652  31.259  31.013  1.00  0.00    -0.184 NA
ATOM     12  C   UNL A   1      37.448  32.634  30.470  1.00  0.00     0.103 C 
ATOM     13  C   UNL A   1      37.954  33.758  31.325  1.00  0.00     0.017 C 
ATOM     14  C   UNL A   1      37.842  32.325  33.373  1.00  0.00     0.032 C 
ATOM     15  C   UNL A   1      37.360  33.619  32.707  1.00  0.00     0.004 C 
BRANCH  11  16
ATOM     16  S   UNL A   1      36.968  30.093  29.966  1.00  0.00     0.243 S 
ATOM     17  O   UNL A   1      36.504  30.795  28.794  1.00  0.00    -0.207 OA
ATOM     18  O   UNL A   1      36.065  29.248  30.713  1.00  0.00    -0.207 OA
BRANCH  16  19
ATOM     19  C   UNL A   1      38.345  29.092  29.519  1.00  0.00     0.083 A 
ATOM     20  C   UNL A   1      40.221  27.387  28.467  1.00  0.00     0.121 A 
ATOM     21  C   UNL A   1      39.475  26.988  29.580  1.00  0.00     0.048 A 
ATOM     22  C   UNL A   1      39.963  28.589  27.807  1.00  0.00    -0.008 A 
ATOM     23  C   UNL A   1      38.499  27.834  30.093  1.00  0.00     0.025 A 
ATOM     24  C   UNL A   1      39.125  29.498  28.432  1.00  0.00     0.029 A 
ATOM     25  C   UNL A   1      40.482  28.917  26.440  1.00  0.00     0.048 C 
BRANCH  20  26
ATOM     26  O   UNL A   1      41.260  26.588  28.079  1.00  0.00    -0.496 OA
ATOM     27  C   UNL A   1      40.781  25.242  27.992  1.00  0.00     0.278 C 
ENDBRANCH  20  26
ENDBRANCH  16  19
ENDBRANCH  11  16
ENDBRANCH   8  10
ENDBRANCH   7   8
ENDBRANCH   6   7
ENDBRANCH   5   6
ENDBRANCH   4   5
ENDBRANCH   3   4
ENDBRANCH   2   3
ENDBRANCH   1   2
BRANCH   1  28
ATOM     28  C   UNL A   1      46.453  27.214  33.964  1.00  0.00     0.188 C 
BRANCH  28  29
ATOM     29  C   UNL A   1      46.207  28.540  34.664  1.00  0.00     0.188 C 
BRANCH  29  30
ATOM     30  O   UNL A   1      44.964  29.188  34.374  1.00  0.00    -0.376 OA
BRANCH  30  31
ATOM     31  C   UNL A   1      44.333  29.711  35.549  1.00  0.00     0.202 C 
BRANCH  31  32
ATOM     32  C   UNL A   1      44.772  31.148  35.910  1.00  0.00     0.261 C 
BRANCH  32  33
ATOM     33  O   UNL A   1      44.222  32.118  34.990  1.00  0.00    -0.460 OA
BRANCH  33  34
ATOM     34  C   UNL A   1      42.999  32.637  35.295  1.00  0.00     0.338 C 
ATOM     35  O   UNL A   1      42.344  32.343  36.280  1.00  0.00    -0.246 OA
BRANCH  34  36
ATOM     36  C   UNL A   1      42.561  33.549  34.189  1.00  0.00     0.060 A 
ATOM     37  C   UNL A   1      41.319  33.443  33.585  1.00  0.00     0.016 A 
ATOM     38  C   UNL A   1      43.503  34.379  33.582  1.00  0.00     0.016 A 
ATOM     39  C   UNL A   1      41.135  34.031  32.313  1.00  0.00     0.010 A 
ATOM     40  C   UNL A   1      43.406  34.675  32.219  1.00  0.00     0.010 A 
ATOM     41  C   UNL A   1      42.242  34.401  31.493  1.00  0.00    -0.014 A 
BRANCH  41  42
ATOM     42  C   UNL A   1      42.277  34.605  29.812  1.00  0.00     0.031 A 
ATOM     43  C   UNL A   1      43.003  33.058  29.642  1.00  0.00     0.074 A 
ATOM     44  C   UNL A   1      42.146  35.925  28.820  1.00  0.00     0.049 A 
ATOM     45  N   UNL A   1      44.278  32.869  29.394  1.00  0.00    -0.248 NA
ATOM     46  C   UNL A   1      42.431  31.775  30.113  1.00  0.00     0.031 C 
ATOM     47  C   UNL A   1      42.605  36.313  27.285  1.00  0.00     0.029 A 
ATOM     48  N   UNL A   1      41.868  37.397  28.992  1.00  0.00    -0.354 N 
ATOM     49  C   UNL A   1      44.463  31.561  29.112  1.00  0.00     0.074 A 
ATOM     50  C   UNL A   1      43.446  30.921  29.907  1.00  0.00     0.031 C 
ATOM     51  C   UNL A   1      42.504  37.571  26.865  1.00  0.00     0.029 A 
ATOM     52  C   UNL A   1      42.450  38.293  28.053  1.00  0.00     0.049 A 
ATOM     53  H   UNL A   1      41.304  37.726  29.728  1.00  0.00     0.167 HD
ATOM     54  C   UNL A   1      45.167  31.159  28.011  1.00  0.00     0.031 A 
ATOM     55  C   UNL A   1      43.447  39.193  28.329  1.00  0.00     0.031 A 
ATOM     56  C   UNL A   1      45.556  32.292  27.090  1.00  0.00     0.049 A 
ATOM     57  C   UNL A   1      44.832  38.620  27.716  1.00  0.00     0.074 A 
ATOM     58  C   UNL A   1      45.158  32.565  25.792  1.00  0.00     0.029 A 
ATOM     59  N   UNL A   1      46.228  33.487  27.494  1.00  0.00    -0.354 N 
ATOM     60  N   UNL A   1      45.101  37.334  27.535  1.00  0.00    -0.248 NA
ATOM     61  C   UNL A   1      45.878  39.417  27.085  1.00  0.00     0.031 C 
ATOM     62  C   UNL A   1      45.518  33.895  25.453  1.00  0.00     0.029 A 
ATOM     63  C   UNL A   1      46.098  34.539  26.539  1.00  0.00     0.049 A 
ATOM     64  H   UNL A   1      46.726  33.576  28.338  1.00  0.00     0.167 HD
ATOM     65  C   UNL A   1      46.279  37.090  26.836  1.00  0.00     0.074 A 
ATOM     66  C   UNL A   1      46.689  38.472  26.549  1.00  0.00     0.031 C 
ATOM     67  C   UNL A   1      46.854  35.845  26.516  1.00  0.00     0.031 A 
BRANCH  54  68
ATOM     68  C   UNL A   1      44.999  29.679  27.613  1.00  0.00    -0.014 A 
ATOM     69  C   UNL A   1      45.879  28.673  28.049  1.00  0.00     0.010 A 
ATOM     70  C   UNL A   1      43.990  29.245  26.716  1.00  0.00     0.010 A 
ATOM     71  C   UNL A   1      45.844  27.361  27.536  1.00  0.00     0.020 A 
ATOM     72  C   UNL A   1      43.969  27.952  26.156  1.00  0.00     0.020 A 
ATOM     73  C   UNL A   1      44.907  27.014  26.567  1.00  0.00     0.054 A 
BRANCH  73  74
ATOM     74  S   UNL A   1      44.899  25.324  25.901  1.00  0.00     0.124 S 
ATOM     75  O   UNL A   1      45.391  24.529  27.023  1.00  0.00    -0.237 OA
ATOM     76  O   UNL A   1      43.492  25.128  25.561  1.00  0.00    -0.237 OA
ATOM     77  O   UNL A   1      45.806  25.396  24.756  1.00  0.00    -0.744 OA
ENDBRANCH  73  74
ENDBRANCH  54  68
BRANCH  55  78
ATOM     78  C   UNL A   1      43.081  40.026  29.556  1.00  0.00    -0.014 A 
ATOM     79  C   UNL A   1      44.140  40.218  30.499  1.00  0.00     0.010 A 
ATOM     80  C   UNL A   1      41.985  40.894  29.700  1.00  0.00     0.010 A 
ATOM     81  C   UNL A   1      44.158  41.263  31.446  1.00  0.00     0.020 A 
ATOM     82  C   UNL A   1      42.000  41.960  30.652  1.00  0.00     0.020 A 
ATOM     83  C   UNL A   1      43.083  42.137  31.525  1.00  0.00     0.054 A 
BRANCH  83  84
ATOM     84  S   UNL A   1      43.151  43.537  32.712  1.00  0.00     0.124 S 
ATOM     85  O   UNL A   1      42.050  43.234  33.620  1.00  0.00    -0.237 OA
ATOM     86  O   UNL A   1      44.476  43.437  33.325  1.00  0.00    -0.237 OA
ATOM     87  O   UNL A   1      42.947  44.712  31.866  1.00  0.00    -0.744 OA
ENDBRANCH  83  84
ENDBRANCH  55  78
BRANCH  67  88
ATOM     88  C   UNL A   1      48.248  35.669  25.881  1.00  0.00    -0.014 A 
ATOM     89  C   UNL A   1      48.994  36.689  25.288  1.00  0.00     0.010 A 
ATOM     90  C   UNL A   1      48.912  34.408  25.989  1.00  0.00     0.010 A 
ATOM     91  C   UNL A   1      50.282  36.449  24.773  1.00  0.00     0.020 A 
ATOM     92  C   UNL A   1      50.198  34.163  25.517  1.00  0.00     0.020 A 
ATOM     93  C   UNL A   1      50.873  35.189  24.890  1.00  0.00     0.054 A 
BRANCH  93  94
ATOM     94  S   UNL A   1      52.556  34.923  24.296  1.00  0.00     0.124 S 
ATOM     95  O   UNL A   1      52.754  33.504  24.577  1.00  0.00    -0.237 OA
ATOM     96  O   UNL A   1      52.452  35.276  22.882  1.00  0.00    -0.237 OA
ATOM     97  O   UNL A   1      53.363  35.838  25.102  1.00  0.00    -0.744 OA
ENDBRANCH  93  94
ENDBRANCH  67  88
ENDBRANCH  41  42
ENDBRANCH  34  36
ENDBRANCH  33  34
ENDBRANCH  32  33
ENDBRANCH  31  32
ENDBRANCH  30  31
ENDBRANCH  29  30
ENDBRANCH  28  29
ENDBRANCH   1  28
TORSDOF 26
ENDMDL
