MODEL 1
REMARK VINA RESULT:      -7.9      0.000      0.000
REMARK SMILES Cc1ccc(-n2nc(C(=O)OCCOCCOCCOCCOC(=O)c3ccc(-c4c5nc(c(-c6ccc(S(=O)(=O)[O-])cc6)c6ccc([nH]6)c(-c6ccc(S(=O)(=O)[O-])cc6)c6nc(c(-c7ccc(S(=O)(=O)[O-])cc7)c7ccc4[nH]7)C=C6)C=C5)cc3)c(C)c(C#N)c2=O)cc1Cl
REMARK SMILES IDX 18 1 17 2 16 3 15 4 14 5 13 6 12 7 11 8 9 9 10 10 8 11 6 12
REMARK SMILES IDX 7 13 91 14 88 15 92 16 86 17 87 18 5 19 1 20 2 21 3 22 94 23
REMARK SMILES IDX 4 24 93 25 95 26 89 27 90 28 19 29 20 30 21 31 22 32 23 33
REMARK SMILES IDX 24 34 25 35 26 36 27 37 85 38 28 39 84 40 29 41 30 42 31 43
REMARK SMILES IDX 78 44 32 45 83 46 77 47 79 48 33 49 82 50 76 51 75 52 34 54
REMARK SMILES IDX 64 55 45 56 63 57 46 58 49 59 62 60 80 61 47 62 48 63 61 65
REMARK SMILES IDX 81 66 50 67 35 68 36 69 44 70 37 71 43 72 38 73 39 74 40 75
REMARK SMILES IDX 41 76 42 77 65 78 66 79 74 80 67 81 73 82 68 83 69 84 70 85
REMARK SMILES IDX 71 86 72 87 51 88 52 89 60 90 53 91 59 92 54 93 55 94 56 95
REMARK SMILES IDX 57 96 58 97
REMARK H PARENT 79 53 49 64
REMARK Flexibility Score: inf
ROOT
ATOM      1  C   UNL A   1      43.238  23.334  27.133  1.00  0.00     0.188 C 
ENDROOT
BRANCH   1   2
ATOM      2  O   UNL A   1      44.358  23.993  26.550  1.00  0.00    -0.377 OA
BRANCH   2   3
ATOM      3  C   UNL A   1      45.307  23.263  25.796  1.00  0.00     0.188 C 
BRANCH   3   4
ATOM      4  C   UNL A   1      46.323  24.007  24.892  1.00  0.00     0.188 C 
BRANCH   4   5
ATOM      5  O   UNL A   1      46.954  25.150  25.431  1.00  0.00    -0.376 OA
BRANCH   5   6
ATOM      6  C   UNL A   1      46.805  26.455  24.907  1.00  0.00     0.202 C 
BRANCH   6   7
ATOM      7  C   UNL A   1      47.969  27.368  24.503  1.00  0.00     0.261 C 
BRANCH   7   8
ATOM      8  O   UNL A   1      48.598  27.034  23.272  1.00  0.00    -0.458 OA
BRANCH   8   9
ATOM      9  C   UNL A   1      48.367  27.844  22.226  1.00  0.00     0.359 C 
ATOM     10  O   UNL A   1      47.374  28.507  21.998  1.00  0.00    -0.244 OA
BRANCH   9  11
ATOM     11  C   UNL A   1      49.636  27.934  21.368  1.00  0.00     0.173 A 
ATOM     12  N   UNL A   1      51.494  29.125  20.783  1.00  0.00    -0.195 N 
ATOM     13  N   UNL A   1      50.435  28.926  21.630  1.00  0.00    -0.157 NA
ATOM     14  C   UNL A   1      51.685  28.414  19.599  1.00  0.00     0.289 A 
ATOM     15  C   UNL A   1      50.855  27.189  19.451  1.00  0.00     0.125 A 
ATOM     16  O   UNL A   1      52.517  28.702  18.740  1.00  0.00    -0.266 OA
ATOM     17  C   UNL A   1      49.873  26.899  20.321  1.00  0.00     0.007 A 
ATOM     18  C   UNL A   1      49.075  25.626  20.329  1.00  0.00     0.049 C 
BRANCH  12  19
ATOM     19  C   UNL A   1      52.230  30.311  21.037  1.00  0.00     0.070 A 
ATOM     20  C   UNL A   1      54.609  33.894  21.482  1.00  0.00     0.046 C 
ATOM     21  C   UNL A   1      53.784  32.643  21.367  1.00  0.00    -0.032 A 
ATOM     22  C   UNL A   1      52.687  32.631  20.495  1.00  0.00     0.007 A 
ATOM     23  C   UNL A   1      54.084  31.469  22.080  1.00  0.00     0.046 A 
ATOM     24  C   UNL A   1      51.930  31.473  20.320  1.00  0.00     0.029 A 
ATOM     25  C   UNL A   1      53.297  30.317  21.941  1.00  0.00     0.049 A 
ATOM     26  Cl  UNL A   1      55.463  31.390  23.123  1.00  0.00    -0.084 Cl
ENDBRANCH  12  19
BRANCH  15  27
ATOM     27  C   UNL A   1      51.186  26.329  18.363  1.00  0.00     0.105 C 
ATOM     28  N   UNL A   1      51.450  25.666  17.454  1.00  0.00    -0.192 NA
ENDBRANCH  15  27
ENDBRANCH   9  11
ENDBRANCH   8   9
ENDBRANCH   7   8
ENDBRANCH   6   7
ENDBRANCH   5   6
ENDBRANCH   4   5
ENDBRANCH   3   4
ENDBRANCH   2   3
ENDBRANCH   1   2
BRANCH   1  29
ATOM     29  C   UNL A   1      42.734  21.956  26.640  1.00  0.00     0.188 C 
BRANCH  29  30
ATOM     30  O   UNL A   1      41.412  21.639  27.016  1.00  0.00    -0.376 OA
BRANCH  30  31
ATOM     31  C   UNL A   1      40.626  20.790  26.208  1.00  0.00     0.202 C 
BRANCH  31  32
ATOM     32  C   UNL A   1      39.185  21.165  25.822  1.00  0.00     0.261 C 
BRANCH  32  33
ATOM     33  O   UNL A   1      38.544  22.198  26.578  1.00  0.00    -0.460 OA
BRANCH  33  34
ATOM     34  C   UNL A   1      38.283  23.359  25.935  1.00  0.00     0.338 C 
ATOM     35  O   UNL A   1      37.483  23.532  25.034  1.00  0.00    -0.246 OA
BRANCH  34  36
ATOM     36  C   UNL A   1      38.998  24.435  26.656  1.00  0.00     0.060 A 
ATOM     37  C   UNL A   1      38.756  24.623  28.024  1.00  0.00     0.016 A 
ATOM     38  C   UNL A   1      39.921  25.242  25.986  1.00  0.00     0.016 A 
ATOM     39  C   UNL A   1      39.420  25.631  28.722  1.00  0.00     0.010 A 
ATOM     40  C   UNL A   1      40.560  26.274  26.678  1.00  0.00     0.010 A 
ATOM     41  C   UNL A   1      40.289  26.492  28.042  1.00  0.00    -0.014 A 
BRANCH  41  42
ATOM     42  C   UNL A   1      40.737  27.743  28.698  1.00  0.00     0.031 A 
ATOM     43  C   UNL A   1      42.170  27.831  29.150  1.00  0.00     0.074 A 
ATOM     44  C   UNL A   1      39.911  28.794  28.856  1.00  0.00     0.049 A 
ATOM     45  N   UNL A   1      42.784  28.800  29.776  1.00  0.00    -0.248 NA
ATOM     46  C   UNL A   1      43.025  26.669  28.854  1.00  0.00     0.031 C 
ATOM     47  C   UNL A   1      38.523  28.855  28.401  1.00  0.00     0.029 A 
ATOM     48  N   UNL A   1      40.128  30.014  29.446  1.00  0.00    -0.354 N 
ATOM     49  C   UNL A   1      44.090  28.362  29.957  1.00  0.00     0.074 A 
ATOM     50  C   UNL A   1      44.173  27.027  29.407  1.00  0.00     0.031 C 
ATOM     51  C   UNL A   1      38.011  30.054  28.731  1.00  0.00     0.029 A 
ATOM     52  C   UNL A   1      39.020  30.828  29.456  1.00  0.00     0.049 A 
ATOM     53  H   UNL A   1      40.995  30.282  29.827  1.00  0.00     0.167 HD
ATOM     54  C   UNL A   1      45.131  29.016  30.521  1.00  0.00     0.031 A 
ATOM     55  C   UNL A   1      38.834  32.047  30.004  1.00  0.00     0.031 A 
ATOM     56  C   UNL A   1      45.040  30.339  31.079  1.00  0.00     0.049 A 
ATOM     57  C   UNL A   1      39.981  32.716  30.718  1.00  0.00     0.074 A 
ATOM     58  C   UNL A   1      46.041  31.090  31.669  1.00  0.00     0.029 A 
ATOM     59  N   UNL A   1      43.885  31.104  31.123  1.00  0.00    -0.354 N 
ATOM     60  N   UNL A   1      41.216  32.297  30.867  1.00  0.00    -0.248 NA
ATOM     61  C   UNL A   1      39.712  34.024  31.332  1.00  0.00     0.031 C 
ATOM     62  C   UNL A   1      45.473  32.277  32.138  1.00  0.00     0.029 A 
ATOM     63  C   UNL A   1      44.138  32.303  31.765  1.00  0.00     0.049 A 
ATOM     64  H   UNL A   1      43.013  30.833  30.752  1.00  0.00     0.167 HD
ATOM     65  C   UNL A   1      41.877  33.301  31.571  1.00  0.00     0.074 A 
ATOM     66  C   UNL A   1      40.910  34.355  31.799  1.00  0.00     0.031 C 
ATOM     67  C   UNL A   1      43.167  33.345  31.989  1.00  0.00     0.031 A 
BRANCH  54  68
ATOM     68  C   UNL A   1      46.454  28.300  30.593  1.00  0.00    -0.014 A 
ATOM     69  C   UNL A   1      47.449  28.505  29.621  1.00  0.00     0.010 A 
ATOM     70  C   UNL A   1      46.728  27.455  31.685  1.00  0.00     0.010 A 
ATOM     71  C   UNL A   1      48.683  27.856  29.724  1.00  0.00     0.020 A 
ATOM     72  C   UNL A   1      47.972  26.831  31.810  1.00  0.00     0.020 A 
ATOM     73  C   UNL A   1      48.938  27.027  30.820  1.00  0.00     0.054 A 
BRANCH  73  74
ATOM     74  S   UNL A   1      50.562  26.232  30.943  1.00  0.00     0.124 S 
ATOM     75  O   UNL A   1      51.192  26.994  32.018  1.00  0.00    -0.237 OA
ATOM     76  O   UNL A   1      50.214  24.852  31.271  1.00  0.00    -0.237 OA
ATOM     77  O   UNL A   1      51.147  26.428  29.618  1.00  0.00    -0.744 OA
ENDBRANCH  73  74
ENDBRANCH  54  68
BRANCH  55  78
ATOM     78  C   UNL A   1      37.503  32.710  29.904  1.00  0.00    -0.014 A 
ATOM     79  C   UNL A   1      36.543  32.551  30.918  1.00  0.00     0.010 A 
ATOM     80  C   UNL A   1      37.195  33.524  28.796  1.00  0.00     0.010 A 
ATOM     81  C   UNL A   1      35.303  33.191  30.829  1.00  0.00     0.020 A 
ATOM     82  C   UNL A   1      35.969  34.192  28.719  1.00  0.00     0.020 A 
ATOM     83  C   UNL A   1      35.029  34.019  29.736  1.00  0.00     0.054 A 
BRANCH  83  84
ATOM     84  S   UNL A   1      33.445  34.901  29.686  1.00  0.00     0.124 S 
ATOM     85  O   UNL A   1      33.075  34.945  31.098  1.00  0.00    -0.237 OA
ATOM     86  O   UNL A   1      33.822  36.180  29.089  1.00  0.00    -0.237 OA
ATOM     87  O   UNL A   1      32.605  34.051  28.845  1.00  0.00    -0.744 OA
ENDBRANCH  83  84
ENDBRANCH  55  78
BRANCH  67  88
ATOM     88  C   UNL A   1      43.630  34.577  32.725  1.00  0.00    -0.014 A 
ATOM     89  C   UNL A   1      43.630  35.840  32.106  1.00  0.00     0.010 A 
ATOM     90  C   UNL A   1      43.984  34.484  34.085  1.00  0.00     0.010 A 
ATOM     91  C   UNL A   1      43.999  36.980  32.824  1.00  0.00     0.020 A 
ATOM     92  C   UNL A   1      44.318  35.626  34.817  1.00  0.00     0.020 A 
ATOM     93  C   UNL A   1      44.334  36.866  34.178  1.00  0.00     0.054 A 
BRANCH  93  94
ATOM     94  S   UNL A   1      44.759  38.373  35.095  1.00  0.00     0.124 S 
ATOM     95  O   UNL A   1      43.865  38.292  36.246  1.00  0.00    -0.237 OA
ATOM     96  O   UNL A   1      46.177  38.178  35.385  1.00  0.00    -0.237 OA
ATOM     97  O   UNL A   1      44.463  39.450  34.152  1.00  0.00    -0.744 OA
ENDBRANCH  93  94
ENDBRANCH  67  88
ENDBRANCH  41  42
ENDBRANCH  34  36
ENDBRANCH  33  34
ENDBRANCH  32  33
ENDBRANCH  31  32
ENDBRANCH  30  31
ENDBRANCH  29  30
ENDBRANCH   1  29
TORSDOF 25
ENDMDL
MODEL 2
REMARK VINA RESULT:      -7.7      6.557     13.138
REMARK SMILES Cc1ccc(-n2nc(C(=O)OCCOCCOCCOCCOC(=O)c3ccc(-c4c5nc(c(-c6ccc(S(=O)(=O)[O-])cc6)c6ccc([nH]6)c(-c6ccc(S(=O)(=O)[O-])cc6)c6nc(c(-c7ccc(S(=O)(=O)[O-])cc7)c7ccc4[nH]7)C=C6)C=C5)cc3)c(C)c(C#N)c2=O)cc1Cl
REMARK SMILES IDX 18 1 17 2 16 3 15 4 14 5 13 6 12 7 11 8 9 9 10 10 8 11 6 12
REMARK SMILES IDX 7 13 91 14 88 15 92 16 86 17 87 18 5 19 1 20 2 21 3 22 94 23
REMARK SMILES IDX 4 24 93 25 95 26 89 27 90 28 19 29 20 30 21 31 22 32 23 33
REMARK SMILES IDX 24 34 25 35 26 36 27 37 85 38 28 39 84 40 29 41 30 42 31 43
REMARK SMILES IDX 78 44 32 45 83 46 77 47 79 48 33 49 82 50 76 51 75 52 34 54
REMARK SMILES IDX 64 55 45 56 63 57 46 58 49 59 62 60 80 61 47 62 48 63 61 65
REMARK SMILES IDX 81 66 50 67 35 68 36 69 44 70 37 71 43 72 38 73 39 74 40 75
REMARK SMILES IDX 41 76 42 77 65 78 66 79 74 80 67 81 73 82 68 83 69 84 70 85
REMARK SMILES IDX 71 86 72 87 51 88 52 89 60 90 53 91 59 92 54 93 55 94 56 95
REMARK SMILES IDX 57 96 58 97
REMARK H PARENT 79 53 49 64
REMARK Flexibility Score: inf
ROOT
ATOM      1  C   UNL A   1      39.679  28.461  28.329  1.00  0.00     0.188 C 
ENDROOT
BRANCH   1   2
ATOM      2  O   UNL A   1      38.868  29.631  28.384  1.00  0.00    -0.377 OA
BRANCH   2   3
ATOM      3  C   UNL A   1      37.761  29.780  27.515  1.00  0.00     0.188 C 
BRANCH   3   4
ATOM      4  C   UNL A   1      36.340  29.385  27.989  1.00  0.00     0.188 C 
BRANCH   4   5
ATOM      5  O   UNL A   1      35.251  30.093  27.433  1.00  0.00    -0.376 OA
BRANCH   5   6
ATOM      6  C   UNL A   1      34.867  31.393  27.837  1.00  0.00     0.202 C 
BRANCH   6   7
ATOM      7  C   UNL A   1      33.417  31.889  27.906  1.00  0.00     0.261 C 
BRANCH   7   8
ATOM      8  O   UNL A   1      33.264  33.302  27.931  1.00  0.00    -0.458 OA
BRANCH   8   9
ATOM      9  C   UNL A   1      34.379  34.037  28.064  1.00  0.00     0.359 C 
ATOM     10  O   UNL A   1      35.095  34.476  27.186  1.00  0.00    -0.244 OA
BRANCH   9  11
ATOM     11  C   UNL A   1      34.580  34.384  29.546  1.00  0.00     0.173 A 
ATOM     12  N   UNL A   1      35.691  33.967  31.496  1.00  0.00    -0.195 N 
ATOM     13  N   UNL A   1      35.578  33.800  30.140  1.00  0.00    -0.157 NA
ATOM     14  C   UNL A   1      34.736  34.610  32.281  1.00  0.00     0.289 A 
ATOM     15  C   UNL A   1      33.726  35.405  31.532  1.00  0.00     0.125 A 
ATOM     16  O   UNL A   1      34.727  34.606  33.511  1.00  0.00    -0.266 OA
ATOM     17  C   UNL A   1      33.648  35.353  30.192  1.00  0.00     0.007 A 
ATOM     18  C   UNL A   1      32.755  36.215  29.345  1.00  0.00     0.049 C 
BRANCH  12  19
ATOM     19  C   UNL A   1      36.705  33.180  32.099  1.00  0.00     0.070 A 
ATOM     20  C   UNL A   1      40.000  30.851  33.655  1.00  0.00     0.046 C 
ATOM     21  C   UNL A   1      38.829  31.637  33.135  1.00  0.00    -0.032 A 
ATOM     22  C   UNL A   1      38.928  33.033  33.062  1.00  0.00     0.007 A 
ATOM     23  C   UNL A   1      37.643  31.026  32.690  1.00  0.00     0.046 A 
ATOM     24  C   UNL A   1      37.884  33.792  32.535  1.00  0.00     0.029 A 
ATOM     25  C   UNL A   1      36.574  31.791  32.202  1.00  0.00     0.049 A 
ATOM     26  Cl  UNL A   1      37.478  29.303  32.687  1.00  0.00    -0.084 Cl
ENDBRANCH  12  19
BRANCH  15  27
ATOM     27  C   UNL A   1      32.879  36.246  32.311  1.00  0.00     0.105 C 
ATOM     28  N   UNL A   1      32.193  36.958  32.909  1.00  0.00    -0.192 NA
ENDBRANCH  15  27
ENDBRANCH   9  11
ENDBRANCH   8   9
ENDBRANCH   7   8
ENDBRANCH   6   7
ENDBRANCH   5   6
ENDBRANCH   4   5
ENDBRANCH   3   4
ENDBRANCH   2   3
ENDBRANCH   1   2
BRANCH   1  29
ATOM     29  C   UNL A   1      40.745  28.239  27.229  1.00  0.00     0.188 C 
BRANCH  29  30
ATOM     30  O   UNL A   1      41.005  26.888  26.920  1.00  0.00    -0.376 OA
BRANCH  30  31
ATOM     31  C   UNL A   1      41.310  26.506  25.596  1.00  0.00     0.202 C 
BRANCH  31  32
ATOM     32  C   UNL A   1      42.535  25.632  25.279  1.00  0.00     0.261 C 
BRANCH  32  33
ATOM     33  O   UNL A   1      42.463  24.242  25.616  1.00  0.00    -0.460 OA
BRANCH  33  34
ATOM     34  C   UNL A   1      43.599  23.658  26.062  1.00  0.00     0.338 C 
ATOM     35  O   UNL A   1      44.352  22.944  25.427  1.00  0.00    -0.246 OA
BRANCH  34  36
ATOM     36  C   UNL A   1      43.878  24.204  27.409  1.00  0.00     0.060 A 
ATOM     37  C   UNL A   1      42.874  24.166  28.387  1.00  0.00     0.016 A 
ATOM     38  C   UNL A   1      45.135  24.733  27.710  1.00  0.00     0.016 A 
ATOM     39  C   UNL A   1      43.117  24.674  29.662  1.00  0.00     0.010 A 
ATOM     40  C   UNL A   1      45.366  25.274  28.977  1.00  0.00     0.010 A 
ATOM     41  C   UNL A   1      44.348  25.275  29.949  1.00  0.00    -0.014 A 
BRANCH  41  42
ATOM     42  C   UNL A   1      44.492  26.093  31.176  1.00  0.00     0.031 A 
ATOM     43  C   UNL A   1      44.192  27.565  31.085  1.00  0.00     0.074 A 
ATOM     44  C   UNL A   1      44.840  25.543  32.355  1.00  0.00     0.049 A 
ATOM     45  N   UNL A   1      44.280  28.487  32.008  1.00  0.00    -0.248 NA
ATOM     46  C   UNL A   1      43.730  28.062  29.779  1.00  0.00     0.031 C 
ATOM     47  C   UNL A   1      45.091  24.122  32.584  1.00  0.00     0.029 A 
ATOM     48  N   UNL A   1      45.042  26.125  33.582  1.00  0.00    -0.354 N 
ATOM     49  C   UNL A   1      43.895  29.671  31.391  1.00  0.00     0.074 A 
ATOM     50  C   UNL A   1      43.606  29.359  30.009  1.00  0.00     0.031 C 
ATOM     51  C   UNL A   1      45.415  23.942  33.877  1.00  0.00     0.029 A 
ATOM     52  C   UNL A   1      45.435  25.238  34.555  1.00  0.00     0.049 A 
ATOM     53  H   UNL A   1      44.917  27.086  33.749  1.00  0.00     0.167 HD
ATOM     54  C   UNL A   1      43.781  30.907  31.930  1.00  0.00     0.031 A 
ATOM     55  C   UNL A   1      45.791  25.449  35.840  1.00  0.00     0.031 A 
ATOM     56  C   UNL A   1      44.082  31.214  33.303  1.00  0.00     0.049 A 
ATOM     57  C   UNL A   1      45.754  26.852  36.392  1.00  0.00     0.074 A 
ATOM     58  C   UNL A   1      43.994  32.436  33.946  1.00  0.00     0.029 A 
ATOM     59  N   UNL A   1      44.536  30.299  34.240  1.00  0.00    -0.354 N 
ATOM     60  N   UNL A   1      45.372  27.961  35.803  1.00  0.00    -0.248 NA
ATOM     61  C   UNL A   1      46.191  27.031  37.785  1.00  0.00     0.031 C 
ATOM     62  C   UNL A   1      44.466  32.274  35.251  1.00  0.00     0.029 A 
ATOM     63  C   UNL A   1      44.769  30.936  35.447  1.00  0.00     0.049 A 
ATOM     64  H   UNL A   1      44.672  29.338  34.072  1.00  0.00     0.167 HD
ATOM     65  C   UNL A   1      45.498  28.964  36.761  1.00  0.00     0.074 A 
ATOM     66  C   UNL A   1      45.973  28.327  37.971  1.00  0.00     0.031 C 
ATOM     67  C   UNL A   1      45.245  30.292  36.646  1.00  0.00     0.031 A 
BRANCH  54  68
ATOM     68  C   UNL A   1      43.341  32.029  31.028  1.00  0.00    -0.014 A 
ATOM     69  C   UNL A   1      41.985  32.384  30.912  1.00  0.00     0.010 A 
ATOM     70  C   UNL A   1      44.306  32.779  30.330  1.00  0.00     0.010 A 
ATOM     71  C   UNL A   1      41.601  33.450  30.094  1.00  0.00     0.020 A 
ATOM     72  C   UNL A   1      43.929  33.866  29.538  1.00  0.00     0.020 A 
ATOM     73  C   UNL A   1      42.576  34.188  29.416  1.00  0.00     0.054 A 
BRANCH  73  74
ATOM     74  S   UNL A   1      42.045  35.587  28.394  1.00  0.00     0.124 S 
ATOM     75  O   UNL A   1      42.715  35.307  27.126  1.00  0.00    -0.237 OA
ATOM     76  O   UNL A   1      40.593  35.439  28.385  1.00  0.00    -0.237 OA
ATOM     77  O   UNL A   1      42.546  36.756  29.116  1.00  0.00    -0.744 OA
ENDBRANCH  73  74
ENDBRANCH  54  68
BRANCH  55  78
ATOM     78  C   UNL A   1      46.219  24.302  36.690  1.00  0.00    -0.014 A 
ATOM     79  C   UNL A   1      45.283  23.588  37.457  1.00  0.00     0.010 A 
ATOM     80  C   UNL A   1      47.570  23.905  36.721  1.00  0.00     0.010 A 
ATOM     81  C   UNL A   1      45.687  22.500  38.238  1.00  0.00     0.020 A 
ATOM     82  C   UNL A   1      47.973  22.797  37.473  1.00  0.00     0.020 A 
ATOM     83  C   UNL A   1      47.028  22.104  38.231  1.00  0.00     0.054 A 
BRANCH  83  84
ATOM     84  S   UNL A   1      47.508  20.640  39.188  1.00  0.00     0.124 S 
ATOM     85  O   UNL A   1      46.217  20.138  39.649  1.00  0.00    -0.237 OA
ATOM     86  O   UNL A   1      48.184  19.822  38.183  1.00  0.00    -0.237 OA
ATOM     87  O   UNL A   1      48.378  21.181  40.229  1.00  0.00    -0.744 OA
ENDBRANCH  83  84
ENDBRANCH  55  78
BRANCH  67  88
ATOM     88  C   UNL A   1      45.454  31.160  37.861  1.00  0.00    -0.014 A 
ATOM     89  C   UNL A   1      46.664  31.845  38.069  1.00  0.00     0.010 A 
ATOM     90  C   UNL A   1      44.389  31.366  38.760  1.00  0.00     0.010 A 
ATOM     91  C   UNL A   1      46.814  32.697  39.166  1.00  0.00     0.020 A 
ATOM     92  C   UNL A   1      44.523  32.245  39.837  1.00  0.00     0.020 A 
ATOM     93  C   UNL A   1      45.740  32.898  40.040  1.00  0.00     0.054 A 
BRANCH  93  94
ATOM     94  S   UNL A   1      45.951  34.050  41.424  1.00  0.00     0.124 S 
ATOM     95  O   UNL A   1      47.386  34.319  41.382  1.00  0.00    -0.237 OA
ATOM     96  O   UNL A   1      45.090  35.166  41.043  1.00  0.00    -0.237 OA
ATOM     97  O   UNL A   1      45.497  33.286  42.585  1.00  0.00    -0.744 OA
ENDBRANCH  93  94
ENDBRANCH  67  88
ENDBRANCH  41  42
ENDBRANCH  34  36
ENDBRANCH  33  34
ENDBRANCH  32  33
ENDBRANCH  31  32
ENDBRANCH  30  31
ENDBRANCH  29  30
ENDBRANCH   1  29
TORSDOF 25
ENDMDL
MODEL 3
REMARK VINA RESULT:      -7.5      8.453     15.541
REMARK SMILES Cc1ccc(-n2nc(C(=O)OCCOCCOCCOCCOC(=O)c3ccc(-c4c5nc(c(-c6ccc(S(=O)(=O)[O-])cc6)c6ccc([nH]6)c(-c6ccc(S(=O)(=O)[O-])cc6)c6nc(c(-c7ccc(S(=O)(=O)[O-])cc7)c7ccc4[nH]7)C=C6)C=C5)cc3)c(C)c(C#N)c2=O)cc1Cl
REMARK SMILES IDX 18 1 17 2 16 3 15 4 14 5 13 6 12 7 11 8 9 9 10 10 8 11 6 12
REMARK SMILES IDX 7 13 91 14 88 15 92 16 86 17 87 18 5 19 1 20 2 21 3 22 94 23
REMARK SMILES IDX 4 24 93 25 95 26 89 27 90 28 19 29 20 30 21 31 22 32 23 33
REMARK SMILES IDX 24 34 25 35 26 36 27 37 85 38 28 39 84 40 29 41 30 42 31 43
REMARK SMILES IDX 78 44 32 45 83 46 77 47 79 48 33 49 82 50 76 51 75 52 34 54
REMARK SMILES IDX 64 55 45 56 63 57 46 58 49 59 62 60 80 61 47 62 48 63 61 65
REMARK SMILES IDX 81 66 50 67 35 68 36 69 44 70 37 71 43 72 38 73 39 74 40 75
REMARK SMILES IDX 41 76 42 77 65 78 66 79 74 80 67 81 73 82 68 83 69 84 70 85
REMARK SMILES IDX 71 86 72 87 51 88 52 89 60 90 53 91 59 92 54 93 55 94 56 95
REMARK SMILES IDX 57 96 58 97
REMARK H PARENT 79 53 49 64
REMARK Flexibility Score: inf
ROOT
ATOM      1  C   UNL A   1      45.246  42.786  28.706  1.00  0.00     0.188 C 
ENDROOT
BRANCH   1   2
ATOM      2  O   UNL A   1      44.392  42.223  27.715  1.00  0.00    -0.377 OA
BRANCH   2   3
ATOM      3  C   UNL A   1      44.805  42.158  26.363  1.00  0.00     0.188 C 
BRANCH   3   4
ATOM      4  C   UNL A   1      44.117  43.045  25.294  1.00  0.00     0.188 C 
BRANCH   4   5
ATOM      5  O   UNL A   1      44.917  43.515  24.229  1.00  0.00    -0.376 OA
BRANCH   5   6
ATOM      6  C   UNL A   1      46.299  43.797  24.344  1.00  0.00     0.202 C 
BRANCH   6   7
ATOM      7  C   UNL A   1      47.074  44.740  23.416  1.00  0.00     0.261 C 
BRANCH   7   8
ATOM      8  O   UNL A   1      46.779  44.601  22.033  1.00  0.00    -0.458 OA
BRANCH   8   9
ATOM      9  C   UNL A   1      47.668  43.933  21.280  1.00  0.00     0.359 C 
ATOM     10  O   UNL A   1      48.218  42.879  21.531  1.00  0.00    -0.244 OA
BRANCH   9  11
ATOM     11  C   UNL A   1      47.818  44.643  19.928  1.00  0.00     0.173 A 
ATOM     12  N   UNL A   1      46.820  45.799  18.230  1.00  0.00    -0.195 N 
ATOM     13  N   UNL A   1      46.771  45.287  19.500  1.00  0.00    -0.157 NA
ATOM     14  C   UNL A   1      47.862  45.558  17.335  1.00  0.00     0.289 A 
ATOM     15  C   UNL A   1      49.094  44.979  17.934  1.00  0.00     0.125 A 
ATOM     16  O   UNL A   1      47.836  45.849  16.141  1.00  0.00    -0.266 OA
ATOM     17  C   UNL A   1      49.122  44.561  19.210  1.00  0.00     0.007 A 
ATOM     18  C   UNL A   1      50.350  44.088  19.937  1.00  0.00     0.049 C 
BRANCH  12  19
ATOM     19  C   UNL A   1      45.595  46.350  17.774  1.00  0.00     0.070 A 
ATOM     20  C   UNL A   1      41.777  48.088  16.726  1.00  0.00     0.046 C 
ATOM     21  C   UNL A   1      43.102  47.462  17.057  1.00  0.00    -0.032 A 
ATOM     22  C   UNL A   1      44.123  48.269  17.577  1.00  0.00     0.007 A 
ATOM     23  C   UNL A   1      43.354  46.089  16.891  1.00  0.00     0.046 A 
ATOM     24  C   UNL A   1      45.349  47.715  17.946  1.00  0.00     0.029 A 
ATOM     25  C   UNL A   1      44.601  45.537  17.220  1.00  0.00     0.049 A 
ATOM     26  Cl  UNL A   1      42.119  45.021  16.319  1.00  0.00    -0.084 Cl
ENDBRANCH  12  19
BRANCH  15  27
ATOM     27  C   UNL A   1      50.243  44.930  17.092  1.00  0.00     0.105 C 
ATOM     28  N   UNL A   1      51.176  44.846  16.416  1.00  0.00    -0.192 NA
ENDBRANCH  15  27
ENDBRANCH   9  11
ENDBRANCH   8   9
ENDBRANCH   7   8
ENDBRANCH   6   7
ENDBRANCH   5   6
ENDBRANCH   4   5
ENDBRANCH   3   4
ENDBRANCH   2   3
ENDBRANCH   1   2
BRANCH   1  29
ATOM     29  C   UNL A   1      46.278  41.942  29.492  1.00  0.00     0.188 C 
BRANCH  29  30
ATOM     30  O   UNL A   1      45.749  40.800  30.128  1.00  0.00    -0.376 OA
BRANCH  30  31
ATOM     31  C   UNL A   1      45.870  39.529  29.526  1.00  0.00     0.202 C 
BRANCH  31  32
ATOM     32  C   UNL A   1      47.219  38.792  29.482  1.00  0.00     0.261 C 
BRANCH  32  33
ATOM     33  O   UNL A   1      47.232  37.408  29.851  1.00  0.00    -0.460 OA
BRANCH  33  34
ATOM     34  C   UNL A   1      48.140  36.616  29.236  1.00  0.00     0.338 C 
ATOM     35  O   UNL A   1      49.314  36.868  29.039  1.00  0.00    -0.246 OA
BRANCH  34  36
ATOM     36  C   UNL A   1      47.504  35.297  29.021  1.00  0.00     0.060 A 
ATOM     37  C   UNL A   1      47.530  34.347  30.052  1.00  0.00     0.016 A 
ATOM     38  C   UNL A   1      46.867  35.009  27.813  1.00  0.00     0.016 A 
ATOM     39  C   UNL A   1      46.936  33.099  29.871  1.00  0.00     0.010 A 
ATOM     40  C   UNL A   1      46.303  33.746  27.619  1.00  0.00     0.010 A 
ATOM     41  C   UNL A   1      46.363  32.774  28.636  1.00  0.00    -0.014 A 
BRANCH  41  42
ATOM     42  C   UNL A   1      46.027  31.362  28.336  1.00  0.00     0.031 A 
ATOM     43  C   UNL A   1      44.595  30.927  28.492  1.00  0.00     0.074 A 
ATOM     44  C   UNL A   1      46.956  30.493  27.898  1.00  0.00     0.049 A 
ATOM     45  N   UNL A   1      44.066  29.743  28.324  1.00  0.00    -0.248 NA
ATOM     46  C   UNL A   1      43.631  31.968  28.887  1.00  0.00     0.031 C 
ATOM     47  C   UNL A   1      48.360  30.811  27.644  1.00  0.00     0.029 A 
ATOM     48  N   UNL A   1      46.850  29.159  27.589  1.00  0.00    -0.354 N 
ATOM     49  C   UNL A   1      42.713  29.895  28.603  1.00  0.00     0.074 A 
ATOM     50  C   UNL A   1      42.507  31.275  28.984  1.00  0.00     0.031 C 
ATOM     51  C   UNL A   1      48.987  29.700  27.219  1.00  0.00     0.029 A 
ATOM     52  C   UNL A   1      48.040  28.584  27.209  1.00  0.00     0.049 A 
ATOM     53  H   UNL A   1      46.003  28.662  27.635  1.00  0.00     0.167 HD
ATOM     54  C   UNL A   1      41.727  28.970  28.539  1.00  0.00     0.031 A 
ATOM     55  C   UNL A   1      48.335  27.302  26.908  1.00  0.00     0.031 A 
ATOM     56  C   UNL A   1      41.940  27.596  28.172  1.00  0.00     0.049 A 
ATOM     57  C   UNL A   1      47.240  26.267  26.941  1.00  0.00     0.074 A 
ATOM     58  C   UNL A   1      41.004  26.582  28.072  1.00  0.00     0.029 A 
ATOM     59  N   UNL A   1      43.169  27.040  27.854  1.00  0.00    -0.354 N 
ATOM     60  N   UNL A   1      45.961  26.427  27.190  1.00  0.00    -0.248 NA
ATOM     61  C   UNL A   1      47.625  24.879  26.645  1.00  0.00     0.031 C 
ATOM     62  C   UNL A   1      41.679  25.397  27.767  1.00  0.00     0.029 A 
ATOM     63  C   UNL A   1      43.023  25.689  27.594  1.00  0.00     0.049 A 
ATOM     64  H   UNL A   1      44.020  27.534  27.817  1.00  0.00     0.167 HD
ATOM     65  C   UNL A   1      45.386  25.166  27.057  1.00  0.00     0.074 A 
ATOM     66  C   UNL A   1      46.453  24.259  26.687  1.00  0.00     0.031 C 
ATOM     67  C   UNL A   1      44.092  24.794  27.228  1.00  0.00     0.031 A 
BRANCH  54  68
ATOM     68  C   UNL A   1      40.332  29.405  28.901  1.00  0.00    -0.014 A 
ATOM     69  C   UNL A   1      39.968  29.654  30.237  1.00  0.00     0.010 A 
ATOM     70  C   UNL A   1      39.387  29.626  27.882  1.00  0.00     0.010 A 
ATOM     71  C   UNL A   1      38.677  30.089  30.548  1.00  0.00     0.020 A 
ATOM     72  C   UNL A   1      38.106  30.093  28.187  1.00  0.00     0.020 A 
ATOM     73  C   UNL A   1      37.755  30.311  29.521  1.00  0.00     0.054 A 
BRANCH  73  74
ATOM     74  S   UNL A   1      36.102  30.912  29.958  1.00  0.00     0.124 S 
ATOM     75  O   UNL A   1      35.322  30.529  28.784  1.00  0.00    -0.237 OA
ATOM     76  O   UNL A   1      35.808  30.167  31.179  1.00  0.00    -0.237 OA
ATOM     77  O   UNL A   1      36.290  32.350  30.137  1.00  0.00    -0.744 OA
ENDBRANCH  73  74
ENDBRANCH  54  68
BRANCH  55  78
ATOM     78  C   UNL A   1      49.734  26.926  26.557  1.00  0.00    -0.014 A 
ATOM     79  C   UNL A   1      50.681  26.665  27.562  1.00  0.00     0.010 A 
ATOM     80  C   UNL A   1      50.122  26.809  25.208  1.00  0.00     0.010 A 
ATOM     81  C   UNL A   1      51.988  26.293  27.227  1.00  0.00     0.020 A 
ATOM     82  C   UNL A   1      51.418  26.406  24.869  1.00  0.00     0.020 A 
ATOM     83  C   UNL A   1      52.344  26.154  25.882  1.00  0.00     0.054 A 
BRANCH  83  84
ATOM     84  S   UNL A   1      54.020  25.592  25.479  1.00  0.00     0.124 S 
ATOM     85  O   UNL A   1      53.840  25.024  24.146  1.00  0.00    -0.237 OA
ATOM     86  O   UNL A   1      54.786  26.834  25.541  1.00  0.00    -0.237 OA
ATOM     87  O   UNL A   1      54.323  24.628  26.534  1.00  0.00    -0.744 OA
ENDBRANCH  83  84
ENDBRANCH  55  78
BRANCH  67  88
ATOM     88  C   UNL A   1      43.737  23.346  27.001  1.00  0.00    -0.014 A 
ATOM     89  C   UNL A   1      43.280  22.533  28.053  1.00  0.00     0.010 A 
ATOM     90  C   UNL A   1      43.771  22.818  25.696  1.00  0.00     0.010 A 
ATOM     91  C   UNL A   1      42.892  21.213  27.809  1.00  0.00     0.020 A 
ATOM     92  C   UNL A   1      43.348  21.511  25.441  1.00  0.00     0.020 A 
ATOM     93  C   UNL A   1      42.922  20.713  26.503  1.00  0.00     0.054 A 
BRANCH  93  94
ATOM     94  S   UNL A   1      42.362  19.012  26.213  1.00  0.00     0.124 S 
ATOM     95  O   UNL A   1      40.982  19.214  25.781  1.00  0.00    -0.237 OA
ATOM     96  O   UNL A   1      43.283  18.546  25.181  1.00  0.00    -0.237 OA
ATOM     97  O   UNL A   1      42.516  18.368  27.516  1.00  0.00    -0.744 OA
ENDBRANCH  93  94
ENDBRANCH  67  88
ENDBRANCH  41  42
ENDBRANCH  34  36
ENDBRANCH  33  34
ENDBRANCH  32  33
ENDBRANCH  31  32
ENDBRANCH  30  31
ENDBRANCH  29  30
ENDBRANCH   1  29
TORSDOF 25
ENDMDL
