MODEL 1
REMARK VINA RESULT:     -10.2      0.000      0.000
REMARK SMILES Cc1c(C(=O)Nc2ccc(C(=O)Nc3ccccc3C(=O)OCCOCCOCCOCCOC(=O)c3ccc(-c4c5nc(c(-c6ccc(S(=O)(=O)[O-])cc6)c6ccc([nH]6)c(-c6ccc(S(=O)(=O)[O-])cc6)c6nc(c(-c7ccc(S(=O)(=O)[O-])cc7)c7ccc4[nH]7)C=C6)C=C5)cc3)cc2)cccc1[N+](=O)[O-]
REMARK SMILES IDX 27 1 26 2 25 3 24 4 23 5 22 6 20 7 21 8 19 9 14 10 15 11
REMARK SMILES IDX 16 12 18 13 17 14 13 15 11 16 12 17 10 19 7 20 8 21 98 22
REMARK SMILES IDX 9 23 97 24 6 25 4 26 5 27 3 29 1 30 2 31 102 32 99 33 101 34
REMARK SMILES IDX 100 35 103 36 104 37 105 38 28 39 29 40 30 41 31 42 32 43
REMARK SMILES IDX 33 44 34 45 35 46 36 47 37 48 38 49 96 50 39 51 95 52 40 53
REMARK SMILES IDX 41 54 42 55 89 56 43 57 94 58 88 59 90 60 44 61 93 62 87 63
REMARK SMILES IDX 86 64 45 66 75 67 56 68 74 69 57 70 60 71 73 72 91 73 58 74
REMARK SMILES IDX 59 75 72 77 92 78 61 79 46 80 47 81 55 82 48 83 54 84 49 85
REMARK SMILES IDX 50 86 51 87 52 88 53 89 76 90 77 91 85 92 78 93 84 94 79 95
REMARK SMILES IDX 80 96 81 97 82 98 83 99 62 100 63 101 71 102 64 103 70 104
REMARK SMILES IDX 65 105 66 106 67 107 68 108 69 109
REMARK H PARENT 13 18 6 28 90 65 60 76
REMARK Flexibility Score: inf
ROOT
ATOM      1  C   UNL A   1      32.338  33.125  27.197  1.00  0.00     0.188 C 
ENDROOT
BRANCH   1   2
ATOM      2  C   UNL A   1      32.398  31.593  27.137  1.00  0.00     0.188 C 
BRANCH   2   3
ATOM      3  O   UNL A   1      33.403  30.802  27.686  1.00  0.00    -0.376 OA
BRANCH   3   4
ATOM      4  C   UNL A   1      34.007  29.895  26.806  1.00  0.00     0.202 C 
BRANCH   4   5
ATOM      5  C   UNL A   1      33.293  28.972  25.801  1.00  0.00     0.261 C 
BRANCH   5   6
ATOM      6  O   UNL A   1      31.887  28.840  25.846  1.00  0.00    -0.460 OA
BRANCH   6   7
ATOM      7  C   UNL A   1      31.458  28.219  24.736  1.00  0.00     0.340 C 
ATOM      8  O   UNL A   1      31.430  28.634  23.572  1.00  0.00    -0.246 OA
BRANCH   7   9
ATOM      9  C   UNL A   1      31.111  26.858  25.052  1.00  0.00     0.083 A 
ATOM     10  C   UNL A   1      31.102  25.945  23.996  1.00  0.00     0.056 A 
ATOM     11  C   UNL A   1      30.717  24.630  24.224  1.00  0.00     0.027 A 
ATOM     12  C   UNL A   1      30.482  24.205  25.532  1.00  0.00     0.002 A 
ATOM     13  C   UNL A   1      30.946  26.429  26.373  1.00  0.00     0.018 A 
ATOM     14  C   UNL A   1      30.651  25.086  26.608  1.00  0.00     0.001 A 
BRANCH  10  15
ATOM     15  N   UNL A   1      31.721  26.268  22.786  1.00  0.00    -0.321 N 
ATOM     16  C   UNL A   1      32.842  25.643  22.259  1.00  0.00     0.255 C 
ATOM     17  O   UNL A   1      33.143  25.890  21.088  1.00  0.00    -0.269 OA
ATOM     18  H   UNL A   1      31.329  27.003  22.262  1.00  0.00     0.170 HD
BRANCH  16  19
ATOM     19  C   UNL A   1      33.841  24.858  23.105  1.00  0.00     0.040 A 
ATOM     20  C   UNL A   1      36.024  23.440  24.298  1.00  0.00     0.041 A 
ATOM     21  C   UNL A   1      35.527  24.569  24.907  1.00  0.00     0.027 A 
ATOM     22  C   UNL A   1      35.464  23.034  23.089  1.00  0.00     0.027 A 
ATOM     23  C   UNL A   1      34.447  25.247  24.313  1.00  0.00     0.016 A 
ATOM     24  C   UNL A   1      34.375  23.715  22.506  1.00  0.00     0.016 A 
BRANCH  20  25
ATOM     25  N   UNL A   1      37.023  22.658  24.904  1.00  0.00    -0.322 N 
ATOM     26  C   UNL A   1      36.869  21.315  25.205  1.00  0.00     0.256 C 
ATOM     27  O   UNL A   1      37.807  20.533  25.307  1.00  0.00    -0.269 OA
ATOM     28  H   UNL A   1      37.879  23.089  25.127  1.00  0.00     0.170 HD
BRANCH  26  29
ATOM     29  C   UNL A   1      35.520  20.879  25.668  1.00  0.00     0.049 A 
ATOM     30  C   UNL A   1      35.387  18.632  24.527  1.00  0.00     0.053 C 
ATOM     31  C   UNL A   1      34.747  19.897  25.025  1.00  0.00     0.039 A 
ATOM     32  C   UNL A   1      33.359  20.090  25.046  1.00  0.00     0.273 A 
ATOM     33  C   UNL A   1      34.946  21.730  26.623  1.00  0.00     0.014 A 
ATOM     34  C   UNL A   1      32.773  20.959  25.980  1.00  0.00     0.086 A 
ATOM     35  C   UNL A   1      33.575  21.709  26.835  1.00  0.00     0.008 A 
BRANCH  32  36
ATOM     36  N   UNL A   1      32.488  19.567  23.979  1.00  0.00     0.063 N 
ATOM     37  O   UNL A   1      32.364  20.272  22.963  1.00  0.00    -0.258 OA
ATOM     38  O   UNL A   1      31.933  18.475  24.136  1.00  0.00    -0.258 OA
ENDBRANCH  32  36
ENDBRANCH  26  29
ENDBRANCH  20  25
ENDBRANCH  16  19
ENDBRANCH  10  15
ENDBRANCH   7   9
ENDBRANCH   6   7
ENDBRANCH   5   6
ENDBRANCH   4   5
ENDBRANCH   3   4
ENDBRANCH   2   3
ENDBRANCH   1   2
BRANCH   1  39
ATOM     39  O   UNL A   1      32.555  33.913  28.341  1.00  0.00    -0.377 OA
BRANCH  39  40
ATOM     40  C   UNL A   1      33.930  34.336  28.572  1.00  0.00     0.188 C 
BRANCH  40  41
ATOM     41  C   UNL A   1      34.485  34.189  29.997  1.00  0.00     0.188 C 
BRANCH  41  42
ATOM     42  O   UNL A   1      34.276  32.866  30.459  1.00  0.00    -0.376 OA
BRANCH  42  43
ATOM     43  C   UNL A   1      35.016  32.410  31.572  1.00  0.00     0.202 C 
BRANCH  43  44
ATOM     44  C   UNL A   1      36.408  33.021  31.676  1.00  0.00     0.261 C 
BRANCH  44  45
ATOM     45  O   UNL A   1      37.345  32.082  31.106  1.00  0.00    -0.460 OA
BRANCH  45  46
ATOM     46  C   UNL A   1      38.563  32.033  31.720  1.00  0.00     0.338 C 
ATOM     47  O   UNL A   1      38.911  32.815  32.588  1.00  0.00    -0.246 OA
BRANCH  46  48
ATOM     48  C   UNL A   1      39.420  30.950  31.130  1.00  0.00     0.060 A 
ATOM     49  C   UNL A   1      40.354  30.261  31.924  1.00  0.00     0.016 A 
ATOM     50  C   UNL A   1      39.478  30.778  29.753  1.00  0.00     0.016 A 
ATOM     51  C   UNL A   1      41.397  29.489  31.344  1.00  0.00     0.010 A 
ATOM     52  C   UNL A   1      40.532  30.052  29.194  1.00  0.00     0.010 A 
ATOM     53  C   UNL A   1      41.539  29.408  29.955  1.00  0.00    -0.014 A 
BRANCH  53  54
ATOM     54  C   UNL A   1      42.766  28.909  29.204  1.00  0.00     0.031 A 
ATOM     55  C   UNL A   1      43.934  29.908  28.945  1.00  0.00     0.074 A 
ATOM     56  C   UNL A   1      43.009  27.560  29.197  1.00  0.00     0.049 A 
ATOM     57  N   UNL A   1      45.102  29.691  28.393  1.00  0.00    -0.248 NA
ATOM     58  C   UNL A   1      43.793  31.337  29.278  1.00  0.00     0.031 C 
ATOM     59  C   UNL A   1      44.057  26.874  29.957  1.00  0.00     0.029 A 
ATOM     60  N   UNL A   1      42.221  26.462  28.870  1.00  0.00    -0.354 N 
ATOM     61  C   UNL A   1      45.933  30.812  28.656  1.00  0.00     0.074 A 
ATOM     62  C   UNL A   1      45.027  31.825  29.126  1.00  0.00     0.031 C 
ATOM     63  C   UNL A   1      44.059  25.551  29.821  1.00  0.00     0.029 A 
ATOM     64  C   UNL A   1      42.980  25.268  28.956  1.00  0.00     0.049 A 
ATOM     65  H   UNL A   1      41.270  26.508  28.615  1.00  0.00     0.167 HD
ATOM     66  C   UNL A   1      47.316  30.761  28.647  1.00  0.00     0.031 A 
ATOM     67  C   UNL A   1      43.121  24.382  27.949  1.00  0.00     0.031 A 
ATOM     68  C   UNL A   1      47.860  29.468  28.151  1.00  0.00     0.049 A 
ATOM     69  C   UNL A   1      44.403  24.611  27.138  1.00  0.00     0.074 A 
ATOM     70  C   UNL A   1      48.941  28.672  28.511  1.00  0.00     0.029 A 
ATOM     71  N   UNL A   1      47.144  28.706  27.229  1.00  0.00    -0.354 N 
ATOM     72  N   UNL A   1      45.324  25.531  27.383  1.00  0.00    -0.248 NA
ATOM     73  C   UNL A   1      44.747  23.809  25.964  1.00  0.00     0.031 C 
ATOM     74  C   UNL A   1      48.788  27.392  27.905  1.00  0.00     0.029 A 
ATOM     75  C   UNL A   1      47.635  27.420  27.140  1.00  0.00     0.049 A 
ATOM     76  H   UNL A   1      46.383  29.045  26.704  1.00  0.00     0.167 HD
ATOM     77  C   UNL A   1      46.223  25.574  26.330  1.00  0.00     0.074 A 
ATOM     78  C   UNL A   1      45.856  24.423  25.521  1.00  0.00     0.031 C 
ATOM     79  C   UNL A   1      47.174  26.538  26.089  1.00  0.00     0.031 A 
BRANCH  66  80
ATOM     80  C   UNL A   1      48.279  31.777  29.385  1.00  0.00    -0.014 A 
ATOM     81  C   UNL A   1      48.371  31.748  30.801  1.00  0.00     0.010 A 
ATOM     82  C   UNL A   1      49.002  32.845  28.800  1.00  0.00     0.010 A 
ATOM     83  C   UNL A   1      49.064  32.705  31.576  1.00  0.00     0.020 A 
ATOM     84  C   UNL A   1      49.777  33.771  29.561  1.00  0.00     0.020 A 
ATOM     85  C   UNL A   1      49.790  33.704  30.950  1.00  0.00     0.054 A 
BRANCH  85  86
ATOM     86  S   UNL A   1      50.815  34.812  31.971  1.00  0.00     0.124 S 
ATOM     87  O   UNL A   1      52.154  34.247  31.825  1.00  0.00    -0.237 OA
ATOM     88  O   UNL A   1      50.614  36.112  31.332  1.00  0.00    -0.237 OA
ATOM     89  O   UNL A   1      50.233  34.694  33.307  1.00  0.00    -0.744 OA
ENDBRANCH  85  86
ENDBRANCH  66  80
BRANCH  67  90
ATOM     90  C   UNL A   1      41.786  23.690  27.788  1.00  0.00    -0.014 A 
ATOM     91  C   UNL A   1      41.467  23.453  26.416  1.00  0.00     0.010 A 
ATOM     92  C   UNL A   1      41.535  22.625  28.685  1.00  0.00     0.010 A 
ATOM     93  C   UNL A   1      41.350  22.138  25.924  1.00  0.00     0.020 A 
ATOM     94  C   UNL A   1      41.432  21.303  28.194  1.00  0.00     0.020 A 
ATOM     95  C   UNL A   1      41.443  21.069  26.813  1.00  0.00     0.054 A 
BRANCH  95  96
ATOM     96  S   UNL A   1      41.972  19.446  26.146  1.00  0.00     0.124 S 
ATOM     97  O   UNL A   1      40.738  18.935  25.562  1.00  0.00    -0.237 OA
ATOM     98  O   UNL A   1      43.028  19.823  25.200  1.00  0.00    -0.237 OA
ATOM     99  O   UNL A   1      42.454  18.745  27.333  1.00  0.00    -0.744 OA
ENDBRANCH  95  96
ENDBRANCH  67  90
BRANCH  79 100
ATOM    100  C   UNL A   1      47.843  26.804  24.745  1.00  0.00    -0.014 A 
ATOM    101  C   UNL A   1      47.209  27.480  23.698  1.00  0.00     0.010 A 
ATOM    102  C   UNL A   1      49.243  26.585  24.604  1.00  0.00     0.010 A 
ATOM    103  C   UNL A   1      47.917  27.849  22.546  1.00  0.00     0.020 A 
ATOM    104  C   UNL A   1      49.968  26.994  23.488  1.00  0.00     0.020 A 
ATOM    105  C   UNL A   1      49.288  27.599  22.446  1.00  0.00     0.054 A 
BRANCH 105 106
ATOM    106  S   UNL A   1      50.182  28.114  20.966  1.00  0.00     0.124 S 
ATOM    107  O   UNL A   1      49.430  27.431  19.916  1.00  0.00    -0.237 OA
ATOM    108  O   UNL A   1      50.043  29.567  20.995  1.00  0.00    -0.237 OA
ATOM    109  O   UNL A   1      51.539  27.620  21.184  1.00  0.00    -0.744 OA
ENDBRANCH 105 106
ENDBRANCH  79 100
ENDBRANCH  53  54
ENDBRANCH  46  48
ENDBRANCH  45  46
ENDBRANCH  44  45
ENDBRANCH  43  44
ENDBRANCH  42  43
ENDBRANCH  41  42
ENDBRANCH  40  41
ENDBRANCH  39  40
ENDBRANCH   1  39
TORSDOF 28
ENDMDL
MODEL 2
REMARK VINA RESULT:      -9.6      4.712     10.542
REMARK SMILES Cc1c(C(=O)Nc2ccc(C(=O)Nc3ccccc3C(=O)OCCOCCOCCOCCOC(=O)c3ccc(-c4c5nc(c(-c6ccc(S(=O)(=O)[O-])cc6)c6ccc([nH]6)c(-c6ccc(S(=O)(=O)[O-])cc6)c6nc(c(-c7ccc(S(=O)(=O)[O-])cc7)c7ccc4[nH]7)C=C6)C=C5)cc3)cc2)cccc1[N+](=O)[O-]
REMARK SMILES IDX 27 1 26 2 25 3 24 4 23 5 22 6 20 7 21 8 19 9 14 10 15 11
REMARK SMILES IDX 16 12 18 13 17 14 13 15 11 16 12 17 10 19 7 20 8 21 98 22
REMARK SMILES IDX 9 23 97 24 6 25 4 26 5 27 3 29 1 30 2 31 102 32 99 33 101 34
REMARK SMILES IDX 100 35 103 36 104 37 105 38 28 39 29 40 30 41 31 42 32 43
REMARK SMILES IDX 33 44 34 45 35 46 36 47 37 48 38 49 96 50 39 51 95 52 40 53
REMARK SMILES IDX 41 54 42 55 89 56 43 57 94 58 88 59 90 60 44 61 93 62 87 63
REMARK SMILES IDX 86 64 45 66 75 67 56 68 74 69 57 70 60 71 73 72 91 73 58 74
REMARK SMILES IDX 59 75 72 77 92 78 61 79 46 80 47 81 55 82 48 83 54 84 49 85
REMARK SMILES IDX 50 86 51 87 52 88 53 89 76 90 77 91 85 92 78 93 84 94 79 95
REMARK SMILES IDX 80 96 81 97 82 98 83 99 62 100 63 101 71 102 64 103 70 104
REMARK SMILES IDX 65 105 66 106 67 107 68 108 69 109
REMARK H PARENT 13 18 6 28 90 65 60 76
REMARK Flexibility Score: inf
ROOT
ATOM      1  C   UNL A   1      33.415  24.888  25.287  1.00  0.00     0.188 C 
ENDROOT
BRANCH   1   2
ATOM      2  C   UNL A   1      32.605  26.053  25.871  1.00  0.00     0.188 C 
BRANCH   2   3
ATOM      3  O   UNL A   1      32.024  27.082  25.136  1.00  0.00    -0.376 OA
BRANCH   3   4
ATOM      4  C   UNL A   1      31.979  28.329  25.773  1.00  0.00     0.202 C 
BRANCH   4   5
ATOM      5  C   UNL A   1      32.781  28.759  27.015  1.00  0.00     0.261 C 
BRANCH   5   6
ATOM      6  O   UNL A   1      34.106  29.226  26.868  1.00  0.00    -0.460 OA
BRANCH   6   7
ATOM      7  C   UNL A   1      34.196  30.480  27.338  1.00  0.00     0.340 C 
ATOM      8  O   UNL A   1      33.322  31.352  27.400  1.00  0.00    -0.246 OA
BRANCH   7   9
ATOM      9  C   UNL A   1      35.497  30.682  27.919  1.00  0.00     0.083 A 
ATOM     10  C   UNL A   1      35.883  32.001  28.165  1.00  0.00     0.056 A 
ATOM     11  C   UNL A   1      37.150  32.266  28.667  1.00  0.00     0.027 A 
ATOM     12  C   UNL A   1      37.968  31.204  29.053  1.00  0.00     0.002 A 
ATOM     13  C   UNL A   1      36.278  29.610  28.364  1.00  0.00     0.018 A 
ATOM     14  C   UNL A   1      37.512  29.883  28.954  1.00  0.00     0.001 A 
BRANCH  10  15
ATOM     15  N   UNL A   1      34.928  33.022  28.164  1.00  0.00    -0.321 N 
ATOM     16  C   UNL A   1      34.701  33.918  29.198  1.00  0.00     0.255 C 
ATOM     17  O   UNL A   1      33.980  34.893  28.969  1.00  0.00    -0.269 OA
ATOM     18  H   UNL A   1      34.368  33.112  27.360  1.00  0.00     0.170 HD
BRANCH  16  19
ATOM     19  C   UNL A   1      35.099  33.647  30.647  1.00  0.00     0.040 A 
ATOM     20  C   UNL A   1      35.731  33.622  33.440  1.00  0.00     0.041 A 
ATOM     21  C   UNL A   1      34.757  32.782  32.951  1.00  0.00     0.027 A 
ATOM     22  C   UNL A   1      36.366  34.491  32.555  1.00  0.00     0.027 A 
ATOM     23  C   UNL A   1      34.467  32.800  31.575  1.00  0.00     0.016 A 
ATOM     24  C   UNL A   1      36.076  34.494  31.175  1.00  0.00     0.016 A 
BRANCH  20  25
ATOM     25  N   UNL A   1      36.143  33.565  34.782  1.00  0.00    -0.322 N 
ATOM     26  C   UNL A   1      37.470  33.496  35.176  1.00  0.00     0.256 C 
ATOM     27  O   UNL A   1      37.872  33.881  36.267  1.00  0.00    -0.269 OA
ATOM     28  H   UNL A   1      35.451  33.576  35.481  1.00  0.00     0.170 HD
BRANCH  26  29
ATOM     29  C   UNL A   1      38.383  32.684  34.321  1.00  0.00     0.049 A 
ATOM     30  C   UNL A   1      40.316  34.296  34.122  1.00  0.00     0.053 C 
ATOM     31  C   UNL A   1      39.427  33.226  33.552  1.00  0.00     0.039 A 
ATOM     32  C   UNL A   1      39.689  32.593  32.329  1.00  0.00     0.273 A 
ATOM     33  C   UNL A   1      37.941  31.372  34.105  1.00  0.00     0.014 A 
ATOM     34  C   UNL A   1      39.230  31.287  32.089  1.00  0.00     0.086 A 
ATOM     35  C   UNL A   1      38.431  30.644  33.030  1.00  0.00     0.008 A 
BRANCH  32  36
ATOM     36  N   UNL A   1      40.260  33.324  31.185  1.00  0.00     0.063 N 
ATOM     37  O   UNL A   1      39.628  34.315  30.782  1.00  0.00    -0.258 OA
ATOM     38  O   UNL A   1      41.319  32.928  30.687  1.00  0.00    -0.258 OA
ENDBRANCH  32  36
ENDBRANCH  26  29
ENDBRANCH  20  25
ENDBRANCH  16  19
ENDBRANCH  10  15
ENDBRANCH   7   9
ENDBRANCH   6   7
ENDBRANCH   5   6
ENDBRANCH   4   5
ENDBRANCH   3   4
ENDBRANCH   2   3
ENDBRANCH   1   2
BRANCH   1  39
ATOM     39  O   UNL A   1      33.087  23.524  25.392  1.00  0.00    -0.377 OA
BRANCH  39  40
ATOM     40  C   UNL A   1      33.711  22.643  24.413  1.00  0.00     0.188 C 
BRANCH  40  41
ATOM     41  C   UNL A   1      34.622  21.527  24.948  1.00  0.00     0.188 C 
BRANCH  41  42
ATOM     42  O   UNL A   1      35.306  21.977  26.104  1.00  0.00    -0.376 OA
BRANCH  42  43
ATOM     43  C   UNL A   1      36.464  22.768  25.943  1.00  0.00     0.202 C 
BRANCH  43  44
ATOM     44  C   UNL A   1      37.668  21.997  25.417  1.00  0.00     0.261 C 
BRANCH  44  45
ATOM     45  O   UNL A   1      38.855  22.594  25.980  1.00  0.00    -0.460 OA
BRANCH  45  46
ATOM     46  C   UNL A   1      39.816  21.711  26.378  1.00  0.00     0.338 C 
ATOM     47  O   UNL A   1      39.860  20.550  26.005  1.00  0.00    -0.246 OA
BRANCH  46  48
ATOM     48  C   UNL A   1      40.744  22.339  27.379  1.00  0.00     0.060 A 
ATOM     49  C   UNL A   1      40.859  23.737  27.471  1.00  0.00     0.016 A 
ATOM     50  C   UNL A   1      41.673  21.558  28.054  1.00  0.00     0.016 A 
ATOM     51  C   UNL A   1      41.949  24.349  28.148  1.00  0.00     0.010 A 
ATOM     52  C   UNL A   1      42.762  22.171  28.679  1.00  0.00     0.010 A 
ATOM     53  C   UNL A   1      42.957  23.573  28.729  1.00  0.00    -0.014 A 
BRANCH  53  54
ATOM     54  C   UNL A   1      44.323  24.070  29.186  1.00  0.00     0.031 A 
ATOM     55  C   UNL A   1      45.476  24.138  28.139  1.00  0.00     0.074 A 
ATOM     56  C   UNL A   1      44.378  24.848  30.313  1.00  0.00     0.049 A 
ATOM     57  N   UNL A   1      46.697  24.593  28.281  1.00  0.00    -0.248 NA
ATOM     58  C   UNL A   1      45.297  23.593  26.781  1.00  0.00     0.031 C 
ATOM     59  C   UNL A   1      44.616  26.293  30.345  1.00  0.00     0.029 A 
ATOM     60  N   UNL A   1      43.880  24.679  31.601  1.00  0.00    -0.354 N 
ATOM     61  C   UNL A   1      47.269  24.736  26.990  1.00  0.00     0.074 A 
ATOM     62  C   UNL A   1      46.380  24.011  26.122  1.00  0.00     0.031 C 
ATOM     63  C   UNL A   1      44.574  26.831  31.561  1.00  0.00     0.029 A 
ATOM     64  C   UNL A   1      44.282  25.757  32.429  1.00  0.00     0.049 A 
ATOM     65  H   UNL A   1      43.327  23.919  31.895  1.00  0.00     0.167 HD
ATOM     66  C   UNL A   1      48.320  25.591  26.707  1.00  0.00     0.031 A 
ATOM     67  C   UNL A   1      44.949  25.614  33.592  1.00  0.00     0.031 A 
ATOM     68  C   UNL A   1      48.924  26.212  27.917  1.00  0.00     0.049 A 
ATOM     69  C   UNL A   1      46.467  25.761  33.424  1.00  0.00     0.074 A 
ATOM     70  C   UNL A   1      49.435  27.472  28.205  1.00  0.00     0.029 A 
ATOM     71  N   UNL A   1      48.898  25.546  29.142  1.00  0.00    -0.354 N 
ATOM     72  N   UNL A   1      47.101  26.042  32.295  1.00  0.00    -0.248 NA
ATOM     73  C   UNL A   1      47.403  25.595  34.536  1.00  0.00     0.031 C 
ATOM     74  C   UNL A   1      49.580  27.595  29.616  1.00  0.00     0.029 A 
ATOM     75  C   UNL A   1      49.199  26.393  30.188  1.00  0.00     0.049 A 
ATOM     76  H   UNL A   1      48.690  24.589  29.247  1.00  0.00     0.167 HD
ATOM     77  C   UNL A   1      48.464  25.889  32.482  1.00  0.00     0.074 A 
ATOM     78  C   UNL A   1      48.591  25.691  33.917  1.00  0.00     0.031 C 
ATOM     79  C   UNL A   1      49.437  25.856  31.511  1.00  0.00     0.031 A 
BRANCH  66  80
ATOM     80  C   UNL A   1      48.679  26.168  25.277  1.00  0.00    -0.014 A 
ATOM     81  C   UNL A   1      50.029  26.155  24.839  1.00  0.00     0.010 A 
ATOM     82  C   UNL A   1      47.808  26.840  24.386  1.00  0.00     0.010 A 
ATOM     83  C   UNL A   1      50.492  26.786  23.663  1.00  0.00     0.020 A 
ATOM     84  C   UNL A   1      48.244  27.409  23.152  1.00  0.00     0.020 A 
ATOM     85  C   UNL A   1      49.591  27.392  22.804  1.00  0.00     0.054 A 
BRANCH  85  86
ATOM     86  S   UNL A   1      50.197  28.038  21.212  1.00  0.00     0.124 S 
ATOM     87  O   UNL A   1      49.838  29.453  21.276  1.00  0.00    -0.237 OA
ATOM     88  O   UNL A   1      51.630  27.756  21.277  1.00  0.00    -0.237 OA
ATOM     89  O   UNL A   1      49.466  27.256  20.216  1.00  0.00    -0.744 OA
ENDBRANCH  85  86
ENDBRANCH  66  80
BRANCH  67  90
ATOM     90  C   UNL A   1      43.969  25.029  34.586  1.00  0.00    -0.014 A 
ATOM     91  C   UNL A   1      44.339  23.709  34.990  1.00  0.00     0.010 A 
ATOM     92  C   UNL A   1      43.541  25.904  35.611  1.00  0.00     0.010 A 
ATOM     93  C   UNL A   1      44.687  23.441  36.328  1.00  0.00     0.020 A 
ATOM     94  C   UNL A   1      43.902  25.643  36.954  1.00  0.00     0.020 A 
ATOM     95  C   UNL A   1      44.564  24.453  37.279  1.00  0.00     0.054 A 
BRANCH  95  96
ATOM     96  S   UNL A   1      45.613  24.348  38.779  1.00  0.00     0.124 S 
ATOM     97  O   UNL A   1      46.914  24.768  38.276  1.00  0.00    -0.237 OA
ATOM     98  O   UNL A   1      44.943  25.277  39.696  1.00  0.00    -0.237 OA
ATOM     99  O   UNL A   1      45.498  22.944  39.162  1.00  0.00    -0.744 OA
ENDBRANCH  95  96
ENDBRANCH  67  90
BRANCH  79 100
ATOM    100  C   UNL A   1      50.836  25.272  31.680  1.00  0.00    -0.014 A 
ATOM    101  C   UNL A   1      52.002  26.020  31.495  1.00  0.00     0.010 A 
ATOM    102  C   UNL A   1      50.992  23.990  32.282  1.00  0.00     0.010 A 
ATOM    103  C   UNL A   1      53.258  25.490  31.823  1.00  0.00     0.020 A 
ATOM    104  C   UNL A   1      52.228  23.474  32.661  1.00  0.00     0.020 A 
ATOM    105  C   UNL A   1      53.362  24.220  32.397  1.00  0.00     0.054 A 
BRANCH 105 106
ATOM    106  S   UNL A   1      54.988  23.575  32.840  1.00  0.00     0.124 S 
ATOM    107  O   UNL A   1      54.703  22.153  33.013  1.00  0.00    -0.237 OA
ATOM    108  O   UNL A   1      55.799  23.917  31.674  1.00  0.00    -0.237 OA
ATOM    109  O   UNL A   1      55.332  24.297  34.063  1.00  0.00    -0.744 OA
ENDBRANCH 105 106
ENDBRANCH  79 100
ENDBRANCH  53  54
ENDBRANCH  46  48
ENDBRANCH  45  46
ENDBRANCH  44  45
ENDBRANCH  43  44
ENDBRANCH  42  43
ENDBRANCH  41  42
ENDBRANCH  40  41
ENDBRANCH  39  40
ENDBRANCH   1  39
TORSDOF 28
ENDMDL
MODEL 3
REMARK VINA RESULT:      -9.0      5.248      7.718
REMARK SMILES Cc1c(C(=O)Nc2ccc(C(=O)Nc3ccccc3C(=O)OCCOCCOCCOCCOC(=O)c3ccc(-c4c5nc(c(-c6ccc(S(=O)(=O)[O-])cc6)c6ccc([nH]6)c(-c6ccc(S(=O)(=O)[O-])cc6)c6nc(c(-c7ccc(S(=O)(=O)[O-])cc7)c7ccc4[nH]7)C=C6)C=C5)cc3)cc2)cccc1[N+](=O)[O-]
REMARK SMILES IDX 27 1 26 2 25 3 24 4 23 5 22 6 20 7 21 8 19 9 14 10 15 11
REMARK SMILES IDX 16 12 18 13 17 14 13 15 11 16 12 17 10 19 7 20 8 21 98 22
REMARK SMILES IDX 9 23 97 24 6 25 4 26 5 27 3 29 1 30 2 31 102 32 99 33 101 34
REMARK SMILES IDX 100 35 103 36 104 37 105 38 28 39 29 40 30 41 31 42 32 43
REMARK SMILES IDX 33 44 34 45 35 46 36 47 37 48 38 49 96 50 39 51 95 52 40 53
REMARK SMILES IDX 41 54 42 55 89 56 43 57 94 58 88 59 90 60 44 61 93 62 87 63
REMARK SMILES IDX 86 64 45 66 75 67 56 68 74 69 57 70 60 71 73 72 91 73 58 74
REMARK SMILES IDX 59 75 72 77 92 78 61 79 46 80 47 81 55 82 48 83 54 84 49 85
REMARK SMILES IDX 50 86 51 87 52 88 53 89 76 90 77 91 85 92 78 93 84 94 79 95
REMARK SMILES IDX 80 96 81 97 82 98 83 99 62 100 63 101 71 102 64 103 70 104
REMARK SMILES IDX 65 105 66 106 67 107 68 108 69 109
REMARK H PARENT 13 18 6 28 90 65 60 76
REMARK Flexibility Score: inf
ROOT
ATOM      1  C   UNL A   1      33.629  32.093  27.794  1.00  0.00     0.188 C 
ENDROOT
BRANCH   1   2
ATOM      2  C   UNL A   1      32.902  30.927  27.112  1.00  0.00     0.188 C 
BRANCH   2   3
ATOM      3  O   UNL A   1      33.329  29.602  27.103  1.00  0.00    -0.376 OA
BRANCH   3   4
ATOM      4  C   UNL A   1      33.717  29.101  25.854  1.00  0.00     0.202 C 
BRANCH   4   5
ATOM      5  C   UNL A   1      32.787  28.690  24.697  1.00  0.00     0.261 C 
BRANCH   5   6
ATOM      6  O   UNL A   1      31.387  28.772  24.860  1.00  0.00    -0.460 OA
BRANCH   6   7
ATOM      7  C   UNL A   1      30.780  28.025  23.923  1.00  0.00     0.340 C 
ATOM      8  O   UNL A   1      30.448  28.336  22.774  1.00  0.00    -0.246 OA
BRANCH   7   9
ATOM      9  C   UNL A   1      30.651  26.672  24.399  1.00  0.00     0.083 A 
ATOM     10  C   UNL A   1      30.923  25.652  23.486  1.00  0.00     0.056 A 
ATOM     11  C   UNL A   1      30.758  24.326  23.864  1.00  0.00     0.027 A 
ATOM     12  C   UNL A   1      30.460  24.028  25.194  1.00  0.00     0.002 A 
ATOM     13  C   UNL A   1      30.421  26.386  25.748  1.00  0.00     0.018 A 
ATOM     14  C   UNL A   1      30.348  25.051  26.144  1.00  0.00     0.001 A 
BRANCH  10  15
ATOM     15  N   UNL A   1      31.604  25.937  22.299  1.00  0.00    -0.321 N 
ATOM     16  C   UNL A   1      32.792  25.349  21.887  1.00  0.00     0.255 C 
ATOM     17  O   UNL A   1      33.157  25.541  20.724  1.00  0.00    -0.269 OA
ATOM     18  H   UNL A   1      31.208  26.613  21.704  1.00  0.00     0.170 HD
BRANCH  16  19
ATOM     19  C   UNL A   1      33.773  24.678  22.845  1.00  0.00     0.040 A 
ATOM     20  C   UNL A   1      35.944  23.465  24.265  1.00  0.00     0.041 A 
ATOM     21  C   UNL A   1      35.354  24.605  24.761  1.00  0.00     0.027 A 
ATOM     22  C   UNL A   1      35.482  22.948  23.056  1.00  0.00     0.027 A 
ATOM     23  C   UNL A   1      34.281  25.181  24.056  1.00  0.00     0.016 A 
ATOM     24  C   UNL A   1      34.400  23.527  22.362  1.00  0.00     0.016 A 
BRANCH  20  25
ATOM     25  N   UNL A   1      36.940  22.781  24.983  1.00  0.00    -0.322 N 
ATOM     26  C   UNL A   1      36.826  21.460  25.385  1.00  0.00     0.256 C 
ATOM     27  O   UNL A   1      37.789  20.734  25.598  1.00  0.00    -0.269 OA
ATOM     28  H   UNL A   1      37.763  23.268  25.214  1.00  0.00     0.170 HD
BRANCH  26  29
ATOM     29  C   UNL A   1      35.474  21.001  25.813  1.00  0.00     0.049 A 
ATOM     30  C   UNL A   1      35.334  18.838  24.519  1.00  0.00     0.053 C 
ATOM     31  C   UNL A   1      34.698  20.070  25.101  1.00  0.00     0.039 A 
ATOM     32  C   UNL A   1      33.311  20.267  25.130  1.00  0.00     0.273 A 
ATOM     33  C   UNL A   1      34.900  21.787  26.821  1.00  0.00     0.014 A 
ATOM     34  C   UNL A   1      32.726  21.073  26.119  1.00  0.00     0.086 A 
ATOM     35  C   UNL A   1      33.528  21.759  27.028  1.00  0.00     0.008 A 
BRANCH  32  36
ATOM     36  N   UNL A   1      32.442  19.824  24.026  1.00  0.00     0.063 N 
ATOM     37  O   UNL A   1      31.915  18.704  24.144  1.00  0.00    -0.258 OA
ATOM     38  O   UNL A   1      32.279  20.567  23.053  1.00  0.00    -0.258 OA
ENDBRANCH  32  36
ENDBRANCH  26  29
ENDBRANCH  20  25
ENDBRANCH  16  19
ENDBRANCH  10  15
ENDBRANCH   7   9
ENDBRANCH   6   7
ENDBRANCH   5   6
ENDBRANCH   4   5
ENDBRANCH   3   4
ENDBRANCH   2   3
ENDBRANCH   1   2
BRANCH   1  39
ATOM     39  O   UNL A   1      34.916  32.042  28.360  1.00  0.00    -0.377 OA
BRANCH  39  40
ATOM     40  C   UNL A   1      35.789  30.986  27.862  1.00  0.00     0.188 C 
BRANCH  40  41
ATOM     41  C   UNL A   1      36.768  30.350  28.861  1.00  0.00     0.188 C 
BRANCH  41  42
ATOM     42  O   UNL A   1      37.588  29.406  28.195  1.00  0.00    -0.376 OA
BRANCH  42  43
ATOM     43  C   UNL A   1      38.556  28.701  28.942  1.00  0.00     0.202 C 
BRANCH  43  44
ATOM     44  C   UNL A   1      39.413  27.759  28.105  1.00  0.00     0.261 C 
BRANCH  44  45
ATOM     45  O   UNL A   1      40.610  27.466  28.855  1.00  0.00    -0.460 OA
BRANCH  45  46
ATOM     46  C   UNL A   1      41.712  28.186  28.495  1.00  0.00     0.338 C 
ATOM     47  O   UNL A   1      41.801  28.801  27.445  1.00  0.00    -0.246 OA
BRANCH  46  48
ATOM     48  C   UNL A   1      42.803  28.050  29.519  1.00  0.00     0.060 A 
ATOM     49  C   UNL A   1      43.841  28.996  29.590  1.00  0.00     0.016 A 
ATOM     50  C   UNL A   1      42.937  26.873  30.243  1.00  0.00     0.016 A 
ATOM     51  C   UNL A   1      45.045  28.725  30.296  1.00  0.00     0.010 A 
ATOM     52  C   UNL A   1      44.141  26.602  30.897  1.00  0.00     0.010 A 
ATOM     53  C   UNL A   1      45.242  27.493  30.930  1.00  0.00    -0.014 A 
BRANCH  53  54
ATOM     54  C   UNL A   1      46.570  26.942  31.429  1.00  0.00     0.031 A 
ATOM     55  C   UNL A   1      47.554  26.323  30.390  1.00  0.00     0.074 A 
ATOM     56  C   UNL A   1      47.047  27.405  32.627  1.00  0.00     0.049 A 
ATOM     57  N   UNL A   1      48.766  25.859  30.572  1.00  0.00    -0.248 NA
ATOM     58  C   UNL A   1      47.149  26.135  28.985  1.00  0.00     0.031 C 
ATOM     59  C   UNL A   1      48.164  28.336  32.803  1.00  0.00     0.029 A 
ATOM     60  N   UNL A   1      46.480  27.502  33.894  1.00  0.00    -0.354 N 
ATOM     61  C   UNL A   1      49.374  25.693  29.300  1.00  0.00     0.074 A 
ATOM     62  C   UNL A   1      48.283  25.795  28.368  1.00  0.00     0.031 C 
ATOM     63  C   UNL A   1      48.406  28.675  34.066  1.00  0.00     0.029 A 
ATOM     64  C   UNL A   1      47.433  27.988  34.824  1.00  0.00     0.049 A 
ATOM     65  H   UNL A   1      45.549  27.267  34.112  1.00  0.00     0.167 HD
ATOM     66  C   UNL A   1      50.743  25.675  29.100  1.00  0.00     0.031 A 
ATOM     67  C   UNL A   1      47.773  27.354  35.965  1.00  0.00     0.031 A 
ATOM     68  C   UNL A   1      51.528  25.654  30.364  1.00  0.00     0.049 A 
ATOM     69  C   UNL A   1      49.029  26.488  35.807  1.00  0.00     0.074 A 
ATOM     70  C   UNL A   1      52.715  26.249  30.774  1.00  0.00     0.029 A 
ATOM     71  N   UNL A   1      50.999  25.074  31.516  1.00  0.00    -0.354 N 
ATOM     72  N   UNL A   1      49.762  26.375  34.710  1.00  0.00    -0.248 NA
ATOM     73  C   UNL A   1      49.562  25.666  36.893  1.00  0.00     0.031 C 
ATOM     74  C   UNL A   1      52.817  26.137  32.190  1.00  0.00     0.029 A 
ATOM     75  C   UNL A   1      51.712  25.435  32.641  1.00  0.00     0.049 A 
ATOM     76  H   UNL A   1      50.215  24.480  31.526  1.00  0.00     0.167 HD
ATOM     77  C   UNL A   1      50.685  25.355  34.876  1.00  0.00     0.074 A 
ATOM     78  C   UNL A   1      50.563  25.012  36.283  1.00  0.00     0.031 C 
ATOM     79  C   UNL A   1      51.462  24.772  33.903  1.00  0.00     0.031 A 
BRANCH  66  80
ATOM     80  C   UNL A   1      51.478  25.987  27.733  1.00  0.00    -0.014 A 
ATOM     81  C   UNL A   1      52.086  27.255  27.543  1.00  0.00     0.010 A 
ATOM     82  C   UNL A   1      51.505  25.175  26.574  1.00  0.00     0.010 A 
ATOM     83  C   UNL A   1      52.623  27.707  26.317  1.00  0.00     0.020 A 
ATOM     84  C   UNL A   1      52.118  25.582  25.351  1.00  0.00     0.020 A 
ATOM     85  C   UNL A   1      52.663  26.856  25.226  1.00  0.00     0.054 A 
BRANCH  85  86
ATOM     86  S   UNL A   1      53.521  27.406  23.716  1.00  0.00     0.124 S 
ATOM     87  O   UNL A   1      54.930  27.221  24.055  1.00  0.00    -0.237 OA
ATOM     88  O   UNL A   1      53.000  26.492  22.701  1.00  0.00    -0.237 OA
ATOM     89  O   UNL A   1      53.098  28.796  23.560  1.00  0.00    -0.744 OA
ENDBRANCH  85  86
ENDBRANCH  66  80
BRANCH  67  90
ATOM     90  C   UNL A   1      46.589  27.475  36.899  1.00  0.00    -0.014 A 
ATOM     91  C   UNL A   1      45.771  28.604  36.584  1.00  0.00     0.010 A 
ATOM     92  C   UNL A   1      45.911  26.268  37.188  1.00  0.00     0.010 A 
ATOM     93  C   UNL A   1      44.443  28.427  36.150  1.00  0.00     0.020 A 
ATOM     94  C   UNL A   1      44.582  26.085  36.740  1.00  0.00     0.020 A 
ATOM     95  C   UNL A   1      43.898  27.144  36.132  1.00  0.00     0.054 A 
BRANCH  95  96
ATOM     96  S   UNL A   1      42.511  26.820  34.978  1.00  0.00     0.124 S 
ATOM     97  O   UNL A   1      42.703  25.413  34.653  1.00  0.00    -0.237 OA
ATOM     98  O   UNL A   1      41.337  27.141  35.798  1.00  0.00    -0.237 OA
ATOM     99  O   UNL A   1      42.759  27.766  33.893  1.00  0.00    -0.744 OA
ENDBRANCH  95  96
ENDBRANCH  67  90
BRANCH  79 100
ATOM    100  C   UNL A   1      52.133  23.406  34.007  1.00  0.00    -0.014 A 
ATOM    101  C   UNL A   1      53.267  23.171  34.789  1.00  0.00     0.010 A 
ATOM    102  C   UNL A   1      51.464  22.257  33.496  1.00  0.00     0.010 A 
ATOM    103  C   UNL A   1      53.748  21.869  34.988  1.00  0.00     0.020 A 
ATOM    104  C   UNL A   1      51.902  20.956  33.730  1.00  0.00     0.020 A 
ATOM    105  C   UNL A   1      53.067  20.773  34.453  1.00  0.00     0.054 A 
BRANCH 105 106
ATOM    106  S   UNL A   1      53.690  19.106  34.751  1.00  0.00     0.124 S 
ATOM    107  O   UNL A   1      52.771  18.629  35.782  1.00  0.00    -0.237 OA
ATOM    108  O   UNL A   1      53.551  18.471  33.443  1.00  0.00    -0.237 OA
ATOM    109  O   UNL A   1      55.067  19.318  35.191  1.00  0.00    -0.744 OA
ENDBRANCH 105 106
ENDBRANCH  79 100
ENDBRANCH  53  54
ENDBRANCH  46  48
ENDBRANCH  45  46
ENDBRANCH  44  45
ENDBRANCH  43  44
ENDBRANCH  42  43
ENDBRANCH  41  42
ENDBRANCH  40  41
ENDBRANCH  39  40
ENDBRANCH   1  39
TORSDOF 28
ENDMDL
