MODEL 1
REMARK VINA RESULT:      -9.6      0.000      0.000
REMARK SMILES Cc1ccccc1-c1nn(-c2ccccc2)cc1/C=C(\C#N)C(=O)OCCOCCOCCOCCOC(=O)c1ccc(-c2c3nc(c(-c4ccc(S(=O)(=O)[O-])cc4)c4ccc([nH]4)c(-c4ccc(S(=O)(=O)[O-])cc4)c4nc(c(-c5ccc(S(=O)(=O)[O-])cc5)c5ccc2[nH]5)C=C4)C=C3)cc1
REMARK SMILES IDX 32 1 31 2 30 3 29 4 28 5 27 6 26 7 25 8 23 9 24 10 20 11
REMARK SMILES IDX 19 12 18 13 8 14 9 15 10 16 17 17 7 18 1 19 2 20 3 21 4 22
REMARK SMILES IDX 6 23 5 24 11 25 12 26 16 27 13 28 15 29 14 30 21 31 22 32
REMARK SMILES IDX 33 33 34 34 35 35 36 36 37 37 38 38 39 39 40 40 41 41 99 42
REMARK SMILES IDX 42 43 98 44 43 45 44 46 45 47 92 48 46 49 97 50 91 51 93 52
REMARK SMILES IDX 47 53 96 54 90 55 89 56 48 58 78 59 59 60 77 61 60 62 63 63
REMARK SMILES IDX 76 64 94 65 61 66 62 67 75 69 95 70 64 71 49 72 50 73 58 74
REMARK SMILES IDX 51 75 57 76 52 77 53 78 54 79 55 80 56 81 79 82 80 83 88 84
REMARK SMILES IDX 81 85 87 86 82 87 83 88 84 89 85 90 86 91 65 92 66 93 74 94
REMARK SMILES IDX 67 95 73 96 68 97 69 98 70 99 71 100 72 101
REMARK H PARENT 93 57 63 68
REMARK Flexibility Score: inf
ROOT
ATOM      1  C   UNL A   1      32.648  32.754  27.260  1.00  0.00     0.188 C 
ENDROOT
BRANCH   1   2
ATOM      2  O   UNL A   1      31.335  33.079  26.822  1.00  0.00    -0.377 OA
BRANCH   2   3
ATOM      3  C   UNL A   1      30.791  31.996  26.060  1.00  0.00     0.188 C 
BRANCH   3   4
ATOM      4  C   UNL A   1      30.400  32.361  24.582  1.00  0.00     0.188 C 
BRANCH   4   5
ATOM      5  O   UNL A   1      28.967  32.450  23.944  1.00  0.00    -0.376 OA
BRANCH   5   6
ATOM      6  C   UNL A   1      27.670  31.379  23.825  1.00  0.00     0.202 C 
BRANCH   6   7
ATOM      7  C   UNL A   1      27.244  29.873  22.828  1.00  0.00     0.261 C 
BRANCH   7   8
ATOM      8  O   UNL A   1      27.586  28.108  23.220  1.00  0.00    -0.459 OA
BRANCH   8   9
ATOM      9  C   UNL A   1      28.740  26.984  23.385  1.00  0.00     0.348 C 
ATOM     10  O   UNL A   1      28.391  25.946  23.965  1.00  0.00    -0.245 OA
BRANCH   9  11
ATOM     11  C   UNL A   1      30.442  27.058  22.792  1.00  0.00     0.138 C 
ATOM     12  C   UNL A   1      30.983  25.904  23.341  1.00  0.00     0.039 C 
BRANCH  12  13
ATOM     13  C   UNL A   1      32.289  25.553  23.959  1.00  0.00     0.023 A 
ATOM     14  C   UNL A   1      33.125  25.978  25.077  1.00  0.00     0.100 A 
ATOM     15  N   UNL A   1      34.016  25.035  25.393  1.00  0.00    -0.167 NA
ATOM     16  N   UNL A   1      33.977  24.139  24.411  1.00  0.00    -0.240 N 
ATOM     17  C   UNL A   1      32.960  24.408  23.523  1.00  0.00     0.123 A 
BRANCH  14  18
ATOM     18  C   UNL A   1      33.238  27.144  25.952  1.00  0.00     0.006 A 
ATOM     19  C   UNL A   1      30.847  26.807  26.827  1.00  0.00     0.045 C 
ATOM     20  C   UNL A   1      32.142  27.570  26.748  1.00  0.00    -0.042 A 
ATOM     21  C   UNL A   1      32.323  28.656  27.627  1.00  0.00     0.004 A 
ATOM     22  C   UNL A   1      33.544  29.333  27.685  1.00  0.00     0.000 A 
ATOM     23  C   UNL A   1      34.432  27.889  25.957  1.00  0.00     0.011 A 
ATOM     24  C   UNL A   1      34.589  28.965  26.837  1.00  0.00     0.001 A 
ENDBRANCH  14  18
BRANCH  16  25
ATOM     25  C   UNL A   1      34.977  23.133  24.404  1.00  0.00     0.065 A 
ATOM     26  C   UNL A   1      34.961  22.167  25.431  1.00  0.00     0.028 A 
ATOM     27  C   UNL A   1      36.016  23.147  23.476  1.00  0.00     0.028 A 
ATOM     28  C   UNL A   1      35.983  21.227  25.534  1.00  0.00     0.002 A 
ATOM     29  C   UNL A   1      37.060  22.223  23.613  1.00  0.00     0.002 A 
ATOM     30  C   UNL A   1      37.042  21.267  24.634  1.00  0.00     0.000 A 
ENDBRANCH  16  25
ENDBRANCH  12  13
BRANCH  11  31
ATOM     31  C   UNL A   1      31.601  28.033  22.659  1.00  0.00     0.107 C 
ATOM     32  N   UNL A   1      32.562  28.841  22.550  1.00  0.00    -0.192 NA
ENDBRANCH  11  31
ENDBRANCH   9  11
ENDBRANCH   8   9
ENDBRANCH   7   8
ENDBRANCH   6   7
ENDBRANCH   5   6
ENDBRANCH   4   5
ENDBRANCH   3   4
ENDBRANCH   2   3
ENDBRANCH   1   2
BRANCH   1  33
ATOM     33  C   UNL A   1      33.283  33.863  28.111  1.00  0.00     0.188 C 
BRANCH  33  34
ATOM     34  O   UNL A   1      33.602  33.438  29.435  1.00  0.00    -0.376 OA
BRANCH  34  35
ATOM     35  C   UNL A   1      34.457  34.229  30.222  1.00  0.00     0.202 C 
BRANCH  35  36
ATOM     36  C   UNL A   1      35.907  33.870  29.892  1.00  0.00     0.261 C 
BRANCH  36  37
ATOM     37  O   UNL A   1      36.271  32.595  30.477  1.00  0.00    -0.460 OA
BRANCH  37  38
ATOM     38  C   UNL A   1      36.584  31.612  29.566  1.00  0.00     0.338 C 
ATOM     39  O   UNL A   1      35.881  31.266  28.668  1.00  0.00    -0.246 OA
BRANCH  38  40
ATOM     40  C   UNL A   1      37.899  30.988  29.959  1.00  0.00     0.060 A 
ATOM     41  C   UNL A   1      38.416  31.238  31.222  1.00  0.00     0.016 A 
ATOM     42  C   UNL A   1      38.731  30.395  29.005  1.00  0.00     0.016 A 
ATOM     43  C   UNL A   1      39.793  31.050  31.447  1.00  0.00     0.010 A 
ATOM     44  C   UNL A   1      40.124  30.404  29.177  1.00  0.00     0.010 A 
ATOM     45  C   UNL A   1      40.711  30.836  30.384  1.00  0.00    -0.014 A 
BRANCH  45  46
ATOM     46  C   UNL A   1      42.369  30.888  30.470  1.00  0.00     0.031 A 
ATOM     47  C   UNL A   1      42.326  32.708  30.376  1.00  0.00     0.074 A 
ATOM     48  C   UNL A   1      43.634  29.748  30.299  1.00  0.00     0.049 A 
ATOM     49  N   UNL A   1      43.243  33.452  29.828  1.00  0.00    -0.248 NA
ATOM     50  C   UNL A   1      41.155  33.619  30.570  1.00  0.00     0.031 C 
ATOM     51  C   UNL A   1      45.398  29.897  30.135  1.00  0.00     0.029 A 
ATOM     52  N   UNL A   1      43.847  28.306  29.960  1.00  0.00    -0.354 N 
ATOM     53  C   UNL A   1      43.050  34.769  30.021  1.00  0.00     0.074 A 
ATOM     54  C   UNL A   1      41.651  34.844  30.317  1.00  0.00     0.031 C 
ATOM     55  C   UNL A   1      46.082  28.804  29.863  1.00  0.00     0.029 A 
ATOM     56  C   UNL A   1      45.093  27.992  29.308  1.00  0.00     0.049 A 
ATOM     57  H   UNL A   1      43.178  27.615  30.169  1.00  0.00     0.167 HD
ATOM     58  C   UNL A   1      44.158  35.567  30.039  1.00  0.00     0.031 A 
ATOM     59  C   UNL A   1      45.314  27.619  28.011  1.00  0.00     0.031 A 
ATOM     60  C   UNL A   1      45.411  34.772  29.784  1.00  0.00     0.049 A 
ATOM     61  C   UNL A   1      46.133  28.807  27.332  1.00  0.00     0.074 A 
ATOM     62  C   UNL A   1      46.369  34.287  30.662  1.00  0.00     0.029 A 
ATOM     63  N   UNL A   1      45.623  34.039  28.582  1.00  0.00    -0.354 N 
ATOM     64  N   UNL A   1      45.853  30.094  27.484  1.00  0.00    -0.248 NA
ATOM     65  C   UNL A   1      47.516  28.641  26.874  1.00  0.00     0.031 C 
ATOM     66  C   UNL A   1      47.065  33.206  30.032  1.00  0.00     0.029 A 
ATOM     67  C   UNL A   1      46.581  33.011  28.733  1.00  0.00     0.049 A 
ATOM     68  H   UNL A   1      45.154  34.228  27.737  1.00  0.00     0.167 HD
ATOM     69  C   UNL A   1      46.980  30.896  27.303  1.00  0.00     0.074 A 
ATOM     70  C   UNL A   1      47.976  29.910  26.861  1.00  0.00     0.031 C 
ATOM     71  C   UNL A   1      47.196  32.246  27.601  1.00  0.00     0.031 A 
BRANCH  58  72
ATOM     72  C   UNL A   1      44.063  36.934  30.720  1.00  0.00    -0.014 A 
ATOM     73  C   UNL A   1      43.704  38.092  29.999  1.00  0.00     0.010 A 
ATOM     74  C   UNL A   1      44.412  37.151  32.074  1.00  0.00     0.010 A 
ATOM     75  C   UNL A   1      43.772  39.385  30.568  1.00  0.00     0.020 A 
ATOM     76  C   UNL A   1      44.524  38.434  32.643  1.00  0.00     0.020 A 
ATOM     77  C   UNL A   1      44.206  39.550  31.882  1.00  0.00     0.054 A 
BRANCH  77  78
ATOM     78  S   UNL A   1      44.332  41.219  32.596  1.00  0.00     0.124 S 
ATOM     79  O   UNL A   1      45.673  41.640  32.196  1.00  0.00    -0.237 OA
ATOM     80  O   UNL A   1      43.230  41.924  31.949  1.00  0.00    -0.237 OA
ATOM     81  O   UNL A   1      44.164  40.998  34.032  1.00  0.00    -0.744 OA
ENDBRANCH  77  78
ENDBRANCH  58  72
BRANCH  59  82
ATOM     82  C   UNL A   1      44.263  26.673  27.540  1.00  0.00    -0.014 A 
ATOM     83  C   UNL A   1      44.227  26.449  26.129  1.00  0.00     0.010 A 
ATOM     84  C   UNL A   1      43.588  25.767  28.359  1.00  0.00     0.010 A 
ATOM     85  C   UNL A   1      43.738  25.261  25.580  1.00  0.00     0.020 A 
ATOM     86  C   UNL A   1      43.094  24.566  27.809  1.00  0.00     0.020 A 
ATOM     87  C   UNL A   1      43.207  24.303  26.435  1.00  0.00     0.054 A 
BRANCH  87  88
ATOM     88  S   UNL A   1      42.791  22.646  25.805  1.00  0.00     0.124 S 
ATOM     89  O   UNL A   1      43.137  22.757  24.393  1.00  0.00    -0.237 OA
ATOM     90  O   UNL A   1      43.645  21.745  26.578  1.00  0.00    -0.237 OA
ATOM     91  O   UNL A   1      41.367  22.536  26.107  1.00  0.00    -0.744 OA
ENDBRANCH  87  88
ENDBRANCH  59  82
BRANCH  71  92
ATOM     92  C   UNL A   1      48.271  33.033  26.852  1.00  0.00    -0.014 A 
ATOM     93  C   UNL A   1      47.942  34.055  25.949  1.00  0.00     0.010 A 
ATOM     94  C   UNL A   1      49.638  32.918  27.216  1.00  0.00     0.010 A 
ATOM     95  C   UNL A   1      48.923  34.887  25.404  1.00  0.00     0.020 A 
ATOM     96  C   UNL A   1      50.621  33.775  26.715  1.00  0.00     0.020 A 
ATOM     97  C   UNL A   1      50.254  34.748  25.796  1.00  0.00     0.054 A 
BRANCH  97  98
ATOM     98  S   UNL A   1      51.481  35.916  25.164  1.00  0.00     0.124 S 
ATOM     99  O   UNL A   1      52.401  35.027  24.460  1.00  0.00    -0.237 OA
ATOM    100  O   UNL A   1      50.681  36.793  24.312  1.00  0.00    -0.237 OA
ATOM    101  O   UNL A   1      52.014  36.545  26.370  1.00  0.00    -0.744 OA
ENDBRANCH  97  98
ENDBRANCH  71  92
ENDBRANCH  45  46
ENDBRANCH  38  40
ENDBRANCH  37  38
ENDBRANCH  36  37
ENDBRANCH  35  36
ENDBRANCH  34  35
ENDBRANCH  33  34
ENDBRANCH   1  33
TORSDOF 27
ENDMDL
MODEL 2
REMARK VINA RESULT:      -9.0      3.439      4.159
REMARK SMILES Cc1ccccc1-c1nn(-c2ccccc2)cc1/C=C(\C#N)C(=O)OCCOCCOCCOCCOC(=O)c1ccc(-c2c3nc(c(-c4ccc(S(=O)(=O)[O-])cc4)c4ccc([nH]4)c(-c4ccc(S(=O)(=O)[O-])cc4)c4nc(c(-c5ccc(S(=O)(=O)[O-])cc5)c5ccc2[nH]5)C=C4)C=C3)cc1
REMARK SMILES IDX 32 1 31 2 30 3 29 4 28 5 27 6 26 7 25 8 23 9 24 10 20 11
REMARK SMILES IDX 19 12 18 13 8 14 9 15 10 16 17 17 7 18 1 19 2 20 3 21 4 22
REMARK SMILES IDX 6 23 5 24 11 25 12 26 16 27 13 28 15 29 14 30 21 31 22 32
REMARK SMILES IDX 33 33 34 34 35 35 36 36 37 37 38 38 39 39 40 40 41 41 99 42
REMARK SMILES IDX 42 43 98 44 43 45 44 46 45 47 92 48 46 49 97 50 91 51 93 52
REMARK SMILES IDX 47 53 96 54 90 55 89 56 48 58 78 59 59 60 77 61 60 62 63 63
REMARK SMILES IDX 76 64 94 65 61 66 62 67 75 69 95 70 64 71 49 72 50 73 58 74
REMARK SMILES IDX 51 75 57 76 52 77 53 78 54 79 55 80 56 81 79 82 80 83 88 84
REMARK SMILES IDX 81 85 87 86 82 87 83 88 84 89 85 90 86 91 65 92 66 93 74 94
REMARK SMILES IDX 67 95 73 96 68 97 69 98 70 99 71 100 72 101
REMARK H PARENT 93 57 63 68
REMARK Flexibility Score: inf
ROOT
ATOM      1  C   UNL A   1      33.040  32.489  27.633  1.00  0.00     0.188 C 
ENDROOT
BRANCH   1   2
ATOM      2  O   UNL A   1      31.755  33.063  27.433  1.00  0.00    -0.377 OA
BRANCH   2   3
ATOM      3  C   UNL A   1      30.973  32.226  26.573  1.00  0.00     0.188 C 
BRANCH   3   4
ATOM      4  C   UNL A   1      30.784  32.776  25.112  1.00  0.00     0.188 C 
BRANCH   4   5
ATOM      5  O   UNL A   1      29.479  32.802  24.239  1.00  0.00    -0.376 OA
BRANCH   5   6
ATOM      6  C   UNL A   1      28.236  31.697  23.959  1.00  0.00     0.202 C 
BRANCH   6   7
ATOM      7  C   UNL A   1      27.919  30.278  22.805  1.00  0.00     0.261 C 
BRANCH   7   8
ATOM      8  O   UNL A   1      27.989  28.475  23.163  1.00  0.00    -0.459 OA
BRANCH   8   9
ATOM      9  C   UNL A   1      28.955  27.181  23.276  1.00  0.00     0.348 C 
ATOM     10  O   UNL A   1      28.417  26.152  23.709  1.00  0.00    -0.245 OA
BRANCH   9  11
ATOM     11  C   UNL A   1      30.694  27.061  22.811  1.00  0.00     0.138 C 
ATOM     12  C   UNL A   1      31.072  25.879  23.433  1.00  0.00     0.039 C 
BRANCH  12  13
ATOM     13  C   UNL A   1      32.287  25.421  24.158  1.00  0.00     0.023 A 
ATOM     14  C   UNL A   1      33.123  25.843  25.276  1.00  0.00     0.100 A 
ATOM     15  N   UNL A   1      33.858  24.826  25.734  1.00  0.00    -0.167 NA
ATOM     16  N   UNL A   1      33.738  23.847  24.843  1.00  0.00    -0.240 N 
ATOM     17  C   UNL A   1      32.809  24.157  23.875  1.00  0.00     0.123 A 
BRANCH  14  18
ATOM     18  C   UNL A   1      33.359  27.067  26.040  1.00  0.00     0.006 A 
ATOM     19  C   UNL A   1      30.958  27.048  26.950  1.00  0.00     0.045 C 
ATOM     20  C   UNL A   1      32.319  27.670  26.796  1.00  0.00    -0.042 A 
ATOM     21  C   UNL A   1      32.615  28.810  27.570  1.00  0.00     0.004 A 
ATOM     22  C   UNL A   1      33.897  29.366  27.562  1.00  0.00     0.000 A 
ATOM     23  C   UNL A   1      34.620  27.690  25.973  1.00  0.00     0.011 A 
ATOM     24  C   UNL A   1      34.891  28.822  26.749  1.00  0.00     0.001 A 
ENDBRANCH  14  18
BRANCH  16  25
ATOM     25  C   UNL A   1      34.586  22.720  24.992  1.00  0.00     0.065 A 
ATOM     26  C   UNL A   1      35.968  22.941  25.160  1.00  0.00     0.028 A 
ATOM     27  C   UNL A   1      34.098  21.421  24.871  1.00  0.00     0.028 A 
ATOM     28  C   UNL A   1      36.857  21.870  25.200  1.00  0.00     0.002 A 
ATOM     29  C   UNL A   1      35.004  20.352  24.871  1.00  0.00     0.002 A 
ATOM     30  C   UNL A   1      36.374  20.575  25.036  1.00  0.00     0.000 A 
ENDBRANCH  16  25
ENDBRANCH  12  13
BRANCH  11  31
ATOM     31  C   UNL A   1      31.954  27.908  22.737  1.00  0.00     0.107 C 
ATOM     32  N   UNL A   1      32.998  28.610  22.676  1.00  0.00    -0.192 NA
ENDBRANCH  11  31
ENDBRANCH   9  11
ENDBRANCH   8   9
ENDBRANCH   7   8
ENDBRANCH   6   7
ENDBRANCH   5   6
ENDBRANCH   4   5
ENDBRANCH   3   4
ENDBRANCH   2   3
ENDBRANCH   1   2
BRANCH   1  33
ATOM     33  C   UNL A   1      33.945  33.352  28.524  1.00  0.00     0.188 C 
BRANCH  33  34
ATOM     34  O   UNL A   1      34.095  32.829  29.843  1.00  0.00    -0.376 OA
BRANCH  34  35
ATOM     35  C   UNL A   1      34.799  33.577  30.801  1.00  0.00     0.202 C 
BRANCH  35  36
ATOM     36  C   UNL A   1      36.182  32.954  30.997  1.00  0.00     0.261 C 
BRANCH  36  37
ATOM     37  O   UNL A   1      36.267  32.271  32.273  1.00  0.00    -0.460 OA
BRANCH  37  38
ATOM     38  C   UNL A   1      36.727  30.975  32.203  1.00  0.00     0.338 C 
ATOM     39  O   UNL A   1      36.092  30.046  31.812  1.00  0.00    -0.246 OA
BRANCH  38  40
ATOM     40  C   UNL A   1      38.112  30.921  32.798  1.00  0.00     0.060 A 
ATOM     41  C   UNL A   1      38.492  31.887  33.717  1.00  0.00     0.016 A 
ATOM     42  C   UNL A   1      39.099  30.096  32.252  1.00  0.00     0.016 A 
ATOM     43  C   UNL A   1      39.862  32.119  33.938  1.00  0.00     0.010 A 
ATOM     44  C   UNL A   1      40.452  30.468  32.324  1.00  0.00     0.010 A 
ATOM     45  C   UNL A   1      40.869  31.570  33.098  1.00  0.00    -0.014 A 
BRANCH  45  46
ATOM     46  C   UNL A   1      42.476  31.985  33.061  1.00  0.00     0.031 A 
ATOM     47  C   UNL A   1      42.177  33.049  31.611  1.00  0.00     0.074 A 
ATOM     48  C   UNL A   1      43.907  31.383  33.782  1.00  0.00     0.049 A 
ATOM     49  N   UNL A   1      43.036  33.278  30.660  1.00  0.00    -0.248 NA
ATOM     50  C   UNL A   1      40.870  33.543  31.077  1.00  0.00     0.031 C 
ATOM     51  C   UNL A   1      45.636  31.691  33.506  1.00  0.00     0.029 A 
ATOM     52  N   UNL A   1      44.372  30.263  34.658  1.00  0.00    -0.354 N 
ATOM     53  C   UNL A   1      42.629  34.214  29.784  1.00  0.00     0.074 A 
ATOM     54  C   UNL A   1      41.208  34.216  29.962  1.00  0.00     0.031 C 
ATOM     55  C   UNL A   1      46.502  30.930  34.144  1.00  0.00     0.029 A 
ATOM     56  C   UNL A   1      45.722  29.813  34.439  1.00  0.00     0.049 A 
ATOM     57  H   UNL A   1      43.790  29.858  35.343  1.00  0.00     0.167 HD
ATOM     58  C   UNL A   1      43.595  34.941  29.151  1.00  0.00     0.031 A 
ATOM     59  C   UNL A   1      46.158  28.643  33.882  1.00  0.00     0.031 A 
ATOM     60  C   UNL A   1      44.974  34.490  29.554  1.00  0.00     0.049 A 
ATOM     61  C   UNL A   1      46.873  29.034  32.510  1.00  0.00     0.074 A 
ATOM     62  C   UNL A   1      45.874  35.031  30.460  1.00  0.00     0.029 A 
ATOM     63  N   UNL A   1      45.442  33.163  29.333  1.00  0.00    -0.354 N 
ATOM     64  N   UNL A   1      46.389  29.902  31.633  1.00  0.00    -0.248 NA
ATOM     65  C   UNL A   1      48.311  28.848  32.298  1.00  0.00     0.031 C 
ATOM     66  C   UNL A   1      46.796  34.011  30.858  1.00  0.00     0.029 A 
ATOM     67  C   UNL A   1      46.514  32.816  30.186  1.00  0.00     0.049 A 
ATOM     68  H   UNL A   1      45.062  32.555  28.659  1.00  0.00     0.167 HD
ATOM     69  C   UNL A   1      47.399  30.485  30.867  1.00  0.00     0.074 A 
ATOM     70  C   UNL A   1      48.577  29.724  31.305  1.00  0.00     0.031 C 
ATOM     71  C   UNL A   1      47.374  31.599  30.022  1.00  0.00     0.031 A 
BRANCH  58  72
ATOM     72  C   UNL A   1      43.215  36.295  28.547  1.00  0.00    -0.014 A 
ATOM     73  C   UNL A   1      43.465  37.502  29.232  1.00  0.00     0.010 A 
ATOM     74  C   UNL A   1      42.516  36.429  27.324  1.00  0.00     0.010 A 
ATOM     75  C   UNL A   1      42.976  38.746  28.771  1.00  0.00     0.020 A 
ATOM     76  C   UNL A   1      41.985  37.653  26.873  1.00  0.00     0.020 A 
ATOM     77  C   UNL A   1      42.215  38.811  27.604  1.00  0.00     0.054 A 
BRANCH  77  78
ATOM     78  S   UNL A   1      41.551  40.407  27.037  1.00  0.00     0.124 S 
ATOM     79  O   UNL A   1      42.754  41.127  26.624  1.00  0.00    -0.237 OA
ATOM     80  O   UNL A   1      40.653  40.010  25.957  1.00  0.00    -0.237 OA
ATOM     81  O   UNL A   1      40.889  40.951  28.222  1.00  0.00    -0.744 OA
ENDBRANCH  77  78
ENDBRANCH  58  72
BRANCH  59  82
ATOM     82  C   UNL A   1      45.327  27.491  34.334  1.00  0.00    -0.014 A 
ATOM     83  C   UNL A   1      45.356  27.228  35.739  1.00  0.00     0.010 A 
ATOM     84  C   UNL A   1      44.301  26.912  33.585  1.00  0.00     0.010 A 
ATOM     85  C   UNL A   1      44.291  26.608  36.397  1.00  0.00     0.020 A 
ATOM     86  C   UNL A   1      43.225  26.287  34.247  1.00  0.00     0.020 A 
ATOM     87  C   UNL A   1      43.206  26.175  35.645  1.00  0.00     0.054 A 
BRANCH  87  88
ATOM     88  S   UNL A   1      41.692  25.594  36.475  1.00  0.00     0.124 S 
ATOM     89  O   UNL A   1      41.661  26.422  37.675  1.00  0.00    -0.237 OA
ATOM     90  O   UNL A   1      40.628  25.868  35.511  1.00  0.00    -0.237 OA
ATOM     91  O   UNL A   1      41.966  24.176  36.687  1.00  0.00    -0.744 OA
ENDBRANCH  87  88
ENDBRANCH  59  82
BRANCH  71  92
ATOM     92  C   UNL A   1      48.407  31.735  28.903  1.00  0.00    -0.014 A 
ATOM     93  C   UNL A   1      48.026  31.918  27.566  1.00  0.00     0.010 A 
ATOM     94  C   UNL A   1      49.783  31.912  29.206  1.00  0.00     0.010 A 
ATOM     95  C   UNL A   1      48.966  32.218  26.576  1.00  0.00     0.020 A 
ATOM     96  C   UNL A   1      50.724  32.259  28.234  1.00  0.00     0.020 A 
ATOM     97  C   UNL A   1      50.307  32.395  26.917  1.00  0.00     0.054 A 
BRANCH  97  98
ATOM     98  S   UNL A   1      51.478  32.899  25.636  1.00  0.00     0.124 S 
ATOM     99  O   UNL A   1      50.691  33.868  24.879  1.00  0.00    -0.237 OA
ATOM    100  O   UNL A   1      52.583  33.458  26.412  1.00  0.00    -0.237 OA
ATOM    101  O   UNL A   1      51.784  31.653  24.937  1.00  0.00    -0.744 OA
ENDBRANCH  97  98
ENDBRANCH  71  92
ENDBRANCH  45  46
ENDBRANCH  38  40
ENDBRANCH  37  38
ENDBRANCH  36  37
ENDBRANCH  35  36
ENDBRANCH  34  35
ENDBRANCH  33  34
ENDBRANCH   1  33
TORSDOF 27
ENDMDL
MODEL 3
REMARK VINA RESULT:      -9.0      5.650     11.115
REMARK SMILES Cc1ccccc1-c1nn(-c2ccccc2)cc1/C=C(\C#N)C(=O)OCCOCCOCCOCCOC(=O)c1ccc(-c2c3nc(c(-c4ccc(S(=O)(=O)[O-])cc4)c4ccc([nH]4)c(-c4ccc(S(=O)(=O)[O-])cc4)c4nc(c(-c5ccc(S(=O)(=O)[O-])cc5)c5ccc2[nH]5)C=C4)C=C3)cc1
REMARK SMILES IDX 32 1 31 2 30 3 29 4 28 5 27 6 26 7 25 8 23 9 24 10 20 11
REMARK SMILES IDX 19 12 18 13 8 14 9 15 10 16 17 17 7 18 1 19 2 20 3 21 4 22
REMARK SMILES IDX 6 23 5 24 11 25 12 26 16 27 13 28 15 29 14 30 21 31 22 32
REMARK SMILES IDX 33 33 34 34 35 35 36 36 37 37 38 38 39 39 40 40 41 41 99 42
REMARK SMILES IDX 42 43 98 44 43 45 44 46 45 47 92 48 46 49 97 50 91 51 93 52
REMARK SMILES IDX 47 53 96 54 90 55 89 56 48 58 78 59 59 60 77 61 60 62 63 63
REMARK SMILES IDX 76 64 94 65 61 66 62 67 75 69 95 70 64 71 49 72 50 73 58 74
REMARK SMILES IDX 51 75 57 76 52 77 53 78 54 79 55 80 56 81 79 82 80 83 88 84
REMARK SMILES IDX 81 85 87 86 82 87 83 88 84 89 85 90 86 91 65 92 66 93 74 94
REMARK SMILES IDX 67 95 73 96 68 97 69 98 70 99 71 100 72 101
REMARK H PARENT 93 57 63 68
REMARK Flexibility Score: inf
ROOT
ATOM      1  C   UNL A   1      45.623  26.766  28.994  1.00  0.00     0.188 C 
ENDROOT
BRANCH   1   2
ATOM      2  O   UNL A   1      46.048  28.123  28.990  1.00  0.00    -0.377 OA
BRANCH   2   3
ATOM      3  C   UNL A   1      45.954  28.662  27.667  1.00  0.00     0.188 C 
BRANCH   3   4
ATOM      4  C   UNL A   1      44.841  28.010  26.767  1.00  0.00     0.188 C 
BRANCH   4   5
ATOM      5  O   UNL A   1      45.017  27.150  25.465  1.00  0.00    -0.376 OA
BRANCH   5   6
ATOM      6  C   UNL A   1      45.914  25.773  25.084  1.00  0.00     0.202 C 
BRANCH   6   7
ATOM      7  C   UNL A   1      46.408  24.200  25.935  1.00  0.00     0.261 C 
BRANCH   7   8
ATOM      8  O   UNL A   1      45.695  23.451  27.456  1.00  0.00    -0.459 OA
BRANCH   8   9
ATOM      9  C   UNL A   1      44.332  22.968  28.185  1.00  0.00     0.348 C 
ATOM     10  O   UNL A   1      44.284  23.167  29.407  1.00  0.00    -0.245 OA
BRANCH   9  11
ATOM     11  C   UNL A   1      42.880  22.219  27.420  1.00  0.00     0.138 C 
ATOM     12  C   UNL A   1      42.229  23.330  26.903  1.00  0.00     0.039 C 
BRANCH  12  13
ATOM     13  C   UNL A   1      40.807  23.754  26.795  1.00  0.00     0.023 A 
ATOM     14  C   UNL A   1      40.025  24.985  26.800  1.00  0.00     0.100 A 
ATOM     15  N   UNL A   1      38.816  24.785  26.268  1.00  0.00    -0.167 NA
ATOM     16  N   UNL A   1      38.675  23.468  26.146  1.00  0.00    -0.240 N 
ATOM     17  C   UNL A   1      39.841  22.805  26.454  1.00  0.00     0.123 A 
BRANCH  14  18
ATOM     18  C   UNL A   1      40.212  26.376  27.208  1.00  0.00     0.006 A 
ATOM     19  C   UNL A   1      38.990  25.963  29.428  1.00  0.00     0.045 C 
ATOM     20  C   UNL A   1      39.679  26.857  28.433  1.00  0.00    -0.042 A 
ATOM     21  C   UNL A   1      39.945  28.187  28.814  1.00  0.00     0.004 A 
ATOM     22  C   UNL A   1      40.683  29.035  27.984  1.00  0.00     0.000 A 
ATOM     23  C   UNL A   1      40.877  27.266  26.343  1.00  0.00     0.011 A 
ATOM     24  C   UNL A   1      41.129  28.583  26.742  1.00  0.00     0.001 A 
ENDBRANCH  14  18
BRANCH  16  25
ATOM     25  C   UNL A   1      37.392  22.979  25.791  1.00  0.00     0.065 A 
ATOM     26  C   UNL A   1      36.295  23.863  25.864  1.00  0.00     0.028 A 
ATOM     27  C   UNL A   1      37.184  21.637  25.480  1.00  0.00     0.028 A 
ATOM     28  C   UNL A   1      35.000  23.405  25.635  1.00  0.00     0.002 A 
ATOM     29  C   UNL A   1      35.875  21.177  25.292  1.00  0.00     0.002 A 
ATOM     30  C   UNL A   1      34.790  22.056  25.366  1.00  0.00     0.000 A 
ENDBRANCH  16  25
ENDBRANCH  12  13
BRANCH  11  31
ATOM     31  C   UNL A   1      41.789  21.202  27.711  1.00  0.00     0.107 C 
ATOM     32  N   UNL A   1      40.884  20.358  27.952  1.00  0.00    -0.192 NA
ENDBRANCH  11  31
ENDBRANCH   9  11
ENDBRANCH   8   9
ENDBRANCH   7   8
ENDBRANCH   6   7
ENDBRANCH   5   6
ENDBRANCH   4   5
ENDBRANCH   3   4
ENDBRANCH   2   3
ENDBRANCH   1   2
BRANCH   1  33
ATOM     33  C   UNL A   1      46.413  25.897  29.982  1.00  0.00     0.188 C 
BRANCH  33  34
ATOM     34  O   UNL A   1      46.067  26.143  31.344  1.00  0.00    -0.376 OA
BRANCH  34  35
ATOM     35  C   UNL A   1      44.711  26.247  31.699  1.00  0.00     0.202 C 
BRANCH  35  36
ATOM     36  C   UNL A   1      44.257  24.922  32.313  1.00  0.00     0.261 C 
BRANCH  36  37
ATOM     37  O   UNL A   1      44.599  24.859  33.721  1.00  0.00    -0.460 OA
BRANCH  37  38
ATOM     38  C   UNL A   1      43.539  24.605  34.561  1.00  0.00     0.338 C 
ATOM     39  O   UNL A   1      42.856  23.630  34.519  1.00  0.00    -0.246 OA
BRANCH  38  40
ATOM     40  C   UNL A   1      43.332  25.801  35.455  1.00  0.00     0.060 A 
ATOM     41  C   UNL A   1      42.066  26.060  35.958  1.00  0.00     0.016 A 
ATOM     42  C   UNL A   1      44.310  26.794  35.569  1.00  0.00     0.016 A 
ATOM     43  C   UNL A   1      41.760  27.359  36.404  1.00  0.00     0.010 A 
ATOM     44  C   UNL A   1      43.941  28.125  35.823  1.00  0.00     0.010 A 
ATOM     45  C   UNL A   1      42.612  28.467  36.152  1.00  0.00    -0.014 A 
BRANCH  45  46
ATOM     46  C   UNL A   1      42.250  30.074  36.357  1.00  0.00     0.031 A 
ATOM     47  C   UNL A   1      41.458  30.115  34.716  1.00  0.00     0.074 A 
ATOM     48  C   UNL A   1      42.748  31.307  37.435  1.00  0.00     0.049 A 
ATOM     49  N   UNL A   1      41.425  31.149  33.925  1.00  0.00    -0.248 NA
ATOM     50  C   UNL A   1      41.037  28.962  33.860  1.00  0.00     0.031 C 
ATOM     51  C   UNL A   1      42.536  33.072  37.451  1.00  0.00     0.029 A 
ATOM     52  N   UNL A   1      43.702  31.534  38.564  1.00  0.00    -0.354 N 
ATOM     53  C   UNL A   1      40.652  30.968  32.838  1.00  0.00     0.074 A 
ATOM     54  C   UNL A   1      40.583  29.541  32.734  1.00  0.00     0.031 C 
ATOM     55  C   UNL A   1      43.191  33.758  38.367  1.00  0.00     0.029 A 
ATOM     56  C   UNL A   1      44.218  32.873  38.692  1.00  0.00     0.049 A 
ATOM     57  H   UNL A   1      43.963  30.812  39.182  1.00  0.00     0.167 HD
ATOM     58  C   UNL A   1      40.075  32.076  32.290  1.00  0.00     0.031 A 
ATOM     59  C   UNL A   1      45.479  33.336  38.440  1.00  0.00     0.031 A 
ATOM     60  C   UNL A   1      40.480  33.327  33.025  1.00  0.00     0.049 A 
ATOM     61  C   UNL A   1      45.359  34.316  37.187  1.00  0.00     0.074 A 
ATOM     62  C   UNL A   1      39.806  34.071  33.982  1.00  0.00     0.029 A 
ATOM     63  N   UNL A   1      41.835  33.749  33.131  1.00  0.00    -0.354 N 
ATOM     64  N   UNL A   1      44.651  34.057  36.097  1.00  0.00    -0.248 NA
ATOM     65  C   UNL A   1      45.615  35.756  37.294  1.00  0.00     0.031 C 
ATOM     66  C   UNL A   1      40.760  34.841  34.721  1.00  0.00     0.029 A 
ATOM     67  C   UNL A   1      42.049  34.620  34.222  1.00  0.00     0.049 A 
ATOM     68  H   UNL A   1      42.545  33.466  32.510  1.00  0.00     0.167 HD
ATOM     69  C   UNL A   1      44.240  35.224  35.453  1.00  0.00     0.074 A 
ATOM     70  C   UNL A   1      44.938  36.253  36.236  1.00  0.00     0.031 C 
ATOM     71  C   UNL A   1      43.296  35.423  34.440  1.00  0.00     0.031 A 
BRANCH  58  72
ATOM     72  C   UNL A   1      38.843  31.895  31.400  1.00  0.00    -0.014 A 
ATOM     73  C   UNL A   1      38.946  31.881  29.994  1.00  0.00     0.010 A 
ATOM     74  C   UNL A   1      37.524  31.823  31.909  1.00  0.00     0.010 A 
ATOM     75  C   UNL A   1      37.808  31.882  29.155  1.00  0.00     0.020 A 
ATOM     76  C   UNL A   1      36.380  31.865  31.089  1.00  0.00     0.020 A 
ATOM     77  C   UNL A   1      36.529  31.899  29.709  1.00  0.00     0.054 A 
BRANCH  77  78
ATOM     78  S   UNL A   1      35.067  31.942  28.625  1.00  0.00     0.124 S 
ATOM     79  O   UNL A   1      34.862  30.531  28.306  1.00  0.00    -0.237 OA
ATOM     80  O   UNL A   1      34.055  32.548  29.485  1.00  0.00    -0.237 OA
ATOM     81  O   UNL A   1      35.493  32.769  27.497  1.00  0.00    -0.744 OA
ENDBRANCH  77  78
ENDBRANCH  58  72
BRANCH  59  82
ATOM     82  C   UNL A   1      46.509  32.369  38.913  1.00  0.00    -0.014 A 
ATOM     83  C   UNL A   1      46.490  32.089  40.315  1.00  0.00     0.010 A 
ATOM     84  C   UNL A   1      47.215  31.494  38.085  1.00  0.00     0.010 A 
ATOM     85  C   UNL A   1      46.957  30.878  40.834  1.00  0.00     0.020 A 
ATOM     86  C   UNL A   1      47.686  30.271  38.605  1.00  0.00     0.020 A 
ATOM     87  C   UNL A   1      47.519  29.954  39.962  1.00  0.00     0.054 A 
BRANCH  87  88
ATOM     88  S   UNL A   1      47.909  28.271  40.540  1.00  0.00     0.124 S 
ATOM     89  O   UNL A   1      49.346  28.351  40.776  1.00  0.00    -0.237 OA
ATOM     90  O   UNL A   1      47.097  28.111  41.745  1.00  0.00    -0.237 OA
ATOM     91  O   UNL A   1      47.492  27.441  39.415  1.00  0.00    -0.744 OA
ENDBRANCH  87  88
ENDBRANCH  59  82
BRANCH  71  92
ATOM     92  C   UNL A   1      43.389  36.653  33.538  1.00  0.00    -0.014 A 
ATOM     93  C   UNL A   1      43.144  37.945  34.024  1.00  0.00     0.010 A 
ATOM     94  C   UNL A   1      43.951  36.556  32.237  1.00  0.00     0.010 A 
ATOM     95  C   UNL A   1      43.402  39.077  33.245  1.00  0.00     0.020 A 
ATOM     96  C   UNL A   1      44.258  37.681  31.468  1.00  0.00     0.020 A 
ATOM     97  C   UNL A   1      43.965  38.938  31.976  1.00  0.00     0.054 A 
BRANCH  97  98
ATOM     98  S   UNL A   1      44.396  40.424  31.042  1.00  0.00     0.124 S 
ATOM     99  O   UNL A   1      45.010  41.256  32.073  1.00  0.00    -0.237 OA
ATOM    100  O   UNL A   1      45.310  39.910  30.025  1.00  0.00    -0.237 OA
ATOM    101  O   UNL A   1      43.111  40.899  30.534  1.00  0.00    -0.744 OA
ENDBRANCH  97  98
ENDBRANCH  71  92
ENDBRANCH  45  46
ENDBRANCH  38  40
ENDBRANCH  37  38
ENDBRANCH  36  37
ENDBRANCH  35  36
ENDBRANCH  34  35
ENDBRANCH  33  34
ENDBRANCH   1  33
TORSDOF 27
ENDMDL
