MODEL 1
REMARK VINA RESULT:      -8.9      0.000      0.000
REMARK SMILES CO[C@H]1C[C@H](C(=O)OCCOCCOCCOCCOC(=O)c2ccc(-c3c4nc(c(-c5ccc(S(=O)(=O)[O-])cc5)c5ccc([nH]5)c(-c5ccc(S(=O)(=O)[O-])cc5)c5nc(c(-c6ccc(S(=O)(=O)[O-])cc6)c6ccc3[nH]6)C=C5)C=C4)cc2)N(C(=O)CCSCC(N)=O)C1
REMARK SMILES IDX 12 1 11 2 10 3 9 4 8 5 6 6 7 7 5 8 3 9 4 10 93 11 83 12 2 13
REMARK SMILES IDX 1 14 84 15 85 16 86 17 87 18 88 19 89 20 90 21 91 22 92 23
REMARK SMILES IDX 13 26 14 27 15 28 16 29 17 30 18 31 19 32 20 33 21 34 22 35
REMARK SMILES IDX 23 36 24 37 82 38 25 39 81 40 26 41 27 42 28 43 75 44 29 45
REMARK SMILES IDX 80 46 74 47 76 48 30 49 79 50 73 51 72 52 31 54 61 55 42 56
REMARK SMILES IDX 60 57 43 58 46 59 59 60 77 61 44 62 45 63 58 65 78 66 47 67
REMARK SMILES IDX 32 68 33 69 41 70 34 71 40 72 35 73 36 74 37 75 38 76 39 77
REMARK SMILES IDX 62 78 63 79 71 80 64 81 70 82 65 83 66 84 67 85 68 86 69 87
REMARK SMILES IDX 48 88 49 89 57 90 50 91 56 92 51 93 52 94 53 95 54 96 55 97
REMARK H PARENT 91 24 91 25 76 53 46 64
REMARK Flexibility Score: inf
ROOT
ATOM      1  C   UNL A   1      32.678  21.443  24.984  1.00  0.00     0.188 C 
ENDROOT
BRANCH   1   2
ATOM      2  O   UNL A   1      32.576  22.764  24.499  1.00  0.00    -0.376 OA
BRANCH   2   3
ATOM      3  C   UNL A   1      32.050  23.086  23.220  1.00  0.00     0.202 C 
BRANCH   3   4
ATOM      4  C   UNL A   1      32.458  24.310  22.381  1.00  0.00     0.261 C 
BRANCH   4   5
ATOM      5  O   UNL A   1      33.743  24.921  22.623  1.00  0.00    -0.462 OA
BRANCH   5   6
ATOM      6  C   UNL A   1      33.696  26.248  22.882  1.00  0.00     0.329 C 
ATOM      7  O   UNL A   1      34.269  27.096  22.204  1.00  0.00    -0.250 OA
BRANCH   6   8
ATOM      8  C   UNL A   1      32.959  26.655  24.166  1.00  0.00     0.197 C 
ATOM      9  C   UNL A   1      34.011  28.372  25.515  1.00  0.00     0.140 C 
ATOM     10  C   UNL A   1      33.736  26.871  25.457  1.00  0.00     0.071 C 
ATOM     11  C   UNL A   1      32.829  28.981  24.746  1.00  0.00     0.152 C 
ATOM     12  N   UNL A   1      32.212  27.896  23.992  1.00  0.00    -0.326 N 
BRANCH   9  13
ATOM     13  O   UNL A   1      34.088  28.980  26.805  1.00  0.00    -0.380 OA
ATOM     14  C   UNL A   1      35.371  29.335  27.292  1.00  0.00     0.195 C 
ENDBRANCH   9  13
BRANCH  12  15
ATOM     15  C   UNL A   1      31.048  28.095  23.286  1.00  0.00     0.224 C 
ATOM     16  O   UNL A   1      30.609  27.230  22.525  1.00  0.00    -0.275 OA
BRANCH  15  17
ATOM     17  C   UNL A   1      30.273  29.382  23.487  1.00  0.00     0.111 C 
BRANCH  17  18
ATOM     18  C   UNL A   1      29.530  29.856  22.233  1.00  0.00     0.080 C 
BRANCH  18  19
ATOM     19  S   UNL A   1      27.727  30.204  22.290  1.00  0.00    -0.152 SA
BRANCH  19  20
ATOM     20  C   UNL A   1      27.703  31.723  23.271  1.00  0.00     0.169 C 
BRANCH  20  21
ATOM     21  C   UNL A   1      28.294  32.940  22.590  1.00  0.00     0.227 C 
ATOM     22  N   UNL A   1      29.448  33.379  23.189  1.00  0.00    -0.369 N 
ATOM     23  O   UNL A   1      27.882  33.461  21.562  1.00  0.00    -0.274 OA
ATOM     24  H   UNL A   1      29.766  32.951  24.016  1.00  0.00     0.159 HD
ATOM     25  H   UNL A   1      29.956  34.122  22.791  1.00  0.00     0.159 HD
ENDBRANCH  20  21
ENDBRANCH  19  20
ENDBRANCH  18  19
ENDBRANCH  17  18
ENDBRANCH  15  17
ENDBRANCH  12  15
ENDBRANCH   6   8
ENDBRANCH   5   6
ENDBRANCH   4   5
ENDBRANCH   3   4
ENDBRANCH   2   3
ENDBRANCH   1   2
BRANCH   1  26
ATOM     26  C   UNL A   1      33.555  21.124  26.203  1.00  0.00     0.188 C 
BRANCH  26  27
ATOM     27  O   UNL A   1      34.757  21.857  26.318  1.00  0.00    -0.377 OA
BRANCH  27  28
ATOM     28  C   UNL A   1      35.674  21.851  25.226  1.00  0.00     0.188 C 
BRANCH  28  29
ATOM     29  C   UNL A   1      36.867  20.873  25.228  1.00  0.00     0.188 C 
BRANCH  29  30
ATOM     30  O   UNL A   1      38.129  21.482  25.001  1.00  0.00    -0.376 OA
BRANCH  30  31
ATOM     31  C   UNL A   1      38.802  22.111  26.081  1.00  0.00     0.202 C 
BRANCH  31  32
ATOM     32  C   UNL A   1      38.681  23.637  26.231  1.00  0.00     0.261 C 
BRANCH  32  33
ATOM     33  O   UNL A   1      39.531  24.260  27.206  1.00  0.00    -0.460 OA
BRANCH  33  34
ATOM     34  C   UNL A   1      40.199  25.378  26.844  1.00  0.00     0.338 C 
ATOM     35  O   UNL A   1      40.766  25.588  25.794  1.00  0.00    -0.246 OA
BRANCH  34  36
ATOM     36  C   UNL A   1      39.934  26.400  27.881  1.00  0.00     0.060 A 
ATOM     37  C   UNL A   1      40.469  27.685  27.720  1.00  0.00     0.016 A 
ATOM     38  C   UNL A   1      39.166  26.086  29.005  1.00  0.00     0.016 A 
ATOM     39  C   UNL A   1      40.276  28.650  28.707  1.00  0.00     0.010 A 
ATOM     40  C   UNL A   1      39.000  27.043  30.007  1.00  0.00     0.010 A 
ATOM     41  C   UNL A   1      39.592  28.312  29.880  1.00  0.00    -0.014 A 
BRANCH  41  42
ATOM     42  C   UNL A   1      39.724  29.181  31.071  1.00  0.00     0.031 A 
ATOM     43  C   UNL A   1      40.875  28.914  32.005  1.00  0.00     0.074 A 
ATOM     44  C   UNL A   1      38.871  30.191  31.311  1.00  0.00     0.049 A 
ATOM     45  N   UNL A   1      41.172  29.485  33.142  1.00  0.00    -0.248 NA
ATOM     46  C   UNL A   1      41.816  27.853  31.599  1.00  0.00     0.031 C 
ATOM     47  C   UNL A   1      37.760  30.587  30.446  1.00  0.00     0.029 A 
ATOM     48  N   UNL A   1      38.807  31.065  32.365  1.00  0.00    -0.354 N 
ATOM     49  C   UNL A   1      42.322  28.846  33.592  1.00  0.00     0.074 A 
ATOM     50  C   UNL A   1      42.654  27.828  32.623  1.00  0.00     0.031 C 
ATOM     51  C   UNL A   1      37.115  31.621  31.015  1.00  0.00     0.029 A 
ATOM     52  C   UNL A   1      37.743  31.932  32.300  1.00  0.00     0.049 A 
ATOM     53  H   UNL A   1      39.462  31.072  33.101  1.00  0.00     0.167 HD
ATOM     54  C   UNL A   1      43.040  29.089  34.714  1.00  0.00     0.031 A 
ATOM     55  C   UNL A   1      37.311  32.849  33.189  1.00  0.00     0.031 A 
ATOM     56  C   UNL A   1      42.693  30.092  35.683  1.00  0.00     0.049 A 
ATOM     57  C   UNL A   1      38.074  33.040  34.476  1.00  0.00     0.074 A 
ATOM     58  C   UNL A   1      43.354  30.424  36.851  1.00  0.00     0.029 A 
ATOM     59  N   UNL A   1      41.584  30.921  35.601  1.00  0.00    -0.354 N 
ATOM     60  N   UNL A   1      39.167  32.438  34.885  1.00  0.00    -0.248 NA
ATOM     61  C   UNL A   1      37.548  34.039  35.417  1.00  0.00     0.031 C 
ATOM     62  C   UNL A   1      42.609  31.407  37.509  1.00  0.00     0.029 A 
ATOM     63  C   UNL A   1      41.524  31.741  36.713  1.00  0.00     0.049 A 
ATOM     64  H   UNL A   1      40.935  30.924  34.860  1.00  0.00     0.167 HD
ATOM     65  C   UNL A   1      39.476  33.010  36.117  1.00  0.00     0.074 A 
ATOM     66  C   UNL A   1      38.463  34.013  36.377  1.00  0.00     0.031 C 
ATOM     67  C   UNL A   1      40.507  32.734  36.955  1.00  0.00     0.031 A 
BRANCH  54  68
ATOM     68  C   UNL A   1      44.241  28.219  34.973  1.00  0.00    -0.014 A 
ATOM     69  C   UNL A   1      45.539  28.637  34.628  1.00  0.00     0.010 A 
ATOM     70  C   UNL A   1      44.069  26.970  35.598  1.00  0.00     0.010 A 
ATOM     71  C   UNL A   1      46.637  27.807  34.869  1.00  0.00     0.020 A 
ATOM     72  C   UNL A   1      45.168  26.151  35.871  1.00  0.00     0.020 A 
ATOM     73  C   UNL A   1      46.444  26.569  35.491  1.00  0.00     0.054 A 
BRANCH  73  74
ATOM     74  S   UNL A   1      47.890  25.525  35.817  1.00  0.00     0.124 S 
ATOM     75  O   UNL A   1      48.762  25.857  34.694  1.00  0.00    -0.237 OA
ATOM     76  O   UNL A   1      48.338  26.001  37.123  1.00  0.00    -0.237 OA
ATOM     77  O   UNL A   1      47.349  24.168  35.804  1.00  0.00    -0.744 OA
ENDBRANCH  73  74
ENDBRANCH  54  68
BRANCH  55  78
ATOM     78  C   UNL A   1      36.078  33.636  32.909  1.00  0.00    -0.014 A 
ATOM     79  C   UNL A   1      34.818  33.013  32.861  1.00  0.00     0.010 A 
ATOM     80  C   UNL A   1      36.160  35.022  32.680  1.00  0.00     0.010 A 
ATOM     81  C   UNL A   1      33.669  33.756  32.575  1.00  0.00     0.020 A 
ATOM     82  C   UNL A   1      35.010  35.775  32.425  1.00  0.00     0.020 A 
ATOM     83  C   UNL A   1      33.771  35.134  32.364  1.00  0.00     0.054 A 
BRANCH  83  84
ATOM     84  S   UNL A   1      32.260  36.089  32.053  1.00  0.00     0.124 S 
ATOM     85  O   UNL A   1      32.654  37.428  32.478  1.00  0.00    -0.237 OA
ATOM     86  O   UNL A   1      32.066  35.908  30.617  1.00  0.00    -0.237 OA
ATOM     87  O   UNL A   1      31.262  35.431  32.895  1.00  0.00    -0.744 OA
ENDBRANCH  83  84
ENDBRANCH  55  78
BRANCH  67  88
ATOM     88  C   UNL A   1      40.622  33.554  38.215  1.00  0.00    -0.014 A 
ATOM     89  C   UNL A   1      39.840  33.273  39.348  1.00  0.00     0.010 A 
ATOM     90  C   UNL A   1      41.580  34.583  38.284  1.00  0.00     0.010 A 
ATOM     91  C   UNL A   1      39.989  34.029  40.515  1.00  0.00     0.020 A 
ATOM     92  C   UNL A   1      41.755  35.319  39.458  1.00  0.00     0.020 A 
ATOM     93  C   UNL A   1      40.948  35.046  40.563  1.00  0.00     0.054 A 
BRANCH  93  94
ATOM     94  S   UNL A   1      41.151  35.982  42.102  1.00  0.00     0.124 S 
ATOM     95  O   UNL A   1      39.904  35.689  42.803  1.00  0.00    -0.237 OA
ATOM     96  O   UNL A   1      42.353  35.387  42.681  1.00  0.00    -0.237 OA
ATOM     97  O   UNL A   1      41.302  37.364  41.652  1.00  0.00    -0.744 OA
ENDBRANCH  93  94
ENDBRANCH  67  88
ENDBRANCH  41  42
ENDBRANCH  34  36
ENDBRANCH  33  34
ENDBRANCH  32  33
ENDBRANCH  31  32
ENDBRANCH  30  31
ENDBRANCH  29  30
ENDBRANCH  28  29
ENDBRANCH  27  28
ENDBRANCH  26  27
ENDBRANCH   1  26
TORSDOF 30
ENDMDL
MODEL 2
REMARK VINA RESULT:      -8.4      2.160      3.225
REMARK SMILES CO[C@H]1C[C@H](C(=O)OCCOCCOCCOCCOC(=O)c2ccc(-c3c4nc(c(-c5ccc(S(=O)(=O)[O-])cc5)c5ccc([nH]5)c(-c5ccc(S(=O)(=O)[O-])cc5)c5nc(c(-c6ccc(S(=O)(=O)[O-])cc6)c6ccc3[nH]6)C=C5)C=C4)cc2)N(C(=O)CCSCC(N)=O)C1
REMARK SMILES IDX 12 1 11 2 10 3 9 4 8 5 6 6 7 7 5 8 3 9 4 10 93 11 83 12 2 13
REMARK SMILES IDX 1 14 84 15 85 16 86 17 87 18 88 19 89 20 90 21 91 22 92 23
REMARK SMILES IDX 13 26 14 27 15 28 16 29 17 30 18 31 19 32 20 33 21 34 22 35
REMARK SMILES IDX 23 36 24 37 82 38 25 39 81 40 26 41 27 42 28 43 75 44 29 45
REMARK SMILES IDX 80 46 74 47 76 48 30 49 79 50 73 51 72 52 31 54 61 55 42 56
REMARK SMILES IDX 60 57 43 58 46 59 59 60 77 61 44 62 45 63 58 65 78 66 47 67
REMARK SMILES IDX 32 68 33 69 41 70 34 71 40 72 35 73 36 74 37 75 38 76 39 77
REMARK SMILES IDX 62 78 63 79 71 80 64 81 70 82 65 83 66 84 67 85 68 86 69 87
REMARK SMILES IDX 48 88 49 89 57 90 50 91 56 92 51 93 52 94 53 95 54 96 55 97
REMARK H PARENT 91 24 91 25 76 53 46 64
REMARK Flexibility Score: inf
ROOT
ATOM      1  C   UNL A   1      33.687  21.242  24.496  1.00  0.00     0.188 C 
ENDROOT
BRANCH   1   2
ATOM      2  O   UNL A   1      34.060  22.426  23.824  1.00  0.00    -0.376 OA
BRANCH   2   3
ATOM      3  C   UNL A   1      33.407  22.898  22.655  1.00  0.00     0.202 C 
BRANCH   3   4
ATOM      4  C   UNL A   1      33.102  24.375  22.350  1.00  0.00     0.261 C 
BRANCH   4   5
ATOM      5  O   UNL A   1      34.176  25.336  22.430  1.00  0.00    -0.462 OA
BRANCH   5   6
ATOM      6  C   UNL A   1      33.771  26.623  22.541  1.00  0.00     0.329 C 
ATOM      7  O   UNL A   1      34.090  27.509  21.752  1.00  0.00    -0.250 OA
BRANCH   6   8
ATOM      8  C   UNL A   1      32.959  26.964  23.799  1.00  0.00     0.197 C 
ATOM      9  C   UNL A   1      33.343  29.151  24.770  1.00  0.00     0.140 C 
ATOM     10  C   UNL A   1      33.626  27.664  24.973  1.00  0.00     0.071 C 
ATOM     11  C   UNL A   1      32.009  29.159  24.010  1.00  0.00     0.152 C 
ATOM     12  N   UNL A   1      31.812  27.811  23.489  1.00  0.00    -0.326 N 
BRANCH   9  13
ATOM     13  O   UNL A   1      33.217  29.965  25.937  1.00  0.00    -0.380 OA
ATOM     14  C   UNL A   1      31.971  29.965  26.611  1.00  0.00     0.195 C 
ENDBRANCH   9  13
BRANCH  12  15
ATOM     15  C   UNL A   1      30.643  27.459  22.854  1.00  0.00     0.224 C 
ATOM     16  O   UNL A   1      30.633  27.165  21.657  1.00  0.00    -0.275 OA
BRANCH  15  17
ATOM     17  C   UNL A   1      29.359  27.389  23.657  1.00  0.00     0.111 C 
BRANCH  17  18
ATOM     18  C   UNL A   1      29.254  26.143  24.543  1.00  0.00     0.080 C 
BRANCH  18  19
ATOM     19  S   UNL A   1      30.377  25.920  25.979  1.00  0.00    -0.152 SA
BRANCH  19  20
ATOM     20  C   UNL A   1      30.586  24.124  25.976  1.00  0.00     0.169 C 
BRANCH  20  21
ATOM     21  C   UNL A   1      31.832  23.618  26.671  1.00  0.00     0.227 C 
ATOM     22  N   UNL A   1      32.976  24.234  26.232  1.00  0.00    -0.369 N 
ATOM     23  O   UNL A   1      31.866  22.816  27.595  1.00  0.00    -0.274 OA
ATOM     24  H   UNL A   1      32.934  24.877  25.487  1.00  0.00     0.159 HD
ATOM     25  H   UNL A   1      33.838  24.034  26.661  1.00  0.00     0.159 HD
ENDBRANCH  20  21
ENDBRANCH  19  20
ENDBRANCH  18  19
ENDBRANCH  17  18
ENDBRANCH  15  17
ENDBRANCH  12  15
ENDBRANCH   6   8
ENDBRANCH   5   6
ENDBRANCH   4   5
ENDBRANCH   3   4
ENDBRANCH   2   3
ENDBRANCH   1   2
BRANCH   1  26
ATOM     26  C   UNL A   1      34.717  20.447  25.308  1.00  0.00     0.188 C 
BRANCH  26  27
ATOM     27  O   UNL A   1      36.065  20.851  25.176  1.00  0.00    -0.377 OA
BRANCH  27  28
ATOM     28  C   UNL A   1      36.998  19.950  24.583  1.00  0.00     0.188 C 
BRANCH  28  29
ATOM     29  C   UNL A   1      38.056  19.250  25.459  1.00  0.00     0.188 C 
BRANCH  29  30
ATOM     30  O   UNL A   1      39.392  19.657  25.210  1.00  0.00    -0.376 OA
BRANCH  30  31
ATOM     31  C   UNL A   1      40.113  20.338  26.226  1.00  0.00     0.202 C 
BRANCH  31  32
ATOM     32  C   UNL A   1      40.186  21.873  26.170  1.00  0.00     0.261 C 
BRANCH  32  33
ATOM     33  O   UNL A   1      41.220  22.499  26.944  1.00  0.00    -0.460 OA
BRANCH  33  34
ATOM     34  C   UNL A   1      41.903  23.523  26.382  1.00  0.00     0.338 C 
ATOM     35  O   UNL A   1      42.530  23.506  25.345  1.00  0.00    -0.246 OA
BRANCH  34  36
ATOM     36  C   UNL A   1      41.572  24.743  27.151  1.00  0.00     0.060 A 
ATOM     37  C   UNL A   1      42.408  25.861  27.042  1.00  0.00     0.016 A 
ATOM     38  C   UNL A   1      40.445  24.777  27.975  1.00  0.00     0.016 A 
ATOM     39  C   UNL A   1      42.147  27.005  27.793  1.00  0.00     0.010 A 
ATOM     40  C   UNL A   1      40.201  25.910  28.752  1.00  0.00     0.010 A 
ATOM     41  C   UNL A   1      41.077  27.009  28.696  1.00  0.00    -0.014 A 
BRANCH  41  42
ATOM     42  C   UNL A   1      41.030  28.038  29.759  1.00  0.00     0.031 A 
ATOM     43  C   UNL A   1      42.056  27.951  30.858  1.00  0.00     0.074 A 
ATOM     44  C   UNL A   1      40.127  29.033  29.745  1.00  0.00     0.049 A 
ATOM     45  N   UNL A   1      42.188  28.685  31.932  1.00  0.00    -0.248 NA
ATOM     46  C   UNL A   1      43.068  26.887  30.727  1.00  0.00     0.031 C 
ATOM     47  C   UNL A   1      39.129  29.259  28.701  1.00  0.00     0.029 A 
ATOM     48  N   UNL A   1      39.904  30.039  30.649  1.00  0.00    -0.354 N 
ATOM     49  C   UNL A   1      43.285  28.164  32.608  1.00  0.00     0.074 A 
ATOM     50  C   UNL A   1      43.766  27.039  31.841  1.00  0.00     0.031 C 
ATOM     51  C   UNL A   1      38.389  30.331  29.033  1.00  0.00     0.029 A 
ATOM     52  C   UNL A   1      38.835  30.841  30.329  1.00  0.00     0.049 A 
ATOM     53  H   UNL A   1      40.458  30.175  31.453  1.00  0.00     0.167 HD
ATOM     54  C   UNL A   1      43.844  28.589  33.765  1.00  0.00     0.031 A 
ATOM     55  C   UNL A   1      38.268  31.852  31.019  1.00  0.00     0.031 A 
ATOM     56  C   UNL A   1      43.349  29.699  34.532  1.00  0.00     0.049 A 
ATOM     57  C   UNL A   1      38.852  32.250  32.351  1.00  0.00     0.074 A 
ATOM     58  C   UNL A   1      43.843  30.216  35.715  1.00  0.00     0.029 A 
ATOM     59  N   UNL A   1      42.239  30.460  34.195  1.00  0.00    -0.354 N 
ATOM     60  N   UNL A   1      39.897  31.758  32.975  1.00  0.00    -0.248 NA
ATOM     61  C   UNL A   1      38.183  33.344  33.069  1.00  0.00     0.031 C 
ATOM     62  C   UNL A   1      42.993  31.246  36.129  1.00  0.00     0.029 A 
ATOM     63  C   UNL A   1      42.013  31.420  35.164  1.00  0.00     0.049 A 
ATOM     64  H   UNL A   1      41.692  30.333  33.386  1.00  0.00     0.167 HD
ATOM     65  C   UNL A   1      40.029  32.506  34.143  1.00  0.00     0.074 A 
ATOM     66  C   UNL A   1      38.965  33.489  34.130  1.00  0.00     0.031 C 
ATOM     67  C   UNL A   1      40.948  32.392  35.134  1.00  0.00     0.031 A 
BRANCH  54  68
ATOM     68  C   UNL A   1      45.024  27.815  34.293  1.00  0.00    -0.014 A 
ATOM     69  C   UNL A   1      44.854  26.700  35.131  1.00  0.00     0.010 A 
ATOM     70  C   UNL A   1      46.325  28.199  33.920  1.00  0.00     0.010 A 
ATOM     71  C   UNL A   1      45.965  26.004  35.617  1.00  0.00     0.020 A 
ATOM     72  C   UNL A   1      47.437  27.486  34.376  1.00  0.00     0.020 A 
ATOM     73  C   UNL A   1      47.250  26.401  35.234  1.00  0.00     0.054 A 
BRANCH  73  74
ATOM     74  S   UNL A   1      48.672  25.463  35.856  1.00  0.00     0.124 S 
ATOM     75  O   UNL A   1      49.502  25.345  34.661  1.00  0.00    -0.237 OA
ATOM     76  O   UNL A   1      49.196  26.338  36.902  1.00  0.00    -0.237 OA
ATOM     77  O   UNL A   1      48.084  24.214  36.330  1.00  0.00    -0.744 OA
ENDBRANCH  73  74
ENDBRANCH  54  68
BRANCH  55  78
ATOM     78  C   UNL A   1      37.062  32.539  30.478  1.00  0.00    -0.014 A 
ATOM     79  C   UNL A   1      35.774  32.200  30.929  1.00  0.00     0.010 A 
ATOM     80  C   UNL A   1      37.198  33.539  29.497  1.00  0.00     0.010 A 
ATOM     81  C   UNL A   1      34.647  32.835  30.400  1.00  0.00     0.020 A 
ATOM     82  C   UNL A   1      36.076  34.198  28.987  1.00  0.00     0.020 A 
ATOM     83  C   UNL A   1      34.805  33.834  29.435  1.00  0.00     0.054 A 
BRANCH  83  84
ATOM     84  S   UNL A   1      33.332  34.685  28.805  1.00  0.00     0.124 S 
ATOM     85  O   UNL A   1      32.597  34.970  30.033  1.00  0.00    -0.237 OA
ATOM     86  O   UNL A   1      33.906  35.843  28.125  1.00  0.00    -0.237 OA
ATOM     87  O   UNL A   1      32.718  33.695  27.922  1.00  0.00    -0.744 OA
ENDBRANCH  83  84
ENDBRANCH  55  78
BRANCH  67  88
ATOM     88  C   UNL A   1      40.877  33.381  36.271  1.00  0.00    -0.014 A 
ATOM     89  C   UNL A   1      40.198  33.080  37.464  1.00  0.00     0.010 A 
ATOM     90  C   UNL A   1      41.560  34.606  36.162  1.00  0.00     0.010 A 
ATOM     91  C   UNL A   1      40.174  34.003  38.514  1.00  0.00     0.020 A 
ATOM     92  C   UNL A   1      41.567  35.516  37.222  1.00  0.00     0.020 A 
ATOM     93  C   UNL A   1      40.861  35.214  38.387  1.00  0.00     0.054 A 
BRANCH  93  94
ATOM     94  S   UNL A   1      40.851  36.374  39.781  1.00  0.00     0.124 S 
ATOM     95  O   UNL A   1      42.239  36.324  40.228  1.00  0.00    -0.237 OA
ATOM     96  O   UNL A   1      40.437  37.626  39.152  1.00  0.00    -0.237 OA
ATOM     97  O   UNL A   1      39.878  35.797  40.707  1.00  0.00    -0.744 OA
ENDBRANCH  93  94
ENDBRANCH  67  88
ENDBRANCH  41  42
ENDBRANCH  34  36
ENDBRANCH  33  34
ENDBRANCH  32  33
ENDBRANCH  31  32
ENDBRANCH  30  31
ENDBRANCH  29  30
ENDBRANCH  28  29
ENDBRANCH  27  28
ENDBRANCH  26  27
ENDBRANCH   1  26
TORSDOF 30
ENDMDL
MODEL 3
REMARK VINA RESULT:      -8.0      1.808      3.053
REMARK SMILES CO[C@H]1C[C@H](C(=O)OCCOCCOCCOCCOC(=O)c2ccc(-c3c4nc(c(-c5ccc(S(=O)(=O)[O-])cc5)c5ccc([nH]5)c(-c5ccc(S(=O)(=O)[O-])cc5)c5nc(c(-c6ccc(S(=O)(=O)[O-])cc6)c6ccc3[nH]6)C=C5)C=C4)cc2)N(C(=O)CCSCC(N)=O)C1
REMARK SMILES IDX 12 1 11 2 10 3 9 4 8 5 6 6 7 7 5 8 3 9 4 10 93 11 83 12 2 13
REMARK SMILES IDX 1 14 84 15 85 16 86 17 87 18 88 19 89 20 90 21 91 22 92 23
REMARK SMILES IDX 13 26 14 27 15 28 16 29 17 30 18 31 19 32 20 33 21 34 22 35
REMARK SMILES IDX 23 36 24 37 82 38 25 39 81 40 26 41 27 42 28 43 75 44 29 45
REMARK SMILES IDX 80 46 74 47 76 48 30 49 79 50 73 51 72 52 31 54 61 55 42 56
REMARK SMILES IDX 60 57 43 58 46 59 59 60 77 61 44 62 45 63 58 65 78 66 47 67
REMARK SMILES IDX 32 68 33 69 41 70 34 71 40 72 35 73 36 74 37 75 38 76 39 77
REMARK SMILES IDX 62 78 63 79 71 80 64 81 70 82 65 83 66 84 67 85 68 86 69 87
REMARK SMILES IDX 48 88 49 89 57 90 50 91 56 92 51 93 52 94 53 95 54 96 55 97
REMARK H PARENT 91 24 91 25 76 53 46 64
REMARK Flexibility Score: inf
ROOT
ATOM      1  C   UNL A   1      34.384  22.902  26.020  1.00  0.00     0.188 C 
ENDROOT
BRANCH   1   2
ATOM      2  O   UNL A   1      33.151  22.897  25.334  1.00  0.00    -0.376 OA
BRANCH   2   3
ATOM      3  C   UNL A   1      33.018  23.262  23.968  1.00  0.00     0.202 C 
BRANCH   3   4
ATOM      4  C   UNL A   1      34.033  24.105  23.178  1.00  0.00     0.261 C 
BRANCH   4   5
ATOM      5  O   UNL A   1      34.116  25.522  23.441  1.00  0.00    -0.462 OA
BRANCH   5   6
ATOM      6  C   UNL A   1      33.503  26.302  22.521  1.00  0.00     0.329 C 
ATOM      7  O   UNL A   1      33.461  26.039  21.322  1.00  0.00    -0.250 OA
BRANCH   6   8
ATOM      8  C   UNL A   1      32.938  27.633  23.040  1.00  0.00     0.197 C 
ATOM      9  C   UNL A   1      30.697  28.207  22.319  1.00  0.00     0.140 C 
ATOM     10  C   UNL A   1      32.169  28.553  22.105  1.00  0.00     0.071 C 
ATOM     11  C   UNL A   1      30.654  27.718  23.774  1.00  0.00     0.152 C 
ATOM     12  N   UNL A   1      32.030  27.433  24.165  1.00  0.00    -0.326 N 
BRANCH   9  13
ATOM     13  O   UNL A   1      29.741  29.254  22.153  1.00  0.00    -0.380 OA
ATOM     14  C   UNL A   1      28.550  29.190  22.918  1.00  0.00     0.195 C 
ENDBRANCH   9  13
BRANCH  12  15
ATOM     15  C   UNL A   1      32.343  27.084  25.458  1.00  0.00     0.224 C 
ATOM     16  O   UNL A   1      31.735  26.184  26.039  1.00  0.00    -0.275 OA
BRANCH  15  17
ATOM     17  C   UNL A   1      33.487  27.792  26.157  1.00  0.00     0.111 C 
BRANCH  17  18
ATOM     18  C   UNL A   1      33.543  29.297  25.878  1.00  0.00     0.080 C 
BRANCH  18  19
ATOM     19  S   UNL A   1      33.144  30.508  27.200  1.00  0.00    -0.152 SA
BRANCH  19  20
ATOM     20  C   UNL A   1      34.764  30.717  27.975  1.00  0.00     0.169 C 
BRANCH  20  21
ATOM     21  C   UNL A   1      35.315  32.127  27.949  1.00  0.00     0.227 C 
ATOM     22  N   UNL A   1      36.649  32.185  28.264  1.00  0.00    -0.369 N 
ATOM     23  O   UNL A   1      34.707  33.131  27.603  1.00  0.00    -0.274 OA
ATOM     24  H   UNL A   1      37.125  31.368  28.542  1.00  0.00     0.159 HD
ATOM     25  H   UNL A   1      37.130  33.042  28.212  1.00  0.00     0.159 HD
ENDBRANCH  20  21
ENDBRANCH  19  20
ENDBRANCH  18  19
ENDBRANCH  17  18
ENDBRANCH  15  17
ENDBRANCH  12  15
ENDBRANCH   6   8
ENDBRANCH   5   6
ENDBRANCH   4   5
ENDBRANCH   3   4
ENDBRANCH   2   3
ENDBRANCH   1   2
BRANCH   1  26
ATOM     26  C   UNL A   1      35.267  21.648  26.050  1.00  0.00     0.188 C 
BRANCH  26  27
ATOM     27  O   UNL A   1      36.026  21.388  24.887  1.00  0.00    -0.377 OA
BRANCH  27  28
ATOM     28  C   UNL A   1      37.310  21.995  24.754  1.00  0.00     0.188 C 
BRANCH  28  29
ATOM     29  C   UNL A   1      38.505  21.450  25.562  1.00  0.00     0.188 C 
BRANCH  29  30
ATOM     30  O   UNL A   1      39.149  22.412  26.384  1.00  0.00    -0.376 OA
BRANCH  30  31
ATOM     31  C   UNL A   1      38.582  23.707  26.516  1.00  0.00     0.202 C 
BRANCH  31  32
ATOM     32  C   UNL A   1      39.095  24.620  27.642  1.00  0.00     0.261 C 
BRANCH  32  33
ATOM     33  O   UNL A   1      38.953  26.035  27.441  1.00  0.00    -0.460 OA
BRANCH  33  34
ATOM     34  C   UNL A   1      40.074  26.763  27.238  1.00  0.00     0.338 C 
ATOM     35  O   UNL A   1      40.628  26.979  26.182  1.00  0.00    -0.246 OA
BRANCH  34  36
ATOM     36  C   UNL A   1      40.390  27.443  28.514  1.00  0.00     0.060 A 
ATOM     37  C   UNL A   1      39.862  26.928  29.705  1.00  0.00     0.016 A 
ATOM     38  C   UNL A   1      41.198  28.582  28.529  1.00  0.00     0.016 A 
ATOM     39  C   UNL A   1      40.103  27.578  30.914  1.00  0.00     0.010 A 
ATOM     40  C   UNL A   1      41.413  29.250  29.735  1.00  0.00     0.010 A 
ATOM     41  C   UNL A   1      40.829  28.775  30.922  1.00  0.00    -0.014 A 
BRANCH  41  42
ATOM     42  C   UNL A   1      40.752  29.660  32.106  1.00  0.00     0.031 A 
ATOM     43  C   UNL A   1      41.815  29.506  33.162  1.00  0.00     0.074 A 
ATOM     44  C   UNL A   1      39.789  30.588  32.237  1.00  0.00     0.049 A 
ATOM     45  N   UNL A   1      41.935  30.110  34.314  1.00  0.00    -0.248 NA
ATOM     46  C   UNL A   1      42.887  28.535  32.875  1.00  0.00     0.031 C 
ATOM     47  C   UNL A   1      38.747  30.875  31.253  1.00  0.00     0.029 A 
ATOM     48  N   UNL A   1      39.533  31.460  33.265  1.00  0.00    -0.354 N 
ATOM     49  C   UNL A   1      43.083  29.583  34.895  1.00  0.00     0.074 A 
ATOM     50  C   UNL A   1      43.609  28.593  33.983  1.00  0.00     0.031 C 
ATOM     51  C   UNL A   1      37.953  31.849  31.733  1.00  0.00     0.029 A 
ATOM     52  C   UNL A   1      38.407  32.224  33.072  1.00  0.00     0.049 A 
ATOM     53  H   UNL A   1      40.102  31.532  34.065  1.00  0.00     0.167 HD
ATOM     54  C   UNL A   1      43.651  29.898  36.082  1.00  0.00     0.031 A 
ATOM     55  C   UNL A   1      37.801  33.103  33.895  1.00  0.00     0.031 A 
ATOM     56  C   UNL A   1      43.112  30.871  36.993  1.00  0.00     0.049 A 
ATOM     57  C   UNL A   1      38.400  33.372  35.252  1.00  0.00     0.074 A 
ATOM     58  C   UNL A   1      43.611  31.270  38.219  1.00  0.00     0.029 A 
ATOM     59  N   UNL A   1      41.947  31.593  36.779  1.00  0.00    -0.354 N 
ATOM     60  N   UNL A   1      39.493  32.876  35.786  1.00  0.00    -0.248 NA
ATOM     61  C   UNL A   1      37.688  34.324  36.116  1.00  0.00     0.031 C 
ATOM     62  C   UNL A   1      42.712  32.183  38.778  1.00  0.00     0.029 A 
ATOM     63  C   UNL A   1      41.693  32.411  37.865  1.00  0.00     0.049 A 
ATOM     64  H   UNL A   1      41.384  31.531  35.974  1.00  0.00     0.167 HD
ATOM     65  C   UNL A   1      39.615  33.482  37.034  1.00  0.00     0.074 A 
ATOM     66  C   UNL A   1      38.492  34.388  37.168  1.00  0.00     0.031 C 
ATOM     67  C   UNL A   1      40.570  33.307  37.982  1.00  0.00     0.031 A 
BRANCH  54  68
ATOM     68  C   UNL A   1      44.892  29.144  36.482  1.00  0.00    -0.014 A 
ATOM     69  C   UNL A   1      46.176  29.641  36.198  1.00  0.00     0.010 A 
ATOM     70  C   UNL A   1      44.768  27.927  37.178  1.00  0.00     0.010 A 
ATOM     71  C   UNL A   1      47.313  28.918  36.571  1.00  0.00     0.020 A 
ATOM     72  C   UNL A   1      45.902  27.217  37.581  1.00  0.00     0.020 A 
ATOM     73  C   UNL A   1      47.168  27.710  37.261  1.00  0.00     0.054 A 
BRANCH  73  74
ATOM     74  S   UNL A   1      48.660  26.807  37.757  1.00  0.00     0.124 S 
ATOM     75  O   UNL A   1      49.693  27.830  37.615  1.00  0.00    -0.237 OA
ATOM     76  O   UNL A   1      48.351  26.411  39.128  1.00  0.00    -0.237 OA
ATOM     77  O   UNL A   1      48.737  25.709  36.797  1.00  0.00    -0.744 OA
ENDBRANCH  73  74
ENDBRANCH  54  68
BRANCH  55  78
ATOM     78  C   UNL A   1      36.538  33.771  33.472  1.00  0.00    -0.014 A 
ATOM     79  C   UNL A   1      35.289  33.302  33.916  1.00  0.00     0.010 A 
ATOM     80  C   UNL A   1      36.581  34.884  32.612  1.00  0.00     0.010 A 
ATOM     81  C   UNL A   1      34.108  33.922  33.496  1.00  0.00     0.020 A 
ATOM     82  C   UNL A   1      35.405  35.527  32.215  1.00  0.00     0.020 A 
ATOM     83  C   UNL A   1      34.174  35.034  32.652  1.00  0.00     0.054 A 
BRANCH  83  84
ATOM     84  S   UNL A   1      32.632  35.859  32.167  1.00  0.00     0.124 S 
ATOM     85  O   UNL A   1      31.623  34.902  32.610  1.00  0.00    -0.237 OA
ATOM     86  O   UNL A   1      32.695  37.109  32.919  1.00  0.00    -0.237 OA
ATOM     87  O   UNL A   1      32.765  36.005  30.719  1.00  0.00    -0.744 OA
ENDBRANCH  83  84
ENDBRANCH  55  78
BRANCH  67  88
ATOM     88  C   UNL A   1      40.474  34.143  39.234  1.00  0.00    -0.014 A 
ATOM     89  C   UNL A   1      41.108  35.393  39.332  1.00  0.00     0.010 A 
ATOM     90  C   UNL A   1      39.679  33.692  40.304  1.00  0.00     0.010 A 
ATOM     91  C   UNL A   1      40.977  36.162  40.492  1.00  0.00     0.020 A 
ATOM     92  C   UNL A   1      39.519  34.472  41.452  1.00  0.00     0.020 A 
ATOM     93  C   UNL A   1      40.180  35.697  41.544  1.00  0.00     0.054 A 
BRANCH  93  94
ATOM     94  S   UNL A   1      39.992  36.733  43.020  1.00  0.00     0.124 S 
ATOM     95  O   UNL A   1      41.326  36.670  43.609  1.00  0.00    -0.237 OA
ATOM     96  O   UNL A   1      39.614  38.027  42.455  1.00  0.00    -0.237 OA
ATOM     97  O   UNL A   1      38.941  36.063  43.784  1.00  0.00    -0.744 OA
ENDBRANCH  93  94
ENDBRANCH  67  88
ENDBRANCH  41  42
ENDBRANCH  34  36
ENDBRANCH  33  34
ENDBRANCH  32  33
ENDBRANCH  31  32
ENDBRANCH  30  31
ENDBRANCH  29  30
ENDBRANCH  28  29
ENDBRANCH  27  28
ENDBRANCH  26  27
ENDBRANCH   1  26
TORSDOF 30
ENDMDL
