MODEL 1
REMARK VINA RESULT:      -9.4      0.000      0.000
REMARK SMILES Cc1n[nH]c(C(=O)OCCOCCOCCOCCOC(=O)c2ccc(-c3c4nc(c(-c5ccc(S(=O)(=O)[O-])cc5)c5ccc([nH]5)c(-c5ccc(S(=O)(=O)[O-])cc5)c5nc(c(-c6ccc(S(=O)(=O)[O-])cc6)c6ccc3[nH]6)C=C5)C=C4)cc2)c1Br
REMARK SMILES IDX 15 1 14 2 13 3 12 4 11 5 10 6 9 7 8 8 6 9 7 10 5 11 1 12
REMARK SMILES IDX 2 13 3 14 83 15 4 16 84 17 16 19 17 20 18 21 19 22 20 23
REMARK SMILES IDX 21 24 22 25 23 26 24 27 82 28 25 29 81 30 26 31 27 32 28 33
REMARK SMILES IDX 75 34 29 35 80 36 74 37 76 38 30 39 79 40 73 41 72 42 31 44
REMARK SMILES IDX 61 45 42 46 60 47 43 48 46 49 59 50 77 51 44 52 45 53 58 55
REMARK SMILES IDX 78 56 47 57 32 58 33 59 41 60 34 61 40 62 35 63 36 64 37 65
REMARK SMILES IDX 38 66 39 67 62 68 63 69 71 70 64 71 70 72 65 73 66 74 67 75
REMARK SMILES IDX 68 76 69 77 48 78 49 79 57 80 50 81 56 82 51 83 52 84 53 85
REMARK SMILES IDX 54 86 55 87
REMARK H PARENT 4 18 76 43 46 54
REMARK Flexibility Score: inf
ROOT
ATOM      1  C   UNL A   1      34.380  23.082  25.672  1.00  0.00     0.188 C 
ENDROOT
BRANCH   1   2
ATOM      2  O   UNL A   1      33.280  22.753  26.524  1.00  0.00    -0.377 OA
BRANCH   2   3
ATOM      3  C   UNL A   1      32.212  22.062  25.895  1.00  0.00     0.188 C 
BRANCH   3   4
ATOM      4  C   UNL A   1      30.945  22.923  25.730  1.00  0.00     0.188 C 
BRANCH   4   5
ATOM      5  O   UNL A   1      30.815  23.778  24.609  1.00  0.00    -0.376 OA
BRANCH   5   6
ATOM      6  C   UNL A   1      30.678  25.185  24.707  1.00  0.00     0.202 C 
BRANCH   6   7
ATOM      7  C   UNL A   1      29.699  26.064  23.902  1.00  0.00     0.261 C 
BRANCH   7   8
ATOM      8  O   UNL A   1      29.918  27.472  23.870  1.00  0.00    -0.459 OA
BRANCH   8   9
ATOM      9  C   UNL A   1      31.201  27.874  23.617  1.00  0.00     0.357 C 
ATOM     10  O   UNL A   1      31.835  27.607  22.643  1.00  0.00    -0.244 OA
BRANCH   9  11
ATOM     11  C   UNL A   1      31.559  28.792  24.676  1.00  0.00     0.158 A 
ATOM     12  C   UNL A   1      33.445  30.416  27.397  1.00  0.00     0.070 C 
ATOM     13  C   UNL A   1      32.553  29.939  26.311  1.00  0.00     0.074 A 
ATOM     14  N   UNL A   1      31.608  30.756  25.826  1.00  0.00    -0.179 NA
ATOM     15  C   UNL A   1      32.538  28.697  25.639  1.00  0.00     0.073 A 
ATOM     16  N   UNL A   1      31.048  30.050  24.828  1.00  0.00    -0.270 N 
ATOM     17  Br  UNL A   1      33.751  27.294  25.919  1.00  0.00    -0.046 Br
ATOM     18  H   UNL A   1      30.331  30.409  24.255  1.00  0.00     0.190 HD
ENDBRANCH   9  11
ENDBRANCH   8   9
ENDBRANCH   7   8
ENDBRANCH   6   7
ENDBRANCH   5   6
ENDBRANCH   4   5
ENDBRANCH   3   4
ENDBRANCH   2   3
ENDBRANCH   1   2
BRANCH   1  19
ATOM     19  C   UNL A   1      34.644  22.187  24.434  1.00  0.00     0.188 C 
BRANCH  19  20
ATOM     20  O   UNL A   1      35.618  21.168  24.633  1.00  0.00    -0.376 OA
BRANCH  20  21
ATOM     21  C   UNL A   1      36.522  21.206  25.722  1.00  0.00     0.202 C 
BRANCH  21  22
ATOM     22  C   UNL A   1      37.915  21.736  25.419  1.00  0.00     0.261 C 
BRANCH  22  23
ATOM     23  O   UNL A   1      38.358  22.713  26.340  1.00  0.00    -0.460 OA
BRANCH  23  24
ATOM     24  C   UNL A   1      39.602  22.522  26.816  1.00  0.00     0.338 C 
ATOM     25  O   UNL A   1      40.084  21.490  27.247  1.00  0.00    -0.246 OA
BRANCH  24  26
ATOM     26  C   UNL A   1      40.245  23.830  26.900  1.00  0.00     0.060 A 
ATOM     27  C   UNL A   1      41.351  23.917  27.743  1.00  0.00     0.016 A 
ATOM     28  C   UNL A   1      39.516  24.953  26.478  1.00  0.00     0.016 A 
ATOM     29  C   UNL A   1      41.571  25.116  28.373  1.00  0.00     0.010 A 
ATOM     30  C   UNL A   1      39.713  26.134  27.137  1.00  0.00     0.010 A 
ATOM     31  C   UNL A   1      40.682  26.169  28.132  1.00  0.00    -0.014 A 
BRANCH  31  32
ATOM     32  C   UNL A   1      40.868  27.389  28.873  1.00  0.00     0.031 A 
ATOM     33  C   UNL A   1      41.942  28.216  28.297  1.00  0.00     0.074 A 
ATOM     34  C   UNL A   1      40.083  27.744  29.903  1.00  0.00     0.049 A 
ATOM     35  N   UNL A   1      43.129  28.379  28.772  1.00  0.00    -0.248 NA
ATOM     36  C   UNL A   1      41.759  28.722  26.927  1.00  0.00     0.031 C 
ATOM     37  C   UNL A   1      38.837  27.120  30.352  1.00  0.00     0.029 A 
ATOM     38  N   UNL A   1      40.189  28.835  30.701  1.00  0.00    -0.354 N 
ATOM     39  C   UNL A   1      43.762  29.223  27.874  1.00  0.00     0.074 A 
ATOM     40  C   UNL A   1      42.977  29.193  26.668  1.00  0.00     0.031 C 
ATOM     41  C   UNL A   1      38.190  27.978  31.177  1.00  0.00     0.029 A 
ATOM     42  C   UNL A   1      39.032  29.144  31.403  1.00  0.00     0.049 A 
ATOM     43  H   UNL A   1      41.016  29.364  30.776  1.00  0.00     0.167 HD
ATOM     44  C   UNL A   1      44.697  30.115  28.296  1.00  0.00     0.031 A 
ATOM     45  C   UNL A   1      38.773  30.313  32.041  1.00  0.00     0.031 A 
ATOM     46  C   UNL A   1      45.156  29.806  29.628  1.00  0.00     0.049 A 
ATOM     47  C   UNL A   1      40.076  30.994  32.261  1.00  0.00     0.074 A 
ATOM     48  C   UNL A   1      45.765  28.715  30.215  1.00  0.00     0.029 A 
ATOM     49  N   UNL A   1      44.623  30.554  30.654  1.00  0.00    -0.354 N 
ATOM     50  N   UNL A   1      40.985  30.550  33.083  1.00  0.00    -0.248 NA
ATOM     51  C   UNL A   1      40.563  31.909  31.238  1.00  0.00     0.031 C 
ATOM     52  C   UNL A   1      45.200  28.631  31.520  1.00  0.00     0.029 A 
ATOM     53  C   UNL A   1      44.330  29.709  31.693  1.00  0.00     0.049 A 
ATOM     54  H   UNL A   1      44.477  31.528  30.642  1.00  0.00     0.167 HD
ATOM     55  C   UNL A   1      42.192  30.759  32.428  1.00  0.00     0.074 A 
ATOM     56  C   UNL A   1      41.878  31.696  31.352  1.00  0.00     0.031 C 
ATOM     57  C   UNL A   1      43.258  29.933  32.642  1.00  0.00     0.031 A 
BRANCH  44  58
ATOM     58  C   UNL A   1      44.841  31.492  27.698  1.00  0.00    -0.014 A 
ATOM     59  C   UNL A   1      46.074  31.843  27.118  1.00  0.00     0.010 A 
ATOM     60  C   UNL A   1      43.922  32.539  27.932  1.00  0.00     0.010 A 
ATOM     61  C   UNL A   1      46.400  33.180  26.866  1.00  0.00     0.020 A 
ATOM     62  C   UNL A   1      44.219  33.869  27.640  1.00  0.00     0.020 A 
ATOM     63  C   UNL A   1      45.473  34.183  27.142  1.00  0.00     0.054 A 
BRANCH  63  64
ATOM     64  S   UNL A   1      45.939  35.913  26.905  1.00  0.00     0.124 S 
ATOM     65  O   UNL A   1      46.760  36.164  28.084  1.00  0.00    -0.237 OA
ATOM     66  O   UNL A   1      46.649  35.866  25.631  1.00  0.00    -0.237 OA
ATOM     67  O   UNL A   1      44.655  36.610  26.873  1.00  0.00    -0.744 OA
ENDBRANCH  63  64
ENDBRANCH  44  58
BRANCH  45  68
ATOM     68  C   UNL A   1      37.472  31.010  32.201  1.00  0.00    -0.014 A 
ATOM     69  C   UNL A   1      37.143  31.649  33.412  1.00  0.00     0.010 A 
ATOM     70  C   UNL A   1      36.671  31.294  31.077  1.00  0.00     0.010 A 
ATOM     71  C   UNL A   1      36.103  32.592  33.476  1.00  0.00     0.020 A 
ATOM     72  C   UNL A   1      35.625  32.223  31.134  1.00  0.00     0.020 A 
ATOM     73  C   UNL A   1      35.365  32.891  32.328  1.00  0.00     0.054 A 
BRANCH  73  74
ATOM     74  S   UNL A   1      34.163  34.253  32.364  1.00  0.00     0.124 S 
ATOM     75  O   UNL A   1      33.062  33.675  33.128  1.00  0.00    -0.237 OA
ATOM     76  O   UNL A   1      34.907  35.317  33.030  1.00  0.00    -0.237 OA
ATOM     77  O   UNL A   1      33.876  34.494  30.950  1.00  0.00    -0.744 OA
ENDBRANCH  73  74
ENDBRANCH  45  68
BRANCH  57  78
ATOM     78  C   UNL A   1      43.233  29.023  33.849  1.00  0.00    -0.014 A 
ATOM     79  C   UNL A   1      43.628  29.410  35.145  1.00  0.00     0.010 A 
ATOM     80  C   UNL A   1      42.661  27.750  33.675  1.00  0.00     0.010 A 
ATOM     81  C   UNL A   1      43.494  28.526  36.226  1.00  0.00     0.020 A 
ATOM     82  C   UNL A   1      42.503  26.876  34.752  1.00  0.00     0.020 A 
ATOM     83  C   UNL A   1      42.935  27.261  36.020  1.00  0.00     0.054 A 
BRANCH  83  84
ATOM     84  S   UNL A   1      42.748  26.125  37.422  1.00  0.00     0.124 S 
ATOM     85  O   UNL A   1      41.333  26.259  37.752  1.00  0.00    -0.237 OA
ATOM     86  O   UNL A   1      43.144  24.838  36.854  1.00  0.00    -0.237 OA
ATOM     87  O   UNL A   1      43.669  26.657  38.425  1.00  0.00    -0.744 OA
ENDBRANCH  83  84
ENDBRANCH  57  78
ENDBRANCH  31  32
ENDBRANCH  24  26
ENDBRANCH  23  24
ENDBRANCH  22  23
ENDBRANCH  21  22
ENDBRANCH  20  21
ENDBRANCH  19  20
ENDBRANCH   1  19
TORSDOF 23
ENDMDL
MODEL 2
REMARK VINA RESULT:      -9.0      1.409      2.191
REMARK SMILES Cc1n[nH]c(C(=O)OCCOCCOCCOCCOC(=O)c2ccc(-c3c4nc(c(-c5ccc(S(=O)(=O)[O-])cc5)c5ccc([nH]5)c(-c5ccc(S(=O)(=O)[O-])cc5)c5nc(c(-c6ccc(S(=O)(=O)[O-])cc6)c6ccc3[nH]6)C=C5)C=C4)cc2)c1Br
REMARK SMILES IDX 15 1 14 2 13 3 12 4 11 5 10 6 9 7 8 8 6 9 7 10 5 11 1 12
REMARK SMILES IDX 2 13 3 14 83 15 4 16 84 17 16 19 17 20 18 21 19 22 20 23
REMARK SMILES IDX 21 24 22 25 23 26 24 27 82 28 25 29 81 30 26 31 27 32 28 33
REMARK SMILES IDX 75 34 29 35 80 36 74 37 76 38 30 39 79 40 73 41 72 42 31 44
REMARK SMILES IDX 61 45 42 46 60 47 43 48 46 49 59 50 77 51 44 52 45 53 58 55
REMARK SMILES IDX 78 56 47 57 32 58 33 59 41 60 34 61 40 62 35 63 36 64 37 65
REMARK SMILES IDX 38 66 39 67 62 68 63 69 71 70 64 71 70 72 65 73 66 74 67 75
REMARK SMILES IDX 68 76 69 77 48 78 49 79 57 80 50 81 56 82 51 83 52 84 53 85
REMARK SMILES IDX 54 86 55 87
REMARK H PARENT 4 18 76 43 46 54
REMARK Flexibility Score: inf
ROOT
ATOM      1  C   UNL A   1      33.740  23.478  26.514  1.00  0.00     0.188 C 
ENDROOT
BRANCH   1   2
ATOM      2  O   UNL A   1      33.165  24.525  25.729  1.00  0.00    -0.377 OA
BRANCH   2   3
ATOM      3  C   UNL A   1      33.742  25.809  25.917  1.00  0.00     0.188 C 
BRANCH   3   4
ATOM      4  C   UNL A   1      32.702  26.899  26.241  1.00  0.00     0.188 C 
BRANCH   4   5
ATOM      5  O   UNL A   1      33.042  28.265  26.087  1.00  0.00    -0.376 OA
BRANCH   5   6
ATOM      6  C   UNL A   1      32.107  29.272  25.742  1.00  0.00     0.202 C 
BRANCH   6   7
ATOM      7  C   UNL A   1      31.275  29.338  24.445  1.00  0.00     0.261 C 
BRANCH   7   8
ATOM      8  O   UNL A   1      30.631  28.152  23.988  1.00  0.00    -0.459 OA
BRANCH   8   9
ATOM      9  C   UNL A   1      30.697  27.914  22.642  1.00  0.00     0.357 C 
ATOM     10  O   UNL A   1      30.096  28.509  21.800  1.00  0.00    -0.244 OA
BRANCH   9  11
ATOM     11  C   UNL A   1      31.732  26.924  22.450  1.00  0.00     0.158 A 
ATOM     12  C   UNL A   1      33.442  23.667  22.192  1.00  0.00     0.070 C 
ATOM     13  C   UNL A   1      32.940  25.063  22.213  1.00  0.00     0.074 A 
ATOM     14  N   UNL A   1      33.659  26.031  21.628  1.00  0.00    -0.179 NA
ATOM     15  C   UNL A   1      31.747  25.583  22.759  1.00  0.00     0.073 A 
ATOM     16  N   UNL A   1      32.896  27.130  21.762  1.00  0.00    -0.270 N 
ATOM     17  Br  UNL A   1      30.395  24.572  23.577  1.00  0.00    -0.046 Br
ATOM     18  H   UNL A   1      33.152  28.007  21.396  1.00  0.00     0.190 HD
ENDBRANCH   9  11
ENDBRANCH   8   9
ENDBRANCH   7   8
ENDBRANCH   6   7
ENDBRANCH   5   6
ENDBRANCH   4   5
ENDBRANCH   3   4
ENDBRANCH   2   3
ENDBRANCH   1   2
BRANCH   1  19
ATOM     19  C   UNL A   1      34.170  22.172  25.797  1.00  0.00     0.188 C 
BRANCH  19  20
ATOM     20  O   UNL A   1      35.360  22.282  25.024  1.00  0.00    -0.376 OA
BRANCH  20  21
ATOM     21  C   UNL A   1      36.623  21.910  25.546  1.00  0.00     0.202 C 
BRANCH  21  22
ATOM     22  C   UNL A   1      37.339  22.960  26.381  1.00  0.00     0.261 C 
BRANCH  22  23
ATOM     23  O   UNL A   1      38.595  23.339  25.854  1.00  0.00    -0.460 OA
BRANCH  23  24
ATOM     24  C   UNL A   1      39.657  22.948  26.582  1.00  0.00     0.338 C 
ATOM     25  O   UNL A   1      39.870  21.847  27.056  1.00  0.00    -0.246 OA
BRANCH  24  26
ATOM     26  C   UNL A   1      40.453  24.138  26.870  1.00  0.00     0.060 A 
ATOM     27  C   UNL A   1      41.235  24.089  28.022  1.00  0.00     0.016 A 
ATOM     28  C   UNL A   1      40.094  25.341  26.241  1.00  0.00     0.016 A 
ATOM     29  C   UNL A   1      41.445  25.267  28.693  1.00  0.00     0.010 A 
ATOM     30  C   UNL A   1      40.270  26.507  26.932  1.00  0.00     0.010 A 
ATOM     31  C   UNL A   1      40.868  26.436  28.184  1.00  0.00    -0.014 A 
BRANCH  31  32
ATOM     32  C   UNL A   1      41.015  27.646  28.949  1.00  0.00     0.031 A 
ATOM     33  C   UNL A   1      42.053  28.524  28.383  1.00  0.00     0.074 A 
ATOM     34  C   UNL A   1      40.227  27.949  29.993  1.00  0.00     0.049 A 
ATOM     35  N   UNL A   1      43.237  28.721  28.853  1.00  0.00    -0.248 NA
ATOM     36  C   UNL A   1      41.839  29.052  27.026  1.00  0.00     0.031 C 
ATOM     37  C   UNL A   1      39.008  27.270  30.438  1.00  0.00     0.029 A 
ATOM     38  N   UNL A   1      40.299  29.027  30.813  1.00  0.00    -0.354 N 
ATOM     39  C   UNL A   1      43.831  29.608  27.968  1.00  0.00     0.074 A 
ATOM     40  C   UNL A   1      43.037  29.574  26.767  1.00  0.00     0.031 C 
ATOM     41  C   UNL A   1      38.337  28.085  31.287  1.00  0.00     0.029 A 
ATOM     42  C   UNL A   1      39.137  29.277  31.531  1.00  0.00     0.049 A 
ATOM     43  H   UNL A   1      41.106  29.585  30.894  1.00  0.00     0.167 HD
ATOM     44  C   UNL A   1      44.735  30.524  28.402  1.00  0.00     0.031 A 
ATOM     45  C   UNL A   1      38.840  30.422  32.196  1.00  0.00     0.031 A 
ATOM     46  C   UNL A   1      45.217  30.205  29.723  1.00  0.00     0.049 A 
ATOM     47  C   UNL A   1      40.119  31.146  32.421  1.00  0.00     0.074 A 
ATOM     48  C   UNL A   1      45.871  29.125  30.282  1.00  0.00     0.029 A 
ATOM     49  N   UNL A   1      44.666  30.910  30.769  1.00  0.00    -0.354 N 
ATOM     50  N   UNL A   1      41.051  30.719  33.226  1.00  0.00    -0.248 NA
ATOM     51  C   UNL A   1      40.563  32.100  31.414  1.00  0.00     0.031 C 
ATOM     52  C   UNL A   1      45.321  28.993  31.589  1.00  0.00     0.029 A 
ATOM     53  C   UNL A   1      44.413  30.033  31.791  1.00  0.00     0.049 A 
ATOM     54  H   UNL A   1      44.483  31.878  30.780  1.00  0.00     0.167 HD
ATOM     55  C   UNL A   1      42.243  30.986  32.566  1.00  0.00     0.074 A 
ATOM     56  C   UNL A   1      41.886  31.934  31.513  1.00  0.00     0.031 C 
ATOM     57  C   UNL A   1      43.342  30.197  32.754  1.00  0.00     0.031 A 
BRANCH  44  58
ATOM     58  C   UNL A   1      44.823  31.918  27.833  1.00  0.00    -0.014 A 
ATOM     59  C   UNL A   1      46.033  32.322  27.239  1.00  0.00     0.010 A 
ATOM     60  C   UNL A   1      43.874  32.928  28.106  1.00  0.00     0.010 A 
ATOM     61  C   UNL A   1      46.311  33.675  27.012  1.00  0.00     0.020 A 
ATOM     62  C   UNL A   1      44.122  34.273  27.839  1.00  0.00     0.020 A 
ATOM     63  C   UNL A   1      45.355  34.640  27.326  1.00  0.00     0.054 A 
BRANCH  63  64
ATOM     64  S   UNL A   1      45.760  36.389  27.120  1.00  0.00     0.124 S 
ATOM     65  O   UNL A   1      46.459  36.682  28.366  1.00  0.00    -0.237 OA
ATOM     66  O   UNL A   1      46.583  36.372  25.914  1.00  0.00    -0.237 OA
ATOM     67  O   UNL A   1      44.453  37.025  26.967  1.00  0.00    -0.744 OA
ENDBRANCH  63  64
ENDBRANCH  44  58
BRANCH  45  68
ATOM     68  C   UNL A   1      37.516  31.067  32.381  1.00  0.00    -0.014 A 
ATOM     69  C   UNL A   1      37.229  31.797  33.550  1.00  0.00     0.010 A 
ATOM     70  C   UNL A   1      36.631  31.206  31.292  1.00  0.00     0.010 A 
ATOM     71  C   UNL A   1      36.145  32.690  33.600  1.00  0.00     0.020 A 
ATOM     72  C   UNL A   1      35.542  32.085  31.338  1.00  0.00     0.020 A 
ATOM     73  C   UNL A   1      35.321  32.846  32.482  1.00  0.00     0.054 A 
BRANCH  73  74
ATOM     74  S   UNL A   1      34.051  34.145  32.479  1.00  0.00     0.124 S 
ATOM     75  O   UNL A   1      33.818  34.348  31.052  1.00  0.00    -0.237 OA
ATOM     76  O   UNL A   1      32.956  33.522  33.217  1.00  0.00    -0.237 OA
ATOM     77  O   UNL A   1      34.699  35.261  33.167  1.00  0.00    -0.744 OA
ENDBRANCH  73  74
ENDBRANCH  45  68
BRANCH  57  78
ATOM     78  C   UNL A   1      43.360  29.261  33.941  1.00  0.00    -0.014 A 
ATOM     79  C   UNL A   1      42.818  27.960  33.936  1.00  0.00     0.010 A 
ATOM     80  C   UNL A   1      44.074  29.684  35.076  1.00  0.00     0.010 A 
ATOM     81  C   UNL A   1      42.952  27.126  35.056  1.00  0.00     0.020 A 
ATOM     82  C   UNL A   1      44.231  28.850  36.184  1.00  0.00     0.020 A 
ATOM     83  C   UNL A   1      43.656  27.581  36.176  1.00  0.00     0.054 A 
BRANCH  83  84
ATOM     84  S   UNL A   1      43.841  26.495  37.617  1.00  0.00     0.124 S 
ATOM     85  O   UNL A   1      42.456  26.227  37.993  1.00  0.00    -0.237 OA
ATOM     86  O   UNL A   1      44.580  25.357  37.076  1.00  0.00    -0.237 OA
ATOM     87  O   UNL A   1      44.592  27.310  38.572  1.00  0.00    -0.744 OA
ENDBRANCH  83  84
ENDBRANCH  57  78
ENDBRANCH  31  32
ENDBRANCH  24  26
ENDBRANCH  23  24
ENDBRANCH  22  23
ENDBRANCH  21  22
ENDBRANCH  20  21
ENDBRANCH  19  20
ENDBRANCH   1  19
TORSDOF 23
ENDMDL
MODEL 3
REMARK VINA RESULT:      -9.0      3.537      7.747
REMARK SMILES Cc1n[nH]c(C(=O)OCCOCCOCCOCCOC(=O)c2ccc(-c3c4nc(c(-c5ccc(S(=O)(=O)[O-])cc5)c5ccc([nH]5)c(-c5ccc(S(=O)(=O)[O-])cc5)c5nc(c(-c6ccc(S(=O)(=O)[O-])cc6)c6ccc3[nH]6)C=C5)C=C4)cc2)c1Br
REMARK SMILES IDX 15 1 14 2 13 3 12 4 11 5 10 6 9 7 8 8 6 9 7 10 5 11 1 12
REMARK SMILES IDX 2 13 3 14 83 15 4 16 84 17 16 19 17 20 18 21 19 22 20 23
REMARK SMILES IDX 21 24 22 25 23 26 24 27 82 28 25 29 81 30 26 31 27 32 28 33
REMARK SMILES IDX 75 34 29 35 80 36 74 37 76 38 30 39 79 40 73 41 72 42 31 44
REMARK SMILES IDX 61 45 42 46 60 47 43 48 46 49 59 50 77 51 44 52 45 53 58 55
REMARK SMILES IDX 78 56 47 57 32 58 33 59 41 60 34 61 40 62 35 63 36 64 37 65
REMARK SMILES IDX 38 66 39 67 62 68 63 69 71 70 64 71 70 72 65 73 66 74 67 75
REMARK SMILES IDX 68 76 69 77 48 78 49 79 57 80 50 81 56 82 51 83 52 84 53 85
REMARK SMILES IDX 54 86 55 87
REMARK H PARENT 4 18 76 43 46 54
REMARK Flexibility Score: inf
ROOT
ATOM      1  C   UNL A   1      34.976  24.466  25.576  1.00  0.00     0.188 C 
ENDROOT
BRANCH   1   2
ATOM      2  O   UNL A   1      33.889  25.164  24.963  1.00  0.00    -0.377 OA
BRANCH   2   3
ATOM      3  C   UNL A   1      34.061  26.568  24.843  1.00  0.00     0.188 C 
BRANCH   3   4
ATOM      4  C   UNL A   1      33.746  27.332  26.143  1.00  0.00     0.188 C 
BRANCH   4   5
ATOM      5  O   UNL A   1      32.422  27.350  26.646  1.00  0.00    -0.376 OA
BRANCH   5   6
ATOM      6  C   UNL A   1      31.303  27.786  25.895  1.00  0.00     0.202 C 
BRANCH   6   7
ATOM      7  C   UNL A   1      30.656  27.044  24.708  1.00  0.00     0.261 C 
BRANCH   7   8
ATOM      8  O   UNL A   1      30.303  25.674  24.872  1.00  0.00    -0.459 OA
BRANCH   8   9
ATOM      9  C   UNL A   1      30.606  24.846  23.825  1.00  0.00     0.357 C 
ATOM     10  O   UNL A   1      30.712  25.177  22.684  1.00  0.00    -0.244 OA
BRANCH   9  11
ATOM     11  C   UNL A   1      30.914  23.555  24.399  1.00  0.00     0.158 A 
ATOM     12  C   UNL A   1      32.641  20.377  25.116  1.00  0.00     0.070 C 
ATOM     13  C   UNL A   1      31.819  21.607  25.001  1.00  0.00     0.074 A 
ATOM     14  N   UNL A   1      30.942  21.907  25.969  1.00  0.00    -0.179 NA
ATOM     15  C   UNL A   1      31.813  22.594  23.993  1.00  0.00     0.073 A 
ATOM     16  N   UNL A   1      30.435  23.094  25.593  1.00  0.00    -0.270 N 
ATOM     17  Br  UNL A   1      32.953  22.636  22.504  1.00  0.00    -0.046 Br
ATOM     18  H   UNL A   1      29.777  23.590  26.132  1.00  0.00     0.190 HD
ENDBRANCH   9  11
ENDBRANCH   8   9
ENDBRANCH   7   8
ENDBRANCH   6   7
ENDBRANCH   5   6
ENDBRANCH   4   5
ENDBRANCH   3   4
ENDBRANCH   2   3
ENDBRANCH   1   2
BRANCH   1  19
ATOM     19  C   UNL A   1      35.860  23.555  24.687  1.00  0.00     0.188 C 
BRANCH  19  20
ATOM     20  O   UNL A   1      36.602  22.569  25.397  1.00  0.00    -0.376 OA
BRANCH  20  21
ATOM     21  C   UNL A   1      36.436  21.186  25.142  1.00  0.00     0.202 C 
BRANCH  21  22
ATOM     22  C   UNL A   1      37.713  20.380  24.962  1.00  0.00     0.261 C 
BRANCH  22  23
ATOM     23  O   UNL A   1      38.835  20.951  25.605  1.00  0.00    -0.460 OA
BRANCH  23  24
ATOM     24  C   UNL A   1      39.886  20.125  25.754  1.00  0.00     0.338 C 
ATOM     25  O   UNL A   1      39.938  18.934  25.507  1.00  0.00    -0.246 OA
BRANCH  24  26
ATOM     26  C   UNL A   1      40.935  20.870  26.445  1.00  0.00     0.060 A 
ATOM     27  C   UNL A   1      40.868  20.873  27.837  1.00  0.00     0.016 A 
ATOM     28  C   UNL A   1      41.662  21.821  25.713  1.00  0.00     0.016 A 
ATOM     29  C   UNL A   1      41.327  21.991  28.488  1.00  0.00     0.010 A 
ATOM     30  C   UNL A   1      42.081  22.950  26.360  1.00  0.00     0.010 A 
ATOM     31  C   UNL A   1      41.828  23.049  27.723  1.00  0.00    -0.014 A 
BRANCH  31  32
ATOM     32  C   UNL A   1      42.215  24.252  28.412  1.00  0.00     0.031 A 
ATOM     33  C   UNL A   1      41.308  25.371  28.103  1.00  0.00     0.074 A 
ATOM     34  C   UNL A   1      43.228  24.295  29.291  1.00  0.00     0.049 A 
ATOM     35  N   UNL A   1      41.555  26.374  27.333  1.00  0.00    -0.248 NA
ATOM     36  C   UNL A   1      39.897  25.239  28.499  1.00  0.00     0.031 C 
ATOM     37  C   UNL A   1      43.989  23.178  29.856  1.00  0.00     0.029 A 
ATOM     38  N   UNL A   1      43.713  25.370  29.961  1.00  0.00    -0.354 N 
ATOM     39  C   UNL A   1      40.397  27.136  27.354  1.00  0.00     0.074 A 
ATOM     40  C   UNL A   1      39.359  26.281  27.867  1.00  0.00     0.031 C 
ATOM     41  C   UNL A   1      44.663  23.614  30.947  1.00  0.00     0.029 A 
ATOM     42  C   UNL A   1      44.476  25.052  31.076  1.00  0.00     0.049 A 
ATOM     43  H   UNL A   1      43.538  26.298  29.681  1.00  0.00     0.167 HD
ATOM     44  C   UNL A   1      40.452  28.489  27.245  1.00  0.00     0.031 A 
ATOM     45  C   UNL A   1      44.840  25.907  32.065  1.00  0.00     0.031 A 
ATOM     46  C   UNL A   1      41.739  28.928  26.766  1.00  0.00     0.049 A 
ATOM     47  C   UNL A   1      44.699  27.287  31.529  1.00  0.00     0.074 A 
ATOM     48  C   UNL A   1      42.481  28.691  25.626  1.00  0.00     0.029 A 
ATOM     49  N   UNL A   1      42.617  29.413  27.709  1.00  0.00    -0.354 N 
ATOM     50  N   UNL A   1      45.467  27.773  30.594  1.00  0.00    -0.248 NA
ATOM     51  C   UNL A   1      43.426  27.972  31.700  1.00  0.00     0.031 C 
ATOM     52  C   UNL A   1      43.834  28.634  26.068  1.00  0.00     0.029 A 
ATOM     53  C   UNL A   1      43.861  28.906  27.437  1.00  0.00     0.049 A 
ATOM     54  H   UNL A   1      42.389  30.019  28.451  1.00  0.00     0.167 HD
ATOM     55  C   UNL A   1      44.616  28.508  29.780  1.00  0.00     0.074 A 
ATOM     56  C   UNL A   1      43.399  28.686  30.570  1.00  0.00     0.031 C 
ATOM     57  C   UNL A   1      44.870  28.650  28.445  1.00  0.00     0.031 A 
BRANCH  44  58
ATOM     58  C   UNL A   1      39.522  29.407  27.999  1.00  0.00    -0.014 A 
ATOM     59  C   UNL A   1      39.897  29.824  29.289  1.00  0.00     0.010 A 
ATOM     60  C   UNL A   1      38.184  29.643  27.612  1.00  0.00     0.010 A 
ATOM     61  C   UNL A   1      38.960  30.372  30.173  1.00  0.00     0.020 A 
ATOM     62  C   UNL A   1      37.255  30.232  28.468  1.00  0.00     0.020 A 
ATOM     63  C   UNL A   1      37.643  30.558  29.757  1.00  0.00     0.054 A 
BRANCH  63  64
ATOM     64  S   UNL A   1      36.419  31.174  30.936  1.00  0.00     0.124 S 
ATOM     65  O   UNL A   1      36.128  29.976  31.716  1.00  0.00    -0.237 OA
ATOM     66  O   UNL A   1      37.163  32.221  31.630  1.00  0.00    -0.237 OA
ATOM     67  O   UNL A   1      35.332  31.648  30.082  1.00  0.00    -0.744 OA
ENDBRANCH  63  64
ENDBRANCH  44  58
BRANCH  45  68
ATOM     68  C   UNL A   1      45.009  25.628  33.513  1.00  0.00    -0.014 A 
ATOM     69  C   UNL A   1      46.194  25.990  34.182  1.00  0.00     0.010 A 
ATOM     70  C   UNL A   1      43.901  25.262  34.304  1.00  0.00     0.010 A 
ATOM     71  C   UNL A   1      46.244  26.059  35.584  1.00  0.00     0.020 A 
ATOM     72  C   UNL A   1      43.945  25.317  35.702  1.00  0.00     0.020 A 
ATOM     73  C   UNL A   1      45.109  25.744  36.336  1.00  0.00     0.054 A 
BRANCH  73  74
ATOM     74  S   UNL A   1      45.113  26.031  38.131  1.00  0.00     0.124 S 
ATOM     75  O   UNL A   1      44.683  24.737  38.653  1.00  0.00    -0.237 OA
ATOM     76  O   UNL A   1      46.504  26.388  38.392  1.00  0.00    -0.237 OA
ATOM     77  O   UNL A   1      44.154  27.120  38.307  1.00  0.00    -0.744 OA
ENDBRANCH  73  74
ENDBRANCH  45  68
BRANCH  57  78
ATOM     78  C   UNL A   1      46.253  28.313  27.937  1.00  0.00    -0.014 A 
ATOM     79  C   UNL A   1      47.321  29.230  27.870  1.00  0.00     0.010 A 
ATOM     80  C   UNL A   1      46.508  26.964  27.630  1.00  0.00     0.010 A 
ATOM     81  C   UNL A   1      48.597  28.812  27.463  1.00  0.00     0.020 A 
ATOM     82  C   UNL A   1      47.781  26.539  27.247  1.00  0.00     0.020 A 
ATOM     83  C   UNL A   1      48.816  27.467  27.149  1.00  0.00     0.054 A 
BRANCH  83  84
ATOM     84  S   UNL A   1      50.470  26.925  26.638  1.00  0.00     0.124 S 
ATOM     85  O   UNL A   1      50.379  26.959  25.181  1.00  0.00    -0.237 OA
ATOM     86  O   UNL A   1      51.343  27.932  27.238  1.00  0.00    -0.237 OA
ATOM     87  O   UNL A   1      50.593  25.588  27.217  1.00  0.00    -0.744 OA
ENDBRANCH  83  84
ENDBRANCH  57  78
ENDBRANCH  31  32
ENDBRANCH  24  26
ENDBRANCH  23  24
ENDBRANCH  22  23
ENDBRANCH  21  22
ENDBRANCH  20  21
ENDBRANCH  19  20
ENDBRANCH   1  19
TORSDOF 23
ENDMDL
