MODEL 1
REMARK VINA RESULT:      -8.1      0.000      0.000
REMARK SMILES C[C@@H](C(=O)OCCOCCOCCOCCOC(=O)c1ccc(-c2c3nc(c(-c4ccc(S(=O)(=O)[O-])cc4)c4ccc([nH]4)c(-c4ccc(S(=O)(=O)[O-])cc4)c4nc(c(-c5ccc(S(=O)(=O)[O-])cc5)c5ccc2[nH]5)C=C4)C=C3)cc1)c1ccc(-c2cccc(OC(=O)NCCC3CCCCC3)c2)c(F)c1
REMARK SMILES IDX 9 1 8 2 7 3 6 4 5 5 3 6 4 7 2 8 1 9 80 10 81 11 104 12 82 13
REMARK SMILES IDX 102 14 83 15 103 16 84 17 85 18 101 19 86 20 88 21 87 22
REMARK SMILES IDX 89 23 90 24 91 25 92 26 93 28 94 29 95 30 96 31 100 32 97 33
REMARK SMILES IDX 99 34 98 35 10 36 11 37 12 38 13 39 14 40 15 41 16 42 17 43
REMARK SMILES IDX 18 44 19 45 20 46 21 47 79 48 22 49 78 50 23 51 24 52 25 53
REMARK SMILES IDX 72 54 26 55 77 56 71 57 73 58 27 59 76 60 70 61 69 62 28 64
REMARK SMILES IDX 58 65 39 66 57 67 40 68 43 69 56 70 74 71 41 72 42 73 55 75
REMARK SMILES IDX 75 76 44 77 29 78 30 79 38 80 31 81 37 82 32 83 33 84 34 85
REMARK SMILES IDX 35 86 36 87 59 88 60 89 68 90 61 91 67 92 62 93 63 94 64 95
REMARK SMILES IDX 65 96 66 97 45 98 46 99 54 100 47 101 53 102 48 103 49 104
REMARK SMILES IDX 50 105 51 106 52 107
REMARK H PARENT 92 27 73 63 43 74
REMARK Flexibility Score: inf
ROOT
ATOM      1  C   UNL A   1      31.996  29.823  25.104  1.00  0.00     0.188 C 
ENDROOT
BRANCH   1   2
ATOM      2  O   UNL A   1      30.847  29.230  24.532  1.00  0.00    -0.376 OA
BRANCH   2   3
ATOM      3  C   UNL A   1      30.816  27.850  24.198  1.00  0.00     0.202 C 
BRANCH   3   4
ATOM      4  C   UNL A   1      31.611  27.191  23.051  1.00  0.00     0.261 C 
BRANCH   4   5
ATOM      5  O   UNL A   1      32.679  26.306  23.419  1.00  0.00    -0.463 OA
BRANCH   5   6
ATOM      6  C   UNL A   1      33.199  25.532  22.439  1.00  0.00     0.313 C 
ATOM      7  O   UNL A   1      33.778  25.977  21.452  1.00  0.00    -0.252 OA
BRANCH   6   8
ATOM      8  C   UNL A   1      33.074  24.019  22.717  1.00  0.00     0.126 C 
ATOM      9  C   UNL A   1      31.751  23.590  23.371  1.00  0.00     0.025 C 
BRANCH   8  10
ATOM     10  C   UNL A   1      34.370  23.440  23.302  1.00  0.00    -0.031 A 
ATOM     11  C   UNL A   1      35.567  23.247  22.592  1.00  0.00     0.005 A 
ATOM     12  C   UNL A   1      34.365  23.062  24.655  1.00  0.00     0.044 A 
ATOM     13  C   UNL A   1      36.700  22.677  23.211  1.00  0.00     0.012 A 
ATOM     14  C   UNL A   1      35.485  22.498  25.260  1.00  0.00     0.131 A 
ATOM     15  C   UNL A   1      36.676  22.289  24.559  1.00  0.00     0.018 A 
ATOM     16  F   UNL A   1      35.394  22.162  26.555  1.00  0.00    -0.206 F 
BRANCH  15  17
ATOM     17  C   UNL A   1      37.836  21.675  25.227  1.00  0.00    -0.012 A 
ATOM     18  C   UNL A   1      38.118  20.306  25.106  1.00  0.00     0.009 A 
ATOM     19  C   UNL A   1      38.728  22.475  25.966  1.00  0.00     0.056 A 
ATOM     20  C   UNL A   1      39.268  19.758  25.686  1.00  0.00     0.004 A 
ATOM     21  C   UNL A   1      39.863  21.928  26.561  1.00  0.00     0.133 A 
ATOM     22  C   UNL A   1      40.143  20.569  26.411  1.00  0.00     0.047 A 
BRANCH  21  23
ATOM     23  O   UNL A   1      40.805  22.667  27.325  1.00  0.00    -0.410 OA
BRANCH  23  24
ATOM     24  C   UNL A   1      41.509  23.773  26.859  1.00  0.00     0.412 C 
ATOM     25  O   UNL A   1      42.442  23.765  26.059  1.00  0.00    -0.224 OA
ATOM     26  N   UNL A   1      41.068  24.966  27.346  1.00  0.00    -0.321 N 
ATOM     27  H   UNL A   1      41.536  25.765  27.011  1.00  0.00     0.167 HD
BRANCH  26  28
ATOM     28  C   UNL A   1      40.000  25.215  28.290  1.00  0.00     0.119 C 
BRANCH  28  29
ATOM     29  C   UNL A   1      39.375  26.596  28.073  1.00  0.00     0.025 C 
BRANCH  29  30
ATOM     30  C   UNL A   1      39.766  27.656  29.127  1.00  0.00    -0.009 C 
ATOM     31  C   UNL A   1      40.086  29.018  28.488  1.00  0.00     0.003 C 
ATOM     32  C   UNL A   1      38.643  27.797  30.170  1.00  0.00     0.003 C 
ATOM     33  C   UNL A   1      40.386  30.090  29.536  1.00  0.00     0.000 C 
ATOM     34  C   UNL A   1      38.971  28.861  31.215  1.00  0.00     0.000 C 
ATOM     35  C   UNL A   1      39.267  30.206  30.564  1.00  0.00     0.000 C 
ENDBRANCH  29  30
ENDBRANCH  28  29
ENDBRANCH  26  28
ENDBRANCH  23  24
ENDBRANCH  21  23
ENDBRANCH  15  17
ENDBRANCH   8  10
ENDBRANCH   6   8
ENDBRANCH   5   6
ENDBRANCH   4   5
ENDBRANCH   3   4
ENDBRANCH   2   3
ENDBRANCH   1   2
BRANCH   1  36
ATOM     36  C   UNL A   1      31.900  30.442  26.507  1.00  0.00     0.188 C 
BRANCH  36  37
ATOM     37  O   UNL A   1      33.083  31.042  26.992  1.00  0.00    -0.377 OA
BRANCH  37  38
ATOM     38  C   UNL A   1      32.985  32.291  27.660  1.00  0.00     0.188 C 
BRANCH  38  39
ATOM     39  C   UNL A   1      34.259  33.078  28.027  1.00  0.00     0.188 C 
BRANCH  39  40
ATOM     40  O   UNL A   1      34.931  32.619  29.193  1.00  0.00    -0.376 OA
BRANCH  40  41
ATOM     41  C   UNL A   1      35.924  33.447  29.778  1.00  0.00     0.202 C 
BRANCH  41  42
ATOM     42  C   UNL A   1      36.079  33.407  31.307  1.00  0.00     0.261 C 
BRANCH  42  43
ATOM     43  O   UNL A   1      37.339  32.938  31.811  1.00  0.00    -0.460 OA
BRANCH  43  44
ATOM     44  C   UNL A   1      38.157  33.839  32.397  1.00  0.00     0.338 C 
ATOM     45  O   UNL A   1      37.946  34.468  33.417  1.00  0.00    -0.246 OA
BRANCH  44  46
ATOM     46  C   UNL A   1      39.457  33.790  31.692  1.00  0.00     0.060 A 
ATOM     47  C   UNL A   1      40.597  33.394  32.403  1.00  0.00     0.016 A 
ATOM     48  C   UNL A   1      39.548  34.127  30.340  1.00  0.00     0.016 A 
ATOM     49  C   UNL A   1      41.842  33.375  31.772  1.00  0.00     0.010 A 
ATOM     50  C   UNL A   1      40.798  34.129  29.716  1.00  0.00     0.010 A 
ATOM     51  C   UNL A   1      41.956  33.789  30.439  1.00  0.00    -0.014 A 
BRANCH  51  52
ATOM     52  C   UNL A   1      43.297  34.070  29.868  1.00  0.00     0.031 A 
ATOM     53  C   UNL A   1      43.769  35.499  29.830  1.00  0.00     0.074 A 
ATOM     54  C   UNL A   1      44.090  33.083  29.414  1.00  0.00     0.049 A 
ATOM     55  N   UNL A   1      44.872  35.996  29.336  1.00  0.00    -0.248 NA
ATOM     56  C   UNL A   1      42.871  36.501  30.429  1.00  0.00     0.031 C 
ATOM     57  C   UNL A   1      43.770  31.657  29.442  1.00  0.00     0.029 A 
ATOM     58  N   UNL A   1      45.331  33.139  28.829  1.00  0.00    -0.354 N 
ATOM     59  C   UNL A   1      44.798  37.367  29.555  1.00  0.00     0.074 A 
ATOM     60  C   UNL A   1      43.527  37.626  30.196  1.00  0.00     0.031 C 
ATOM     61  C   UNL A   1      44.787  30.972  28.887  1.00  0.00     0.029 A 
ATOM     62  C   UNL A   1      45.809  31.914  28.430  1.00  0.00     0.049 A 
ATOM     63  H   UNL A   1      45.832  33.978  28.708  1.00  0.00     0.167 HD
ATOM     64  C   UNL A   1      45.708  38.325  29.257  1.00  0.00     0.031 A 
ATOM     65  C   UNL A   1      46.929  31.592  27.750  1.00  0.00     0.031 A 
ATOM     66  C   UNL A   1      46.961  38.064  28.601  1.00  0.00     0.049 A 
ATOM     67  C   UNL A   1      47.889  32.683  27.349  1.00  0.00     0.074 A 
ATOM     68  C   UNL A   1      47.955  38.965  28.258  1.00  0.00     0.029 A 
ATOM     69  N   UNL A   1      47.391  36.815  28.180  1.00  0.00    -0.354 N 
ATOM     70  N   UNL A   1      47.814  33.974  27.578  1.00  0.00    -0.248 NA
ATOM     71  C   UNL A   1      49.088  32.275  26.603  1.00  0.00     0.031 C 
ATOM     72  C   UNL A   1      48.954  38.269  27.569  1.00  0.00     0.029 A 
ATOM     73  C   UNL A   1      48.620  36.923  27.553  1.00  0.00     0.049 A 
ATOM     74  H   UNL A   1      46.894  35.975  28.307  1.00  0.00     0.167 HD
ATOM     75  C   UNL A   1      48.972  34.524  27.034  1.00  0.00     0.074 A 
ATOM     76  C   UNL A   1      49.734  33.426  26.477  1.00  0.00     0.031 C 
ATOM     77  C   UNL A   1      49.369  35.821  27.002  1.00  0.00     0.031 A 
BRANCH  64  78
ATOM     78  C   UNL A   1      45.357  39.749  29.602  1.00  0.00    -0.014 A 
ATOM     79  C   UNL A   1      45.650  40.289  30.868  1.00  0.00     0.010 A 
ATOM     80  C   UNL A   1      44.751  40.570  28.633  1.00  0.00     0.010 A 
ATOM     81  C   UNL A   1      45.305  41.609  31.171  1.00  0.00     0.020 A 
ATOM     82  C   UNL A   1      44.435  41.900  28.921  1.00  0.00     0.020 A 
ATOM     83  C   UNL A   1      44.699  42.407  30.195  1.00  0.00     0.054 A 
BRANCH  83  84
ATOM     84  S   UNL A   1      44.283  44.121  30.611  1.00  0.00     0.124 S 
ATOM     85  O   UNL A   1      45.113  44.356  31.790  1.00  0.00    -0.237 OA
ATOM     86  O   UNL A   1      44.683  44.847  29.408  1.00  0.00    -0.237 OA
ATOM     87  O   UNL A   1      42.845  44.080  30.862  1.00  0.00    -0.744 OA
ENDBRANCH  83  84
ENDBRANCH  64  78
BRANCH  65  88
ATOM     88  C   UNL A   1      47.192  30.172  27.379  1.00  0.00    -0.014 A 
ATOM     89  C   UNL A   1      47.945  29.333  28.219  1.00  0.00     0.010 A 
ATOM     90  C   UNL A   1      46.687  29.652  26.173  1.00  0.00     0.010 A 
ATOM     91  C   UNL A   1      48.201  28.007  27.851  1.00  0.00     0.020 A 
ATOM     92  C   UNL A   1      46.913  28.319  25.817  1.00  0.00     0.020 A 
ATOM     93  C   UNL A   1      47.678  27.508  26.656  1.00  0.00     0.054 A 
BRANCH  93  94
ATOM     94  S   UNL A   1      47.974  25.769  26.230  1.00  0.00     0.124 S 
ATOM     95  O   UNL A   1      49.154  25.861  25.378  1.00  0.00    -0.237 OA
ATOM     96  O   UNL A   1      48.184  25.157  27.540  1.00  0.00    -0.237 OA
ATOM     97  O   UNL A   1      46.742  25.367  25.554  1.00  0.00    -0.744 OA
ENDBRANCH  93  94
ENDBRANCH  65  88
BRANCH  77  98
ATOM     98  C   UNL A   1      50.710  36.128  26.382  1.00  0.00    -0.014 A 
ATOM     99  C   UNL A   1      50.819  36.622  25.070  1.00  0.00     0.010 A 
ATOM    100  C   UNL A   1      51.878  35.978  27.154  1.00  0.00     0.010 A 
ATOM    101  C   UNL A   1      52.072  36.927  24.531  1.00  0.00     0.020 A 
ATOM    102  C   UNL A   1      53.129  36.313  26.631  1.00  0.00     0.020 A 
ATOM    103  C   UNL A   1      53.220  36.772  25.316  1.00  0.00     0.054 A 
BRANCH 103 104
ATOM    104  S   UNL A   1      54.828  37.218  24.607  1.00  0.00     0.124 S 
ATOM    105  O   UNL A   1      54.505  37.375  23.191  1.00  0.00    -0.237 OA
ATOM    106  O   UNL A   1      55.161  38.451  25.316  1.00  0.00    -0.237 OA
ATOM    107  O   UNL A   1      55.679  36.072  24.927  1.00  0.00    -0.744 OA
ENDBRANCH 103 104
ENDBRANCH  77  98
ENDBRANCH  51  52
ENDBRANCH  44  46
ENDBRANCH  43  44
ENDBRANCH  42  43
ENDBRANCH  41  42
ENDBRANCH  40  41
ENDBRANCH  39  40
ENDBRANCH  38  39
ENDBRANCH  37  38
ENDBRANCH  36  37
ENDBRANCH   1  36
TORSDOF 30
ENDMDL
MODEL 2
REMARK VINA RESULT:      -8.0      3.601      5.007
REMARK SMILES C[C@@H](C(=O)OCCOCCOCCOCCOC(=O)c1ccc(-c2c3nc(c(-c4ccc(S(=O)(=O)[O-])cc4)c4ccc([nH]4)c(-c4ccc(S(=O)(=O)[O-])cc4)c4nc(c(-c5ccc(S(=O)(=O)[O-])cc5)c5ccc2[nH]5)C=C4)C=C3)cc1)c1ccc(-c2cccc(OC(=O)NCCC3CCCCC3)c2)c(F)c1
REMARK SMILES IDX 9 1 8 2 7 3 6 4 5 5 3 6 4 7 2 8 1 9 80 10 81 11 104 12 82 13
REMARK SMILES IDX 102 14 83 15 103 16 84 17 85 18 101 19 86 20 88 21 87 22
REMARK SMILES IDX 89 23 90 24 91 25 92 26 93 28 94 29 95 30 96 31 100 32 97 33
REMARK SMILES IDX 99 34 98 35 10 36 11 37 12 38 13 39 14 40 15 41 16 42 17 43
REMARK SMILES IDX 18 44 19 45 20 46 21 47 79 48 22 49 78 50 23 51 24 52 25 53
REMARK SMILES IDX 72 54 26 55 77 56 71 57 73 58 27 59 76 60 70 61 69 62 28 64
REMARK SMILES IDX 58 65 39 66 57 67 40 68 43 69 56 70 74 71 41 72 42 73 55 75
REMARK SMILES IDX 75 76 44 77 29 78 30 79 38 80 31 81 37 82 32 83 33 84 34 85
REMARK SMILES IDX 35 86 36 87 59 88 60 89 68 90 61 91 67 92 62 93 63 94 64 95
REMARK SMILES IDX 65 96 66 97 45 98 46 99 54 100 47 101 53 102 48 103 49 104
REMARK SMILES IDX 50 105 51 106 52 107
REMARK H PARENT 92 27 73 63 43 74
REMARK Flexibility Score: inf
ROOT
ATOM      1  C   UNL A   1      31.560  30.422  25.253  1.00  0.00     0.188 C 
ENDROOT
BRANCH   1   2
ATOM      2  O   UNL A   1      30.469  30.186  24.384  1.00  0.00    -0.376 OA
BRANCH   2   3
ATOM      3  C   UNL A   1      30.413  29.025  23.567  1.00  0.00     0.202 C 
BRANCH   3   4
ATOM      4  C   UNL A   1      31.633  28.307  22.951  1.00  0.00     0.261 C 
BRANCH   4   5
ATOM      5  O   UNL A   1      32.305  27.338  23.769  1.00  0.00    -0.463 OA
BRANCH   5   6
ATOM      6  C   UNL A   1      31.571  26.290  24.208  1.00  0.00     0.313 C 
ATOM      7  O   UNL A   1      30.708  25.732  23.536  1.00  0.00    -0.252 OA
BRANCH   6   8
ATOM      8  C   UNL A   1      31.978  25.798  25.613  1.00  0.00     0.126 C 
ATOM      9  C   UNL A   1      32.230  26.914  26.639  1.00  0.00     0.025 C 
BRANCH   8  10
ATOM     10  C   UNL A   1      33.007  24.660  25.541  1.00  0.00    -0.031 A 
ATOM     11  C   UNL A   1      32.733  23.302  25.774  1.00  0.00     0.005 A 
ATOM     12  C   UNL A   1      34.333  24.998  25.223  1.00  0.00     0.044 A 
ATOM     13  C   UNL A   1      33.755  22.331  25.715  1.00  0.00     0.012 A 
ATOM     14  C   UNL A   1      35.337  24.035  25.168  1.00  0.00     0.131 A 
ATOM     15  C   UNL A   1      35.079  22.684  25.412  1.00  0.00     0.018 A 
ATOM     16  F   UNL A   1      36.578  24.443  24.861  1.00  0.00    -0.206 F 
BRANCH  15  17
ATOM     17  C   UNL A   1      36.170  21.695  25.362  1.00  0.00    -0.012 A 
ATOM     18  C   UNL A   1      35.945  20.367  24.972  1.00  0.00     0.009 A 
ATOM     19  C   UNL A   1      37.490  22.088  25.656  1.00  0.00     0.056 A 
ATOM     20  C   UNL A   1      37.009  19.464  24.858  1.00  0.00     0.004 A 
ATOM     21  C   UNL A   1      38.548  21.185  25.562  1.00  0.00     0.133 A 
ATOM     22  C   UNL A   1      38.311  19.873  25.149  1.00  0.00     0.047 A 
BRANCH  21  23
ATOM     23  O   UNL A   1      39.902  21.503  25.846  1.00  0.00    -0.410 OA
BRANCH  23  24
ATOM     24  C   UNL A   1      40.491  21.410  27.103  1.00  0.00     0.412 C 
ATOM     25  O   UNL A   1      40.648  20.388  27.766  1.00  0.00    -0.224 OA
ATOM     26  N   UNL A   1      40.952  22.593  27.597  1.00  0.00    -0.321 N 
ATOM     27  H   UNL A   1      41.395  22.548  28.475  1.00  0.00     0.167 HD
BRANCH  26  28
ATOM     28  C   UNL A   1      40.875  23.909  27.001  1.00  0.00     0.119 C 
BRANCH  28  29
ATOM     29  C   UNL A   1      41.734  24.919  27.768  1.00  0.00     0.025 C 
BRANCH  29  30
ATOM     30  C   UNL A   1      40.935  26.007  28.521  1.00  0.00    -0.009 C 
ATOM     31  C   UNL A   1      41.851  26.950  29.320  1.00  0.00     0.003 C 
ATOM     32  C   UNL A   1      40.071  26.804  27.528  1.00  0.00     0.003 C 
ATOM     33  C   UNL A   1      41.070  28.079  29.991  1.00  0.00     0.000 C 
ATOM     34  C   UNL A   1      39.287  27.915  28.223  1.00  0.00     0.000 C 
ATOM     35  C   UNL A   1      40.213  28.849  28.993  1.00  0.00     0.000 C 
ENDBRANCH  29  30
ENDBRANCH  28  29
ENDBRANCH  26  28
ENDBRANCH  23  24
ENDBRANCH  21  23
ENDBRANCH  15  17
ENDBRANCH   8  10
ENDBRANCH   6   8
ENDBRANCH   5   6
ENDBRANCH   4   5
ENDBRANCH   3   4
ENDBRANCH   2   3
ENDBRANCH   1   2
BRANCH   1  36
ATOM     36  C   UNL A   1      31.329  31.228  26.541  1.00  0.00     0.188 C 
BRANCH  36  37
ATOM     37  O   UNL A   1      32.452  31.932  27.029  1.00  0.00    -0.377 OA
BRANCH  37  38
ATOM     38  C   UNL A   1      32.257  33.236  27.556  1.00  0.00     0.188 C 
BRANCH  38  39
ATOM     39  C   UNL A   1      33.469  34.131  27.884  1.00  0.00     0.188 C 
BRANCH  39  40
ATOM     40  O   UNL A   1      33.160  35.319  28.599  1.00  0.00    -0.376 OA
BRANCH  40  41
ATOM     41  C   UNL A   1      33.339  35.335  30.007  1.00  0.00     0.202 C 
BRANCH  41  42
ATOM     42  C   UNL A   1      34.415  34.410  30.602  1.00  0.00     0.261 C 
BRANCH  42  43
ATOM     43  O   UNL A   1      34.606  34.482  32.022  1.00  0.00    -0.460 OA
BRANCH  43  44
ATOM     44  C   UNL A   1      34.774  33.321  32.694  1.00  0.00     0.338 C 
ATOM     45  O   UNL A   1      33.913  32.661  33.243  1.00  0.00    -0.246 OA
BRANCH  44  46
ATOM     46  C   UNL A   1      36.168  32.875  32.477  1.00  0.00     0.060 A 
ATOM     47  C   UNL A   1      37.072  32.935  33.546  1.00  0.00     0.016 A 
ATOM     48  C   UNL A   1      36.578  32.398  31.230  1.00  0.00     0.016 A 
ATOM     49  C   UNL A   1      38.402  32.556  33.359  1.00  0.00     0.010 A 
ATOM     50  C   UNL A   1      37.916  32.040  31.039  1.00  0.00     0.010 A 
ATOM     51  C   UNL A   1      38.841  32.153  32.092  1.00  0.00    -0.014 A 
BRANCH  51  52
ATOM     52  C   UNL A   1      40.296  32.055  31.814  1.00  0.00     0.031 A 
ATOM     53  C   UNL A   1      40.941  33.149  31.006  1.00  0.00     0.074 A 
ATOM     54  C   UNL A   1      41.036  31.035  32.285  1.00  0.00     0.049 A 
ATOM     55  N   UNL A   1      42.176  33.259  30.593  1.00  0.00    -0.248 NA
ATOM     56  C   UNL A   1      40.072  34.270  30.609  1.00  0.00     0.031 C 
ATOM     57  C   UNL A   1      40.541  29.943  33.120  1.00  0.00     0.029 A 
ATOM     58  N   UNL A   1      42.369  30.752  32.114  1.00  0.00    -0.354 N 
ATOM     59  C   UNL A   1      42.231  34.451  29.882  1.00  0.00     0.074 A 
ATOM     60  C   UNL A   1      40.898  35.012  29.890  1.00  0.00     0.031 C 
ATOM     61  C   UNL A   1      41.556  29.100  33.381  1.00  0.00     0.029 A 
ATOM     62  C   UNL A   1      42.761  29.572  32.698  1.00  0.00     0.049 A 
ATOM     63  H   UNL A   1      42.985  31.340  31.620  1.00  0.00     0.167 HD
ATOM     64  C   UNL A   1      43.296  35.033  29.280  1.00  0.00     0.031 A 
ATOM     65  C   UNL A   1      43.949  28.932  32.664  1.00  0.00     0.031 A 
ATOM     66  C   UNL A   1      44.616  34.461  29.257  1.00  0.00     0.049 A 
ATOM     67  C   UNL A   1      45.101  29.553  31.914  1.00  0.00     0.074 A 
ATOM     68  C   UNL A   1      45.764  34.973  28.678  1.00  0.00     0.029 A 
ATOM     69  N   UNL A   1      44.963  33.246  29.829  1.00  0.00    -0.354 N 
ATOM     70  N   UNL A   1      45.142  30.691  31.260  1.00  0.00    -0.248 NA
ATOM     71  C   UNL A   1      46.368  28.808  31.904  1.00  0.00     0.031 C 
ATOM     72  C   UNL A   1      46.789  34.035  28.842  1.00  0.00     0.029 A 
ATOM     73  C   UNL A   1      46.300  32.976  29.591  1.00  0.00     0.049 A 
ATOM     74  H   UNL A   1      44.350  32.662  30.329  1.00  0.00     0.167 HD
ATOM     75  C   UNL A   1      46.448  30.811  30.790  1.00  0.00     0.074 A 
ATOM     76  C   UNL A   1      47.165  29.638  31.246  1.00  0.00     0.031 C 
ATOM     77  C   UNL A   1      47.003  31.804  30.051  1.00  0.00     0.031 A 
BRANCH  64  78
ATOM     78  C   UNL A   1      43.063  36.337  28.562  1.00  0.00    -0.014 A 
ATOM     79  C   UNL A   1      42.570  36.370  27.244  1.00  0.00     0.010 A 
ATOM     80  C   UNL A   1      43.312  37.551  29.229  1.00  0.00     0.010 A 
ATOM     81  C   UNL A   1      42.372  37.591  26.593  1.00  0.00     0.020 A 
ATOM     82  C   UNL A   1      43.083  38.774  28.593  1.00  0.00     0.020 A 
ATOM     83  C   UNL A   1      42.630  38.786  27.272  1.00  0.00     0.054 A 
BRANCH  83  84
ATOM     84  S   UNL A   1      42.343  40.354  26.409  1.00  0.00     0.124 S 
ATOM     85  O   UNL A   1      43.476  40.405  25.489  1.00  0.00    -0.237 OA
ATOM     86  O   UNL A   1      41.039  40.141  25.787  1.00  0.00    -0.237 OA
ATOM     87  O   UNL A   1      42.365  41.349  27.478  1.00  0.00    -0.744 OA
ENDBRANCH  83  84
ENDBRANCH  64  78
BRANCH  65  88
ATOM     88  C   UNL A   1      44.103  27.612  33.339  1.00  0.00    -0.014 A 
ATOM     89  C   UNL A   1      44.311  27.530  34.727  1.00  0.00     0.010 A 
ATOM     90  C   UNL A   1      44.043  26.423  32.588  1.00  0.00     0.010 A 
ATOM     91  C   UNL A   1      44.472  26.286  35.347  1.00  0.00     0.020 A 
ATOM     92  C   UNL A   1      44.172  25.178  33.208  1.00  0.00     0.020 A 
ATOM     93  C   UNL A   1      44.395  25.118  34.584  1.00  0.00     0.054 A 
BRANCH  93  94
ATOM     94  S   UNL A   1      44.549  23.514  35.420  1.00  0.00     0.124 S 
ATOM     95  O   UNL A   1      45.886  23.090  35.020  1.00  0.00    -0.237 OA
ATOM     96  O   UNL A   1      44.394  23.879  36.826  1.00  0.00    -0.237 OA
ATOM     97  O   UNL A   1      43.449  22.730  34.863  1.00  0.00    -0.744 OA
ENDBRANCH  93  94
ENDBRANCH  65  88
BRANCH  77  98
ATOM     98  C   UNL A   1      48.471  31.695  29.721  1.00  0.00    -0.014 A 
ATOM     99  C   UNL A   1      48.912  31.256  28.461  1.00  0.00     0.010 A 
ATOM    100  C   UNL A   1      49.424  32.104  30.673  1.00  0.00     0.010 A 
ATOM    101  C   UNL A   1      50.278  31.194  28.171  1.00  0.00     0.020 A 
ATOM    102  C   UNL A   1      50.789  32.075  30.377  1.00  0.00     0.020 A 
ATOM    103  C   UNL A   1      51.209  31.606  29.131  1.00  0.00     0.054 A 
BRANCH 103 104
ATOM    104  S   UNL A   1      52.973  31.557  28.713  1.00  0.00     0.124 S 
ATOM    105  O   UNL A   1      53.223  32.931  28.286  1.00  0.00    -0.237 OA
ATOM    106  O   UNL A   1      53.591  31.169  29.978  1.00  0.00    -0.237 OA
ATOM    107  O   UNL A   1      53.051  30.552  27.654  1.00  0.00    -0.744 OA
ENDBRANCH 103 104
ENDBRANCH  77  98
ENDBRANCH  51  52
ENDBRANCH  44  46
ENDBRANCH  43  44
ENDBRANCH  42  43
ENDBRANCH  41  42
ENDBRANCH  40  41
ENDBRANCH  39  40
ENDBRANCH  38  39
ENDBRANCH  37  38
ENDBRANCH  36  37
ENDBRANCH   1  36
TORSDOF 30
ENDMDL
MODEL 3
REMARK VINA RESULT:      -7.8      5.893      9.182
REMARK SMILES C[C@@H](C(=O)OCCOCCOCCOCCOC(=O)c1ccc(-c2c3nc(c(-c4ccc(S(=O)(=O)[O-])cc4)c4ccc([nH]4)c(-c4ccc(S(=O)(=O)[O-])cc4)c4nc(c(-c5ccc(S(=O)(=O)[O-])cc5)c5ccc2[nH]5)C=C4)C=C3)cc1)c1ccc(-c2cccc(OC(=O)NCCC3CCCCC3)c2)c(F)c1
REMARK SMILES IDX 9 1 8 2 7 3 6 4 5 5 3 6 4 7 2 8 1 9 80 10 81 11 104 12 82 13
REMARK SMILES IDX 102 14 83 15 103 16 84 17 85 18 101 19 86 20 88 21 87 22
REMARK SMILES IDX 89 23 90 24 91 25 92 26 93 28 94 29 95 30 96 31 100 32 97 33
REMARK SMILES IDX 99 34 98 35 10 36 11 37 12 38 13 39 14 40 15 41 16 42 17 43
REMARK SMILES IDX 18 44 19 45 20 46 21 47 79 48 22 49 78 50 23 51 24 52 25 53
REMARK SMILES IDX 72 54 26 55 77 56 71 57 73 58 27 59 76 60 70 61 69 62 28 64
REMARK SMILES IDX 58 65 39 66 57 67 40 68 43 69 56 70 74 71 41 72 42 73 55 75
REMARK SMILES IDX 75 76 44 77 29 78 30 79 38 80 31 81 37 82 32 83 33 84 34 85
REMARK SMILES IDX 35 86 36 87 59 88 60 89 68 90 61 91 67 92 62 93 63 94 64 95
REMARK SMILES IDX 65 96 66 97 45 98 46 99 54 100 47 101 53 102 48 103 49 104
REMARK SMILES IDX 50 105 51 106 52 107
REMARK H PARENT 92 27 73 63 43 74
REMARK Flexibility Score: inf
ROOT
ATOM      1  C   UNL A   1      35.427  30.554  28.130  1.00  0.00     0.188 C 
ENDROOT
BRANCH   1   2
ATOM      2  O   UNL A   1      35.295  29.443  27.265  1.00  0.00    -0.376 OA
BRANCH   2   3
ATOM      3  C   UNL A   1      34.027  29.040  26.769  1.00  0.00     0.202 C 
BRANCH   3   4
ATOM      4  C   UNL A   1      33.163  29.841  25.771  1.00  0.00     0.261 C 
BRANCH   4   5
ATOM      5  O   UNL A   1      33.037  29.314  24.443  1.00  0.00    -0.463 OA
BRANCH   5   6
ATOM      6  C   UNL A   1      31.896  28.648  24.152  1.00  0.00     0.313 C 
ATOM      7  O   UNL A   1      30.805  28.912  24.651  1.00  0.00    -0.252 OA
BRANCH   6   8
ATOM      8  C   UNL A   1      32.071  27.572  23.060  1.00  0.00     0.126 C 
ATOM      9  C   UNL A   1      30.801  27.260  22.253  1.00  0.00     0.025 C 
BRANCH   8  10
ATOM     10  C   UNL A   1      32.898  26.380  23.564  1.00  0.00    -0.031 A 
ATOM     11  C   UNL A   1      33.380  26.222  24.875  1.00  0.00     0.005 A 
ATOM     12  C   UNL A   1      33.207  25.365  22.645  1.00  0.00     0.044 A 
ATOM     13  C   UNL A   1      34.160  25.103  25.235  1.00  0.00     0.012 A 
ATOM     14  C   UNL A   1      33.979  24.263  23.007  1.00  0.00     0.131 A 
ATOM     15  C   UNL A   1      34.476  24.103  24.303  1.00  0.00     0.018 A 
ATOM     16  F   UNL A   1      34.232  23.341  22.066  1.00  0.00    -0.206 F 
BRANCH  15  17
ATOM     17  C   UNL A   1      35.303  22.934  24.646  1.00  0.00    -0.012 A 
ATOM     18  C   UNL A   1      34.758  21.645  24.737  1.00  0.00     0.009 A 
ATOM     19  C   UNL A   1      36.690  23.085  24.837  1.00  0.00     0.056 A 
ATOM     20  C   UNL A   1      35.576  20.537  24.990  1.00  0.00     0.004 A 
ATOM     21  C   UNL A   1      37.504  21.986  25.108  1.00  0.00     0.133 A 
ATOM     22  C   UNL A   1      36.950  20.707  25.171  1.00  0.00     0.047 A 
BRANCH  21  23
ATOM     23  O   UNL A   1      38.905  22.058  25.317  1.00  0.00    -0.410 OA
BRANCH  23  24
ATOM     24  C   UNL A   1      39.546  21.740  26.511  1.00  0.00     0.412 C 
ATOM     25  O   UNL A   1      39.982  20.639  26.839  1.00  0.00    -0.224 OA
ATOM     26  N   UNL A   1      39.711  22.794  27.358  1.00  0.00    -0.321 N 
ATOM     27  H   UNL A   1      40.184  22.598  28.199  1.00  0.00     0.167 HD
BRANCH  26  28
ATOM     28  C   UNL A   1      39.281  24.165  27.186  1.00  0.00     0.119 C 
BRANCH  28  29
ATOM     29  C   UNL A   1      40.263  25.143  27.836  1.00  0.00     0.025 C 
BRANCH  29  30
ATOM     30  C   UNL A   1      39.713  26.572  28.042  1.00  0.00    -0.009 C 
ATOM     31  C   UNL A   1      39.866  27.048  29.497  1.00  0.00     0.003 C 
ATOM     32  C   UNL A   1      40.410  27.546  27.077  1.00  0.00     0.003 C 
ATOM     33  C   UNL A   1      39.404  28.493  29.682  1.00  0.00     0.000 C 
ATOM     34  C   UNL A   1      39.922  28.980  27.268  1.00  0.00     0.000 C 
ATOM     35  C   UNL A   1      40.099  29.440  28.710  1.00  0.00     0.000 C 
ENDBRANCH  29  30
ENDBRANCH  28  29
ENDBRANCH  26  28
ENDBRANCH  23  24
ENDBRANCH  21  23
ENDBRANCH  15  17
ENDBRANCH   8  10
ENDBRANCH   6   8
ENDBRANCH   5   6
ENDBRANCH   4   5
ENDBRANCH   3   4
ENDBRANCH   2   3
ENDBRANCH   1   2
BRANCH   1  36
ATOM     36  C   UNL A   1      36.564  30.565  29.165  1.00  0.00     0.188 C 
BRANCH  36  37
ATOM     37  O   UNL A   1      36.742  31.779  29.863  1.00  0.00    -0.377 OA
BRANCH  37  38
ATOM     38  C   UNL A   1      35.778  32.808  29.690  1.00  0.00     0.188 C 
BRANCH  38  39
ATOM     39  C   UNL A   1      34.646  32.994  30.721  1.00  0.00     0.188 C 
BRANCH  39  40
ATOM     40  O   UNL A   1      34.939  32.510  32.025  1.00  0.00    -0.376 OA
BRANCH  40  41
ATOM     41  C   UNL A   1      35.873  33.221  32.822  1.00  0.00     0.202 C 
BRANCH  41  42
ATOM     42  C   UNL A   1      37.256  32.585  33.043  1.00  0.00     0.261 C 
BRANCH  42  43
ATOM     43  O   UNL A   1      38.386  33.466  32.967  1.00  0.00    -0.460 OA
BRANCH  43  44
ATOM     44  C   UNL A   1      39.209  33.527  34.037  1.00  0.00     0.338 C 
ATOM     45  O   UNL A   1      38.984  34.063  35.105  1.00  0.00    -0.246 OA
BRANCH  44  46
ATOM     46  C   UNL A   1      40.369  32.650  33.762  1.00  0.00     0.060 A 
ATOM     47  C   UNL A   1      40.161  31.270  33.647  1.00  0.00     0.016 A 
ATOM     48  C   UNL A   1      41.650  33.188  33.615  1.00  0.00     0.016 A 
ATOM     49  C   UNL A   1      41.242  30.416  33.426  1.00  0.00     0.010 A 
ATOM     50  C   UNL A   1      42.735  32.330  33.416  1.00  0.00     0.010 A 
ATOM     51  C   UNL A   1      42.541  30.938  33.358  1.00  0.00    -0.014 A 
BRANCH  51  52
ATOM     52  C   UNL A   1      43.706  30.023  33.440  1.00  0.00     0.031 A 
ATOM     53  C   UNL A   1      44.222  29.648  34.804  1.00  0.00     0.074 A 
ATOM     54  C   UNL A   1      44.283  29.515  32.335  1.00  0.00     0.049 A 
ATOM     55  N   UNL A   1      45.251  28.911  35.129  1.00  0.00    -0.248 NA
ATOM     56  C   UNL A   1      43.475  30.180  35.956  1.00  0.00     0.031 C 
ATOM     57  C   UNL A   1      43.846  29.759  30.962  1.00  0.00     0.029 A 
ATOM     58  N   UNL A   1      45.372  28.690  32.201  1.00  0.00    -0.354 N 
ATOM     59  C   UNL A   1      45.281  28.898  36.518  1.00  0.00     0.074 A 
ATOM     60  C   UNL A   1      44.188  29.728  36.974  1.00  0.00     0.031 C 
ATOM     61  C   UNL A   1      44.669  29.107  30.121  1.00  0.00     0.029 A 
ATOM     62  C   UNL A   1      45.712  28.432  30.895  1.00  0.00     0.049 A 
ATOM     63  H   UNL A   1      45.864  28.318  32.969  1.00  0.00     0.167 HD
ATOM     64  C   UNL A   1      46.137  28.249  37.343  1.00  0.00     0.031 A 
ATOM     65  C   UNL A   1      46.758  27.752  30.382  1.00  0.00     0.031 A 
ATOM     66  C   UNL A   1      47.235  27.441  36.885  1.00  0.00     0.049 A 
ATOM     67  C   UNL A   1      47.751  27.109  31.317  1.00  0.00     0.074 A 
ATOM     68  C   UNL A   1      48.158  26.737  37.640  1.00  0.00     0.029 A 
ATOM     69  N   UNL A   1      47.567  27.235  35.554  1.00  0.00    -0.354 N 
ATOM     70  N   UNL A   1      47.757  27.091  32.629  1.00  0.00    -0.248 NA
ATOM     71  C   UNL A   1      48.875  26.388  30.701  1.00  0.00     0.031 C 
ATOM     72  C   UNL A   1      49.087  26.162  36.766  1.00  0.00     0.029 A 
ATOM     73  C   UNL A   1      48.698  26.441  35.466  1.00  0.00     0.049 A 
ATOM     74  H   UNL A   1      47.072  27.600  34.786  1.00  0.00     0.167 HD
ATOM     75  C   UNL A   1      48.864  26.330  32.994  1.00  0.00     0.074 A 
ATOM     76  C   UNL A   1      49.495  25.896  31.764  1.00  0.00     0.031 C 
ATOM     77  C   UNL A   1      49.316  26.015  34.234  1.00  0.00     0.031 A 
BRANCH  64  78
ATOM     78  C   UNL A   1      45.940  28.423  38.827  1.00  0.00    -0.014 A 
ATOM     79  C   UNL A   1      45.385  27.400  39.617  1.00  0.00     0.010 A 
ATOM     80  C   UNL A   1      46.345  29.621  39.446  1.00  0.00     0.010 A 
ATOM     81  C   UNL A   1      45.200  27.588  40.990  1.00  0.00     0.020 A 
ATOM     82  C   UNL A   1      46.193  29.799  40.823  1.00  0.00     0.020 A 
ATOM     83  C   UNL A   1      45.605  28.787  41.584  1.00  0.00     0.054 A 
BRANCH  83  84
ATOM     84  S   UNL A   1      45.373  28.993  43.370  1.00  0.00     0.124 S 
ATOM     85  O   UNL A   1      46.561  29.757  43.743  1.00  0.00    -0.237 OA
ATOM     86  O   UNL A   1      44.109  29.722  43.446  1.00  0.00    -0.237 OA
ATOM     87  O   UNL A   1      45.330  27.623  43.876  1.00  0.00    -0.744 OA
ENDBRANCH  83  84
ENDBRANCH  64  78
BRANCH  65  88
ATOM     88  C   UNL A   1      46.938  27.667  28.904  1.00  0.00    -0.014 A 
ATOM     89  C   UNL A   1      46.256  26.698  28.148  1.00  0.00     0.010 A 
ATOM     90  C   UNL A   1      47.801  28.563  28.245  1.00  0.00     0.010 A 
ATOM     91  C   UNL A   1      46.446  26.617  26.763  1.00  0.00     0.020 A 
ATOM     92  C   UNL A   1      47.969  28.505  26.859  1.00  0.00     0.020 A 
ATOM     93  C   UNL A   1      47.297  27.525  26.128  1.00  0.00     0.054 A 
BRANCH  93  94
ATOM     94  S   UNL A   1      47.482  27.436  24.325  1.00  0.00     0.124 S 
ATOM     95  O   UNL A   1      46.999  26.091  24.035  1.00  0.00    -0.237 OA
ATOM     96  O   UNL A   1      46.626  28.529  23.869  1.00  0.00    -0.237 OA
ATOM     97  O   UNL A   1      48.913  27.648  24.116  1.00  0.00    -0.744 OA
ENDBRANCH  93  94
ENDBRANCH  65  88
BRANCH  77  98
ATOM     98  C   UNL A   1      50.529  25.124  34.333  1.00  0.00    -0.014 A 
ATOM     99  C   UNL A   1      50.415  23.723  34.355  1.00  0.00     0.010 A 
ATOM    100  C   UNL A   1      51.812  25.704  34.341  1.00  0.00     0.010 A 
ATOM    101  C   UNL A   1      51.558  22.921  34.416  1.00  0.00     0.020 A 
ATOM    102  C   UNL A   1      52.958  24.905  34.369  1.00  0.00     0.020 A 
ATOM    103  C   UNL A   1      52.823  23.517  34.421  1.00  0.00     0.054 A 
BRANCH 103 104
ATOM    104  S   UNL A   1      54.289  22.451  34.456  1.00  0.00     0.124 S 
ATOM    105  O   UNL A   1      53.751  21.209  35.005  1.00  0.00    -0.237 OA
ATOM    106  O   UNL A   1      54.682  22.399  33.050  1.00  0.00    -0.237 OA
ATOM    107  O   UNL A   1      55.218  23.166  35.330  1.00  0.00    -0.744 OA
ENDBRANCH 103 104
ENDBRANCH  77  98
ENDBRANCH  51  52
ENDBRANCH  44  46
ENDBRANCH  43  44
ENDBRANCH  42  43
ENDBRANCH  41  42
ENDBRANCH  40  41
ENDBRANCH  39  40
ENDBRANCH  38  39
ENDBRANCH  37  38
ENDBRANCH  36  37
ENDBRANCH   1  36
TORSDOF 30
ENDMDL
