MODEL 1
REMARK VINA RESULT:      -9.1      0.000      0.000
REMARK SMILES O=C(CSc1ccc2ccccc2c1)OCCOCCOCCOCCOC(=O)c1ccc(-c2c3nc(c(-c4ccc(S(=O)(=O)[O-])cc4)c4ccc([nH]4)c(-c4ccc(S(=O)(=O)[O-])cc4)c4nc(c(-c5ccc(S(=O)(=O)[O-])cc5)c5ccc2[nH]5)C=C4)C=C3)cc1
REMARK SMILES IDX 22 1 21 2 20 3 19 4 18 5 17 6 16 7 15 8 2 9 1 10 3 11 4 12
REMARK SMILES IDX 5 13 6 14 14 15 7 16 13 17 8 18 12 19 9 20 11 21 10 22 23 23
REMARK SMILES IDX 24 24 25 25 26 26 27 27 28 28 29 29 30 30 31 31 89 32 32 33
REMARK SMILES IDX 88 34 33 35 34 36 35 37 82 38 36 39 87 40 81 41 83 42 37 43
REMARK SMILES IDX 86 44 80 45 79 46 38 48 68 49 49 50 67 51 50 52 53 53 66 54
REMARK SMILES IDX 84 55 51 56 52 57 65 59 85 60 54 61 39 62 40 63 48 64 41 65
REMARK SMILES IDX 47 66 42 67 43 68 44 69 45 70 46 71 69 72 70 73 78 74 71 75
REMARK SMILES IDX 77 76 72 77 73 78 74 79 75 80 76 81 55 82 56 83 64 84 57 85
REMARK SMILES IDX 63 86 58 87 59 88 60 89 61 90 62 91
REMARK H PARENT 83 47 53 58
REMARK Flexibility Score: inf
ROOT
ATOM      1  C   UNL A   1      37.042  21.810  24.261  1.00  0.00     0.188 C 
ENDROOT
BRANCH   1   2
ATOM      2  O   UNL A   1      35.760  22.068  24.808  1.00  0.00    -0.377 OA
BRANCH   2   3
ATOM      3  C   UNL A   1      34.811  21.024  24.646  1.00  0.00     0.188 C 
BRANCH   3   4
ATOM      4  C   UNL A   1      34.100  20.502  25.902  1.00  0.00     0.188 C 
BRANCH   4   5
ATOM      5  O   UNL A   1      34.150  21.261  27.096  1.00  0.00    -0.376 OA
BRANCH   5   6
ATOM      6  C   UNL A   1      33.222  22.214  27.571  1.00  0.00     0.202 C 
BRANCH   6   7
ATOM      7  C   UNL A   1      32.595  23.272  26.675  1.00  0.00     0.261 C 
BRANCH   7   8
ATOM      8  O   UNL A   1      31.508  22.862  25.832  1.00  0.00    -0.463 OA
BRANCH   8   9
ATOM      9  C   UNL A   1      31.407  22.954  24.492  1.00  0.00     0.316 C 
ATOM     10  O   UNL A   1      32.005  22.123  23.806  1.00  0.00    -0.251 OA
BRANCH   9  11
ATOM     11  C   UNL A   1      30.667  24.099  23.837  1.00  0.00     0.197 C 
BRANCH  11  12
ATOM     12  S   UNL A   1      31.591  24.972  22.533  1.00  0.00    -0.114 SA
BRANCH  12  13
ATOM     13  C   UNL A   1      31.936  26.460  23.424  1.00  0.00     0.008 A 
ATOM     14  C   UNL A   1      32.066  27.654  22.724  1.00  0.00     0.016 A 
ATOM     15  C   UNL A   1      31.959  26.458  24.818  1.00  0.00     0.023 A 
ATOM     16  C   UNL A   1      32.163  28.856  23.424  1.00  0.00     0.010 A 
ATOM     17  C   UNL A   1      31.941  27.654  25.526  1.00  0.00    -0.017 A 
ATOM     18  C   UNL A   1      32.070  28.872  24.825  1.00  0.00    -0.018 A 
ATOM     19  C   UNL A   1      31.757  27.650  26.915  1.00  0.00     0.009 A 
ATOM     20  C   UNL A   1      32.077  30.066  25.555  1.00  0.00     0.009 A 
ATOM     21  C   UNL A   1      31.726  28.849  27.619  1.00  0.00     0.001 A 
ATOM     22  C   UNL A   1      31.907  30.053  26.942  1.00  0.00     0.001 A 
ENDBRANCH  12  13
ENDBRANCH  11  12
ENDBRANCH   9  11
ENDBRANCH   8   9
ENDBRANCH   7   8
ENDBRANCH   6   7
ENDBRANCH   5   6
ENDBRANCH   4   5
ENDBRANCH   3   4
ENDBRANCH   2   3
ENDBRANCH   1   2
BRANCH   1  23
ATOM     23  C   UNL A   1      37.988  21.090  25.240  1.00  0.00     0.188 C 
BRANCH  23  24
ATOM     24  O   UNL A   1      38.565  21.850  26.283  1.00  0.00    -0.376 OA
BRANCH  24  25
ATOM     25  C   UNL A   1      39.894  22.336  26.233  1.00  0.00     0.202 C 
BRANCH  25  26
ATOM     26  C   UNL A   1      40.443  23.653  26.822  1.00  0.00     0.261 C 
BRANCH  26  27
ATOM     27  O   UNL A   1      39.741  24.869  26.584  1.00  0.00    -0.460 OA
BRANCH  27  28
ATOM     28  C   UNL A   1      40.490  25.985  26.504  1.00  0.00     0.338 C 
ATOM     29  O   UNL A   1      41.167  26.350  25.556  1.00  0.00    -0.246 OA
BRANCH  28  30
ATOM     30  C   UNL A   1      40.155  26.826  27.673  1.00  0.00     0.060 A 
ATOM     31  C   UNL A   1      40.714  28.108  27.735  1.00  0.00     0.016 A 
ATOM     32  C   UNL A   1      39.278  26.383  28.668  1.00  0.00     0.016 A 
ATOM     33  C   UNL A   1      40.438  28.935  28.815  1.00  0.00     0.010 A 
ATOM     34  C   UNL A   1      39.033  27.200  29.776  1.00  0.00     0.010 A 
ATOM     35  C   UNL A   1      39.649  28.460  29.870  1.00  0.00    -0.014 A 
BRANCH  35  36
ATOM     36  C   UNL A   1      39.697  29.202  31.150  1.00  0.00     0.031 A 
ATOM     37  C   UNL A   1      40.838  28.914  32.087  1.00  0.00     0.074 A 
ATOM     38  C   UNL A   1      38.823  30.188  31.413  1.00  0.00     0.049 A 
ATOM     39  N   UNL A   1      41.146  29.491  33.219  1.00  0.00    -0.248 NA
ATOM     40  C   UNL A   1      41.762  27.837  31.690  1.00  0.00     0.031 C 
ATOM     41  C   UNL A   1      37.711  30.589  30.551  1.00  0.00     0.029 A 
ATOM     42  N   UNL A   1      38.749  31.045  32.480  1.00  0.00    -0.354 N 
ATOM     43  C   UNL A   1      42.301  28.857  33.661  1.00  0.00     0.074 A 
ATOM     44  C   UNL A   1      42.614  27.821  32.703  1.00  0.00     0.031 C 
ATOM     45  C   UNL A   1      37.063  31.615  31.128  1.00  0.00     0.029 A 
ATOM     46  C   UNL A   1      37.698  31.927  32.408  1.00  0.00     0.049 A 
ATOM     47  H   UNL A   1      39.389  31.030  33.229  1.00  0.00     0.167 HD
ATOM     48  C   UNL A   1      43.045  29.123  34.761  1.00  0.00     0.031 A 
ATOM     49  C   UNL A   1      37.290  32.867  33.282  1.00  0.00     0.031 A 
ATOM     50  C   UNL A   1      42.714  30.140  35.724  1.00  0.00     0.049 A 
ATOM     51  C   UNL A   1      38.088  33.089  34.542  1.00  0.00     0.074 A 
ATOM     52  C   UNL A   1      43.391  30.481  36.881  1.00  0.00     0.029 A 
ATOM     53  N   UNL A   1      41.609  30.974  35.646  1.00  0.00    -0.354 N 
ATOM     54  N   UNL A   1      39.187  32.491  34.941  1.00  0.00    -0.248 NA
ATOM     55  C   UNL A   1      37.602  34.129  35.458  1.00  0.00     0.031 C 
ATOM     56  C   UNL A   1      42.662  31.481  37.533  1.00  0.00     0.029 A 
ATOM     57  C   UNL A   1      41.571  31.815  36.745  1.00  0.00     0.049 A 
ATOM     58  H   UNL A   1      40.948  30.970  34.915  1.00  0.00     0.167 HD
ATOM     59  C   UNL A   1      39.534  33.097  36.145  1.00  0.00     0.074 A 
ATOM     60  C   UNL A   1      38.546  34.129  36.388  1.00  0.00     0.031 C 
ATOM     61  C   UNL A   1      40.571  32.825  36.979  1.00  0.00     0.031 A 
BRANCH  48  62
ATOM     62  C   UNL A   1      44.273  28.283  34.989  1.00  0.00    -0.014 A 
ATOM     63  C   UNL A   1      45.519  28.648  34.444  1.00  0.00     0.010 A 
ATOM     64  C   UNL A   1      44.191  27.131  35.792  1.00  0.00     0.010 A 
ATOM     65  C   UNL A   1      46.651  27.864  34.676  1.00  0.00     0.020 A 
ATOM     66  C   UNL A   1      45.328  26.361  36.052  1.00  0.00     0.020 A 
ATOM     67  C   UNL A   1      46.549  26.727  35.482  1.00  0.00     0.054 A 
BRANCH  67  68
ATOM     68  S   UNL A   1      48.046  25.753  35.803  1.00  0.00     0.124 S 
ATOM     69  O   UNL A   1      47.536  24.386  35.739  1.00  0.00    -0.237 OA
ATOM     70  O   UNL A   1      48.924  26.148  34.705  1.00  0.00    -0.237 OA
ATOM     71  O   UNL A   1      48.472  26.197  37.127  1.00  0.00    -0.744 OA
ENDBRANCH  67  68
ENDBRANCH  48  62
BRANCH  49  72
ATOM     72  C   UNL A   1      36.047  33.644  33.017  1.00  0.00    -0.014 A 
ATOM     73  C   UNL A   1      36.088  34.899  32.385  1.00  0.00     0.010 A 
ATOM     74  C   UNL A   1      34.802  33.126  33.421  1.00  0.00     0.010 A 
ATOM     75  C   UNL A   1      34.913  35.631  32.186  1.00  0.00     0.020 A 
ATOM     76  C   UNL A   1      33.622  33.837  33.193  1.00  0.00     0.020 A 
ATOM     77  C   UNL A   1      33.686  35.094  32.589  1.00  0.00     0.054 A 
BRANCH  77  78
ATOM     78  S   UNL A   1      32.170  36.042  32.284  1.00  0.00     0.124 S 
ATOM     79  O   UNL A   1      32.303  37.142  33.231  1.00  0.00    -0.237 OA
ATOM     80  O   UNL A   1      32.302  36.397  30.873  1.00  0.00    -0.237 OA
ATOM     81  O   UNL A   1      31.104  35.085  32.579  1.00  0.00    -0.744 OA
ENDBRANCH  77  78
ENDBRANCH  49  72
BRANCH  61  82
ATOM     82  C   UNL A   1      40.700  33.678  38.216  1.00  0.00    -0.014 A 
ATOM     83  C   UNL A   1      41.336  34.933  38.178  1.00  0.00     0.010 A 
ATOM     84  C   UNL A   1      40.164  33.222  39.434  1.00  0.00     0.010 A 
ATOM     85  C   UNL A   1      41.492  35.683  39.347  1.00  0.00     0.020 A 
ATOM     86  C   UNL A   1      40.284  33.986  40.597  1.00  0.00     0.020 A 
ATOM     87  C   UNL A   1      40.971  35.201  40.551  1.00  0.00     0.054 A 
BRANCH  87  88
ATOM     88  S   UNL A   1      41.192  36.189  42.055  1.00  0.00     0.124 S 
ATOM     89  O   UNL A   1      42.321  35.519  42.695  1.00  0.00    -0.237 OA
ATOM     90  O   UNL A   1      41.470  37.521  41.524  1.00  0.00    -0.237 OA
ATOM     91  O   UNL A   1      39.913  36.055  42.749  1.00  0.00    -0.744 OA
ENDBRANCH  87  88
ENDBRANCH  61  82
ENDBRANCH  35  36
ENDBRANCH  28  30
ENDBRANCH  27  28
ENDBRANCH  26  27
ENDBRANCH  25  26
ENDBRANCH  24  25
ENDBRANCH  23  24
ENDBRANCH   1  23
TORSDOF 25
ENDMDL
MODEL 2
REMARK VINA RESULT:      -8.9      1.576      8.470
REMARK SMILES O=C(CSc1ccc2ccccc2c1)OCCOCCOCCOCCOC(=O)c1ccc(-c2c3nc(c(-c4ccc(S(=O)(=O)[O-])cc4)c4ccc([nH]4)c(-c4ccc(S(=O)(=O)[O-])cc4)c4nc(c(-c5ccc(S(=O)(=O)[O-])cc5)c5ccc2[nH]5)C=C4)C=C3)cc1
REMARK SMILES IDX 22 1 21 2 20 3 19 4 18 5 17 6 16 7 15 8 2 9 1 10 3 11 4 12
REMARK SMILES IDX 5 13 6 14 14 15 7 16 13 17 8 18 12 19 9 20 11 21 10 22 23 23
REMARK SMILES IDX 24 24 25 25 26 26 27 27 28 28 29 29 30 30 31 31 89 32 32 33
REMARK SMILES IDX 88 34 33 35 34 36 35 37 82 38 36 39 87 40 81 41 83 42 37 43
REMARK SMILES IDX 86 44 80 45 79 46 38 48 68 49 49 50 67 51 50 52 53 53 66 54
REMARK SMILES IDX 84 55 51 56 52 57 65 59 85 60 54 61 39 62 40 63 48 64 41 65
REMARK SMILES IDX 47 66 42 67 43 68 44 69 45 70 46 71 69 72 70 73 78 74 71 75
REMARK SMILES IDX 77 76 72 77 73 78 74 79 75 80 76 81 55 82 56 83 64 84 57 85
REMARK SMILES IDX 63 86 58 87 59 88 60 89 61 90 62 91
REMARK H PARENT 83 47 53 58
REMARK Flexibility Score: inf
ROOT
ATOM      1  C   UNL A   1      36.201  22.792  23.430  1.00  0.00     0.188 C 
ENDROOT
BRANCH   1   2
ATOM      2  O   UNL A   1      34.877  23.155  23.782  1.00  0.00    -0.377 OA
BRANCH   2   3
ATOM      3  C   UNL A   1      34.393  24.343  23.173  1.00  0.00     0.188 C 
BRANCH   3   4
ATOM      4  C   UNL A   1      33.088  24.255  22.371  1.00  0.00     0.188 C 
BRANCH   4   5
ATOM      5  O   UNL A   1      32.049  25.180  22.630  1.00  0.00    -0.376 OA
BRANCH   5   6
ATOM      6  C   UNL A   1      31.546  26.196  21.787  1.00  0.00     0.202 C 
BRANCH   6   7
ATOM      7  C   UNL A   1      30.884  27.458  22.321  1.00  0.00     0.261 C 
BRANCH   7   8
ATOM      8  O   UNL A   1      31.704  28.631  22.440  1.00  0.00    -0.463 OA
BRANCH   8   9
ATOM      9  C   UNL A   1      32.925  28.746  22.995  1.00  0.00     0.316 C 
ATOM     10  O   UNL A   1      33.880  28.230  22.410  1.00  0.00    -0.251 OA
BRANCH   9  11
ATOM     11  C   UNL A   1      33.116  29.398  24.347  1.00  0.00     0.197 C 
BRANCH  11  12
ATOM     12  S   UNL A   1      31.823  29.027  25.574  1.00  0.00    -0.114 SA
BRANCH  12  13
ATOM     13  C   UNL A   1      32.096  27.286  25.707  1.00  0.00     0.008 A 
ATOM     14  C   UNL A   1      33.395  26.812  25.849  1.00  0.00     0.016 A 
ATOM     15  C   UNL A   1      31.016  26.407  25.790  1.00  0.00     0.023 A 
ATOM     16  C   UNL A   1      33.610  25.463  26.130  1.00  0.00     0.010 A 
ATOM     17  C   UNL A   1      31.208  25.086  26.179  1.00  0.00    -0.017 A 
ATOM     18  C   UNL A   1      32.522  24.597  26.328  1.00  0.00    -0.018 A 
ATOM     19  C   UNL A   1      30.108  24.266  26.460  1.00  0.00     0.009 A 
ATOM     20  C   UNL A   1      32.699  23.258  26.695  1.00  0.00     0.009 A 
ATOM     21  C   UNL A   1      30.303  22.950  26.862  1.00  0.00     0.001 A 
ATOM     22  C   UNL A   1      31.597  22.441  26.959  1.00  0.00     0.001 A 
ENDBRANCH  12  13
ENDBRANCH  11  12
ENDBRANCH   9  11
ENDBRANCH   8   9
ENDBRANCH   7   8
ENDBRANCH   6   7
ENDBRANCH   5   6
ENDBRANCH   4   5
ENDBRANCH   3   4
ENDBRANCH   2   3
ENDBRANCH   1   2
BRANCH   1  23
ATOM     23  C   UNL A   1      36.933  22.014  24.539  1.00  0.00     0.188 C 
BRANCH  23  24
ATOM     24  O   UNL A   1      37.459  22.747  25.627  1.00  0.00    -0.376 OA
BRANCH  24  25
ATOM     25  C   UNL A   1      38.767  22.543  26.130  1.00  0.00     0.202 C 
BRANCH  25  26
ATOM     26  C   UNL A   1      39.591  23.482  27.037  1.00  0.00     0.261 C 
BRANCH  26  27
ATOM     27  O   UNL A   1      39.139  24.816  27.252  1.00  0.00    -0.460 OA
BRANCH  27  28
ATOM     28  C   UNL A   1      40.041  25.793  27.039  1.00  0.00     0.338 C 
ATOM     29  O   UNL A   1      40.669  26.003  26.013  1.00  0.00    -0.246 OA
BRANCH  28  30
ATOM     30  C   UNL A   1      39.958  26.726  28.182  1.00  0.00     0.060 A 
ATOM     31  C   UNL A   1      40.666  27.931  28.093  1.00  0.00     0.016 A 
ATOM     32  C   UNL A   1      39.171  26.444  29.303  1.00  0.00     0.016 A 
ATOM     33  C   UNL A   1      40.627  28.839  29.142  1.00  0.00     0.010 A 
ATOM     34  C   UNL A   1      39.166  27.340  30.377  1.00  0.00     0.010 A 
ATOM     35  C   UNL A   1      39.931  28.518  30.313  1.00  0.00    -0.014 A 
BRANCH  35  36
ATOM     36  C   UNL A   1      40.228  29.311  31.527  1.00  0.00     0.031 A 
ATOM     37  C   UNL A   1      39.259  30.395  31.913  1.00  0.00     0.074 A 
ATOM     38  C   UNL A   1      41.261  28.995  32.327  1.00  0.00     0.049 A 
ATOM     39  N   UNL A   1      39.253  31.162  32.972  1.00  0.00    -0.248 NA
ATOM     40  C   UNL A   1      38.140  30.640  30.986  1.00  0.00     0.031 C 
ATOM     41  C   UNL A   1      42.232  27.930  32.078  1.00  0.00     0.029 A 
ATOM     42  N   UNL A   1      41.651  29.535  33.525  1.00  0.00    -0.354 N 
ATOM     43  C   UNL A   1      38.129  31.969  32.844  1.00  0.00     0.074 A 
ATOM     44  C   UNL A   1      37.502  31.633  31.585  1.00  0.00     0.031 C 
ATOM     45  C   UNL A   1      43.110  27.897  33.095  1.00  0.00     0.029 A 
ATOM     46  C   UNL A   1      42.778  28.952  34.052  1.00  0.00     0.049 A 
ATOM     47  H   UNL A   1      41.170  30.272  33.966  1.00  0.00     0.167 HD
ATOM     48  C   UNL A   1      37.650  32.898  33.705  1.00  0.00     0.031 A 
ATOM     49  C   UNL A   1      43.468  29.247  35.170  1.00  0.00     0.031 A 
ATOM     50  C   UNL A   1      38.292  33.245  34.945  1.00  0.00     0.049 A 
ATOM     51  C   UNL A   1      42.961  30.343  36.074  1.00  0.00     0.074 A 
ATOM     52  C   UNL A   1      37.900  34.182  35.884  1.00  0.00     0.029 A 
ATOM     53  N   UNL A   1      39.464  32.672  35.417  1.00  0.00    -0.354 N 
ATOM     54  N   UNL A   1      41.888  31.089  35.947  1.00  0.00    -0.248 NA
ATOM     55  C   UNL A   1      43.749  30.621  37.282  1.00  0.00     0.031 C 
ATOM     56  C   UNL A   1      38.867  34.218  36.893  1.00  0.00     0.029 A 
ATOM     57  C   UNL A   1      39.823  33.251  36.622  1.00  0.00     0.049 A 
ATOM     58  H   UNL A   1      39.966  31.956  34.962  1.00  0.00     0.167 HD
ATOM     59  C   UNL A   1      41.862  31.911  37.070  1.00  0.00     0.074 A 
ATOM     60  C   UNL A   1      43.008  31.544  37.878  1.00  0.00     0.031 C 
ATOM     61  C   UNL A   1      40.976  32.884  37.404  1.00  0.00     0.031 A 
BRANCH  48  62
ATOM     62  C   UNL A   1      36.386  33.618  33.319  1.00  0.00    -0.014 A 
ATOM     63  C   UNL A   1      36.424  34.806  32.565  1.00  0.00     0.010 A 
ATOM     64  C   UNL A   1      35.137  33.079  33.682  1.00  0.00     0.010 A 
ATOM     65  C   UNL A   1      35.241  35.455  32.205  1.00  0.00     0.020 A 
ATOM     66  C   UNL A   1      33.951  33.709  33.297  1.00  0.00     0.020 A 
ATOM     67  C   UNL A   1      34.011  34.900  32.570  1.00  0.00     0.054 A 
BRANCH  67  68
ATOM     68  S   UNL A   1      32.490  35.741  32.050  1.00  0.00     0.124 S 
ATOM     69  O   UNL A   1      32.706  37.096  32.552  1.00  0.00    -0.237 OA
ATOM     70  O   UNL A   1      32.529  35.597  30.597  1.00  0.00    -0.237 OA
ATOM     71  O   UNL A   1      31.431  34.990  32.719  1.00  0.00    -0.744 OA
ENDBRANCH  67  68
ENDBRANCH  48  62
BRANCH  49  72
ATOM     72  C   UNL A   1      44.731  28.520  35.482  1.00  0.00    -0.014 A 
ATOM     73  C   UNL A   1      45.972  28.965  34.995  1.00  0.00     0.010 A 
ATOM     74  C   UNL A   1      44.686  27.351  36.265  1.00  0.00     0.010 A 
ATOM     75  C   UNL A   1      47.139  28.243  35.264  1.00  0.00     0.020 A 
ATOM     76  C   UNL A   1      45.854  26.645  36.565  1.00  0.00     0.020 A 
ATOM     77  C   UNL A   1      47.072  27.088  36.050  1.00  0.00     0.054 A 
BRANCH  77  78
ATOM     78  S   UNL A   1      48.604  26.189  36.420  1.00  0.00     0.124 S 
ATOM     79  O   UNL A   1      49.359  26.351  35.183  1.00  0.00    -0.237 OA
ATOM     80  O   UNL A   1      49.119  26.914  37.579  1.00  0.00    -0.237 OA
ATOM     81  O   UNL A   1      48.142  24.830  36.701  1.00  0.00    -0.744 OA
ENDBRANCH  77  78
ENDBRANCH  49  72
BRANCH  61  82
ATOM     82  C   UNL A   1      41.200  33.598  38.714  1.00  0.00    -0.014 A 
ATOM     83  C   UNL A   1      40.655  33.111  39.917  1.00  0.00     0.010 A 
ATOM     84  C   UNL A   1      41.981  34.768  38.743  1.00  0.00     0.010 A 
ATOM     85  C   UNL A   1      40.831  33.817  41.110  1.00  0.00     0.020 A 
ATOM     86  C   UNL A   1      42.191  35.456  39.941  1.00  0.00     0.020 A 
ATOM     87  C   UNL A   1      41.593  34.989  41.113  1.00  0.00     0.054 A 
BRANCH  87  88
ATOM     88  S   UNL A   1      41.801  35.890  42.672  1.00  0.00     0.124 S 
ATOM     89  O   UNL A   1      41.652  34.825  43.660  1.00  0.00    -0.237 OA
ATOM     90  O   UNL A   1      43.146  36.445  42.544  1.00  0.00    -0.237 OA
ATOM     91  O   UNL A   1      40.721  36.875  42.651  1.00  0.00    -0.744 OA
ENDBRANCH  87  88
ENDBRANCH  61  82
ENDBRANCH  35  36
ENDBRANCH  28  30
ENDBRANCH  27  28
ENDBRANCH  26  27
ENDBRANCH  25  26
ENDBRANCH  24  25
ENDBRANCH  23  24
ENDBRANCH   1  23
TORSDOF 25
ENDMDL
MODEL 3
REMARK VINA RESULT:      -8.6      6.494     11.816
REMARK SMILES O=C(CSc1ccc2ccccc2c1)OCCOCCOCCOCCOC(=O)c1ccc(-c2c3nc(c(-c4ccc(S(=O)(=O)[O-])cc4)c4ccc([nH]4)c(-c4ccc(S(=O)(=O)[O-])cc4)c4nc(c(-c5ccc(S(=O)(=O)[O-])cc5)c5ccc2[nH]5)C=C4)C=C3)cc1
REMARK SMILES IDX 22 1 21 2 20 3 19 4 18 5 17 6 16 7 15 8 2 9 1 10 3 11 4 12
REMARK SMILES IDX 5 13 6 14 14 15 7 16 13 17 8 18 12 19 9 20 11 21 10 22 23 23
REMARK SMILES IDX 24 24 25 25 26 26 27 27 28 28 29 29 30 30 31 31 89 32 32 33
REMARK SMILES IDX 88 34 33 35 34 36 35 37 82 38 36 39 87 40 81 41 83 42 37 43
REMARK SMILES IDX 86 44 80 45 79 46 38 48 68 49 49 50 67 51 50 52 53 53 66 54
REMARK SMILES IDX 84 55 51 56 52 57 65 59 85 60 54 61 39 62 40 63 48 64 41 65
REMARK SMILES IDX 47 66 42 67 43 68 44 69 45 70 46 71 69 72 70 73 78 74 71 75
REMARK SMILES IDX 77 76 72 77 73 78 74 79 75 80 76 81 55 82 56 83 64 84 57 85
REMARK SMILES IDX 63 86 58 87 59 88 60 89 61 90 62 91
REMARK H PARENT 83 47 53 58
REMARK Flexibility Score: inf
ROOT
ATOM      1  C   UNL A   1      35.769  23.945  25.324  1.00  0.00     0.188 C 
ENDROOT
BRANCH   1   2
ATOM      2  O   UNL A   1      35.413  25.294  25.571  1.00  0.00    -0.377 OA
BRANCH   2   3
ATOM      3  C   UNL A   1      34.025  25.581  25.475  1.00  0.00     0.188 C 
BRANCH   3   4
ATOM      4  C   UNL A   1      33.528  26.911  26.056  1.00  0.00     0.188 C 
BRANCH   4   5
ATOM      5  O   UNL A   1      32.887  27.845  25.207  1.00  0.00    -0.376 OA
BRANCH   5   6
ATOM      6  C   UNL A   1      32.029  27.594  24.114  1.00  0.00     0.202 C 
BRANCH   6   7
ATOM      7  C   UNL A   1      32.542  27.202  22.736  1.00  0.00     0.261 C 
BRANCH   7   8
ATOM      8  O   UNL A   1      32.087  25.952  22.195  1.00  0.00    -0.463 OA
BRANCH   8   9
ATOM      9  C   UNL A   1      31.495  24.928  22.838  1.00  0.00     0.316 C 
ATOM     10  O   UNL A   1      30.367  25.105  23.300  1.00  0.00    -0.251 OA
BRANCH   9  11
ATOM     11  C   UNL A   1      32.227  23.626  23.081  1.00  0.00     0.197 C 
BRANCH  11  12
ATOM     12  S   UNL A   1      31.600  22.634  24.474  1.00  0.00    -0.114 SA
BRANCH  12  13
ATOM     13  C   UNL A   1      32.733  21.283  24.350  1.00  0.00     0.008 A 
ATOM     14  C   UNL A   1      33.965  21.371  24.990  1.00  0.00     0.016 A 
ATOM     15  C   UNL A   1      32.353  20.098  23.720  1.00  0.00     0.023 A 
ATOM     16  C   UNL A   1      34.792  20.250  25.047  1.00  0.00     0.010 A 
ATOM     17  C   UNL A   1      33.115  18.945  23.865  1.00  0.00    -0.017 A 
ATOM     18  C   UNL A   1      34.364  19.022  24.516  1.00  0.00    -0.018 A 
ATOM     19  C   UNL A   1      32.627  17.715  23.407  1.00  0.00     0.009 A 
ATOM     20  C   UNL A   1      35.131  17.857  24.630  1.00  0.00     0.009 A 
ATOM     21  C   UNL A   1      33.386  16.560  23.566  1.00  0.00     0.001 A 
ATOM     22  C   UNL A   1      34.644  16.636  24.158  1.00  0.00     0.001 A 
ENDBRANCH  12  13
ENDBRANCH  11  12
ENDBRANCH   9  11
ENDBRANCH   8   9
ENDBRANCH   7   8
ENDBRANCH   6   7
ENDBRANCH   5   6
ENDBRANCH   4   5
ENDBRANCH   3   4
ENDBRANCH   2   3
ENDBRANCH   1   2
BRANCH   1  23
ATOM     23  C   UNL A   1      37.137  23.559  25.917  1.00  0.00     0.188 C 
BRANCH  23  24
ATOM     24  O   UNL A   1      37.498  22.192  25.918  1.00  0.00    -0.376 OA
BRANCH  24  25
ATOM     25  C   UNL A   1      38.838  21.752  25.799  1.00  0.00     0.202 C 
BRANCH  25  26
ATOM     26  C   UNL A   1      39.906  21.657  26.910  1.00  0.00     0.261 C 
BRANCH  26  27
ATOM     27  O   UNL A   1      40.536  20.405  27.166  1.00  0.00    -0.460 OA
BRANCH  27  28
ATOM     28  C   UNL A   1      41.643  20.137  26.447  1.00  0.00     0.338 C 
ATOM     29  O   UNL A   1      41.834  19.171  25.724  1.00  0.00    -0.246 OA
BRANCH  28  30
ATOM     30  C   UNL A   1      42.497  21.341  26.485  1.00  0.00     0.060 A 
ATOM     31  C   UNL A   1      42.936  21.791  27.737  1.00  0.00     0.016 A 
ATOM     32  C   UNL A   1      42.895  21.996  25.315  1.00  0.00     0.016 A 
ATOM     33  C   UNL A   1      43.735  22.922  27.828  1.00  0.00     0.010 A 
ATOM     34  C   UNL A   1      43.665  23.159  25.410  1.00  0.00     0.010 A 
ATOM     35  C   UNL A   1      44.048  23.647  26.672  1.00  0.00    -0.014 A 
BRANCH  35  36
ATOM     36  C   UNL A   1      44.556  25.026  26.844  1.00  0.00     0.031 A 
ATOM     37  C   UNL A   1      43.586  26.080  27.306  1.00  0.00     0.074 A 
ATOM     38  C   UNL A   1      45.864  25.305  26.713  1.00  0.00     0.049 A 
ATOM     39  N   UNL A   1      43.808  27.332  27.612  1.00  0.00    -0.248 NA
ATOM     40  C   UNL A   1      42.181  25.664  27.453  1.00  0.00     0.031 C 
ATOM     41  C   UNL A   1      46.900  24.350  26.322  1.00  0.00     0.029 A 
ATOM     42  N   UNL A   1      46.544  26.478  26.914  1.00  0.00    -0.354 N 
ATOM     43  C   UNL A   1      42.576  27.847  27.997  1.00  0.00     0.074 A 
ATOM     44  C   UNL A   1      41.602  26.789  27.842  1.00  0.00     0.031 C 
ATOM     45  C   UNL A   1      48.088  24.979  26.310  1.00  0.00     0.029 A 
ATOM     46  C   UNL A   1      47.892  26.383  26.667  1.00  0.00     0.049 A 
ATOM     47  H   UNL A   1      46.108  27.311  27.207  1.00  0.00     0.167 HD
ATOM     48  C   UNL A   1      42.282  29.087  28.453  1.00  0.00     0.031 A 
ATOM     49  C   UNL A   1      48.853  27.326  26.712  1.00  0.00     0.031 A 
ATOM     50  C   UNL A   1      43.251  30.144  28.581  1.00  0.00     0.049 A 
ATOM     51  C   UNL A   1      48.486  28.723  27.144  1.00  0.00     0.074 A 
ATOM     52  C   UNL A   1      43.056  31.441  29.018  1.00  0.00     0.029 A 
ATOM     53  N   UNL A   1      44.596  30.025  28.267  1.00  0.00    -0.354 N 
ATOM     54  N   UNL A   1      47.319  29.194  27.519  1.00  0.00    -0.248 NA
ATOM     55  C   UNL A   1      49.573  29.711  27.180  1.00  0.00     0.031 C 
ATOM     56  C   UNL A   1      44.272  32.124  28.911  1.00  0.00     0.029 A 
ATOM     57  C   UNL A   1      45.241  31.232  28.477  1.00  0.00     0.049 A 
ATOM     58  H   UNL A   1      45.031  29.202  27.942  1.00  0.00     0.167 HD
ATOM     59  C   UNL A   1      47.536  30.527  27.854  1.00  0.00     0.074 A 
ATOM     60  C   UNL A   1      48.952  30.775  27.669  1.00  0.00     0.031 C 
ATOM     61  C   UNL A   1      46.647  31.465  28.272  1.00  0.00     0.031 A 
BRANCH  48  62
ATOM     62  C   UNL A   1      40.850  29.371  28.822  1.00  0.00    -0.014 A 
ATOM     63  C   UNL A   1      39.907  29.750  27.849  1.00  0.00     0.010 A 
ATOM     64  C   UNL A   1      40.431  29.220  30.157  1.00  0.00     0.010 A 
ATOM     65  C   UNL A   1      38.579  29.998  28.206  1.00  0.00     0.020 A 
ATOM     66  C   UNL A   1      39.097  29.437  30.514  1.00  0.00     0.020 A 
ATOM     67  C   UNL A   1      38.182  29.836  29.537  1.00  0.00     0.054 A 
BRANCH  67  68
ATOM     68  S   UNL A   1      36.442  30.120  29.964  1.00  0.00     0.124 S 
ATOM     69  O   UNL A   1      35.748  29.467  28.856  1.00  0.00    -0.237 OA
ATOM     70  O   UNL A   1      36.320  29.457  31.259  1.00  0.00    -0.237 OA
ATOM     71  O   UNL A   1      36.325  31.576  30.000  1.00  0.00    -0.744 OA
ENDBRANCH  67  68
ENDBRANCH  48  62
BRANCH  49  72
ATOM     72  C   UNL A   1      50.246  26.992  26.303  1.00  0.00    -0.014 A 
ATOM     73  C   UNL A   1      51.242  26.713  27.256  1.00  0.00     0.010 A 
ATOM     74  C   UNL A   1      50.586  26.973  24.937  1.00  0.00     0.010 A 
ATOM     75  C   UNL A   1      52.554  26.445  26.851  1.00  0.00     0.020 A 
ATOM     76  C   UNL A   1      51.887  26.673  24.527  1.00  0.00     0.020 A 
ATOM     77  C   UNL A   1      52.868  26.424  25.488  1.00  0.00     0.054 A 
BRANCH  77  78
ATOM     78  S   UNL A   1      54.566  26.035  24.985  1.00  0.00     0.124 S 
ATOM     79  O   UNL A   1      54.637  26.638  23.659  1.00  0.00    -0.237 OA
ATOM     80  O   UNL A   1      55.359  26.688  26.024  1.00  0.00    -0.237 OA
ATOM     81  O   UNL A   1      54.603  24.573  25.012  1.00  0.00    -0.744 OA
ENDBRANCH  77  78
ENDBRANCH  49  72
BRANCH  61  82
ATOM     82  C   UNL A   1      47.192  32.836  28.584  1.00  0.00    -0.014 A 
ATOM     83  C   UNL A   1      47.215  33.854  27.612  1.00  0.00     0.010 A 
ATOM     84  C   UNL A   1      47.677  33.115  29.875  1.00  0.00     0.010 A 
ATOM     85  C   UNL A   1      47.774  35.101  27.907  1.00  0.00     0.020 A 
ATOM     86  C   UNL A   1      48.201  34.372  30.185  1.00  0.00     0.020 A 
ATOM     87  C   UNL A   1      48.269  35.349  29.190  1.00  0.00     0.054 A 
BRANCH  87  88
ATOM     88  S   UNL A   1      48.994  36.973  29.546  1.00  0.00     0.124 S 
ATOM     89  O   UNL A   1      47.980  37.575  30.408  1.00  0.00    -0.237 OA
ATOM     90  O   UNL A   1      50.252  36.625  30.202  1.00  0.00    -0.237 OA
ATOM     91  O   UNL A   1      49.135  37.587  28.227  1.00  0.00    -0.744 OA
ENDBRANCH  87  88
ENDBRANCH  61  82
ENDBRANCH  35  36
ENDBRANCH  28  30
ENDBRANCH  27  28
ENDBRANCH  26  27
ENDBRANCH  25  26
ENDBRANCH  24  25
ENDBRANCH  23  24
ENDBRANCH   1  23
TORSDOF 25
ENDMDL
