MODEL 1
REMARK VINA RESULT:     -10.1      0.000      0.000
REMARK SMILES CC1(C)CCC[C@@H]1NC(=O)NC1(CC(=O)OCCOCCOCCOCCOC(=O)c2ccc(-c3c4nc(c(-c5ccc(S(=O)(=O)[O-])cc5)c5ccc([nH]5)c(-c5ccc(S(=O)(=O)[O-])cc5)c5nc(c(-c6ccc(S(=O)(=O)[O-])cc6)c6ccc3[nH]6)C=C5)C=C4)cc2)CCCCC1
REMARK SMILES IDX 22 1 21 2 20 3 19 4 18 5 17 6 16 7 14 8 15 9 13 10 12 11
REMARK SMILES IDX 91 12 95 13 92 14 94 15 93 16 11 17 8 18 9 19 10 21 7 23
REMARK SMILES IDX 1 24 2 25 3 26 4 27 5 28 6 29 23 30 24 31 25 32 26 33 27 34
REMARK SMILES IDX 28 35 29 36 30 37 31 38 32 39 90 40 33 41 89 42 34 43 35 44
REMARK SMILES IDX 36 45 83 46 37 47 88 48 82 49 84 50 38 51 87 52 81 53 80 54
REMARK SMILES IDX 39 56 69 57 50 58 68 59 51 60 54 61 67 62 85 63 52 64 53 65
REMARK SMILES IDX 66 67 86 68 55 69 40 70 41 71 49 72 42 73 48 74 43 75 44 76
REMARK SMILES IDX 45 77 46 78 47 79 70 80 71 81 79 82 72 83 78 84 73 85 74 86
REMARK SMILES IDX 75 87 76 88 77 89 56 90 57 91 65 92 58 93 64 94 59 95 60 96
REMARK SMILES IDX 61 97 62 98 63 99
REMARK H PARENT 8 20 11 22 84 55 54 66
REMARK Flexibility Score: inf
ROOT
ATOM      1  O   UNL A   1      42.064  20.845  25.747  1.00  0.00    -0.377 OA
ENDROOT
BRANCH   1   2
ATOM      2  C   UNL A   1      41.545  21.033  27.054  1.00  0.00     0.188 C 
BRANCH   2   3
ATOM      3  C   UNL A   1      40.357  22.015  27.148  1.00  0.00     0.188 C 
BRANCH   3   4
ATOM      4  O   UNL A   1      39.552  22.337  26.011  1.00  0.00    -0.376 OA
BRANCH   4   5
ATOM      5  C   UNL A   1      38.405  21.548  25.734  1.00  0.00     0.202 C 
BRANCH   5   6
ATOM      6  C   UNL A   1      37.083  22.334  25.805  1.00  0.00     0.261 C 
BRANCH   6   7
ATOM      7  O   UNL A   1      35.907  21.512  25.963  1.00  0.00    -0.463 OA
BRANCH   7   8
ATOM      8  C   UNL A   1      34.752  22.164  26.193  1.00  0.00     0.308 C 
ATOM      9  O   UNL A   1      34.469  22.699  27.264  1.00  0.00    -0.252 OA
BRANCH   8  10
ATOM     10  C   UNL A   1      33.763  22.231  25.033  1.00  0.00     0.151 C 
BRANCH  10  11
ATOM     11  C   UNL A   1      32.300  21.637  24.893  1.00  0.00     0.052 C 
ATOM     12  C   UNL A   1      32.531  20.115  25.101  1.00  0.00     0.029 C 
ATOM     13  C   UNL A   1      31.629  21.982  23.546  1.00  0.00     0.029 C 
ATOM     14  C   UNL A   1      32.946  19.333  23.862  1.00  0.00     0.002 C 
ATOM     15  C   UNL A   1      32.168  21.197  22.362  1.00  0.00     0.002 C 
ATOM     16  C   UNL A   1      32.147  19.699  22.621  1.00  0.00     0.000 C 
BRANCH  11  17
ATOM     17  N   UNL A   1      31.416  22.084  26.036  1.00  0.00    -0.332 N 
ATOM     18  N   UNL A   1      31.075  24.468  26.152  1.00  0.00    -0.335 N 
ATOM     19  C   UNL A   1      30.943  23.210  26.596  1.00  0.00     0.315 C 
ATOM     20  H   UNL A   1      30.762  25.127  26.814  1.00  0.00     0.165 HD
ATOM     21  O   UNL A   1      30.308  23.063  27.648  1.00  0.00    -0.249 OA
ATOM     22  H   UNL A   1      31.081  21.300  26.527  1.00  0.00     0.165 HD
BRANCH  18  23
ATOM     23  C   UNL A   1      31.561  25.103  24.944  1.00  0.00     0.089 C 
ATOM     24  C   UNL A   1      33.867  25.963  25.707  1.00  0.00     0.013 C 
ATOM     25  C   UNL A   1      32.505  26.328  25.111  1.00  0.00    -0.015 C 
ATOM     26  C   UNL A   1      31.919  27.497  25.932  1.00  0.00     0.013 C 
ATOM     27  C   UNL A   1      32.631  26.764  23.633  1.00  0.00     0.008 C 
ATOM     28  C   UNL A   1      31.269  26.457  22.990  1.00  0.00     0.003 C 
ATOM     29  C   UNL A   1      30.468  25.684  24.039  1.00  0.00     0.025 C 
ENDBRANCH  18  23
ENDBRANCH  11  17
ENDBRANCH  10  11
ENDBRANCH   8  10
ENDBRANCH   7   8
ENDBRANCH   6   7
ENDBRANCH   5   6
ENDBRANCH   4   5
ENDBRANCH   3   4
ENDBRANCH   2   3
ENDBRANCH   1   2
BRANCH   1  30
ATOM     30  C   UNL A   1      43.224  20.032  25.683  1.00  0.00     0.188 C 
BRANCH  30  31
ATOM     31  C   UNL A   1      44.427  20.737  25.041  1.00  0.00     0.188 C 
BRANCH  31  32
ATOM     32  O   UNL A   1      44.071  21.992  24.489  1.00  0.00    -0.376 OA
BRANCH  32  33
ATOM     33  C   UNL A   1      44.646  23.203  24.933  1.00  0.00     0.202 C 
BRANCH  33  34
ATOM     34  C   UNL A   1      43.859  24.521  25.058  1.00  0.00     0.261 C 
BRANCH  34  35
ATOM     35  O   UNL A   1      42.991  24.687  26.180  1.00  0.00    -0.460 OA
BRANCH  35  36
ATOM     36  C   UNL A   1      41.961  25.548  26.053  1.00  0.00     0.338 C 
ATOM     37  O   UNL A   1      41.142  25.579  25.150  1.00  0.00    -0.246 OA
BRANCH  36  38
ATOM     38  C   UNL A   1      41.868  26.309  27.317  1.00  0.00     0.060 A 
ATOM     39  C   UNL A   1      40.796  26.048  28.180  1.00  0.00     0.016 A 
ATOM     40  C   UNL A   1      42.849  27.242  27.669  1.00  0.00     0.016 A 
ATOM     41  C   UNL A   1      40.687  26.735  29.388  1.00  0.00     0.010 A 
ATOM     42  C   UNL A   1      42.718  27.959  28.862  1.00  0.00     0.010 A 
ATOM     43  C   UNL A   1      41.618  27.731  29.708  1.00  0.00    -0.014 A 
BRANCH  43  44
ATOM     44  C   UNL A   1      41.298  28.689  30.791  1.00  0.00     0.031 A 
ATOM     45  C   UNL A   1      42.134  28.631  32.042  1.00  0.00     0.074 A 
ATOM     46  C   UNL A   1      40.328  29.609  30.658  1.00  0.00     0.049 A 
ATOM     47  N   UNL A   1      42.047  29.347  33.132  1.00  0.00    -0.248 NA
ATOM     48  C   UNL A   1      43.217  27.631  32.061  1.00  0.00     0.031 C 
ATOM     49  C   UNL A   1      39.497  29.799  29.471  1.00  0.00     0.029 A 
ATOM     50  N   UNL A   1      39.883  30.563  31.539  1.00  0.00    -0.354 N 
ATOM     51  C   UNL A   1      43.056  28.879  33.966  1.00  0.00     0.074 A 
ATOM     52  C   UNL A   1      43.723  27.802  33.272  1.00  0.00     0.031 C 
ATOM     53  C   UNL A   1      38.632  30.804  29.702  1.00  0.00     0.029 A 
ATOM     54  C   UNL A   1      38.828  31.304  31.063  1.00  0.00     0.049 A 
ATOM     55  H   UNL A   1      40.282  30.702  32.427  1.00  0.00     0.167 HD
ATOM     56  C   UNL A   1      43.398  29.312  35.203  1.00  0.00     0.031 A 
ATOM     57  C   UNL A   1      38.093  32.260  31.667  1.00  0.00     0.031 A 
ATOM     58  C   UNL A   1      42.715  30.368  35.897  1.00  0.00     0.049 A 
ATOM     59  C   UNL A   1      38.436  32.665  33.079  1.00  0.00     0.074 A 
ATOM     60  C   UNL A   1      42.981  30.887  37.152  1.00  0.00     0.029 A 
ATOM     61  N   UNL A   1      41.621  31.062  35.400  1.00  0.00    -0.354 N 
ATOM     62  N   UNL A   1      39.405  32.229  33.852  1.00  0.00    -0.248 NA
ATOM     63  C   UNL A   1      37.593  33.697  33.698  1.00  0.00     0.031 C 
ATOM     64  C   UNL A   1      42.008  31.847  37.440  1.00  0.00     0.029 A 
ATOM     65  C   UNL A   1      41.180  31.981  36.336  1.00  0.00     0.049 A 
ATOM     66  H   UNL A   1      41.216  30.920  34.514  1.00  0.00     0.167 HD
ATOM     67  C   UNL A   1      39.305  32.956  35.034  1.00  0.00     0.074 A 
ATOM     68  C   UNL A   1      38.191  33.867  34.869  1.00  0.00     0.031 C 
ATOM     69  C   UNL A   1      40.068  32.881  36.154  1.00  0.00     0.031 A 
BRANCH  56  70
ATOM     70  C   UNL A   1      44.534  28.607  35.895  1.00  0.00    -0.014 A 
ATOM     71  C   UNL A   1      45.853  29.089  35.819  1.00  0.00     0.010 A 
ATOM     72  C   UNL A   1      44.271  27.452  36.655  1.00  0.00     0.010 A 
ATOM     73  C   UNL A   1      46.893  28.409  36.460  1.00  0.00     0.020 A 
ATOM     74  C   UNL A   1      45.303  26.787  37.322  1.00  0.00     0.020 A 
ATOM     75  C   UNL A   1      46.610  27.261  37.206  1.00  0.00     0.054 A 
BRANCH  75  76
ATOM     76  S   UNL A   1      47.976  26.414  38.047  1.00  0.00     0.124 S 
ATOM     77  O   UNL A   1      47.663  26.660  39.453  1.00  0.00    -0.237 OA
ATOM     78  O   UNL A   1      47.816  25.033  37.601  1.00  0.00    -0.237 OA
ATOM     79  O   UNL A   1      49.167  27.093  37.547  1.00  0.00    -0.744 OA
ENDBRANCH  75  76
ENDBRANCH  56  70
BRANCH  57  80
ATOM     80  C   UNL A   1      36.945  32.885  30.951  1.00  0.00    -0.014 A 
ATOM     81  C   UNL A   1      37.157  33.813  29.917  1.00  0.00     0.010 A 
ATOM     82  C   UNL A   1      35.625  32.555  31.309  1.00  0.00     0.010 A 
ATOM     83  C   UNL A   1      36.072  34.411  29.266  1.00  0.00     0.020 A 
ATOM     84  C   UNL A   1      34.538  33.125  30.642  1.00  0.00     0.020 A 
ATOM     85  C   UNL A   1      34.768  34.058  29.630  1.00  0.00     0.054 A 
BRANCH  85  86
ATOM     86  S   UNL A   1      33.378  34.806  28.736  1.00  0.00     0.124 S 
ATOM     87  O   UNL A   1      33.989  36.002  28.166  1.00  0.00    -0.237 OA
ATOM     88  O   UNL A   1      33.021  33.760  27.781  1.00  0.00    -0.237 OA
ATOM     89  O   UNL A   1      32.388  35.047  29.784  1.00  0.00    -0.744 OA
ENDBRANCH  85  86
ENDBRANCH  57  80
BRANCH  69  90
ATOM     90  C   UNL A   1      39.756  33.835  37.278  1.00  0.00    -0.014 A 
ATOM     91  C   UNL A   1      38.901  33.471  38.334  1.00  0.00     0.010 A 
ATOM     92  C   UNL A   1      40.385  35.093  37.309  1.00  0.00     0.010 A 
ATOM     93  C   UNL A   1      38.655  34.363  39.382  1.00  0.00     0.020 A 
ATOM     94  C   UNL A   1      40.168  35.974  38.372  1.00  0.00     0.020 A 
ATOM     95  C   UNL A   1      39.293  35.608  39.395  1.00  0.00     0.054 A 
BRANCH  95  96
ATOM     96  S   UNL A   1      38.991  36.727  40.790  1.00  0.00     0.124 S 
ATOM     97  O   UNL A   1      38.341  37.859  40.137  1.00  0.00    -0.237 OA
ATOM     98  O   UNL A   1      38.135  35.927  41.662  1.00  0.00    -0.237 OA
ATOM     99  O   UNL A   1      40.329  36.995  41.315  1.00  0.00    -0.744 OA
ENDBRANCH  95  96
ENDBRANCH  69  90
ENDBRANCH  43  44
ENDBRANCH  36  38
ENDBRANCH  35  36
ENDBRANCH  34  35
ENDBRANCH  33  34
ENDBRANCH  32  33
ENDBRANCH  31  32
ENDBRANCH  30  31
ENDBRANCH   1  30
TORSDOF 26
ENDMDL
MODEL 2
REMARK VINA RESULT:     -10.0      1.554      2.932
REMARK SMILES CC1(C)CCC[C@@H]1NC(=O)NC1(CC(=O)OCCOCCOCCOCCOC(=O)c2ccc(-c3c4nc(c(-c5ccc(S(=O)(=O)[O-])cc5)c5ccc([nH]5)c(-c5ccc(S(=O)(=O)[O-])cc5)c5nc(c(-c6ccc(S(=O)(=O)[O-])cc6)c6ccc3[nH]6)C=C5)C=C4)cc2)CCCCC1
REMARK SMILES IDX 22 1 21 2 20 3 19 4 18 5 17 6 16 7 14 8 15 9 13 10 12 11
REMARK SMILES IDX 91 12 95 13 92 14 94 15 93 16 11 17 8 18 9 19 10 21 7 23
REMARK SMILES IDX 1 24 2 25 3 26 4 27 5 28 6 29 23 30 24 31 25 32 26 33 27 34
REMARK SMILES IDX 28 35 29 36 30 37 31 38 32 39 90 40 33 41 89 42 34 43 35 44
REMARK SMILES IDX 36 45 83 46 37 47 88 48 82 49 84 50 38 51 87 52 81 53 80 54
REMARK SMILES IDX 39 56 69 57 50 58 68 59 51 60 54 61 67 62 85 63 52 64 53 65
REMARK SMILES IDX 66 67 86 68 55 69 40 70 41 71 49 72 42 73 48 74 43 75 44 76
REMARK SMILES IDX 45 77 46 78 47 79 70 80 71 81 79 82 72 83 78 84 73 85 74 86
REMARK SMILES IDX 75 87 76 88 77 89 56 90 57 91 65 92 58 93 64 94 59 95 60 96
REMARK SMILES IDX 61 97 62 98 63 99
REMARK H PARENT 8 20 11 22 84 55 54 66
REMARK Flexibility Score: inf
ROOT
ATOM      1  O   UNL A   1      37.284  21.585  25.674  1.00  0.00    -0.377 OA
ENDROOT
BRANCH   1   2
ATOM      2  C   UNL A   1      37.357  20.424  24.862  1.00  0.00     0.188 C 
BRANCH   2   3
ATOM      3  C   UNL A   1      36.128  19.493  24.945  1.00  0.00     0.188 C 
BRANCH   3   4
ATOM      4  O   UNL A   1      34.817  19.938  24.587  1.00  0.00    -0.376 OA
BRANCH   4   5
ATOM      5  C   UNL A   1      33.711  19.082  24.826  1.00  0.00     0.202 C 
BRANCH   5   6
ATOM      6  C   UNL A   1      32.611  19.180  23.752  1.00  0.00     0.261 C 
BRANCH   6   7
ATOM      7  O   UNL A   1      32.364  20.519  23.271  1.00  0.00    -0.463 OA
BRANCH   7   8
ATOM      8  C   UNL A   1      32.186  21.465  24.213  1.00  0.00     0.308 C 
ATOM      9  O   UNL A   1      31.397  21.357  25.150  1.00  0.00    -0.252 OA
BRANCH   8  10
ATOM     10  C   UNL A   1      33.034  22.726  24.081  1.00  0.00     0.151 C 
BRANCH  10  11
ATOM     11  C   UNL A   1      32.606  24.232  23.829  1.00  0.00     0.052 C 
ATOM     12  C   UNL A   1      33.634  25.023  24.683  1.00  0.00     0.029 C 
ATOM     13  C   UNL A   1      31.136  24.519  24.207  1.00  0.00     0.029 C 
ATOM     14  C   UNL A   1      33.283  25.190  26.155  1.00  0.00     0.002 C 
ATOM     15  C   UNL A   1      30.882  24.593  25.703  1.00  0.00     0.002 C 
ATOM     16  C   UNL A   1      31.828  25.564  26.390  1.00  0.00     0.000 C 
BRANCH  11  17
ATOM     17  N   UNL A   1      32.856  24.639  22.394  1.00  0.00    -0.332 N 
ATOM     18  N   UNL A   1      32.266  26.923  21.894  1.00  0.00    -0.335 N 
ATOM     19  C   UNL A   1      32.689  25.691  21.576  1.00  0.00     0.315 C 
ATOM     20  H   UNL A   1      32.094  27.471  21.094  1.00  0.00     0.165 HD
ATOM     21  O   UNL A   1      32.963  25.496  20.384  1.00  0.00    -0.249 OA
ATOM     22  H   UNL A   1      33.273  23.895  21.902  1.00  0.00     0.165 HD
BRANCH  18  23
ATOM     23  C   UNL A   1      31.999  27.651  23.118  1.00  0.00     0.089 C 
ATOM     24  C   UNL A   1      29.423  27.694  23.138  1.00  0.00     0.013 C 
ATOM     25  C   UNL A   1      30.711  28.521  23.164  1.00  0.00    -0.015 C 
ATOM     26  C   UNL A   1      30.611  29.600  22.064  1.00  0.00     0.013 C 
ATOM     27  C   UNL A   1      30.913  29.214  24.532  1.00  0.00     0.008 C 
ATOM     28  C   UNL A   1      32.430  29.418  24.676  1.00  0.00     0.003 C 
ATOM     29  C   UNL A   1      33.072  28.677  23.502  1.00  0.00     0.025 C 
ENDBRANCH  18  23
ENDBRANCH  11  17
ENDBRANCH  10  11
ENDBRANCH   8  10
ENDBRANCH   7   8
ENDBRANCH   6   7
ENDBRANCH   5   6
ENDBRANCH   4   5
ENDBRANCH   3   4
ENDBRANCH   2   3
ENDBRANCH   1   2
BRANCH   1  30
ATOM     30  C   UNL A   1      38.533  22.202  25.937  1.00  0.00     0.188 C 
BRANCH  30  31
ATOM     31  C   UNL A   1      39.677  21.198  26.136  1.00  0.00     0.188 C 
BRANCH  31  32
ATOM     32  O   UNL A   1      40.442  21.490  27.292  1.00  0.00    -0.376 OA
BRANCH  32  33
ATOM     33  C   UNL A   1      41.726  22.074  27.220  1.00  0.00     0.202 C 
BRANCH  33  34
ATOM     34  C   UNL A   1      42.092  23.200  26.236  1.00  0.00     0.261 C 
BRANCH  34  35
ATOM     35  O   UNL A   1      41.274  24.371  26.211  1.00  0.00    -0.460 OA
BRANCH  35  36
ATOM     36  C   UNL A   1      41.884  25.556  26.004  1.00  0.00     0.338 C 
ATOM     37  O   UNL A   1      42.266  26.005  24.937  1.00  0.00    -0.246 OA
BRANCH  36  38
ATOM     38  C   UNL A   1      41.809  26.313  27.272  1.00  0.00     0.060 A 
ATOM     39  C   UNL A   1      40.793  25.998  28.183  1.00  0.00     0.016 A 
ATOM     40  C   UNL A   1      42.756  27.296  27.580  1.00  0.00     0.016 A 
ATOM     41  C   UNL A   1      40.703  26.681  29.395  1.00  0.00     0.010 A 
ATOM     42  C   UNL A   1      42.643  28.006  28.778  1.00  0.00     0.010 A 
ATOM     43  C   UNL A   1      41.596  27.723  29.673  1.00  0.00    -0.014 A 
BRANCH  43  44
ATOM     44  C   UNL A   1      41.278  28.664  30.771  1.00  0.00     0.031 A 
ATOM     45  C   UNL A   1      42.115  28.589  32.020  1.00  0.00     0.074 A 
ATOM     46  C   UNL A   1      40.307  29.587  30.653  1.00  0.00     0.049 A 
ATOM     47  N   UNL A   1      42.029  29.288  33.120  1.00  0.00    -0.248 NA
ATOM     48  C   UNL A   1      43.199  27.589  32.023  1.00  0.00     0.031 C 
ATOM     49  C   UNL A   1      39.473  29.793  29.470  1.00  0.00     0.029 A 
ATOM     50  N   UNL A   1      39.862  30.527  31.549  1.00  0.00    -0.354 N 
ATOM     51  C   UNL A   1      43.039  28.809  33.947  1.00  0.00     0.074 A 
ATOM     52  C   UNL A   1      43.706  27.743  33.235  1.00  0.00     0.031 C 
ATOM     53  C   UNL A   1      38.608  30.795  29.717  1.00  0.00     0.029 A 
ATOM     54  C   UNL A   1      38.806  31.274  31.085  1.00  0.00     0.049 A 
ATOM     55  H   UNL A   1      40.262  30.653  32.439  1.00  0.00     0.167 HD
ATOM     56  C   UNL A   1      43.384  29.224  35.188  1.00  0.00     0.031 A 
ATOM     57  C   UNL A   1      38.072  32.221  31.705  1.00  0.00     0.031 A 
ATOM     58  C   UNL A   1      42.700  30.269  35.899  1.00  0.00     0.049 A 
ATOM     59  C   UNL A   1      38.416  32.605  33.122  1.00  0.00     0.074 A 
ATOM     60  C   UNL A   1      42.968  30.769  37.161  1.00  0.00     0.029 A 
ATOM     61  N   UNL A   1      41.605  30.969  35.415  1.00  0.00    -0.354 N 
ATOM     62  N   UNL A   1      39.387  32.158  33.886  1.00  0.00    -0.248 NA
ATOM     63  C   UNL A   1      37.574  33.627  33.757  1.00  0.00     0.031 C 
ATOM     64  C   UNL A   1      41.995  31.725  37.465  1.00  0.00     0.029 A 
ATOM     65  C   UNL A   1      41.166  31.874  36.365  1.00  0.00     0.049 A 
ATOM     66  H   UNL A   1      41.200  30.841  34.527  1.00  0.00     0.167 HD
ATOM     67  C   UNL A   1      39.288  32.867  35.080  1.00  0.00     0.074 A 
ATOM     68  C   UNL A   1      38.173  33.781  34.930  1.00  0.00     0.031 C 
ATOM     69  C   UNL A   1      40.053  32.776  36.197  1.00  0.00     0.031 A 
BRANCH  56  70
ATOM     70  C   UNL A   1      44.521  28.509  35.869  1.00  0.00    -0.014 A 
ATOM     71  C   UNL A   1      44.302  27.365  36.657  1.00  0.00     0.010 A 
ATOM     72  C   UNL A   1      45.835  28.978  35.694  1.00  0.00     0.010 A 
ATOM     73  C   UNL A   1      45.373  26.727  37.289  1.00  0.00     0.020 A 
ATOM     74  C   UNL A   1      46.912  28.324  36.300  1.00  0.00     0.020 A 
ATOM     75  C   UNL A   1      46.671  27.212  37.107  1.00  0.00     0.054 A 
BRANCH  75  76
ATOM     76  S   UNL A   1      48.044  26.348  37.919  1.00  0.00     0.124 S 
ATOM     77  O   UNL A   1      48.665  27.424  38.686  1.00  0.00    -0.237 OA
ATOM     78  O   UNL A   1      47.357  25.330  38.709  1.00  0.00    -0.237 OA
ATOM     79  O   UNL A   1      48.839  25.837  36.806  1.00  0.00    -0.744 OA
ENDBRANCH  75  76
ENDBRANCH  56  70
BRANCH  57  80
ATOM     80  C   UNL A   1      36.923  32.855  31.000  1.00  0.00    -0.014 A 
ATOM     81  C   UNL A   1      35.598  32.582  31.383  1.00  0.00     0.010 A 
ATOM     82  C   UNL A   1      37.152  33.739  29.928  1.00  0.00     0.010 A 
ATOM     83  C   UNL A   1      34.526  33.165  30.700  1.00  0.00     0.020 A 
ATOM     84  C   UNL A   1      36.085  34.349  29.262  1.00  0.00     0.020 A 
ATOM     85  C   UNL A   1      34.777  34.050  29.646  1.00  0.00     0.054 A 
BRANCH  85  86
ATOM     86  S   UNL A   1      33.372  34.837  28.810  1.00  0.00     0.124 S 
ATOM     87  O   UNL A   1      32.925  33.781  27.907  1.00  0.00    -0.237 OA
ATOM     88  O   UNL A   1      32.476  35.141  29.922  1.00  0.00    -0.237 OA
ATOM     89  O   UNL A   1      33.969  36.003  28.162  1.00  0.00    -0.744 OA
ENDBRANCH  85  86
ENDBRANCH  57  80
BRANCH  69  90
ATOM     90  C   UNL A   1      39.742  33.713  37.336  1.00  0.00    -0.014 A 
ATOM     91  C   UNL A   1      39.002  33.290  38.454  1.00  0.00     0.010 A 
ATOM     92  C   UNL A   1      40.259  35.022  37.312  1.00  0.00     0.010 A 
ATOM     93  C   UNL A   1      38.756  34.170  39.512  1.00  0.00     0.020 A 
ATOM     94  C   UNL A   1      40.044  35.893  38.383  1.00  0.00     0.020 A 
ATOM     95  C   UNL A   1      39.282  35.465  39.470  1.00  0.00     0.054 A 
BRANCH  95  96
ATOM     96  S   UNL A   1      38.987  36.572  40.878  1.00  0.00     0.124 S 
ATOM     97  O   UNL A   1      37.974  35.840  41.633  1.00  0.00    -0.237 OA
ATOM     98  O   UNL A   1      40.305  36.649  41.504  1.00  0.00    -0.237 OA
ATOM     99  O   UNL A   1      38.525  37.810  40.255  1.00  0.00    -0.744 OA
ENDBRANCH  95  96
ENDBRANCH  69  90
ENDBRANCH  43  44
ENDBRANCH  36  38
ENDBRANCH  35  36
ENDBRANCH  34  35
ENDBRANCH  33  34
ENDBRANCH  32  33
ENDBRANCH  31  32
ENDBRANCH  30  31
ENDBRANCH   1  30
TORSDOF 26
ENDMDL
MODEL 3
REMARK VINA RESULT:      -9.7      1.611      2.373
REMARK SMILES CC1(C)CCC[C@@H]1NC(=O)NC1(CC(=O)OCCOCCOCCOCCOC(=O)c2ccc(-c3c4nc(c(-c5ccc(S(=O)(=O)[O-])cc5)c5ccc([nH]5)c(-c5ccc(S(=O)(=O)[O-])cc5)c5nc(c(-c6ccc(S(=O)(=O)[O-])cc6)c6ccc3[nH]6)C=C5)C=C4)cc2)CCCCC1
REMARK SMILES IDX 22 1 21 2 20 3 19 4 18 5 17 6 16 7 14 8 15 9 13 10 12 11
REMARK SMILES IDX 91 12 95 13 92 14 94 15 93 16 11 17 8 18 9 19 10 21 7 23
REMARK SMILES IDX 1 24 2 25 3 26 4 27 5 28 6 29 23 30 24 31 25 32 26 33 27 34
REMARK SMILES IDX 28 35 29 36 30 37 31 38 32 39 90 40 33 41 89 42 34 43 35 44
REMARK SMILES IDX 36 45 83 46 37 47 88 48 82 49 84 50 38 51 87 52 81 53 80 54
REMARK SMILES IDX 39 56 69 57 50 58 68 59 51 60 54 61 67 62 85 63 52 64 53 65
REMARK SMILES IDX 66 67 86 68 55 69 40 70 41 71 49 72 42 73 48 74 43 75 44 76
REMARK SMILES IDX 45 77 46 78 47 79 70 80 71 81 79 82 72 83 78 84 73 85 74 86
REMARK SMILES IDX 75 87 76 88 77 89 56 90 57 91 65 92 58 93 64 94 59 95 60 96
REMARK SMILES IDX 61 97 62 98 63 99
REMARK H PARENT 8 20 11 22 84 55 54 66
REMARK Flexibility Score: inf
ROOT
ATOM      1  O   UNL A   1      41.196  20.472  25.651  1.00  0.00    -0.377 OA
ENDROOT
BRANCH   1   2
ATOM      2  C   UNL A   1      40.329  21.009  26.637  1.00  0.00     0.188 C 
BRANCH   2   3
ATOM      3  C   UNL A   1      39.142  21.828  26.084  1.00  0.00     0.188 C 
BRANCH   3   4
ATOM      4  O   UNL A   1      38.146  21.241  25.242  1.00  0.00    -0.376 OA
BRANCH   4   5
ATOM      5  C   UNL A   1      36.922  21.930  25.041  1.00  0.00     0.202 C 
BRANCH   5   6
ATOM      6  C   UNL A   1      36.785  23.206  25.893  1.00  0.00     0.261 C 
BRANCH   6   7
ATOM      7  O   UNL A   1      36.130  24.304  25.222  1.00  0.00    -0.463 OA
BRANCH   7   8
ATOM      8  C   UNL A   1      34.799  24.401  25.402  1.00  0.00     0.308 C 
ATOM      9  O   UNL A   1      34.237  24.195  26.476  1.00  0.00    -0.252 OA
BRANCH   8  10
ATOM     10  C   UNL A   1      33.973  24.799  24.182  1.00  0.00     0.151 C 
BRANCH  10  11
ATOM     11  C   UNL A   1      33.092  23.915  23.204  1.00  0.00     0.052 C 
ATOM     12  C   UNL A   1      31.653  24.151  23.739  1.00  0.00     0.029 C 
ATOM     13  C   UNL A   1      33.509  22.428  23.184  1.00  0.00     0.029 C 
ATOM     14  C   UNL A   1      31.224  23.262  24.898  1.00  0.00     0.002 C 
ATOM     15  C   UNL A   1      33.095  21.649  24.421  1.00  0.00     0.002 C 
ATOM     16  C   UNL A   1      31.611  21.803  24.715  1.00  0.00     0.000 C 
BRANCH  11  17
ATOM     17  N   UNL A   1      33.110  24.472  21.798  1.00  0.00    -0.332 N 
ATOM     18  N   UNL A   1      32.384  26.765  21.631  1.00  0.00    -0.335 N 
ATOM     19  C   UNL A   1      32.791  25.592  21.127  1.00  0.00     0.315 C 
ATOM     20  H   UNL A   1      32.077  27.381  20.927  1.00  0.00     0.165 HD
ATOM     21  O   UNL A   1      32.887  25.527  19.895  1.00  0.00    -0.249 OA
ATOM     22  H   UNL A   1      33.471  23.800  21.176  1.00  0.00     0.165 HD
BRANCH  18  23
ATOM     23  C   UNL A   1      32.283  27.356  22.950  1.00  0.00     0.089 C 
ATOM     24  C   UNL A   1      29.755  27.163  23.407  1.00  0.00     0.013 C 
ATOM     25  C   UNL A   1      30.962  28.099  23.300  1.00  0.00    -0.015 C 
ATOM     26  C   UNL A   1      30.591  29.256  22.349  1.00  0.00     0.013 C 
ATOM     27  C   UNL A   1      31.350  28.685  24.678  1.00  0.00     0.008 C 
ATOM     28  C   UNL A   1      32.849  29.012  24.585  1.00  0.00     0.003 C 
ATOM     29  C   UNL A   1      33.328  28.438  23.251  1.00  0.00     0.025 C 
ENDBRANCH  18  23
ENDBRANCH  11  17
ENDBRANCH  10  11
ENDBRANCH   8  10
ENDBRANCH   7   8
ENDBRANCH   6   7
ENDBRANCH   5   6
ENDBRANCH   4   5
ENDBRANCH   3   4
ENDBRANCH   2   3
ENDBRANCH   1   2
BRANCH   1  30
ATOM     30  C   UNL A   1      42.276  19.711  26.165  1.00  0.00     0.188 C 
BRANCH  30  31
ATOM     31  C   UNL A   1      43.629  20.074  25.538  1.00  0.00     0.188 C 
BRANCH  31  32
ATOM     32  O   UNL A   1      43.558  21.273  24.787  1.00  0.00    -0.376 OA
BRANCH  32  33
ATOM     33  C   UNL A   1      44.081  22.495  25.265  1.00  0.00     0.202 C 
BRANCH  33  34
ATOM     34  C   UNL A   1      43.367  23.371  26.312  1.00  0.00     0.261 C 
BRANCH  34  35
ATOM     35  O   UNL A   1      43.659  24.769  26.338  1.00  0.00    -0.460 OA
BRANCH  35  36
ATOM     36  C   UNL A   1      42.637  25.626  26.139  1.00  0.00     0.338 C 
ATOM     37  O   UNL A   1      41.818  25.590  25.236  1.00  0.00    -0.246 OA
BRANCH  36  38
ATOM     38  C   UNL A   1      42.553  26.491  27.335  1.00  0.00     0.060 A 
ATOM     39  C   UNL A   1      41.684  26.121  28.370  1.00  0.00     0.016 A 
ATOM     40  C   UNL A   1      43.350  27.633  27.456  1.00  0.00     0.016 A 
ATOM     41  C   UNL A   1      41.592  26.904  29.519  1.00  0.00     0.010 A 
ATOM     42  C   UNL A   1      43.229  28.440  28.591  1.00  0.00     0.010 A 
ATOM     43  C   UNL A   1      42.324  28.094  29.610  1.00  0.00    -0.014 A 
BRANCH  43  44
ATOM     44  C   UNL A   1      41.954  29.085  30.647  1.00  0.00     0.031 A 
ATOM     45  C   UNL A   1      42.829  29.177  31.868  1.00  0.00     0.074 A 
ATOM     46  C   UNL A   1      40.902  29.908  30.495  1.00  0.00     0.049 A 
ATOM     47  N   UNL A   1      42.713  29.947  32.917  1.00  0.00    -0.248 NA
ATOM     48  C   UNL A   1      43.998  28.278  31.907  1.00  0.00     0.031 C 
ATOM     49  C   UNL A   1      40.021  29.951  29.330  1.00  0.00     0.029 A 
ATOM     50  N   UNL A   1      40.401  30.871  31.335  1.00  0.00    -0.354 N 
ATOM     51  C   UNL A   1      43.785  29.621  33.740  1.00  0.00     0.074 A 
ATOM     52  C   UNL A   1      44.524  28.566  33.086  1.00  0.00     0.031 C 
ATOM     53  C   UNL A   1      39.078  30.890  29.534  1.00  0.00     0.029 A 
ATOM     54  C   UNL A   1      39.271  31.488  30.855  1.00  0.00     0.049 A 
ATOM     55  H   UNL A   1      40.813  31.099  32.199  1.00  0.00     0.167 HD
ATOM     56  C   UNL A   1      44.126  30.157  34.936  1.00  0.00     0.031 A 
ATOM     57  C   UNL A   1      38.473  32.411  31.429  1.00  0.00     0.031 A 
ATOM     58  C   UNL A   1      43.372  31.190  35.592  1.00  0.00     0.049 A 
ATOM     59  C   UNL A   1      38.822  32.930  32.802  1.00  0.00     0.074 A 
ATOM     60  C   UNL A   1      43.631  31.805  36.804  1.00  0.00     0.029 A 
ATOM     61  N   UNL A   1      42.206  31.754  35.096  1.00  0.00    -0.354 N 
ATOM     62  N   UNL A   1      39.849  32.627  33.563  1.00  0.00    -0.248 NA
ATOM     63  C   UNL A   1      37.910  33.920  33.389  1.00  0.00     0.031 C 
ATOM     64  C   UNL A   1      42.585  32.694  37.071  1.00  0.00     0.029 A 
ATOM     65  C   UNL A   1      41.715  32.687  35.992  1.00  0.00     0.049 A 
ATOM     66  H   UNL A   1      41.789  31.524  34.234  1.00  0.00     0.167 HD
ATOM     67  C   UNL A   1      39.722  33.414  34.704  1.00  0.00     0.074 A 
ATOM     68  C   UNL A   1      38.526  34.214  34.527  1.00  0.00     0.031 C 
ATOM     69  C   UNL A   1      40.522  33.474  35.798  1.00  0.00     0.031 A 
BRANCH  56  70
ATOM     70  C   UNL A   1      45.340  29.596  35.627  1.00  0.00    -0.014 A 
ATOM     71  C   UNL A   1      45.247  28.500  36.502  1.00  0.00     0.010 A 
ATOM     72  C   UNL A   1      46.603  30.164  35.375  1.00  0.00     0.010 A 
ATOM     73  C   UNL A   1      46.387  28.006  37.142  1.00  0.00     0.020 A 
ATOM     74  C   UNL A   1      47.749  29.654  35.989  1.00  0.00     0.020 A 
ATOM     75  C   UNL A   1      47.632  28.588  36.881  1.00  0.00     0.054 A 
BRANCH  75  76
ATOM     76  S   UNL A   1      49.098  27.910  37.706  1.00  0.00     0.124 S 
ATOM     77  O   UNL A   1      49.530  26.886  36.758  1.00  0.00    -0.237 OA
ATOM     78  O   UNL A   1      49.970  29.075  37.813  1.00  0.00    -0.237 OA
ATOM     79  O   UNL A   1      48.580  27.404  38.974  1.00  0.00    -0.744 OA
ENDBRANCH  75  76
ENDBRANCH  56  70
BRANCH  57  80
ATOM     80  C   UNL A   1      37.253  32.889  30.720  1.00  0.00    -0.014 A 
ATOM     81  C   UNL A   1      35.975  32.431  31.089  1.00  0.00     0.010 A 
ATOM     82  C   UNL A   1      37.366  33.807  29.659  1.00  0.00     0.010 A 
ATOM     83  C   UNL A   1      34.838  32.869  30.402  1.00  0.00     0.020 A 
ATOM     84  C   UNL A   1      36.230  34.271  28.990  1.00  0.00     0.020 A 
ATOM     85  C   UNL A   1      34.973  33.791  29.359  1.00  0.00     0.054 A 
BRANCH  85  86
ATOM     86  S   UNL A   1      33.479  34.385  28.517  1.00  0.00     0.124 S 
ATOM     87  O   UNL A   1      33.066  33.207  27.761  1.00  0.00    -0.237 OA
ATOM     88  O   UNL A   1      32.615  34.754  29.636  1.00  0.00    -0.237 OA
ATOM     89  O   UNL A   1      33.962  35.508  27.715  1.00  0.00    -0.744 OA
ENDBRANCH  85  86
ENDBRANCH  57  80
BRANCH  69  90
ATOM     90  C   UNL A   1      40.161  34.464  36.875  1.00  0.00    -0.014 A 
ATOM     91  C   UNL A   1      39.327  34.109  37.949  1.00  0.00     0.010 A 
ATOM     92  C   UNL A   1      40.724  35.754  36.843  1.00  0.00     0.010 A 
ATOM     93  C   UNL A   1      39.035  35.037  38.954  1.00  0.00     0.020 A 
ATOM     94  C   UNL A   1      40.462  36.673  37.862  1.00  0.00     0.020 A 
ATOM     95  C   UNL A   1      39.608  36.312  38.904  1.00  0.00     0.054 A 
BRANCH  95  96
ATOM     96  S   UNL A   1      39.249  37.481  40.244  1.00  0.00     0.124 S 
ATOM     97  O   UNL A   1      40.546  38.121  40.445  1.00  0.00    -0.237 OA
ATOM     98  O   UNL A   1      38.213  38.329  39.659  1.00  0.00    -0.237 OA
ATOM     99  O   UNL A   1      38.800  36.626  41.340  1.00  0.00    -0.744 OA
ENDBRANCH  95  96
ENDBRANCH  69  90
ENDBRANCH  43  44
ENDBRANCH  36  38
ENDBRANCH  35  36
ENDBRANCH  34  35
ENDBRANCH  33  34
ENDBRANCH  32  33
ENDBRANCH  31  32
ENDBRANCH  30  31
ENDBRANCH   1  30
TORSDOF 26
ENDMDL
