MODEL 1
REMARK VINA RESULT:      -9.2      0.000      0.000
REMARK SMILES C=CCS(=O)(=O)Nc1ccc(C)cc1C(=O)OCCOCCOCCOCCOC(=O)c1ccc(-c2c3nc(c(-c4ccc(S(=O)(=O)[O-])cc4)c4ccc([nH]4)c(-c4ccc(S(=O)(=O)[O-])cc4)c4nc(c(-c5ccc(S(=O)(=O)[O-])cc5)c5ccc2[nH]5)C=C4)C=C3)cc1
REMARK SMILES IDX 22 1 21 2 20 3 19 4 18 5 17 6 15 7 16 8 14 9 8 10 9 11 10 12
REMARK SMILES IDX 13 13 11 14 12 15 7 16 4 18 5 19 6 20 3 21 2 22 1 23 23 24
REMARK SMILES IDX 24 25 25 26 26 27 27 28 28 29 29 30 30 31 31 32 32 33 33 34
REMARK SMILES IDX 91 35 34 36 90 37 35 38 36 39 37 40 84 41 38 42 89 43 83 44
REMARK SMILES IDX 85 45 39 46 88 47 82 48 81 49 40 51 70 52 51 53 69 54 52 55
REMARK SMILES IDX 55 56 68 57 86 58 53 59 54 60 67 62 87 63 56 64 41 65 42 66
REMARK SMILES IDX 50 67 43 68 49 69 44 70 45 71 46 72 47 73 48 74 71 75 72 76
REMARK SMILES IDX 80 77 73 78 79 79 74 80 75 81 76 82 77 83 78 84 57 85 58 86
REMARK SMILES IDX 66 87 59 88 65 89 60 90 61 91 62 92 63 93 64 94
REMARK H PARENT 7 17 85 50 55 61
REMARK Flexibility Score: inf
ROOT
ATOM      1  C   UNL A   1      40.423  21.560  27.218  1.00  0.00     0.188 C 
ENDROOT
BRANCH   1   2
ATOM      2  C   UNL A   1      39.414  21.070  26.159  1.00  0.00     0.188 C 
BRANCH   2   3
ATOM      3  O   UNL A   1      38.670  21.981  25.368  1.00  0.00    -0.376 OA
BRANCH   3   4
ATOM      4  C   UNL A   1      37.858  22.912  26.081  1.00  0.00     0.202 C 
BRANCH   4   5
ATOM      5  C   UNL A   1      36.375  22.891  25.782  1.00  0.00     0.261 C 
BRANCH   5   6
ATOM      6  O   UNL A   1      36.081  24.128  25.133  1.00  0.00    -0.460 OA
BRANCH   6   7
ATOM      7  C   UNL A   1      35.084  24.005  24.257  1.00  0.00     0.340 C 
ATOM      8  O   UNL A   1      34.748  23.017  23.626  1.00  0.00    -0.246 OA
BRANCH   7   9
ATOM      9  C   UNL A   1      34.150  25.093  24.521  1.00  0.00     0.084 A 
ATOM     10  C   UNL A   1      33.494  25.301  25.729  1.00  0.00     0.063 A 
ATOM     11  C   UNL A   1      33.350  26.635  26.084  1.00  0.00     0.028 A 
ATOM     12  C   UNL A   1      33.475  27.658  25.122  1.00  0.00     0.005 A 
ATOM     13  C   UNL A   1      34.173  26.064  23.516  1.00  0.00     0.021 A 
ATOM     14  C   UNL A   1      33.774  27.355  23.795  1.00  0.00    -0.050 A 
ATOM     15  C   UNL A   1      33.802  28.357  22.690  1.00  0.00     0.044 C 
BRANCH  10  16
ATOM     16  N   UNL A   1      33.047  24.197  26.537  1.00  0.00    -0.282 N 
ATOM     17  H   UNL A   1      33.634  23.890  27.264  1.00  0.00     0.180 HD
BRANCH  16  18
ATOM     18  S   UNL A   1      31.580  23.400  26.317  1.00  0.00     0.236 S 
ATOM     19  O   UNL A   1      30.991  23.135  27.618  1.00  0.00    -0.206 OA
ATOM     20  O   UNL A   1      31.850  22.283  25.434  1.00  0.00    -0.206 OA
BRANCH  18  21
ATOM     21  C   UNL A   1      30.499  24.540  25.389  1.00  0.00     0.186 C 
BRANCH  21  22
ATOM     22  C   UNL A   1      30.708  24.423  23.899  1.00  0.00    -0.017 C 
ATOM     23  C   UNL A   1      30.620  25.437  23.028  1.00  0.00     0.005 C 
ENDBRANCH  21  22
ENDBRANCH  18  21
ENDBRANCH  16  18
ENDBRANCH  10  16
ENDBRANCH   7   9
ENDBRANCH   6   7
ENDBRANCH   5   6
ENDBRANCH   4   5
ENDBRANCH   3   4
ENDBRANCH   2   3
ENDBRANCH   1   2
BRANCH   1  24
ATOM     24  O   UNL A   1      41.734  21.937  26.837  1.00  0.00    -0.377 OA
BRANCH  24  25
ATOM     25  C   UNL A   1      41.873  22.884  25.757  1.00  0.00     0.188 C 
BRANCH  25  26
ATOM     26  C   UNL A   1      43.236  23.511  25.460  1.00  0.00     0.188 C 
BRANCH  26  27
ATOM     27  O   UNL A   1      43.793  23.948  26.703  1.00  0.00    -0.376 OA
BRANCH  27  28
ATOM     28  C   UNL A   1      43.598  25.314  27.027  1.00  0.00     0.202 C 
BRANCH  28  29
ATOM     29  C   UNL A   1      42.807  26.107  25.980  1.00  0.00     0.261 C 
BRANCH  29  30
ATOM     30  O   UNL A   1      41.940  27.086  26.590  1.00  0.00    -0.460 OA
BRANCH  30  31
ATOM     31  C   UNL A   1      40.750  26.615  27.065  1.00  0.00     0.338 C 
ATOM     32  O   UNL A   1      40.053  25.818  26.463  1.00  0.00    -0.246 OA
BRANCH  31  33
ATOM     33  C   UNL A   1      40.521  27.052  28.465  1.00  0.00     0.060 A 
ATOM     34  C   UNL A   1      39.236  27.256  28.987  1.00  0.00     0.016 A 
ATOM     35  C   UNL A   1      41.624  27.330  29.255  1.00  0.00     0.016 A 
ATOM     36  C   UNL A   1      39.062  27.884  30.237  1.00  0.00     0.010 A 
ATOM     37  C   UNL A   1      41.442  27.982  30.455  1.00  0.00     0.010 A 
ATOM     38  C   UNL A   1      40.174  28.314  30.954  1.00  0.00    -0.014 A 
BRANCH  38  39
ATOM     39  C   UNL A   1      40.178  29.206  32.137  1.00  0.00     0.031 A 
ATOM     40  C   UNL A   1      40.708  28.674  33.438  1.00  0.00     0.074 A 
ATOM     41  C   UNL A   1      40.125  30.552  31.946  1.00  0.00     0.049 A 
ATOM     42  N   UNL A   1      40.998  29.401  34.460  1.00  0.00    -0.248 NA
ATOM     43  C   UNL A   1      41.024  27.267  33.687  1.00  0.00     0.031 C 
ATOM     44  C   UNL A   1      40.716  31.591  32.797  1.00  0.00     0.029 A 
ATOM     45  N   UNL A   1      39.578  31.320  30.930  1.00  0.00    -0.354 N 
ATOM     46  C   UNL A   1      41.830  28.693  35.299  1.00  0.00     0.074 A 
ATOM     47  C   UNL A   1      41.744  27.337  34.815  1.00  0.00     0.031 C 
ATOM     48  C   UNL A   1      40.382  32.816  32.365  1.00  0.00     0.029 A 
ATOM     49  C   UNL A   1      39.310  32.600  31.432  1.00  0.00     0.049 A 
ATOM     50  H   UNL A   1      39.407  31.016  30.009  1.00  0.00     0.167 HD
ATOM     51  C   UNL A   1      42.574  29.383  36.217  1.00  0.00     0.031 A 
ATOM     52  C   UNL A   1      38.032  33.017  31.682  1.00  0.00     0.031 A 
ATOM     53  C   UNL A   1      42.147  30.801  36.322  1.00  0.00     0.049 A 
ATOM     54  C   UNL A   1      37.794  33.182  33.195  1.00  0.00     0.074 A 
ATOM     55  C   UNL A   1      42.776  32.034  36.304  1.00  0.00     0.029 A 
ATOM     56  N   UNL A   1      40.778  31.097  36.301  1.00  0.00    -0.354 N 
ATOM     57  N   UNL A   1      38.563  32.623  34.103  1.00  0.00    -0.248 NA
ATOM     58  C   UNL A   1      36.790  34.032  33.832  1.00  0.00     0.031 C 
ATOM     59  C   UNL A   1      41.776  33.053  36.216  1.00  0.00     0.029 A 
ATOM     60  C   UNL A   1      40.528  32.450  36.225  1.00  0.00     0.049 A 
ATOM     61  H   UNL A   1      40.071  30.413  36.339  1.00  0.00     0.167 HD
ATOM     62  C   UNL A   1      38.332  33.149  35.343  1.00  0.00     0.074 A 
ATOM     63  C   UNL A   1      37.123  33.932  35.140  1.00  0.00     0.031 C 
ATOM     64  C   UNL A   1      39.168  32.957  36.416  1.00  0.00     0.031 A 
BRANCH  51  65
ATOM     65  C   UNL A   1      43.805  28.824  36.941  1.00  0.00    -0.014 A 
ATOM     66  C   UNL A   1      43.826  27.477  37.375  1.00  0.00     0.010 A 
ATOM     67  C   UNL A   1      44.951  29.573  37.287  1.00  0.00     0.010 A 
ATOM     68  C   UNL A   1      44.901  26.924  38.103  1.00  0.00     0.020 A 
ATOM     69  C   UNL A   1      46.047  29.028  37.987  1.00  0.00     0.020 A 
ATOM     70  C   UNL A   1      46.014  27.703  38.399  1.00  0.00     0.054 A 
BRANCH  70  71
ATOM     71  S   UNL A   1      47.412  26.969  39.296  1.00  0.00     0.124 S 
ATOM     72  O   UNL A   1      48.558  27.386  38.493  1.00  0.00    -0.237 OA
ATOM     73  O   UNL A   1      47.308  27.588  40.615  1.00  0.00    -0.237 OA
ATOM     74  O   UNL A   1      47.128  25.535  39.267  1.00  0.00    -0.744 OA
ENDBRANCH  70  71
ENDBRANCH  51  65
BRANCH  52  75
ATOM     75  C   UNL A   1      37.144  32.710  30.504  1.00  0.00    -0.014 A 
ATOM     76  C   UNL A   1      35.851  32.253  30.879  1.00  0.00     0.010 A 
ATOM     77  C   UNL A   1      37.245  33.464  29.315  1.00  0.00     0.010 A 
ATOM     78  C   UNL A   1      34.694  32.764  30.271  1.00  0.00     0.020 A 
ATOM     79  C   UNL A   1      36.076  33.956  28.683  1.00  0.00     0.020 A 
ATOM     80  C   UNL A   1      34.815  33.670  29.221  1.00  0.00     0.054 A 
BRANCH  80  81
ATOM     81  S   UNL A   1      33.344  34.660  28.775  1.00  0.00     0.124 S 
ATOM     82  O   UNL A   1      33.930  35.840  28.151  1.00  0.00    -0.237 OA
ATOM     83  O   UNL A   1      32.618  33.763  27.877  1.00  0.00    -0.237 OA
ATOM     84  O   UNL A   1      32.692  34.889  30.061  1.00  0.00    -0.744 OA
ENDBRANCH  80  81
ENDBRANCH  52  75
BRANCH  64  85
ATOM     85  C   UNL A   1      38.783  33.187  37.854  1.00  0.00    -0.014 A 
ATOM     86  C   UNL A   1      39.277  34.200  38.676  1.00  0.00     0.010 A 
ATOM     87  C   UNL A   1      37.840  32.290  38.422  1.00  0.00     0.010 A 
ATOM     88  C   UNL A   1      38.731  34.400  39.953  1.00  0.00     0.020 A 
ATOM     89  C   UNL A   1      37.316  32.456  39.696  1.00  0.00     0.020 A 
ATOM     90  C   UNL A   1      37.724  33.552  40.433  1.00  0.00     0.054 A 
BRANCH  90  91
ATOM     91  S   UNL A   1      36.918  33.913  42.008  1.00  0.00     0.124 S 
ATOM     92  O   UNL A   1      35.510  34.012  41.631  1.00  0.00    -0.237 OA
ATOM     93  O   UNL A   1      37.276  32.739  42.800  1.00  0.00    -0.237 OA
ATOM     94  O   UNL A   1      37.532  35.165  42.440  1.00  0.00    -0.744 OA
ENDBRANCH  90  91
ENDBRANCH  64  85
ENDBRANCH  38  39
ENDBRANCH  31  33
ENDBRANCH  30  31
ENDBRANCH  29  30
ENDBRANCH  28  29
ENDBRANCH  27  28
ENDBRANCH  26  27
ENDBRANCH  25  26
ENDBRANCH  24  25
ENDBRANCH   1  24
TORSDOF 27
ENDMDL
MODEL 2
REMARK VINA RESULT:      -8.8      5.399      7.218
REMARK SMILES C=CCS(=O)(=O)Nc1ccc(C)cc1C(=O)OCCOCCOCCOCCOC(=O)c1ccc(-c2c3nc(c(-c4ccc(S(=O)(=O)[O-])cc4)c4ccc([nH]4)c(-c4ccc(S(=O)(=O)[O-])cc4)c4nc(c(-c5ccc(S(=O)(=O)[O-])cc5)c5ccc2[nH]5)C=C4)C=C3)cc1
REMARK SMILES IDX 22 1 21 2 20 3 19 4 18 5 17 6 15 7 16 8 14 9 8 10 9 11 10 12
REMARK SMILES IDX 13 13 11 14 12 15 7 16 4 18 5 19 6 20 3 21 2 22 1 23 23 24
REMARK SMILES IDX 24 25 25 26 26 27 27 28 28 29 29 30 30 31 31 32 32 33 33 34
REMARK SMILES IDX 91 35 34 36 90 37 35 38 36 39 37 40 84 41 38 42 89 43 83 44
REMARK SMILES IDX 85 45 39 46 88 47 82 48 81 49 40 51 70 52 51 53 69 54 52 55
REMARK SMILES IDX 55 56 68 57 86 58 53 59 54 60 67 62 87 63 56 64 41 65 42 66
REMARK SMILES IDX 50 67 43 68 49 69 44 70 45 71 46 72 47 73 48 74 71 75 72 76
REMARK SMILES IDX 80 77 73 78 79 79 74 80 75 81 76 82 77 83 78 84 57 85 58 86
REMARK SMILES IDX 66 87 59 88 65 89 60 90 61 91 62 92 63 93 64 94
REMARK H PARENT 7 17 85 50 55 61
REMARK Flexibility Score: inf
ROOT
ATOM      1  C   UNL A   1      40.696  21.819  27.238  1.00  0.00     0.188 C 
ENDROOT
BRANCH   1   2
ATOM      2  C   UNL A   1      39.622  22.608  26.461  1.00  0.00     0.188 C 
BRANCH   2   3
ATOM      3  O   UNL A   1      38.298  22.119  26.325  1.00  0.00    -0.376 OA
BRANCH   3   4
ATOM      4  C   UNL A   1      37.955  21.584  25.048  1.00  0.00     0.202 C 
BRANCH   4   5
ATOM      5  C   UNL A   1      36.719  20.716  24.984  1.00  0.00     0.261 C 
BRANCH   5   6
ATOM      6  O   UNL A   1      35.627  21.595  24.710  1.00  0.00    -0.460 OA
BRANCH   6   7
ATOM      7  C   UNL A   1      34.679  21.517  25.643  1.00  0.00     0.340 C 
ATOM      8  O   UNL A   1      34.600  22.130  26.695  1.00  0.00    -0.246 OA
BRANCH   7   9
ATOM      9  C   UNL A   1      33.499  20.947  25.005  1.00  0.00     0.084 A 
ATOM     10  C   UNL A   1      32.775  21.556  23.987  1.00  0.00     0.063 A 
ATOM     11  C   UNL A   1      32.298  20.684  23.018  1.00  0.00     0.028 A 
ATOM     12  C   UNL A   1      32.198  19.301  23.275  1.00  0.00     0.005 A 
ATOM     13  C   UNL A   1      33.315  19.602  25.340  1.00  0.00     0.021 A 
ATOM     14  C   UNL A   1      32.603  18.773  24.498  1.00  0.00    -0.050 A 
ATOM     15  C   UNL A   1      32.419  17.348  24.902  1.00  0.00     0.044 C 
BRANCH  10  16
ATOM     16  N   UNL A   1      32.587  22.983  23.952  1.00  0.00    -0.282 N 
ATOM     17  H   UNL A   1      31.840  23.362  24.469  1.00  0.00     0.180 HD
BRANCH  16  18
ATOM     18  S   UNL A   1      33.564  24.043  23.084  1.00  0.00     0.236 S 
ATOM     19  O   UNL A   1      34.184  23.318  21.988  1.00  0.00    -0.206 OA
ATOM     20  O   UNL A   1      34.416  24.701  24.053  1.00  0.00    -0.206 OA
BRANCH  18  21
ATOM     21  C   UNL A   1      32.465  25.332  22.404  1.00  0.00     0.186 C 
BRANCH  21  22
ATOM     22  C   UNL A   1      32.808  26.700  22.940  1.00  0.00    -0.017 C 
ATOM     23  C   UNL A   1      33.620  27.580  22.340  1.00  0.00     0.005 C 
ENDBRANCH  21  22
ENDBRANCH  18  21
ENDBRANCH  16  18
ENDBRANCH  10  16
ENDBRANCH   7   9
ENDBRANCH   6   7
ENDBRANCH   5   6
ENDBRANCH   4   5
ENDBRANCH   3   4
ENDBRANCH   2   3
ENDBRANCH   1   2
BRANCH   1  24
ATOM     24  O   UNL A   1      40.630  20.406  27.314  1.00  0.00    -0.377 OA
BRANCH  24  25
ATOM     25  C   UNL A   1      41.237  19.647  26.248  1.00  0.00     0.188 C 
BRANCH  25  26
ATOM     26  C   UNL A   1      42.249  18.547  26.572  1.00  0.00     0.188 C 
BRANCH  26  27
ATOM     27  O   UNL A   1      42.970  18.252  25.373  1.00  0.00    -0.376 OA
BRANCH  27  28
ATOM     28  C   UNL A   1      44.325  18.669  25.342  1.00  0.00     0.202 C 
BRANCH  28  29
ATOM     29  C   UNL A   1      44.536  20.096  24.823  1.00  0.00     0.261 C 
BRANCH  29  30
ATOM     30  O   UNL A   1      44.143  21.086  25.798  1.00  0.00    -0.460 OA
BRANCH  30  31
ATOM     31  C   UNL A   1      43.959  22.352  25.323  1.00  0.00     0.338 C 
ATOM     32  O   UNL A   1      43.315  22.608  24.321  1.00  0.00    -0.246 OA
BRANCH  31  33
ATOM     33  C   UNL A   1      44.480  23.364  26.277  1.00  0.00     0.060 A 
ATOM     34  C   UNL A   1      45.788  23.318  26.779  1.00  0.00     0.016 A 
ATOM     35  C   UNL A   1      43.615  24.344  26.731  1.00  0.00     0.016 A 
ATOM     36  C   UNL A   1      46.175  24.152  27.846  1.00  0.00     0.010 A 
ATOM     37  C   UNL A   1      43.990  25.125  27.803  1.00  0.00     0.010 A 
ATOM     38  C   UNL A   1      45.249  25.022  28.414  1.00  0.00    -0.014 A 
BRANCH  38  39
ATOM     39  C   UNL A   1      45.395  25.771  29.683  1.00  0.00     0.031 A 
ATOM     40  C   UNL A   1      44.943  25.121  30.960  1.00  0.00     0.074 A 
ATOM     41  C   UNL A   1      46.291  26.795  29.743  1.00  0.00     0.049 A 
ATOM     42  N   UNL A   1      45.236  25.547  32.139  1.00  0.00    -0.248 NA
ATOM     43  C   UNL A   1      44.167  23.883  31.025  1.00  0.00     0.031 C 
ATOM     44  C   UNL A   1      47.049  27.240  30.918  1.00  0.00     0.029 A 
ATOM     45  N   UNL A   1      46.779  27.653  28.770  1.00  0.00    -0.354 N 
ATOM     46  C   UNL A   1      45.044  24.531  33.049  1.00  0.00     0.074 A 
ATOM     47  C   UNL A   1      44.292  23.543  32.315  1.00  0.00     0.031 C 
ATOM     48  C   UNL A   1      47.763  28.341  30.642  1.00  0.00     0.029 A 
ATOM     49  C   UNL A   1      47.236  28.821  29.394  1.00  0.00     0.049 A 
ATOM     50  H   UNL A   1      46.801  27.471  27.803  1.00  0.00     0.167 HD
ATOM     51  C   UNL A   1      45.658  24.621  34.269  1.00  0.00     0.031 A 
ATOM     52  C   UNL A   1      46.546  29.998  29.299  1.00  0.00     0.031 A 
ATOM     53  C   UNL A   1      46.238  25.967  34.498  1.00  0.00     0.049 A 
ATOM     54  C   UNL A   1      45.944  30.393  30.661  1.00  0.00     0.074 A 
ATOM     55  C   UNL A   1      47.461  26.466  34.914  1.00  0.00     0.029 A 
ATOM     56  N   UNL A   1      45.508  27.094  34.101  1.00  0.00    -0.354 N 
ATOM     57  N   UNL A   1      45.779  29.535  31.644  1.00  0.00    -0.248 NA
ATOM     58  C   UNL A   1      45.578  31.739  31.096  1.00  0.00     0.031 C 
ATOM     59  C   UNL A   1      47.468  27.882  34.708  1.00  0.00     0.029 A 
ATOM     60  C   UNL A   1      46.233  28.261  34.206  1.00  0.00     0.049 A 
ATOM     61  H   UNL A   1      44.577  27.056  33.782  1.00  0.00     0.167 HD
ATOM     62  C   UNL A   1      45.511  30.172  32.822  1.00  0.00     0.074 A 
ATOM     63  C   UNL A   1      45.266  31.542  32.397  1.00  0.00     0.031 C 
ATOM     64  C   UNL A   1      45.566  29.556  34.048  1.00  0.00     0.031 A 
BRANCH  51  65
ATOM     65  C   UNL A   1      45.872  23.441  35.226  1.00  0.00    -0.014 A 
ATOM     66  C   UNL A   1      46.437  22.233  34.754  1.00  0.00     0.010 A 
ATOM     67  C   UNL A   1      45.486  23.422  36.584  1.00  0.00     0.010 A 
ATOM     68  C   UNL A   1      46.597  21.093  35.569  1.00  0.00     0.020 A 
ATOM     69  C   UNL A   1      45.668  22.301  37.421  1.00  0.00     0.020 A 
ATOM     70  C   UNL A   1      46.218  21.136  36.906  1.00  0.00     0.054 A 
BRANCH  70  71
ATOM     71  S   UNL A   1      46.471  19.678  37.959  1.00  0.00     0.124 S 
ATOM     72  O   UNL A   1      45.558  18.701  37.372  1.00  0.00    -0.237 OA
ATOM     73  O   UNL A   1      47.893  19.397  37.783  1.00  0.00    -0.237 OA
ATOM     74  O   UNL A   1      46.097  20.145  39.294  1.00  0.00    -0.744 OA
ENDBRANCH  70  71
ENDBRANCH  51  65
BRANCH  52  75
ATOM     75  C   UNL A   1      46.174  30.270  27.865  1.00  0.00    -0.014 A 
ATOM     76  C   UNL A   1      44.780  30.479  27.676  1.00  0.00     0.010 A 
ATOM     77  C   UNL A   1      47.054  30.976  27.017  1.00  0.00     0.010 A 
ATOM     78  C   UNL A   1      44.303  31.543  26.896  1.00  0.00     0.020 A 
ATOM     79  C   UNL A   1      46.570  32.031  26.206  1.00  0.00     0.020 A 
ATOM     80  C   UNL A   1      45.208  32.358  26.222  1.00  0.00     0.054 A 
BRANCH  80  81
ATOM     81  S   UNL A   1      44.611  33.978  25.620  1.00  0.00     0.124 S 
ATOM     82  O   UNL A   1      45.802  34.547  24.999  1.00  0.00    -0.237 OA
ATOM     83  O   UNL A   1      43.538  33.600  24.701  1.00  0.00    -0.237 OA
ATOM     84  O   UNL A   1      44.160  34.644  26.838  1.00  0.00    -0.744 OA
ENDBRANCH  80  81
ENDBRANCH  52  75
BRANCH  64  85
ATOM     85  C   UNL A   1      44.933  30.090  35.306  1.00  0.00    -0.014 A 
ATOM     86  C   UNL A   1      43.960  29.441  36.066  1.00  0.00     0.010 A 
ATOM     87  C   UNL A   1      45.360  31.370  35.750  1.00  0.00     0.010 A 
ATOM     88  C   UNL A   1      43.556  29.977  37.298  1.00  0.00     0.020 A 
ATOM     89  C   UNL A   1      44.942  31.927  36.951  1.00  0.00     0.020 A 
ATOM     90  C   UNL A   1      44.084  31.193  37.749  1.00  0.00     0.054 A 
BRANCH  90  91
ATOM     91  S   UNL A   1      43.680  31.793  39.403  1.00  0.00     0.124 S 
ATOM     92  O   UNL A   1      44.206  30.736  40.265  1.00  0.00    -0.237 OA
ATOM     93  O   UNL A   1      44.407  33.059  39.445  1.00  0.00    -0.237 OA
ATOM     94  O   UNL A   1      42.225  31.912  39.389  1.00  0.00    -0.744 OA
ENDBRANCH  90  91
ENDBRANCH  64  85
ENDBRANCH  38  39
ENDBRANCH  31  33
ENDBRANCH  30  31
ENDBRANCH  29  30
ENDBRANCH  28  29
ENDBRANCH  27  28
ENDBRANCH  26  27
ENDBRANCH  25  26
ENDBRANCH  24  25
ENDBRANCH   1  24
TORSDOF 27
ENDMDL
MODEL 3
REMARK VINA RESULT:      -8.5      1.765      2.619
REMARK SMILES C=CCS(=O)(=O)Nc1ccc(C)cc1C(=O)OCCOCCOCCOCCOC(=O)c1ccc(-c2c3nc(c(-c4ccc(S(=O)(=O)[O-])cc4)c4ccc([nH]4)c(-c4ccc(S(=O)(=O)[O-])cc4)c4nc(c(-c5ccc(S(=O)(=O)[O-])cc5)c5ccc2[nH]5)C=C4)C=C3)cc1
REMARK SMILES IDX 22 1 21 2 20 3 19 4 18 5 17 6 15 7 16 8 14 9 8 10 9 11 10 12
REMARK SMILES IDX 13 13 11 14 12 15 7 16 4 18 5 19 6 20 3 21 2 22 1 23 23 24
REMARK SMILES IDX 24 25 25 26 26 27 27 28 28 29 29 30 30 31 31 32 32 33 33 34
REMARK SMILES IDX 91 35 34 36 90 37 35 38 36 39 37 40 84 41 38 42 89 43 83 44
REMARK SMILES IDX 85 45 39 46 88 47 82 48 81 49 40 51 70 52 51 53 69 54 52 55
REMARK SMILES IDX 55 56 68 57 86 58 53 59 54 60 67 62 87 63 56 64 41 65 42 66
REMARK SMILES IDX 50 67 43 68 49 69 44 70 45 71 46 72 47 73 48 74 71 75 72 76
REMARK SMILES IDX 80 77 73 78 79 79 74 80 75 81 76 82 77 83 78 84 57 85 58 86
REMARK SMILES IDX 66 87 59 88 65 89 60 90 61 91 62 92 63 93 64 94
REMARK H PARENT 7 17 85 50 55 61
REMARK Flexibility Score: inf
ROOT
ATOM      1  C   UNL A   1      41.140  20.798  27.506  1.00  0.00     0.188 C 
ENDROOT
BRANCH   1   2
ATOM      2  C   UNL A   1      40.277  20.486  26.266  1.00  0.00     0.188 C 
BRANCH   2   3
ATOM      3  O   UNL A   1      39.648  21.517  25.524  1.00  0.00    -0.376 OA
BRANCH   3   4
ATOM      4  C   UNL A   1      38.284  21.782  25.849  1.00  0.00     0.202 C 
BRANCH   4   5
ATOM      5  C   UNL A   1      37.239  20.977  25.108  1.00  0.00     0.261 C 
BRANCH   5   6
ATOM      6  O   UNL A   1      35.980  21.571  25.424  1.00  0.00    -0.460 OA
BRANCH   6   7
ATOM      7  C   UNL A   1      35.493  22.276  24.402  1.00  0.00     0.340 C 
ATOM      8  O   UNL A   1      36.106  22.864  23.527  1.00  0.00    -0.246 OA
BRANCH   7   9
ATOM      9  C   UNL A   1      34.115  21.842  24.206  1.00  0.00     0.084 A 
ATOM     10  C   UNL A   1      33.163  22.533  23.464  1.00  0.00     0.063 A 
ATOM     11  C   UNL A   1      32.304  21.724  22.734  1.00  0.00     0.028 A 
ATOM     12  C   UNL A   1      32.150  20.359  23.051  1.00  0.00     0.005 A 
ATOM     13  C   UNL A   1      33.912  20.524  24.624  1.00  0.00     0.021 A 
ATOM     14  C   UNL A   1      32.879  19.782  24.088  1.00  0.00    -0.050 A 
ATOM     15  C   UNL A   1      32.690  18.383  24.573  1.00  0.00     0.044 C 
BRANCH  10  16
ATOM     16  N   UNL A   1      33.125  23.972  23.451  1.00  0.00    -0.282 N 
ATOM     17  H   UNL A   1      33.982  24.456  23.457  1.00  0.00     0.180 HD
BRANCH  16  18
ATOM     18  S   UNL A   1      31.706  24.878  23.423  1.00  0.00     0.236 S 
ATOM     19  O   UNL A   1      30.682  24.167  24.168  1.00  0.00    -0.206 OA
ATOM     20  O   UNL A   1      31.457  25.204  22.034  1.00  0.00    -0.206 OA
BRANCH  18  21
ATOM     21  C   UNL A   1      32.075  26.455  24.264  1.00  0.00     0.186 C 
BRANCH  21  22
ATOM     22  C   UNL A   1      33.521  26.541  24.686  1.00  0.00    -0.017 C 
ATOM     23  C   UNL A   1      33.967  27.168  25.782  1.00  0.00     0.005 C 
ENDBRANCH  21  22
ENDBRANCH  18  21
ENDBRANCH  16  18
ENDBRANCH  10  16
ENDBRANCH   7   9
ENDBRANCH   6   7
ENDBRANCH   5   6
ENDBRANCH   4   5
ENDBRANCH   3   4
ENDBRANCH   2   3
ENDBRANCH   1   2
BRANCH   1  24
ATOM     24  O   UNL A   1      41.473  22.137  27.828  1.00  0.00    -0.377 OA
BRANCH  24  25
ATOM     25  C   UNL A   1      42.538  22.762  27.082  1.00  0.00     0.188 C 
BRANCH  25  26
ATOM     26  C   UNL A   1      42.268  24.039  26.286  1.00  0.00     0.188 C 
BRANCH  26  27
ATOM     27  O   UNL A   1      40.858  24.278  26.314  1.00  0.00    -0.376 OA
BRANCH  27  28
ATOM     28  C   UNL A   1      40.453  25.631  26.185  1.00  0.00     0.202 C 
BRANCH  28  29
ATOM     29  C   UNL A   1      41.595  26.608  25.884  1.00  0.00     0.261 C 
BRANCH  29  30
ATOM     30  O   UNL A   1      41.151  27.981  25.921  1.00  0.00    -0.460 OA
BRANCH  30  31
ATOM     31  C   UNL A   1      41.963  28.854  26.587  1.00  0.00     0.338 C 
ATOM     32  O   UNL A   1      42.755  29.594  26.031  1.00  0.00    -0.246 OA
BRANCH  31  33
ATOM     33  C   UNL A   1      41.620  28.910  28.030  1.00  0.00     0.060 A 
ATOM     34  C   UNL A   1      40.339  28.602  28.510  1.00  0.00     0.016 A 
ATOM     35  C   UNL A   1      42.587  29.348  28.918  1.00  0.00     0.016 A 
ATOM     36  C   UNL A   1      39.987  28.883  29.845  1.00  0.00     0.010 A 
ATOM     37  C   UNL A   1      42.221  29.659  30.210  1.00  0.00     0.010 A 
ATOM     38  C   UNL A   1      40.915  29.481  30.692  1.00  0.00    -0.014 A 
BRANCH  38  39
ATOM     39  C   UNL A   1      40.650  30.075  32.023  1.00  0.00     0.031 A 
ATOM     40  C   UNL A   1      41.228  29.407  33.238  1.00  0.00     0.074 A 
ATOM     41  C   UNL A   1      40.289  31.385  32.098  1.00  0.00     0.049 A 
ATOM     42  N   UNL A   1      41.287  29.943  34.407  1.00  0.00    -0.248 NA
ATOM     43  C   UNL A   1      41.856  28.085  33.233  1.00  0.00     0.031 C 
ATOM     44  C   UNL A   1      40.575  32.322  33.192  1.00  0.00     0.029 A 
ATOM     45  N   UNL A   1      39.625  32.213  31.206  1.00  0.00    -0.354 N 
ATOM     46  C   UNL A   1      42.221  29.274  35.166  1.00  0.00     0.074 A 
ATOM     47  C   UNL A   1      42.483  28.069  34.417  1.00  0.00     0.031 C 
ATOM     48  C   UNL A   1      39.981  33.505  32.980  1.00  0.00     0.029 A 
ATOM     49  C   UNL A   1      39.038  33.263  31.923  1.00  0.00     0.049 A 
ATOM     50  H   UNL A   1      39.576  32.084  30.231  1.00  0.00     0.167 HD
ATOM     51  C   UNL A   1      42.735  29.898  36.271  1.00  0.00     0.031 A 
ATOM     52  C   UNL A   1      37.686  33.322  32.125  1.00  0.00     0.031 A 
ATOM     53  C   UNL A   1      41.979  31.128  36.612  1.00  0.00     0.049 A 
ATOM     54  C   UNL A   1      37.343  33.101  33.610  1.00  0.00     0.074 A 
ATOM     55  C   UNL A   1      42.298  32.445  36.900  1.00  0.00     0.029 A 
ATOM     56  N   UNL A   1      40.582  31.111  36.518  1.00  0.00    -0.354 N 
ATOM     57  N   UNL A   1      38.178  32.545  34.460  1.00  0.00    -0.248 NA
ATOM     58  C   UNL A   1      36.137  33.550  34.303  1.00  0.00     0.031 C 
ATOM     59  C   UNL A   1      41.090  33.212  36.919  1.00  0.00     0.029 A 
ATOM     60  C   UNL A   1      40.023  32.359  36.686  1.00  0.00     0.049 A 
ATOM     61  H   UNL A   1      40.056  30.296  36.350  1.00  0.00     0.167 HD
ATOM     62  C   UNL A   1      37.769  32.727  35.751  1.00  0.00     0.074 A 
ATOM     63  C   UNL A   1      36.420  33.247  35.590  1.00  0.00     0.031 C 
ATOM     64  C   UNL A   1      38.573  32.499  36.841  1.00  0.00     0.031 A 
BRANCH  51  65
ATOM     65  C   UNL A   1      44.027  29.482  36.986  1.00  0.00    -0.014 A 
ATOM     66  C   UNL A   1      44.231  28.134  37.363  1.00  0.00     0.010 A 
ATOM     67  C   UNL A   1      45.056  30.367  37.376  1.00  0.00     0.010 A 
ATOM     68  C   UNL A   1      45.368  27.704  38.080  1.00  0.00     0.020 A 
ATOM     69  C   UNL A   1      46.212  29.949  38.066  1.00  0.00     0.020 A 
ATOM     70  C   UNL A   1      46.360  28.616  38.422  1.00  0.00     0.054 A 
BRANCH  70  71
ATOM     71  S   UNL A   1      47.840  28.044  39.306  1.00  0.00     0.124 S 
ATOM     72  O   UNL A   1      48.314  26.954  38.456  1.00  0.00    -0.237 OA
ATOM     73  O   UNL A   1      48.682  29.236  39.328  1.00  0.00    -0.237 OA
ATOM     74  O   UNL A   1      47.327  27.629  40.611  1.00  0.00    -0.744 OA
ENDBRANCH  70  71
ENDBRANCH  51  65
BRANCH  52  75
ATOM     75  C   UNL A   1      36.955  33.087  30.829  1.00  0.00    -0.014 A 
ATOM     76  C   UNL A   1      35.664  32.518  31.007  1.00  0.00     0.010 A 
ATOM     77  C   UNL A   1      37.131  33.964  29.737  1.00  0.00     0.010 A 
ATOM     78  C   UNL A   1      34.547  33.020  30.323  1.00  0.00     0.020 A 
ATOM     79  C   UNL A   1      36.006  34.449  29.025  1.00  0.00     0.020 A 
ATOM     80  C   UNL A   1      34.717  34.035  29.385  1.00  0.00     0.054 A 
BRANCH  80  81
ATOM     81  S   UNL A   1      33.238  34.978  28.871  1.00  0.00     0.124 S 
ATOM     82  O   UNL A   1      33.813  36.179  28.279  1.00  0.00    -0.237 OA
ATOM     83  O   UNL A   1      32.585  34.061  27.936  1.00  0.00    -0.237 OA
ATOM     84  O   UNL A   1      32.517  35.181  30.124  1.00  0.00    -0.744 OA
ENDBRANCH  80  81
ENDBRANCH  52  75
BRANCH  64  85
ATOM     85  C   UNL A   1      38.075  32.323  38.252  1.00  0.00    -0.014 A 
ATOM     86  C   UNL A   1      37.087  31.427  38.660  1.00  0.00     0.010 A 
ATOM     87  C   UNL A   1      38.659  33.147  39.250  1.00  0.00     0.010 A 
ATOM     88  C   UNL A   1      36.816  31.252  40.025  1.00  0.00     0.020 A 
ATOM     89  C   UNL A   1      38.374  33.008  40.601  1.00  0.00     0.020 A 
ATOM     90  C   UNL A   1      37.494  32.014  40.986  1.00  0.00     0.054 A 
BRANCH  90  91
ATOM     91  S   UNL A   1      37.254  31.671  42.742  1.00  0.00     0.124 S 
ATOM     92  O   UNL A   1      38.066  32.701  43.384  1.00  0.00    -0.237 OA
ATOM     93  O   UNL A   1      35.808  31.833  42.880  1.00  0.00    -0.237 OA
ATOM     94  O   UNL A   1      37.744  30.305  42.904  1.00  0.00    -0.744 OA
ENDBRANCH  90  91
ENDBRANCH  64  85
ENDBRANCH  38  39
ENDBRANCH  31  33
ENDBRANCH  30  31
ENDBRANCH  29  30
ENDBRANCH  28  29
ENDBRANCH  27  28
ENDBRANCH  26  27
ENDBRANCH  25  26
ENDBRANCH  24  25
ENDBRANCH   1  24
TORSDOF 27
ENDMDL
