MODEL 1
REMARK VINA RESULT:     -10.5      0.000      0.000
REMARK SMILES Cc1ccccc1NC(=O)CSc1nc(C(=O)OCCOCCOCCOCCOC(=O)c2ccc(-c3c4nc(c(-c5ccc(S(=O)(=O)[O-])cc5)c5ccc([nH]5)c(-c5ccc(S(=O)(=O)[O-])cc5)c5nc(c(-c6ccc(S(=O)(=O)[O-])cc6)c6ccc3[nH]6)C=C5)C=C4)cc2)c2ccccc2n1
REMARK SMILES IDX 23 1 22 2 21 3 20 4 19 5 18 6 16 7 17 8 15 9 13 10 14 11
REMARK SMILES IDX 99 12 98 13 93 14 97 15 94 16 96 17 95 18 12 19 11 20 9 21
REMARK SMILES IDX 8 22 10 24 7 25 1 26 2 27 3 28 4 29 6 30 5 31 24 32 25 33
REMARK SMILES IDX 26 34 27 35 28 36 29 37 30 38 31 39 32 40 33 41 34 42 92 43
REMARK SMILES IDX 35 44 91 45 36 46 37 47 38 48 85 49 39 50 90 51 84 52 86 53
REMARK SMILES IDX 40 54 89 55 83 56 82 57 41 59 71 60 52 61 70 62 53 63 56 64
REMARK SMILES IDX 69 65 87 66 54 67 55 68 68 70 88 71 57 72 42 73 43 74 51 75
REMARK SMILES IDX 44 76 50 77 45 78 46 79 47 80 48 81 49 82 72 83 73 84 81 85
REMARK SMILES IDX 74 86 80 87 75 88 76 89 77 90 78 91 79 92 58 93 59 94 67 95
REMARK SMILES IDX 60 96 66 97 61 98 62 99 63 100 64 101 65 102
REMARK H PARENT 8 23 86 58 56 69
REMARK Flexibility Score: inf
ROOT
ATOM      1  C   UNL A   1      34.358  28.696  23.580  1.00  0.00     0.188 C 
ENDROOT
BRANCH   1   2
ATOM      2  C   UNL A   1      33.441  27.850  22.691  1.00  0.00     0.188 C 
BRANCH   2   3
ATOM      3  O   UNL A   1      34.033  26.798  21.941  1.00  0.00    -0.376 OA
BRANCH   3   4
ATOM      4  C   UNL A   1      33.903  25.484  22.487  1.00  0.00     0.202 C 
BRANCH   4   5
ATOM      5  C   UNL A   1      32.745  24.661  21.930  1.00  0.00     0.261 C 
BRANCH   5   6
ATOM      6  O   UNL A   1      33.041  23.261  22.100  1.00  0.00    -0.458 OA
BRANCH   6   7
ATOM      7  C   UNL A   1      32.225  22.635  22.973  1.00  0.00     0.357 C 
ATOM      8  O   UNL A   1      31.013  22.568  22.915  1.00  0.00    -0.244 OA
BRANCH   7   9
ATOM      9  C   UNL A   1      32.994  21.608  23.710  1.00  0.00     0.160 A 
ATOM     10  C   UNL A   1      33.895  21.534  25.756  1.00  0.00     0.189 A 
ATOM     11  N   UNL A   1      33.677  22.232  24.673  1.00  0.00    -0.215 NA
ATOM     12  N   UNL A   1      34.015  20.205  25.755  1.00  0.00    -0.222 NA
ATOM     13  C   UNL A   1      33.601  19.567  24.649  1.00  0.00     0.076 A 
ATOM     14  C   UNL A   1      32.902  20.224  23.633  1.00  0.00     0.034 A 
ATOM     15  C   UNL A   1      33.780  18.193  24.542  1.00  0.00     0.029 A 
ATOM     16  C   UNL A   1      32.195  19.464  22.681  1.00  0.00     0.013 A 
ATOM     17  C   UNL A   1      33.179  17.450  23.522  1.00  0.00     0.002 A 
ATOM     18  C   UNL A   1      32.330  18.082  22.625  1.00  0.00     0.001 A 
BRANCH  10  19
ATOM     19  S   UNL A   1      33.285  22.351  27.210  1.00  0.00    -0.076 SA
BRANCH  19  20
ATOM     20  C   UNL A   1      32.318  23.742  26.434  1.00  0.00     0.178 C 
BRANCH  20  21
ATOM     21  C   UNL A   1      30.817  23.797  26.743  1.00  0.00     0.234 C 
ATOM     22  N   UNL A   1      29.939  24.628  26.105  1.00  0.00    -0.325 N 
ATOM     23  H   UNL A   1      28.989  24.410  26.244  1.00  0.00     0.169 HD
ATOM     24  O   UNL A   1      30.335  23.080  27.628  1.00  0.00    -0.274 OA
BRANCH  22  25
ATOM     25  C   UNL A   1      30.171  25.739  25.287  1.00  0.00     0.044 A 
ATOM     26  C   UNL A   1      31.136  27.083  27.253  1.00  0.00     0.046 C 
ATOM     27  C   UNL A   1      30.648  26.939  25.837  1.00  0.00    -0.027 A 
ATOM     28  C   UNL A   1      30.676  28.083  25.019  1.00  0.00     0.005 A 
ATOM     29  C   UNL A   1      30.258  28.032  23.688  1.00  0.00     0.000 A 
ATOM     30  C   UNL A   1      29.894  25.673  23.915  1.00  0.00     0.026 A 
ATOM     31  C   UNL A   1      29.890  26.819  23.128  1.00  0.00     0.002 A 
ENDBRANCH  22  25
ENDBRANCH  20  21
ENDBRANCH  19  20
ENDBRANCH  10  19
ENDBRANCH   7   9
ENDBRANCH   6   7
ENDBRANCH   5   6
ENDBRANCH   4   5
ENDBRANCH   3   4
ENDBRANCH   2   3
ENDBRANCH   1   2
BRANCH   1  32
ATOM     32  O   UNL A   1      34.097  28.689  24.975  1.00  0.00    -0.377 OA
BRANCH  32  33
ATOM     33  C   UNL A   1      33.267  29.714  25.543  1.00  0.00     0.188 C 
BRANCH  33  34
ATOM     34  C   UNL A   1      33.238  29.878  27.063  1.00  0.00     0.188 C 
BRANCH  34  35
ATOM     35  O   UNL A   1      33.401  31.266  27.376  1.00  0.00    -0.376 OA
BRANCH  35  36
ATOM     36  C   UNL A   1      34.732  31.697  27.638  1.00  0.00     0.202 C 
BRANCH  36  37
ATOM     37  C   UNL A   1      35.671  30.603  28.160  1.00  0.00     0.261 C 
BRANCH  37  38
ATOM     38  O   UNL A   1      37.055  31.009  28.113  1.00  0.00    -0.460 OA
BRANCH  38  39
ATOM     39  C   UNL A   1      37.738  30.900  29.291  1.00  0.00     0.338 C 
ATOM     40  O   UNL A   1      37.333  31.341  30.348  1.00  0.00    -0.246 OA
BRANCH  39  41
ATOM     41  C   UNL A   1      38.976  30.095  29.109  1.00  0.00     0.060 A 
ATOM     42  C   UNL A   1      40.040  30.168  30.019  1.00  0.00     0.016 A 
ATOM     43  C   UNL A   1      39.131  29.376  27.934  1.00  0.00     0.016 A 
ATOM     44  C   UNL A   1      41.304  29.644  29.682  1.00  0.00     0.010 A 
ATOM     45  C   UNL A   1      40.392  28.956  27.570  1.00  0.00     0.010 A 
ATOM     46  C   UNL A   1      41.505  29.083  28.419  1.00  0.00    -0.014 A 
BRANCH  46  47
ATOM     47  C   UNL A   1      42.797  28.749  27.778  1.00  0.00     0.031 A 
ATOM     48  C   UNL A   1      43.691  29.872  27.285  1.00  0.00     0.074 A 
ATOM     49  C   UNL A   1      43.344  27.532  28.024  1.00  0.00     0.049 A 
ATOM     50  N   UNL A   1      44.945  29.767  26.989  1.00  0.00    -0.248 NA
ATOM     51  C   UNL A   1      43.227  31.252  27.106  1.00  0.00     0.031 C 
ATOM     52  C   UNL A   1      44.775  27.302  28.208  1.00  0.00     0.029 A 
ATOM     53  N   UNL A   1      42.826  26.274  28.283  1.00  0.00    -0.354 N 
ATOM     54  C   UNL A   1      45.505  31.028  26.918  1.00  0.00     0.074 A 
ATOM     55  C   UNL A   1      44.374  31.920  26.929  1.00  0.00     0.031 C 
ATOM     56  C   UNL A   1      45.023  26.018  28.468  1.00  0.00     0.029 A 
ATOM     57  C   UNL A   1      43.826  25.306  28.137  1.00  0.00     0.049 A 
ATOM     58  H   UNL A   1      41.892  26.088  28.533  1.00  0.00     0.167 HD
ATOM     59  C   UNL A   1      46.866  31.176  26.971  1.00  0.00     0.031 A 
ATOM     60  C   UNL A   1      43.860  24.363  27.146  1.00  0.00     0.031 A 
ATOM     61  C   UNL A   1      47.569  29.884  26.844  1.00  0.00     0.049 A 
ATOM     62  C   UNL A   1      45.044  24.575  26.195  1.00  0.00     0.074 A 
ATOM     63  C   UNL A   1      48.591  29.273  27.544  1.00  0.00     0.029 A 
ATOM     64  N   UNL A   1      47.135  28.927  25.918  1.00  0.00    -0.354 N 
ATOM     65  N   UNL A   1      45.589  25.756  25.992  1.00  0.00    -0.248 NA
ATOM     66  C   UNL A   1      45.810  23.517  25.539  1.00  0.00     0.031 C 
ATOM     67  C   UNL A   1      48.651  27.906  27.155  1.00  0.00     0.029 A 
ATOM     68  C   UNL A   1      47.757  27.711  26.114  1.00  0.00     0.049 A 
ATOM     69  H   UNL A   1      46.468  29.100  25.214  1.00  0.00     0.167 HD
ATOM     70  C   UNL A   1      46.778  25.625  25.325  1.00  0.00     0.074 A 
ATOM     71  C   UNL A   1      46.844  24.207  25.014  1.00  0.00     0.031 C 
ATOM     72  C   UNL A   1      47.671  26.644  25.125  1.00  0.00     0.031 A 
BRANCH  59  73
ATOM     73  C   UNL A   1      47.605  32.481  27.326  1.00  0.00    -0.014 A 
ATOM     74  C   UNL A   1      47.379  33.109  28.576  1.00  0.00     0.010 A 
ATOM     75  C   UNL A   1      48.458  33.196  26.459  1.00  0.00     0.010 A 
ATOM     76  C   UNL A   1      47.933  34.358  28.927  1.00  0.00     0.020 A 
ATOM     77  C   UNL A   1      49.058  34.427  26.812  1.00  0.00     0.020 A 
ATOM     78  C   UNL A   1      48.779  35.012  28.041  1.00  0.00     0.054 A 
BRANCH  78  79
ATOM     79  S   UNL A   1      49.529  36.596  28.519  1.00  0.00     0.124 S 
ATOM     80  O   UNL A   1      50.637  36.724  27.575  1.00  0.00    -0.237 OA
ATOM     81  O   UNL A   1      48.432  37.543  28.335  1.00  0.00    -0.237 OA
ATOM     82  O   UNL A   1      49.929  36.384  29.910  1.00  0.00    -0.744 OA
ENDBRANCH  78  79
ENDBRANCH  59  73
BRANCH  60  83
ATOM     83  C   UNL A   1      42.582  23.591  27.043  1.00  0.00    -0.014 A 
ATOM     84  C   UNL A   1      42.368  23.066  25.743  1.00  0.00     0.010 A 
ATOM     85  C   UNL A   1      42.213  22.795  28.147  1.00  0.00     0.010 A 
ATOM     86  C   UNL A   1      42.193  21.688  25.566  1.00  0.00     0.020 A 
ATOM     87  C   UNL A   1      42.016  21.413  27.969  1.00  0.00     0.020 A 
ATOM     88  C   UNL A   1      42.112  20.862  26.687  1.00  0.00     0.054 A 
BRANCH  88  89
ATOM     89  S   UNL A   1      42.508  19.091  26.471  1.00  0.00     0.124 S 
ATOM     90  O   UNL A   1      42.648  18.629  27.845  1.00  0.00    -0.237 OA
ATOM     91  O   UNL A   1      41.335  18.600  25.747  1.00  0.00    -0.237 OA
ATOM     92  O   UNL A   1      43.735  19.120  25.681  1.00  0.00    -0.744 OA
ENDBRANCH  88  89
ENDBRANCH  60  83
BRANCH  72  93
ATOM     93  C   UNL A   1      48.656  26.739  23.975  1.00  0.00    -0.014 A 
ATOM     94  C   UNL A   1      48.290  27.079  22.668  1.00  0.00     0.010 A 
ATOM     95  C   UNL A   1      50.051  26.710  24.258  1.00  0.00     0.010 A 
ATOM     96  C   UNL A   1      49.258  27.367  21.698  1.00  0.00     0.020 A 
ATOM     97  C   UNL A   1      51.022  27.032  23.311  1.00  0.00     0.020 A 
ATOM     98  C   UNL A   1      50.615  27.357  22.027  1.00  0.00     0.054 A 
BRANCH  98  99
ATOM     99  S   UNL A   1      51.823  27.867  20.785  1.00  0.00     0.124 S 
ATOM    100  O   UNL A   1      51.838  26.714  19.888  1.00  0.00    -0.237 OA
ATOM    101  O   UNL A   1      51.218  29.079  20.234  1.00  0.00    -0.237 OA
ATOM    102  O   UNL A   1      53.048  28.084  21.550  1.00  0.00    -0.744 OA
ENDBRANCH  98  99
ENDBRANCH  72  93
ENDBRANCH  46  47
ENDBRANCH  39  41
ENDBRANCH  38  39
ENDBRANCH  37  38
ENDBRANCH  36  37
ENDBRANCH  35  36
ENDBRANCH  34  35
ENDBRANCH  33  34
ENDBRANCH  32  33
ENDBRANCH   1  32
TORSDOF 27
ENDMDL
MODEL 2
REMARK VINA RESULT:     -10.2      4.681      9.469
REMARK SMILES Cc1ccccc1NC(=O)CSc1nc(C(=O)OCCOCCOCCOCCOC(=O)c2ccc(-c3c4nc(c(-c5ccc(S(=O)(=O)[O-])cc5)c5ccc([nH]5)c(-c5ccc(S(=O)(=O)[O-])cc5)c5nc(c(-c6ccc(S(=O)(=O)[O-])cc6)c6ccc3[nH]6)C=C5)C=C4)cc2)c2ccccc2n1
REMARK SMILES IDX 23 1 22 2 21 3 20 4 19 5 18 6 16 7 17 8 15 9 13 10 14 11
REMARK SMILES IDX 99 12 98 13 93 14 97 15 94 16 96 17 95 18 12 19 11 20 9 21
REMARK SMILES IDX 8 22 10 24 7 25 1 26 2 27 3 28 4 29 6 30 5 31 24 32 25 33
REMARK SMILES IDX 26 34 27 35 28 36 29 37 30 38 31 39 32 40 33 41 34 42 92 43
REMARK SMILES IDX 35 44 91 45 36 46 37 47 38 48 85 49 39 50 90 51 84 52 86 53
REMARK SMILES IDX 40 54 89 55 83 56 82 57 41 59 71 60 52 61 70 62 53 63 56 64
REMARK SMILES IDX 69 65 87 66 54 67 55 68 68 70 88 71 57 72 42 73 43 74 51 75
REMARK SMILES IDX 44 76 50 77 45 78 46 79 47 80 48 81 49 82 72 83 73 84 81 85
REMARK SMILES IDX 74 86 80 87 75 88 76 89 77 90 78 91 79 92 58 93 59 94 67 95
REMARK SMILES IDX 60 96 66 97 61 98 62 99 63 100 64 101 65 102
REMARK H PARENT 8 23 86 58 56 69
REMARK Flexibility Score: inf
ROOT
ATOM      1  C   UNL A   1      33.379  28.051  24.744  1.00  0.00     0.188 C 
ENDROOT
BRANCH   1   2
ATOM      2  C   UNL A   1      32.742  27.058  23.766  1.00  0.00     0.188 C 
BRANCH   2   3
ATOM      3  O   UNL A   1      33.296  26.966  22.461  1.00  0.00    -0.376 OA
BRANCH   3   4
ATOM      4  C   UNL A   1      33.294  25.668  21.865  1.00  0.00     0.202 C 
BRANCH   4   5
ATOM      5  C   UNL A   1      32.287  24.684  22.453  1.00  0.00     0.261 C 
BRANCH   5   6
ATOM      6  O   UNL A   1      32.898  23.381  22.535  1.00  0.00    -0.458 OA
BRANCH   6   7
ATOM      7  C   UNL A   1      32.130  22.459  23.151  1.00  0.00     0.357 C 
ATOM      8  O   UNL A   1      30.951  22.245  22.953  1.00  0.00    -0.244 OA
BRANCH   7   9
ATOM      9  C   UNL A   1      32.998  21.397  23.708  1.00  0.00     0.160 A 
ATOM     10  C   UNL A   1      34.121  21.178  25.629  1.00  0.00     0.189 A 
ATOM     11  N   UNL A   1      33.770  21.958  24.641  1.00  0.00    -0.215 NA
ATOM     12  N   UNL A   1      34.267  19.858  25.500  1.00  0.00    -0.222 NA
ATOM     13  C   UNL A   1      33.745  19.303  24.395  1.00  0.00     0.076 A 
ATOM     14  C   UNL A   1      32.925  20.022  23.521  1.00  0.00     0.034 A 
ATOM     15  C   UNL A   1      33.939  17.948  24.150  1.00  0.00     0.029 A 
ATOM     16  C   UNL A   1      32.132  19.324  22.590  1.00  0.00     0.013 A 
ATOM     17  C   UNL A   1      33.243  17.276  23.141  1.00  0.00     0.002 A 
ATOM     18  C   UNL A   1      32.288  17.956  22.400  1.00  0.00     0.001 A 
BRANCH  10  19
ATOM     19  S   UNL A   1      33.661  21.852  27.206  1.00  0.00    -0.076 SA
BRANCH  19  20
ATOM     20  C   UNL A   1      34.983  23.147  27.417  1.00  0.00     0.178 C 
BRANCH  20  21
ATOM     21  C   UNL A   1      35.295  24.023  26.198  1.00  0.00     0.234 C 
ATOM     22  N   UNL A   1      36.499  24.026  25.551  1.00  0.00    -0.325 N 
ATOM     23  H   UNL A   1      36.493  24.464  24.669  1.00  0.00     0.169 HD
ATOM     24  O   UNL A   1      34.443  24.803  25.755  1.00  0.00    -0.274 OA
BRANCH  22  25
ATOM     25  C   UNL A   1      37.740  23.508  25.938  1.00  0.00     0.044 A 
ATOM     26  C   UNL A   1      37.383  21.391  24.525  1.00  0.00     0.046 C 
ATOM     27  C   UNL A   1      38.128  22.220  25.535  1.00  0.00    -0.027 A 
ATOM     28  C   UNL A   1      39.286  21.664  26.108  1.00  0.00     0.005 A 
ATOM     29  C   UNL A   1      40.045  22.372  27.040  1.00  0.00     0.000 A 
ATOM     30  C   UNL A   1      38.590  24.258  26.761  1.00  0.00     0.026 A 
ATOM     31  C   UNL A   1      39.711  23.682  27.349  1.00  0.00     0.002 A 
ENDBRANCH  22  25
ENDBRANCH  20  21
ENDBRANCH  19  20
ENDBRANCH  10  19
ENDBRANCH   7   9
ENDBRANCH   6   7
ENDBRANCH   5   6
ENDBRANCH   4   5
ENDBRANCH   3   4
ENDBRANCH   2   3
ENDBRANCH   1   2
BRANCH   1  32
ATOM     32  O   UNL A   1      33.196  27.807  26.130  1.00  0.00    -0.377 OA
BRANCH  32  33
ATOM     33  C   UNL A   1      32.036  28.334  26.792  1.00  0.00     0.188 C 
BRANCH  33  34
ATOM     34  C   UNL A   1      31.953  29.841  27.041  1.00  0.00     0.188 C 
BRANCH  34  35
ATOM     35  O   UNL A   1      33.133  30.254  27.741  1.00  0.00    -0.376 OA
BRANCH  35  36
ATOM     36  C   UNL A   1      33.846  31.347  27.176  1.00  0.00     0.202 C 
BRANCH  36  37
ATOM     37  C   UNL A   1      33.655  32.684  27.902  1.00  0.00     0.261 C 
BRANCH  37  38
ATOM     38  O   UNL A   1      34.331  32.708  29.177  1.00  0.00    -0.460 OA
BRANCH  38  39
ATOM     39  C   UNL A   1      35.617  33.165  29.150  1.00  0.00     0.338 C 
ATOM     40  O   UNL A   1      35.915  34.333  28.999  1.00  0.00    -0.246 OA
BRANCH  39  41
ATOM     41  C   UNL A   1      36.575  32.060  29.424  1.00  0.00     0.060 A 
ATOM     42  C   UNL A   1      36.205  30.937  30.178  1.00  0.00     0.016 A 
ATOM     43  C   UNL A   1      37.900  32.224  29.050  1.00  0.00     0.016 A 
ATOM     44  C   UNL A   1      37.188  30.061  30.679  1.00  0.00     0.010 A 
ATOM     45  C   UNL A   1      38.861  31.422  29.625  1.00  0.00     0.010 A 
ATOM     46  C   UNL A   1      38.539  30.334  30.454  1.00  0.00    -0.014 A 
BRANCH  46  47
ATOM     47  C   UNL A   1      39.706  29.715  31.122  1.00  0.00     0.031 A 
ATOM     48  C   UNL A   1      40.332  28.472  30.516  1.00  0.00     0.074 A 
ATOM     49  C   UNL A   1      40.441  30.474  31.972  1.00  0.00     0.049 A 
ATOM     50  N   UNL A   1      41.503  28.001  30.794  1.00  0.00    -0.248 NA
ATOM     51  C   UNL A   1      39.670  27.652  29.495  1.00  0.00     0.031 C 
ATOM     52  C   UNL A   1      41.897  30.409  32.074  1.00  0.00     0.029 A 
ATOM     53  N   UNL A   1      40.150  31.521  32.832  1.00  0.00    -0.354 N 
ATOM     54  C   UNL A   1      41.873  27.090  29.824  1.00  0.00     0.074 A 
ATOM     55  C   UNL A   1      40.664  26.857  29.077  1.00  0.00     0.031 C 
ATOM     56  C   UNL A   1      42.353  31.288  32.966  1.00  0.00     0.029 A 
ATOM     57  C   UNL A   1      41.215  31.722  33.718  1.00  0.00     0.049 A 
ATOM     58  H   UNL A   1      39.317  32.046  32.820  1.00  0.00     0.167 HD
ATOM     59  C   UNL A   1      43.186  26.723  29.696  1.00  0.00     0.031 A 
ATOM     60  C   UNL A   1      41.166  31.476  35.063  1.00  0.00     0.031 A 
ATOM     61  C   UNL A   1      44.007  27.195  30.829  1.00  0.00     0.049 A 
ATOM     62  C   UNL A   1      42.097  30.327  35.468  1.00  0.00     0.074 A 
ATOM     63  C   UNL A   1      45.219  27.851  30.930  1.00  0.00     0.029 A 
ATOM     64  N   UNL A   1      43.520  27.120  32.139  1.00  0.00    -0.354 N 
ATOM     65  N   UNL A   1      42.435  29.362  34.639  1.00  0.00    -0.248 NA
ATOM     66  C   UNL A   1      42.842  30.235  36.722  1.00  0.00     0.031 C 
ATOM     67  C   UNL A   1      45.371  28.314  32.266  1.00  0.00     0.029 A 
ATOM     68  C   UNL A   1      44.317  27.821  33.019  1.00  0.00     0.049 A 
ATOM     69  H   UNL A   1      42.708  26.627  32.400  1.00  0.00     0.167 HD
ATOM     70  C   UNL A   1      43.471  28.630  35.155  1.00  0.00     0.074 A 
ATOM     71  C   UNL A   1      43.652  29.182  36.488  1.00  0.00     0.031 C 
ATOM     72  C   UNL A   1      44.169  27.677  34.463  1.00  0.00     0.031 A 
BRANCH  59  73
ATOM     73  C   UNL A   1      43.811  26.079  28.442  1.00  0.00    -0.014 A 
ATOM     74  C   UNL A   1      43.610  24.702  28.175  1.00  0.00     0.010 A 
ATOM     75  C   UNL A   1      44.677  26.729  27.537  1.00  0.00     0.010 A 
ATOM     76  C   UNL A   1      44.237  24.019  27.112  1.00  0.00     0.020 A 
ATOM     77  C   UNL A   1      45.279  26.071  26.440  1.00  0.00     0.020 A 
ATOM     78  C   UNL A   1      45.068  24.712  26.241  1.00  0.00     0.054 A 
BRANCH  78  79
ATOM     79  S   UNL A   1      45.834  23.837  24.844  1.00  0.00     0.124 S 
ATOM     80  O   UNL A   1      46.489  22.706  25.496  1.00  0.00    -0.237 OA
ATOM     81  O   UNL A   1      44.688  23.503  24.003  1.00  0.00    -0.237 OA
ATOM     82  O   UNL A   1      46.744  24.828  24.273  1.00  0.00    -0.744 OA
ENDBRANCH  78  79
ENDBRANCH  59  73
BRANCH  60  83
ATOM     83  C   UNL A   1      40.002  32.142  35.728  1.00  0.00    -0.014 A 
ATOM     84  C   UNL A   1      39.952  33.534  35.468  1.00  0.00     0.010 A 
ATOM     85  C   UNL A   1      38.784  31.432  35.768  1.00  0.00     0.010 A 
ATOM     86  C   UNL A   1      38.813  34.095  34.877  1.00  0.00     0.020 A 
ATOM     87  C   UNL A   1      37.632  32.001  35.194  1.00  0.00     0.020 A 
ATOM     88  C   UNL A   1      37.693  33.293  34.661  1.00  0.00     0.054 A 
BRANCH  88  89
ATOM     89  S   UNL A   1      36.502  33.820  33.379  1.00  0.00     0.124 S 
ATOM     90  O   UNL A   1      35.936  35.033  33.953  1.00  0.00    -0.237 OA
ATOM     91  O   UNL A   1      37.368  34.007  32.214  1.00  0.00    -0.237 OA
ATOM     92  O   UNL A   1      35.596  32.680  33.280  1.00  0.00    -0.744 OA
ENDBRANCH  88  89
ENDBRANCH  60  83
BRANCH  72  93
ATOM     93  C   UNL A   1      44.881  26.486  35.076  1.00  0.00    -0.014 A 
ATOM     94  C   UNL A   1      46.092  26.580  35.768  1.00  0.00     0.010 A 
ATOM     95  C   UNL A   1      44.193  25.242  35.163  1.00  0.00     0.010 A 
ATOM     96  C   UNL A   1      46.593  25.496  36.501  1.00  0.00     0.020 A 
ATOM     97  C   UNL A   1      44.663  24.169  35.920  1.00  0.00     0.020 A 
ATOM     98  C   UNL A   1      45.871  24.304  36.584  1.00  0.00     0.054 A 
BRANCH  98  99
ATOM     99  S   UNL A   1      46.484  22.979  37.649  1.00  0.00     0.124 S 
ATOM    100  O   UNL A   1      45.538  23.027  38.761  1.00  0.00    -0.237 OA
ATOM    101  O   UNL A   1      46.375  21.804  36.785  1.00  0.00    -0.237 OA
ATOM    102  O   UNL A   1      47.849  23.385  37.968  1.00  0.00    -0.744 OA
ENDBRANCH  98  99
ENDBRANCH  72  93
ENDBRANCH  46  47
ENDBRANCH  39  41
ENDBRANCH  38  39
ENDBRANCH  37  38
ENDBRANCH  36  37
ENDBRANCH  35  36
ENDBRANCH  34  35
ENDBRANCH  33  34
ENDBRANCH  32  33
ENDBRANCH   1  32
TORSDOF 27
ENDMDL
MODEL 3
REMARK VINA RESULT:      -9.6      5.793     10.294
REMARK SMILES Cc1ccccc1NC(=O)CSc1nc(C(=O)OCCOCCOCCOCCOC(=O)c2ccc(-c3c4nc(c(-c5ccc(S(=O)(=O)[O-])cc5)c5ccc([nH]5)c(-c5ccc(S(=O)(=O)[O-])cc5)c5nc(c(-c6ccc(S(=O)(=O)[O-])cc6)c6ccc3[nH]6)C=C5)C=C4)cc2)c2ccccc2n1
REMARK SMILES IDX 23 1 22 2 21 3 20 4 19 5 18 6 16 7 17 8 15 9 13 10 14 11
REMARK SMILES IDX 99 12 98 13 93 14 97 15 94 16 96 17 95 18 12 19 11 20 9 21
REMARK SMILES IDX 8 22 10 24 7 25 1 26 2 27 3 28 4 29 6 30 5 31 24 32 25 33
REMARK SMILES IDX 26 34 27 35 28 36 29 37 30 38 31 39 32 40 33 41 34 42 92 43
REMARK SMILES IDX 35 44 91 45 36 46 37 47 38 48 85 49 39 50 90 51 84 52 86 53
REMARK SMILES IDX 40 54 89 55 83 56 82 57 41 59 71 60 52 61 70 62 53 63 56 64
REMARK SMILES IDX 69 65 87 66 54 67 55 68 68 70 88 71 57 72 42 73 43 74 51 75
REMARK SMILES IDX 44 76 50 77 45 78 46 79 47 80 48 81 49 82 72 83 73 84 81 85
REMARK SMILES IDX 74 86 80 87 75 88 76 89 77 90 78 91 79 92 58 93 59 94 67 95
REMARK SMILES IDX 60 96 66 97 61 98 62 99 63 100 64 101 65 102
REMARK H PARENT 8 23 86 58 56 69
REMARK Flexibility Score: inf
ROOT
ATOM      1  C   UNL A   1      32.180  27.398  25.555  1.00  0.00     0.188 C 
ENDROOT
BRANCH   1   2
ATOM      2  C   UNL A   1      31.929  26.117  26.358  1.00  0.00     0.188 C 
BRANCH   2   3
ATOM      3  O   UNL A   1      31.478  24.970  25.650  1.00  0.00    -0.376 OA
BRANCH   3   4
ATOM      4  C   UNL A   1      32.433  23.921  25.475  1.00  0.00     0.202 C 
BRANCH   4   5
ATOM      5  C   UNL A   1      33.806  24.184  26.087  1.00  0.00     0.261 C 
BRANCH   5   6
ATOM      6  O   UNL A   1      34.687  24.686  25.062  1.00  0.00    -0.458 OA
BRANCH   6   7
ATOM      7  C   UNL A   1      34.714  23.925  23.948  1.00  0.00     0.357 C 
ATOM      8  O   UNL A   1      34.424  24.275  22.822  1.00  0.00    -0.244 OA
BRANCH   7   9
ATOM      9  C   UNL A   1      35.628  22.781  24.162  1.00  0.00     0.160 A 
ATOM     10  C   UNL A   1      37.687  22.596  25.016  1.00  0.00     0.189 A 
ATOM     11  N   UNL A   1      36.867  23.269  24.252  1.00  0.00    -0.215 NA
ATOM     12  N   UNL A   1      37.588  21.280  25.209  1.00  0.00    -0.222 NA
ATOM     13  C   UNL A   1      36.433  20.705  24.839  1.00  0.00     0.076 A 
ATOM     14  C   UNL A   1      35.320  21.459  24.456  1.00  0.00     0.034 A 
ATOM     15  C   UNL A   1      36.293  19.325  24.926  1.00  0.00     0.029 A 
ATOM     16  C   UNL A   1      34.053  20.845  24.418  1.00  0.00     0.013 A 
ATOM     17  C   UNL A   1      35.054  18.698  24.765  1.00  0.00     0.002 A 
ATOM     18  C   UNL A   1      33.918  19.470  24.573  1.00  0.00     0.001 A 
BRANCH  10  19
ATOM     19  S   UNL A   1      38.400  23.610  26.287  1.00  0.00    -0.076 SA
BRANCH  19  20
ATOM     20  C   UNL A   1      39.737  22.475  26.913  1.00  0.00     0.178 C 
BRANCH  20  21
ATOM     21  C   UNL A   1      41.082  22.517  26.178  1.00  0.00     0.234 C 
ATOM     22  N   UNL A   1      41.945  23.575  26.232  1.00  0.00    -0.325 N 
ATOM     23  H   UNL A   1      42.852  23.386  25.897  1.00  0.00     0.169 HD
ATOM     24  O   UNL A   1      41.434  21.570  25.465  1.00  0.00    -0.274 OA
BRANCH  22  25
ATOM     25  C   UNL A   1      41.751  24.885  26.686  1.00  0.00     0.044 A 
ATOM     26  C   UNL A   1      42.785  24.327  28.972  1.00  0.00     0.046 C 
ATOM     27  C   UNL A   1      42.057  25.229  28.012  1.00  0.00    -0.027 A 
ATOM     28  C   UNL A   1      41.660  26.495  28.480  1.00  0.00     0.005 A 
ATOM     29  C   UNL A   1      40.996  27.399  27.650  1.00  0.00     0.000 A 
ATOM     30  C   UNL A   1      41.216  25.854  25.828  1.00  0.00     0.026 A 
ATOM     31  C   UNL A   1      40.796  27.088  26.314  1.00  0.00     0.002 A 
ENDBRANCH  22  25
ENDBRANCH  20  21
ENDBRANCH  19  20
ENDBRANCH  10  19
ENDBRANCH   7   9
ENDBRANCH   6   7
ENDBRANCH   5   6
ENDBRANCH   4   5
ENDBRANCH   3   4
ENDBRANCH   2   3
ENDBRANCH   1   2
BRANCH   1  32
ATOM     32  O   UNL A   1      31.273  28.472  25.746  1.00  0.00    -0.377 OA
BRANCH  32  33
ATOM     33  C   UNL A   1      31.744  29.823  25.625  1.00  0.00     0.188 C 
BRANCH  33  34
ATOM     34  C   UNL A   1      33.229  30.107  25.859  1.00  0.00     0.188 C 
BRANCH  34  35
ATOM     35  O   UNL A   1      33.471  30.131  27.271  1.00  0.00    -0.376 OA
BRANCH  35  36
ATOM     36  C   UNL A   1      34.796  30.458  27.673  1.00  0.00     0.202 C 
BRANCH  36  37
ATOM     37  C   UNL A   1      34.888  31.496  28.798  1.00  0.00     0.261 C 
BRANCH  37  38
ATOM     38  O   UNL A   1      34.293  32.756  28.422  1.00  0.00    -0.460 OA
BRANCH  38  39
ATOM     39  C   UNL A   1      34.218  33.689  29.416  1.00  0.00     0.338 C 
ATOM     40  O   UNL A   1      33.229  34.358  29.639  1.00  0.00    -0.246 OA
BRANCH  39  41
ATOM     41  C   UNL A   1      35.463  33.693  30.231  1.00  0.00     0.060 A 
ATOM     42  C   UNL A   1      36.670  34.197  29.724  1.00  0.00     0.016 A 
ATOM     43  C   UNL A   1      35.455  33.047  31.457  1.00  0.00     0.016 A 
ATOM     44  C   UNL A   1      37.887  33.922  30.379  1.00  0.00     0.010 A 
ATOM     45  C   UNL A   1      36.655  32.698  32.037  1.00  0.00     0.010 A 
ATOM     46  C   UNL A   1      37.893  33.113  31.517  1.00  0.00    -0.014 A 
BRANCH  46  47
ATOM     47  C   UNL A   1      39.065  32.483  32.167  1.00  0.00     0.031 A 
ATOM     48  C   UNL A   1      39.815  31.385  31.435  1.00  0.00     0.074 A 
ATOM     49  C   UNL A   1      39.692  33.158  33.162  1.00  0.00     0.049 A 
ATOM     50  N   UNL A   1      41.001  30.957  31.722  1.00  0.00    -0.248 NA
ATOM     51  C   UNL A   1      39.275  30.679  30.268  1.00  0.00     0.031 C 
ATOM     52  C   UNL A   1      41.141  33.176  33.349  1.00  0.00     0.029 A 
ATOM     53  N   UNL A   1      39.276  34.048  34.138  1.00  0.00    -0.354 N 
ATOM     54  C   UNL A   1      41.491  30.222  30.659  1.00  0.00     0.074 A 
ATOM     55  C   UNL A   1      40.347  30.021  29.809  1.00  0.00     0.031 C 
ATOM     56  C   UNL A   1      41.479  33.946  34.384  1.00  0.00     0.029 A 
ATOM     57  C   UNL A   1      40.271  34.189  35.112  1.00  0.00     0.049 A 
ATOM     58  H   UNL A   1      38.408  34.513  34.145  1.00  0.00     0.167 HD
ATOM     59  C   UNL A   1      42.834  29.966  30.568  1.00  0.00     0.031 A 
ATOM     60  C   UNL A   1      40.166  33.749  36.403  1.00  0.00     0.031 A 
ATOM     61  C   UNL A   1      43.553  30.323  31.808  1.00  0.00     0.049 A 
ATOM     62  C   UNL A   1      41.156  32.618  36.704  1.00  0.00     0.074 A 
ATOM     63  C   UNL A   1      44.704  31.036  32.080  1.00  0.00     0.029 A 
ATOM     64  N   UNL A   1      43.000  30.027  33.060  1.00  0.00    -0.354 N 
ATOM     65  N   UNL A   1      41.612  31.807  35.772  1.00  0.00    -0.248 NA
ATOM     66  C   UNL A   1      41.835  32.396  37.979  1.00  0.00     0.031 C 
ATOM     67  C   UNL A   1      44.746  31.310  33.474  1.00  0.00     0.029 A 
ATOM     68  C   UNL A   1      43.692  30.645  34.080  1.00  0.00     0.049 A 
ATOM     69  H   UNL A   1      42.214  29.449  33.195  1.00  0.00     0.167 HD
ATOM     70  C   UNL A   1      42.669  31.079  36.248  1.00  0.00     0.074 A 
ATOM     71  C   UNL A   1      42.734  31.443  37.654  1.00  0.00     0.031 C 
ATOM     72  C   UNL A   1      43.474  30.284  35.476  1.00  0.00     0.031 A 
BRANCH  59  73
ATOM     73  C   UNL A   1      43.574  29.552  29.281  1.00  0.00    -0.014 A 
ATOM     74  C   UNL A   1      44.605  28.581  29.334  1.00  0.00     0.010 A 
ATOM     75  C   UNL A   1      43.383  30.132  28.009  1.00  0.00     0.010 A 
ATOM     76  C   UNL A   1      45.399  28.233  28.221  1.00  0.00     0.020 A 
ATOM     77  C   UNL A   1      44.140  29.763  26.873  1.00  0.00     0.020 A 
ATOM     78  C   UNL A   1      45.157  28.824  26.988  1.00  0.00     0.054 A 
BRANCH  78  79
ATOM     79  S   UNL A   1      46.151  28.334  25.548  1.00  0.00     0.124 S 
ATOM     80  O   UNL A   1      47.143  27.436  26.134  1.00  0.00    -0.237 OA
ATOM     81  O   UNL A   1      45.166  27.700  24.674  1.00  0.00    -0.237 OA
ATOM     82  O   UNL A   1      46.686  29.600  25.049  1.00  0.00    -0.744 OA
ENDBRANCH  78  79
ENDBRANCH  59  73
BRANCH  60  83
ATOM     83  C   UNL A   1      38.920  34.233  37.076  1.00  0.00    -0.014 A 
ATOM     84  C   UNL A   1      37.767  33.518  36.664  1.00  0.00     0.010 A 
ATOM     85  C   UNL A   1      39.018  34.606  38.433  1.00  0.00     0.010 A 
ATOM     86  C   UNL A   1      36.976  32.860  37.613  1.00  0.00     0.020 A 
ATOM     87  C   UNL A   1      38.209  33.960  39.388  1.00  0.00     0.020 A 
ATOM     88  C   UNL A   1      37.267  33.016  38.969  1.00  0.00     0.054 A 
BRANCH  88  89
ATOM     89  S   UNL A   1      36.678  31.724  40.120  1.00  0.00     0.124 S 
ATOM     90  O   UNL A   1      37.912  31.284  40.757  1.00  0.00    -0.237 OA
ATOM     91  O   UNL A   1      35.751  32.471  40.971  1.00  0.00    -0.237 OA
ATOM     92  O   UNL A   1      36.039  30.757  39.234  1.00  0.00    -0.744 OA
ENDBRANCH  88  89
ENDBRANCH  60  83
BRANCH  72  93
ATOM     93  C   UNL A   1      44.238  29.067  35.962  1.00  0.00    -0.014 A 
ATOM     94  C   UNL A   1      43.621  27.910  36.449  1.00  0.00     0.010 A 
ATOM     95  C   UNL A   1      45.636  28.984  35.707  1.00  0.00     0.010 A 
ATOM     96  C   UNL A   1      44.357  26.739  36.676  1.00  0.00     0.020 A 
ATOM     97  C   UNL A   1      46.371  27.813  35.893  1.00  0.00     0.020 A 
ATOM     98  C   UNL A   1      45.721  26.693  36.384  1.00  0.00     0.054 A 
BRANCH  98  99
ATOM     99  S   UNL A   1      46.603  25.126  36.561  1.00  0.00     0.124 S 
ATOM    100  O   UNL A   1      45.742  24.211  35.816  1.00  0.00    -0.237 OA
ATOM    101  O   UNL A   1      47.893  25.418  35.938  1.00  0.00    -0.237 OA
ATOM    102  O   UNL A   1      46.651  24.908  38.004  1.00  0.00    -0.744 OA
ENDBRANCH  98  99
ENDBRANCH  72  93
ENDBRANCH  46  47
ENDBRANCH  39  41
ENDBRANCH  38  39
ENDBRANCH  37  38
ENDBRANCH  36  37
ENDBRANCH  35  36
ENDBRANCH  34  35
ENDBRANCH  33  34
ENDBRANCH  32  33
ENDBRANCH   1  32
TORSDOF 27
ENDMDL
