MODEL 1
REMARK VINA RESULT:     -10.4      0.000      0.000
REMARK SMILES Cc1ccc2[nH]c3c(=O)n(CC(=O)OCCOCCOCCOCCOC(=O)c4ccc(-c5c6nc(c(-c7ccc(S(=O)(=O)[O-])cc7)c7ccc([nH]7)c(-c7ccc(S(=O)(=O)[O-])cc7)c7nc(c(-c8ccc(S(=O)(=O)[O-])cc8)c8ccc5[nH]8)C=C7)C=C6)cc4)cnc3c2c1
REMARK SMILES IDX 21 1 20 2 19 3 18 4 17 5 16 6 15 7 14 8 12 9 13 10 11 11
REMARK SMILES IDX 10 12 1 13 2 14 3 15 93 16 4 17 92 18 5 19 91 20 6 21 7 22
REMARK SMILES IDX 90 23 8 25 89 26 9 27 22 28 23 29 24 30 25 31 26 32 27 33
REMARK SMILES IDX 28 34 29 35 30 36 88 37 31 38 87 39 32 40 33 41 34 42 81 43
REMARK SMILES IDX 35 44 86 45 80 46 82 47 36 48 85 49 79 50 78 51 37 53 67 54
REMARK SMILES IDX 48 55 66 56 49 57 52 58 65 59 83 60 50 61 51 62 64 64 84 65
REMARK SMILES IDX 53 66 38 67 39 68 47 69 40 70 46 71 41 72 42 73 43 74 44 75
REMARK SMILES IDX 45 76 68 77 69 78 77 79 70 80 76 81 71 82 72 83 73 84 74 85
REMARK SMILES IDX 75 86 54 87 55 88 63 89 56 90 62 91 57 92 58 93 59 94 60 95
REMARK SMILES IDX 61 96
REMARK H PARENT 6 24 82 52 52 63
REMARK Flexibility Score: inf
ROOT
ATOM      1  C   UNL A   1      38.802  21.758  25.918  1.00  0.00     0.188 C 
ENDROOT
BRANCH   1   2
ATOM      2  O   UNL A   1      37.671  21.833  25.095  1.00  0.00    -0.377 OA
BRANCH   2   3
ATOM      3  C   UNL A   1      37.012  23.048  24.898  1.00  0.00     0.188 C 
BRANCH   3   4
ATOM      4  C   UNL A   1      35.631  23.293  25.489  1.00  0.00     0.188 C 
BRANCH   4   5
ATOM      5  O   UNL A   1      35.237  22.648  26.670  1.00  0.00    -0.376 OA
BRANCH   5   6
ATOM      6  C   UNL A   1      34.382  21.522  26.697  1.00  0.00     0.202 C 
BRANCH   6   7
ATOM      7  C   UNL A   1      33.952  20.615  25.521  1.00  0.00     0.261 C 
BRANCH   7   8
ATOM      8  O   UNL A   1      32.628  20.729  24.978  1.00  0.00    -0.462 OA
BRANCH   8   9
ATOM      9  C   UNL A   1      32.460  20.257  23.723  1.00  0.00     0.326 C 
ATOM     10  O   UNL A   1      32.574  19.075  23.417  1.00  0.00    -0.250 OA
BRANCH   9  11
ATOM     11  C   UNL A   1      32.113  21.336  22.684  1.00  0.00     0.249 C 
BRANCH  11  12
ATOM     12  N   UNL A   1      32.117  22.769  23.023  1.00  0.00    -0.286 N 
ATOM     13  C   UNL A   1      31.434  30.169  25.500  1.00  0.00     0.044 C 
ATOM     14  C   UNL A   1      32.014  29.119  24.596  1.00  0.00    -0.050 A 
ATOM     15  C   UNL A   1      33.002  29.461  23.666  1.00  0.00     0.005 A 
ATOM     16  C   UNL A   1      31.551  27.792  24.666  1.00  0.00     0.016 A 
ATOM     17  C   UNL A   1      33.638  28.488  22.887  1.00  0.00     0.027 A 
ATOM     18  C   UNL A   1      32.179  26.789  23.898  1.00  0.00     0.026 A 
ATOM     19  C   UNL A   1      33.249  27.155  23.070  1.00  0.00     0.048 A 
ATOM     20  C   UNL A   1      32.004  25.397  23.716  1.00  0.00     0.103 A 
ATOM     21  N   UNL A   1      33.771  25.988  22.541  1.00  0.00    -0.349 N 
ATOM     22  C   UNL A   1      33.052  24.916  22.992  1.00  0.00     0.132 A 
ATOM     23  N   UNL A   1      30.975  24.566  24.168  1.00  0.00    -0.236 NA
ATOM     24  H   UNL A   1      34.542  25.938  21.932  1.00  0.00     0.167 HD
ATOM     25  C   UNL A   1      33.250  23.526  22.743  1.00  0.00     0.278 A 
ATOM     26  C   UNL A   1      31.069  23.337  23.739  1.00  0.00     0.203 A 
ATOM     27  O   UNL A   1      34.306  23.079  22.303  1.00  0.00    -0.267 OA
ENDBRANCH  11  12
ENDBRANCH   9  11
ENDBRANCH   8   9
ENDBRANCH   7   8
ENDBRANCH   6   7
ENDBRANCH   5   6
ENDBRANCH   4   5
ENDBRANCH   3   4
ENDBRANCH   2   3
ENDBRANCH   1   2
BRANCH   1  28
ATOM     28  C   UNL A   1      39.662  20.500  26.021  1.00  0.00     0.188 C 
BRANCH  28  29
ATOM     29  O   UNL A   1      40.695  20.601  26.978  1.00  0.00    -0.376 OA
BRANCH  29  30
ATOM     30  C   UNL A   1      41.673  19.583  27.089  1.00  0.00     0.202 C 
BRANCH  30  31
ATOM     31  C   UNL A   1      42.905  19.454  26.163  1.00  0.00     0.261 C 
BRANCH  31  32
ATOM     32  O   UNL A   1      43.015  20.436  25.136  1.00  0.00    -0.460 OA
BRANCH  32  33
ATOM     33  C   UNL A   1      44.236  20.820  24.668  1.00  0.00     0.338 C 
ATOM     34  O   UNL A   1      44.902  20.292  23.827  1.00  0.00    -0.246 OA
BRANCH  33  35
ATOM     35  C   UNL A   1      44.381  22.218  25.170  1.00  0.00     0.060 A 
ATOM     36  C   UNL A   1      45.137  22.507  26.313  1.00  0.00     0.016 A 
ATOM     37  C   UNL A   1      43.420  23.120  24.698  1.00  0.00     0.016 A 
ATOM     38  C   UNL A   1      44.801  23.634  27.069  1.00  0.00     0.010 A 
ATOM     39  C   UNL A   1      43.073  24.227  25.468  1.00  0.00     0.010 A 
ATOM     40  C   UNL A   1      43.718  24.454  26.685  1.00  0.00    -0.014 A 
BRANCH  40  41
ATOM     41  C   UNL A   1      43.445  25.665  27.475  1.00  0.00     0.031 A 
ATOM     42  C   UNL A   1      44.523  26.665  27.309  1.00  0.00     0.074 A 
ATOM     43  C   UNL A   1      42.324  25.987  28.161  1.00  0.00     0.049 A 
ATOM     44  N   UNL A   1      45.322  27.137  28.205  1.00  0.00    -0.248 NA
ATOM     45  C   UNL A   1      44.852  27.052  25.925  1.00  0.00     0.031 C 
ATOM     46  C   UNL A   1      41.061  25.252  28.175  1.00  0.00     0.029 A 
ATOM     47  N   UNL A   1      42.037  27.096  28.923  1.00  0.00    -0.354 N 
ATOM     48  C   UNL A   1      46.131  28.035  27.524  1.00  0.00     0.074 A 
ATOM     49  C   UNL A   1      45.942  27.786  26.118  1.00  0.00     0.031 C 
ATOM     50  C   UNL A   1      40.101  26.001  28.758  1.00  0.00     0.029 A 
ATOM     51  C   UNL A   1      40.680  27.252  29.211  1.00  0.00     0.049 A 
ATOM     52  H   UNL A   1      42.727  27.723  29.238  1.00  0.00     0.167 HD
ATOM     53  C   UNL A   1      46.694  29.106  28.142  1.00  0.00     0.031 A 
ATOM     54  C   UNL A   1      40.034  28.348  29.696  1.00  0.00     0.031 A 
ATOM     55  C   UNL A   1      46.746  28.948  29.568  1.00  0.00     0.049 A 
ATOM     56  C   UNL A   1      41.038  29.211  30.357  1.00  0.00     0.074 A 
ATOM     57  C   UNL A   1      47.340  28.031  30.412  1.00  0.00     0.029 A 
ATOM     58  N   UNL A   1      45.804  29.612  30.315  1.00  0.00    -0.354 N 
ATOM     59  N   UNL A   1      41.668  28.885  31.451  1.00  0.00    -0.248 NA
ATOM     60  C   UNL A   1      41.654  30.268  29.572  1.00  0.00     0.031 C 
ATOM     61  C   UNL A   1      46.442  27.893  31.505  1.00  0.00     0.029 A 
ATOM     62  C   UNL A   1      45.372  28.771  31.309  1.00  0.00     0.049 A 
ATOM     63  H   UNL A   1      45.493  30.533  30.163  1.00  0.00     0.167 HD
ATOM     64  C   UNL A   1      42.957  29.363  31.267  1.00  0.00     0.074 A 
ATOM     65  C   UNL A   1      42.861  30.288  30.141  1.00  0.00     0.031 C 
ATOM     66  C   UNL A   1      44.029  28.764  31.864  1.00  0.00     0.031 A 
BRANCH  53  67
ATOM     67  C   UNL A   1      46.852  30.429  27.443  1.00  0.00    -0.014 A 
ATOM     68  C   UNL A   1      45.746  31.198  27.018  1.00  0.00     0.010 A 
ATOM     69  C   UNL A   1      48.114  31.043  27.394  1.00  0.00     0.010 A 
ATOM     70  C   UNL A   1      45.885  32.484  26.505  1.00  0.00     0.020 A 
ATOM     71  C   UNL A   1      48.260  32.359  26.931  1.00  0.00     0.020 A 
ATOM     72  C   UNL A   1      47.145  33.062  26.473  1.00  0.00     0.054 A 
BRANCH  72  73
ATOM     73  S   UNL A   1      47.268  34.768  25.890  1.00  0.00     0.124 S 
ATOM     74  O   UNL A   1      45.921  35.003  25.376  1.00  0.00    -0.237 OA
ATOM     75  O   UNL A   1      47.610  35.489  27.113  1.00  0.00    -0.237 OA
ATOM     76  O   UNL A   1      48.323  34.709  24.884  1.00  0.00    -0.744 OA
ENDBRANCH  72  73
ENDBRANCH  53  67
BRANCH  54  77
ATOM     77  C   UNL A   1      38.691  28.849  29.265  1.00  0.00    -0.014 A 
ATOM     78  C   UNL A   1      38.548  29.433  27.988  1.00  0.00     0.010 A 
ATOM     79  C   UNL A   1      37.619  29.011  30.167  1.00  0.00     0.010 A 
ATOM     80  C   UNL A   1      37.427  30.190  27.639  1.00  0.00     0.020 A 
ATOM     81  C   UNL A   1      36.485  29.780  29.826  1.00  0.00     0.020 A 
ATOM     82  C   UNL A   1      36.418  30.394  28.573  1.00  0.00     0.054 A 
BRANCH  82  83
ATOM     83  S   UNL A   1      35.085  31.550  28.137  1.00  0.00     0.124 S 
ATOM     84  O   UNL A   1      34.268  30.742  27.234  1.00  0.00    -0.237 OA
ATOM     85  O   UNL A   1      34.478  31.839  29.434  1.00  0.00    -0.237 OA
ATOM     86  O   UNL A   1      35.782  32.671  27.515  1.00  0.00    -0.744 OA
ENDBRANCH  82  83
ENDBRANCH  54  77
BRANCH  66  87
ATOM     87  C   UNL A   1      43.807  27.816  33.027  1.00  0.00    -0.014 A 
ATOM     88  C   UNL A   1      43.945  28.358  34.320  1.00  0.00     0.010 A 
ATOM     89  C   UNL A   1      43.693  26.418  32.898  1.00  0.00     0.010 A 
ATOM     90  C   UNL A   1      44.041  27.536  35.444  1.00  0.00     0.020 A 
ATOM     91  C   UNL A   1      43.757  25.586  34.031  1.00  0.00     0.020 A 
ATOM     92  C   UNL A   1      43.969  26.151  35.291  1.00  0.00     0.054 A 
BRANCH  92  93
ATOM     93  S   UNL A   1      44.214  25.121  36.765  1.00  0.00     0.124 S 
ATOM     94  O   UNL A   1      42.905  25.192  37.414  1.00  0.00    -0.237 OA
ATOM     95  O   UNL A   1      44.558  23.820  36.195  1.00  0.00    -0.237 OA
ATOM     96  O   UNL A   1      45.292  25.787  37.491  1.00  0.00    -0.744 OA
ENDBRANCH  92  93
ENDBRANCH  66  87
ENDBRANCH  40  41
ENDBRANCH  33  35
ENDBRANCH  32  33
ENDBRANCH  31  32
ENDBRANCH  30  31
ENDBRANCH  29  30
ENDBRANCH  28  29
ENDBRANCH   1  28
TORSDOF 24
ENDMDL
MODEL 2
REMARK VINA RESULT:     -10.2      1.572      3.706
REMARK SMILES Cc1ccc2[nH]c3c(=O)n(CC(=O)OCCOCCOCCOCCOC(=O)c4ccc(-c5c6nc(c(-c7ccc(S(=O)(=O)[O-])cc7)c7ccc([nH]7)c(-c7ccc(S(=O)(=O)[O-])cc7)c7nc(c(-c8ccc(S(=O)(=O)[O-])cc8)c8ccc5[nH]8)C=C7)C=C6)cc4)cnc3c2c1
REMARK SMILES IDX 21 1 20 2 19 3 18 4 17 5 16 6 15 7 14 8 12 9 13 10 11 11
REMARK SMILES IDX 10 12 1 13 2 14 3 15 93 16 4 17 92 18 5 19 91 20 6 21 7 22
REMARK SMILES IDX 90 23 8 25 89 26 9 27 22 28 23 29 24 30 25 31 26 32 27 33
REMARK SMILES IDX 28 34 29 35 30 36 88 37 31 38 87 39 32 40 33 41 34 42 81 43
REMARK SMILES IDX 35 44 86 45 80 46 82 47 36 48 85 49 79 50 78 51 37 53 67 54
REMARK SMILES IDX 48 55 66 56 49 57 52 58 65 59 83 60 50 61 51 62 64 64 84 65
REMARK SMILES IDX 53 66 38 67 39 68 47 69 40 70 46 71 41 72 42 73 43 74 44 75
REMARK SMILES IDX 45 76 68 77 69 78 77 79 70 80 76 81 71 82 72 83 73 84 74 85
REMARK SMILES IDX 75 86 54 87 55 88 63 89 56 90 62 91 57 92 58 93 59 94 60 95
REMARK SMILES IDX 61 96
REMARK H PARENT 6 24 82 52 52 63
REMARK Flexibility Score: inf
ROOT
ATOM      1  C   UNL A   1      37.025  21.479  25.042  1.00  0.00     0.188 C 
ENDROOT
BRANCH   1   2
ATOM      2  O   UNL A   1      36.433  22.688  25.431  1.00  0.00    -0.377 OA
BRANCH   2   3
ATOM      3  C   UNL A   1      36.138  23.673  24.488  1.00  0.00     0.188 C 
BRANCH   3   4
ATOM      4  C   UNL A   1      34.841  23.631  23.693  1.00  0.00     0.188 C 
BRANCH   4   5
ATOM      5  O   UNL A   1      34.658  24.467  22.582  1.00  0.00    -0.376 OA
BRANCH   5   6
ATOM      6  C   UNL A   1      33.477  25.210  22.352  1.00  0.00     0.202 C 
BRANCH   6   7
ATOM      7  C   UNL A   1      33.009  26.510  23.045  1.00  0.00     0.261 C 
BRANCH   7   8
ATOM      8  O   UNL A   1      33.002  26.593  24.478  1.00  0.00    -0.462 OA
BRANCH   8   9
ATOM      9  C   UNL A   1      31.807  26.857  25.050  1.00  0.00     0.326 C 
ATOM     10  O   UNL A   1      31.169  27.886  24.856  1.00  0.00    -0.250 OA
BRANCH   9  11
ATOM     11  C   UNL A   1      31.296  25.748  25.985  1.00  0.00     0.249 C 
BRANCH  11  12
ATOM     12  N   UNL A   1      31.603  24.328  25.745  1.00  0.00    -0.286 N 
ATOM     13  C   UNL A   1      33.346  16.697  25.454  1.00  0.00     0.044 C 
ATOM     14  C   UNL A   1      33.019  18.010  24.803  1.00  0.00    -0.050 A 
ATOM     15  C   UNL A   1      32.864  18.086  23.415  1.00  0.00     0.005 A 
ATOM     16  C   UNL A   1      32.886  19.173  25.585  1.00  0.00     0.016 A 
ATOM     17  C   UNL A   1      32.454  19.270  22.790  1.00  0.00     0.027 A 
ATOM     18  C   UNL A   1      32.465  20.378  24.984  1.00  0.00     0.026 A 
ATOM     19  C   UNL A   1      32.202  20.379  23.607  1.00  0.00     0.048 A 
ATOM     20  C   UNL A   1      32.221  21.698  25.429  1.00  0.00     0.103 A 
ATOM     21  N   UNL A   1      31.680  21.622  23.295  1.00  0.00    -0.349 N 
ATOM     22  C   UNL A   1      31.630  22.397  24.421  1.00  0.00     0.132 A 
ATOM     23  N   UNL A   1      32.493  22.280  26.670  1.00  0.00    -0.236 NA
ATOM     24  H   UNL A   1      31.390  21.905  22.399  1.00  0.00     0.167 HD
ATOM     25  C   UNL A   1      31.134  23.723  24.583  1.00  0.00     0.278 A 
ATOM     26  C   UNL A   1      32.229  23.557  26.718  1.00  0.00     0.203 A 
ATOM     27  O   UNL A   1      30.397  24.257  23.758  1.00  0.00    -0.267 OA
ENDBRANCH  11  12
ENDBRANCH   9  11
ENDBRANCH   8   9
ENDBRANCH   7   8
ENDBRANCH   6   7
ENDBRANCH   5   6
ENDBRANCH   4   5
ENDBRANCH   3   4
ENDBRANCH   2   3
ENDBRANCH   1   2
BRANCH   1  28
ATOM     28  C   UNL A   1      38.400  21.038  25.539  1.00  0.00     0.188 C 
BRANCH  28  29
ATOM     29  O   UNL A   1      39.021  21.980  26.389  1.00  0.00    -0.376 OA
BRANCH  29  30
ATOM     30  C   UNL A   1      40.232  21.663  27.049  1.00  0.00     0.202 C 
BRANCH  30  31
ATOM     31  C   UNL A   1      41.259  20.629  26.534  1.00  0.00     0.261 C 
BRANCH  31  32
ATOM     32  O   UNL A   1      42.120  21.074  25.490  1.00  0.00    -0.460 OA
BRANCH  32  33
ATOM     33  C   UNL A   1      43.470  21.113  25.668  1.00  0.00     0.338 C 
ATOM     34  O   UNL A   1      44.288  20.337  25.273  1.00  0.00    -0.246 OA
BRANCH  33  35
ATOM     35  C   UNL A   1      43.722  22.506  26.141  1.00  0.00     0.060 A 
ATOM     36  C   UNL A   1      44.336  22.757  27.375  1.00  0.00     0.016 A 
ATOM     37  C   UNL A   1      42.965  23.496  25.502  1.00  0.00     0.016 A 
ATOM     38  C   UNL A   1      44.043  23.954  28.036  1.00  0.00     0.010 A 
ATOM     39  C   UNL A   1      42.658  24.676  26.176  1.00  0.00     0.010 A 
ATOM     40  C   UNL A   1      43.144  24.881  27.468  1.00  0.00    -0.014 A 
BRANCH  40  41
ATOM     41  C   UNL A   1      42.920  26.156  28.169  1.00  0.00     0.031 A 
ATOM     42  C   UNL A   1      44.019  27.111  27.905  1.00  0.00     0.074 A 
ATOM     43  C   UNL A   1      41.824  26.559  28.851  1.00  0.00     0.049 A 
ATOM     44  N   UNL A   1      44.850  27.627  28.745  1.00  0.00    -0.248 NA
ATOM     45  C   UNL A   1      44.325  27.383  26.489  1.00  0.00     0.031 C 
ATOM     46  C   UNL A   1      40.543  25.861  28.947  1.00  0.00     0.029 A 
ATOM     47  N   UNL A   1      41.582  27.730  29.532  1.00  0.00    -0.354 N 
ATOM     48  C   UNL A   1      45.665  28.450  27.981  1.00  0.00     0.074 A 
ATOM     49  C   UNL A   1      45.438  28.100  26.602  1.00  0.00     0.031 C 
ATOM     50  C   UNL A   1      39.616  26.678  29.492  1.00  0.00     0.029 A 
ATOM     51  C   UNL A   1      40.236  27.944  29.836  1.00  0.00     0.049 A 
ATOM     52  H   UNL A   1      42.295  28.360  29.784  1.00  0.00     0.167 HD
ATOM     53  C   UNL A   1      46.269  29.548  28.504  1.00  0.00     0.031 A 
ATOM     54  C   UNL A   1      39.629  29.090  30.250  1.00  0.00     0.031 A 
ATOM     55  C   UNL A   1      46.350  29.497  29.936  1.00  0.00     0.049 A 
ATOM     56  C   UNL A   1      40.670  29.974  30.822  1.00  0.00     0.074 A 
ATOM     57  C   UNL A   1      46.940  28.631  30.835  1.00  0.00     0.029 A 
ATOM     58  N   UNL A   1      45.443  30.241  30.650  1.00  0.00    -0.354 N 
ATOM     59  N   UNL A   1      41.316  29.714  31.924  1.00  0.00    -0.248 NA
ATOM     60  C   UNL A   1      41.294  30.951  29.946  1.00  0.00     0.031 C 
ATOM     61  C   UNL A   1      46.064  28.600  31.953  1.00  0.00     0.029 A 
ATOM     62  C   UNL A   1      45.013  29.490  31.713  1.00  0.00     0.049 A 
ATOM     63  H   UNL A   1      45.152  31.156  30.434  1.00  0.00     0.167 HD
ATOM     64  C   UNL A   1      42.612  30.142  31.678  1.00  0.00     0.074 A 
ATOM     65  C   UNL A   1      42.514  30.981  30.487  1.00  0.00     0.031 C 
ATOM     66  C   UNL A   1      43.682  29.561  32.295  1.00  0.00     0.031 A 
BRANCH  53  67
ATOM     67  C   UNL A   1      46.445  30.810  27.703  1.00  0.00    -0.014 A 
ATOM     68  C   UNL A   1      45.392  31.728  27.494  1.00  0.00     0.010 A 
ATOM     69  C   UNL A   1      47.734  31.220  27.325  1.00  0.00     0.010 A 
ATOM     70  C   UNL A   1      45.588  32.961  26.881  1.00  0.00     0.020 A 
ATOM     71  C   UNL A   1      47.953  32.484  26.757  1.00  0.00     0.020 A 
ATOM     72  C   UNL A   1      46.873  33.336  26.522  1.00  0.00     0.054 A 
BRANCH  72  73
ATOM     73  S   UNL A   1      47.098  34.985  25.818  1.00  0.00     0.124 S 
ATOM     74  O   UNL A   1      46.615  35.838  26.901  1.00  0.00    -0.237 OA
ATOM     75  O   UNL A   1      48.537  35.027  25.578  1.00  0.00    -0.237 OA
ATOM     76  O   UNL A   1      46.266  34.960  24.620  1.00  0.00    -0.744 OA
ENDBRANCH  72  73
ENDBRANCH  53  67
BRANCH  54  77
ATOM     77  C   UNL A   1      38.291  29.593  29.810  1.00  0.00    -0.014 A 
ATOM     78  C   UNL A   1      38.033  29.760  28.432  1.00  0.00     0.010 A 
ATOM     79  C   UNL A   1      37.363  30.161  30.708  1.00  0.00     0.010 A 
ATOM     80  C   UNL A   1      36.945  30.503  27.965  1.00  0.00     0.020 A 
ATOM     81  C   UNL A   1      36.265  30.919  30.245  1.00  0.00     0.020 A 
ATOM     82  C   UNL A   1      36.088  31.113  28.873  1.00  0.00     0.054 A 
BRANCH  82  83
ATOM     83  S   UNL A   1      34.815  32.229  28.215  1.00  0.00     0.124 S 
ATOM     84  O   UNL A   1      34.156  32.688  29.435  1.00  0.00    -0.237 OA
ATOM     85  O   UNL A   1      35.608  33.240  27.518  1.00  0.00    -0.237 OA
ATOM     86  O   UNL A   1      34.008  31.371  27.354  1.00  0.00    -0.744 OA
ENDBRANCH  82  83
ENDBRANCH  54  77
BRANCH  66  87
ATOM     87  C   UNL A   1      43.463  28.710  33.532  1.00  0.00    -0.014 A 
ATOM     88  C   UNL A   1      42.994  27.398  33.322  1.00  0.00     0.010 A 
ATOM     89  C   UNL A   1      43.486  29.208  34.850  1.00  0.00     0.010 A 
ATOM     90  C   UNL A   1      42.496  26.630  34.375  1.00  0.00     0.020 A 
ATOM     91  C   UNL A   1      43.015  28.426  35.920  1.00  0.00     0.020 A 
ATOM     92  C   UNL A   1      42.488  27.156  35.667  1.00  0.00     0.054 A 
BRANCH  92  93
ATOM     93  S   UNL A   1      41.725  26.166  36.983  1.00  0.00     0.124 S 
ATOM     94  O   UNL A   1      41.401  24.922  36.286  1.00  0.00    -0.237 OA
ATOM     95  O   UNL A   1      42.795  26.066  37.973  1.00  0.00    -0.237 OA
ATOM     96  O   UNL A   1      40.566  26.953  37.396  1.00  0.00    -0.744 OA
ENDBRANCH  92  93
ENDBRANCH  66  87
ENDBRANCH  40  41
ENDBRANCH  33  35
ENDBRANCH  32  33
ENDBRANCH  31  32
ENDBRANCH  30  31
ENDBRANCH  29  30
ENDBRANCH  28  29
ENDBRANCH   1  28
TORSDOF 24
ENDMDL
MODEL 3
REMARK VINA RESULT:      -9.0      9.525     16.589
REMARK SMILES Cc1ccc2[nH]c3c(=O)n(CC(=O)OCCOCCOCCOCCOC(=O)c4ccc(-c5c6nc(c(-c7ccc(S(=O)(=O)[O-])cc7)c7ccc([nH]7)c(-c7ccc(S(=O)(=O)[O-])cc7)c7nc(c(-c8ccc(S(=O)(=O)[O-])cc8)c8ccc5[nH]8)C=C7)C=C6)cc4)cnc3c2c1
REMARK SMILES IDX 21 1 20 2 19 3 18 4 17 5 16 6 15 7 14 8 12 9 13 10 11 11
REMARK SMILES IDX 10 12 1 13 2 14 3 15 93 16 4 17 92 18 5 19 91 20 6 21 7 22
REMARK SMILES IDX 90 23 8 25 89 26 9 27 22 28 23 29 24 30 25 31 26 32 27 33
REMARK SMILES IDX 28 34 29 35 30 36 88 37 31 38 87 39 32 40 33 41 34 42 81 43
REMARK SMILES IDX 35 44 86 45 80 46 82 47 36 48 85 49 79 50 78 51 37 53 67 54
REMARK SMILES IDX 48 55 66 56 49 57 52 58 65 59 83 60 50 61 51 62 64 64 84 65
REMARK SMILES IDX 53 66 38 67 39 68 47 69 40 70 46 71 41 72 42 73 43 74 44 75
REMARK SMILES IDX 45 76 68 77 69 78 77 79 70 80 76 81 71 82 72 83 73 84 74 85
REMARK SMILES IDX 75 86 54 87 55 88 63 89 56 90 62 91 57 92 58 93 59 94 60 95
REMARK SMILES IDX 61 96
REMARK H PARENT 6 24 82 52 52 63
REMARK Flexibility Score: inf
ROOT
ATOM      1  C   UNL A   1      45.492  41.113  28.523  1.00  0.00     0.188 C 
ENDROOT
BRANCH   1   2
ATOM      2  O   UNL A   1      45.536  39.793  28.055  1.00  0.00    -0.377 OA
BRANCH   2   3
ATOM      3  C   UNL A   1      44.909  39.440  26.859  1.00  0.00     0.188 C 
BRANCH   3   4
ATOM      4  C   UNL A   1      43.393  39.337  26.772  1.00  0.00     0.188 C 
BRANCH   4   5
ATOM      5  O   UNL A   1      42.619  40.463  26.458  1.00  0.00    -0.376 OA
BRANCH   5   6
ATOM      6  C   UNL A   1      42.838  41.267  25.316  1.00  0.00     0.202 C 
BRANCH   6   7
ATOM      7  C   UNL A   1      41.832  41.660  24.210  1.00  0.00     0.261 C 
BRANCH   7   8
ATOM      8  O   UNL A   1      42.156  41.421  22.832  1.00  0.00    -0.462 OA
BRANCH   8   9
ATOM      9  C   UNL A   1      42.060  42.488  22.008  1.00  0.00     0.326 C 
ATOM     10  O   UNL A   1      41.171  43.329  22.081  1.00  0.00    -0.250 OA
BRANCH   9  11
ATOM     11  C   UNL A   1      43.170  42.568  20.948  1.00  0.00     0.249 C 
BRANCH  11  12
ATOM     12  N   UNL A   1      43.430  43.802  20.188  1.00  0.00    -0.286 N 
ATOM     13  C   UNL A   1      45.737  50.326  16.517  1.00  0.00     0.044 C 
ATOM     14  C   UNL A   1      44.698  49.307  16.886  1.00  0.00    -0.050 A 
ATOM     15  C   UNL A   1      43.410  49.388  16.344  1.00  0.00     0.005 A 
ATOM     16  C   UNL A   1      45.008  48.277  17.794  1.00  0.00     0.016 A 
ATOM     17  C   UNL A   1      42.454  48.394  16.583  1.00  0.00     0.027 A 
ATOM     18  C   UNL A   1      44.067  47.257  18.047  1.00  0.00     0.026 A 
ATOM     19  C   UNL A   1      42.832  47.311  17.386  1.00  0.00     0.048 A 
ATOM     20  C   UNL A   1      44.024  46.100  18.860  1.00  0.00     0.103 A 
ATOM     21  N   UNL A   1      42.155  46.144  17.694  1.00  0.00    -0.349 N 
ATOM     22  C   UNL A   1      42.915  45.379  18.536  1.00  0.00     0.132 A 
ATOM     23  N   UNL A   1      44.919  45.675  19.846  1.00  0.00    -0.236 NA
ATOM     24  H   UNL A   1      41.264  45.901  17.358  1.00  0.00     0.167 HD
ATOM     25  C   UNL A   1      42.642  44.090  19.078  1.00  0.00     0.278 A 
ATOM     26  C   UNL A   1      44.529  44.603  20.478  1.00  0.00     0.203 A 
ATOM     27  O   UNL A   1      41.781  43.348  18.612  1.00  0.00    -0.267 OA
ENDBRANCH  11  12
ENDBRANCH   9  11
ENDBRANCH   8   9
ENDBRANCH   7   8
ENDBRANCH   6   7
ENDBRANCH   5   6
ENDBRANCH   4   5
ENDBRANCH   3   4
ENDBRANCH   2   3
ENDBRANCH   1   2
BRANCH   1  28
ATOM     28  C   UNL A   1      44.518  41.568  29.609  1.00  0.00     0.188 C 
BRANCH  28  29
ATOM     29  O   UNL A   1      45.088  42.466  30.537  1.00  0.00    -0.376 OA
BRANCH  29  30
ATOM     30  C   UNL A   1      45.362  42.051  31.863  1.00  0.00     0.202 C 
BRANCH  30  31
ATOM     31  C   UNL A   1      46.137  40.765  32.230  1.00  0.00     0.261 C 
BRANCH  31  32
ATOM     32  O   UNL A   1      45.347  39.677  32.704  1.00  0.00    -0.460 OA
BRANCH  32  33
ATOM     33  C   UNL A   1      45.439  39.261  33.998  1.00  0.00     0.338 C 
ATOM     34  O   UNL A   1      45.684  39.916  34.967  1.00  0.00    -0.246 OA
BRANCH  33  35
ATOM     35  C   UNL A   1      44.818  37.904  33.976  1.00  0.00     0.060 A 
ATOM     36  C   UNL A   1      44.075  37.460  32.874  1.00  0.00     0.016 A 
ATOM     37  C   UNL A   1      44.672  37.298  35.230  1.00  0.00     0.016 A 
ATOM     38  C   UNL A   1      43.068  36.513  33.084  1.00  0.00     0.010 A 
ATOM     39  C   UNL A   1      43.652  36.374  35.438  1.00  0.00     0.010 A 
ATOM     40  C   UNL A   1      42.808  36.025  34.382  1.00  0.00    -0.014 A 
BRANCH  40  41
ATOM     41  C   UNL A   1      41.783  34.981  34.543  1.00  0.00     0.031 A 
ATOM     42  C   UNL A   1      42.158  33.749  33.814  1.00  0.00     0.074 A 
ATOM     43  C   UNL A   1      40.697  34.986  35.349  1.00  0.00     0.049 A 
ATOM     44  N   UNL A   1      41.544  33.183  32.831  1.00  0.00    -0.248 NA
ATOM     45  C   UNL A   1      43.483  33.181  34.123  1.00  0.00     0.031 C 
ATOM     46  C   UNL A   1      40.352  35.990  36.353  1.00  0.00     0.029 A 
ATOM     47  N   UNL A   1      39.710  34.041  35.515  1.00  0.00    -0.354 N 
ATOM     48  C   UNL A   1      42.312  32.068  32.526  1.00  0.00     0.074 A 
ATOM     49  C   UNL A   1      43.576  32.234  33.196  1.00  0.00     0.031 C 
ATOM     50  C   UNL A   1      39.346  35.535  37.131  1.00  0.00     0.029 A 
ATOM     51  C   UNL A   1      38.931  34.227  36.659  1.00  0.00     0.049 A 
ATOM     52  H   UNL A   1      39.565  33.301  34.883  1.00  0.00     0.167 HD
ATOM     53  C   UNL A   1      41.770  30.952  31.972  1.00  0.00     0.031 A 
ATOM     54  C   UNL A   1      38.071  33.355  37.254  1.00  0.00     0.031 A 
ATOM     55  C   UNL A   1      40.505  31.215  31.344  1.00  0.00     0.049 A 
ATOM     56  C   UNL A   1      37.683  32.342  36.246  1.00  0.00     0.074 A 
ATOM     57  C   UNL A   1      40.096  32.037  30.314  1.00  0.00     0.029 A 
ATOM     58  N   UNL A   1      39.371  30.851  32.027  1.00  0.00    -0.354 N 
ATOM     59  N   UNL A   1      36.959  32.606  35.194  1.00  0.00    -0.248 NA
ATOM     60  C   UNL A   1      38.450  31.110  36.185  1.00  0.00     0.031 C 
ATOM     61  C   UNL A   1      38.793  32.471  30.678  1.00  0.00     0.029 A 
ATOM     62  C   UNL A   1      38.442  31.850  31.880  1.00  0.00     0.049 A 
ATOM     63  H   UNL A   1      39.245  30.017  32.534  1.00  0.00     0.167 HD
ATOM     64  C   UNL A   1      37.513  31.830  34.187  1.00  0.00     0.074 A 
ATOM     65  C   UNL A   1      38.358  30.860  34.877  1.00  0.00     0.031 C 
ATOM     66  C   UNL A   1      37.450  32.213  32.879  1.00  0.00     0.031 A 
BRANCH  53  67
ATOM     67  C   UNL A   1      42.249  29.574  32.339  1.00  0.00    -0.014 A 
ATOM     68  C   UNL A   1      43.384  28.983  31.741  1.00  0.00     0.010 A 
ATOM     69  C   UNL A   1      41.705  28.924  33.459  1.00  0.00     0.010 A 
ATOM     70  C   UNL A   1      43.914  27.774  32.181  1.00  0.00     0.020 A 
ATOM     71  C   UNL A   1      42.265  27.734  33.947  1.00  0.00     0.020 A 
ATOM     72  C   UNL A   1      43.354  27.159  33.290  1.00  0.00     0.054 A 
BRANCH  72  73
ATOM     73  S   UNL A   1      44.132  25.642  33.889  1.00  0.00     0.124 S 
ATOM     74  O   UNL A   1      44.203  24.844  32.667  1.00  0.00    -0.237 OA
ATOM     75  O   UNL A   1      45.412  26.129  34.397  1.00  0.00    -0.237 OA
ATOM     76  O   UNL A   1      43.201  25.158  34.902  1.00  0.00    -0.744 OA
ENDBRANCH  72  73
ENDBRANCH  53  67
BRANCH  54  77
ATOM     77  C   UNL A   1      37.901  33.142  38.725  1.00  0.00    -0.014 A 
ATOM     78  C   UNL A   1      39.038  32.900  39.525  1.00  0.00     0.010 A 
ATOM     79  C   UNL A   1      36.641  32.908  39.315  1.00  0.00     0.010 A 
ATOM     80  C   UNL A   1      38.938  32.393  40.824  1.00  0.00     0.020 A 
ATOM     81  C   UNL A   1      36.530  32.390  40.623  1.00  0.00     0.020 A 
ATOM     82  C   UNL A   1      37.686  32.102  41.353  1.00  0.00     0.054 A 
BRANCH  82  83
ATOM     83  S   UNL A   1      37.625  31.259  42.962  1.00  0.00     0.124 S 
ATOM     84  O   UNL A   1      36.186  31.149  43.190  1.00  0.00    -0.237 OA
ATOM     85  O   UNL A   1      38.310  29.998  42.686  1.00  0.00    -0.237 OA
ATOM     86  O   UNL A   1      38.333  32.166  43.860  1.00  0.00    -0.744 OA
ENDBRANCH  82  83
ENDBRANCH  54  77
BRANCH  66  87
ATOM     87  C   UNL A   1      36.460  33.282  32.457  1.00  0.00    -0.014 A 
ATOM     88  C   UNL A   1      36.489  34.493  33.177  1.00  0.00     0.010 A 
ATOM     89  C   UNL A   1      35.393  33.064  31.562  1.00  0.00     0.010 A 
ATOM     90  C   UNL A   1      35.458  35.426  33.069  1.00  0.00     0.020 A 
ATOM     91  C   UNL A   1      34.366  34.016  31.425  1.00  0.00     0.020 A 
ATOM     92  C   UNL A   1      34.389  35.173  32.210  1.00  0.00     0.054 A 
BRANCH  92  93
ATOM     93  S   UNL A   1      33.016  36.360  32.190  1.00  0.00     0.124 S 
ATOM     94  O   UNL A   1      31.847  35.482  32.229  1.00  0.00    -0.237 OA
ATOM     95  O   UNL A   1      33.249  37.143  33.401  1.00  0.00    -0.237 OA
ATOM     96  O   UNL A   1      33.191  37.087  30.935  1.00  0.00    -0.744 OA
ENDBRANCH  92  93
ENDBRANCH  66  87
ENDBRANCH  40  41
ENDBRANCH  33  35
ENDBRANCH  32  33
ENDBRANCH  31  32
ENDBRANCH  30  31
ENDBRANCH  29  30
ENDBRANCH  28  29
ENDBRANCH   1  28
TORSDOF 24
ENDMDL
