MODEL 1
REMARK VINA RESULT:      -9.6      0.000      0.000
REMARK SMILES Cc1cc(C)cc(Oc2nc3ccccn3c(=O)c2/C=C2\SC(=S)N(CCC(=O)OCCOCCOCCOCCOC(=O)c3ccc(-c4c5nc(c(-c6ccc(S(=O)(=O)[O-])cc6)c6ccc([nH]6)c(-c6ccc(S(=O)(=O)[O-])cc6)c6nc(c(-c7ccc(S(=O)(=O)[O-])cc7)c7ccc4[nH]7)C=C6)C=C5)cc3)C2=O)c1
REMARK SMILES IDX 35 1 34 2 33 3 32 4 31 5 30 6 28 7 29 8 27 9 26 10 25 11
REMARK SMILES IDX 20 12 21 13 22 14 105 15 23 16 106 17 24 18 19 19 9 20 10 21
REMARK SMILES IDX 11 22 17 23 12 24 16 25 18 26 13 27 15 28 14 29 8 30 7 31
REMARK SMILES IDX 1 32 2 33 3 34 107 35 4 36 5 37 6 38 36 39 37 40 38 41 39 42
REMARK SMILES IDX 40 43 41 44 42 45 43 46 44 47 45 48 46 49 104 50 47 51
REMARK SMILES IDX 103 52 48 53 49 54 50 55 97 56 51 57 102 58 96 59 98 60
REMARK SMILES IDX 52 61 101 62 95 63 94 64 53 66 83 67 64 68 82 69 65 70 68 71
REMARK SMILES IDX 81 72 99 73 66 74 67 75 80 77 100 78 69 79 54 80 55 81 63 82
REMARK SMILES IDX 56 83 62 84 57 85 58 86 59 87 60 88 61 89 84 90 85 91 93 92
REMARK SMILES IDX 86 93 92 94 87 95 88 96 89 97 90 98 91 99 70 100 71 101
REMARK SMILES IDX 79 102 72 103 78 104 73 105 74 106 75 107 76 108 77 109
REMARK H PARENT 98 65 68 76
REMARK Flexibility Score: inf
ROOT
ATOM      1  C   UNL A   1      36.073  22.460  23.686  1.00  0.00     0.188 C 
ENDROOT
BRANCH   1   2
ATOM      2  C   UNL A   1      35.355  23.566  22.880  1.00  0.00     0.188 C 
BRANCH   2   3
ATOM      3  O   UNL A   1      34.210  23.290  22.116  1.00  0.00    -0.376 OA
BRANCH   3   4
ATOM      4  C   UNL A   1      33.035  22.703  22.655  1.00  0.00     0.202 C 
BRANCH   4   5
ATOM      5  C   UNL A   1      32.326  21.410  22.200  1.00  0.00     0.261 C 
BRANCH   5   6
ATOM      6  O   UNL A   1      32.161  20.340  23.134  1.00  0.00    -0.463 OA
BRANCH   6   7
ATOM      7  C   UNL A   1      32.851  20.365  24.285  1.00  0.00     0.307 C 
ATOM      8  O   UNL A   1      33.947  19.838  24.442  1.00  0.00    -0.252 OA
BRANCH   7   9
ATOM      9  C   UNL A   1      32.102  21.024  25.428  1.00  0.00     0.144 C 
BRANCH   9  10
ATOM     10  C   UNL A   1      32.679  22.190  26.247  1.00  0.00     0.139 C 
BRANCH  10  11
ATOM     11  N   UNL A   1      32.042  23.522  26.203  1.00  0.00    -0.292 N 
ATOM     12  C   UNL A   1      32.459  27.010  25.429  1.00  0.00     0.041 C 
ATOM     13  C   UNL A   1      31.966  25.868  25.940  1.00  0.00     0.081 C 
ATOM     14  S   UNL A   1      30.369  25.492  26.422  1.00  0.00    -0.054 SA
ATOM     15  C   UNL A   1      32.792  24.655  25.985  1.00  0.00     0.266 C 
ATOM     16  C   UNL A   1      30.738  23.778  26.594  1.00  0.00     0.148 C 
ATOM     17  O   UNL A   1      34.002  24.719  25.850  1.00  0.00    -0.268 OA
ATOM     18  S   UNL A   1      29.591  22.708  27.169  1.00  0.00    -0.052 S 
BRANCH  12  19
ATOM     19  C   UNL A   1      31.612  28.127  25.073  1.00  0.00     0.104 A 
ATOM     20  C   UNL A   1      31.588  29.289  25.761  1.00  0.00     0.234 A 
ATOM     21  N   UNL A   1      30.998  30.420  25.271  1.00  0.00    -0.194 NA
ATOM     22  C   UNL A   1      30.295  30.341  24.186  1.00  0.00     0.143 A 
ATOM     23  C   UNL A   1      30.793  28.038  23.829  1.00  0.00     0.269 A 
ATOM     24  C   UNL A   1      29.643  31.572  23.653  1.00  0.00     0.048 A 
ATOM     25  N   UNL A   1      30.099  29.176  23.471  1.00  0.00    -0.267 N 
ATOM     26  O   UNL A   1      30.764  26.983  23.190  1.00  0.00    -0.268 OA
ATOM     27  C   UNL A   1      28.793  31.485  22.625  1.00  0.00     0.005 A 
ATOM     28  C   UNL A   1      29.219  29.133  22.396  1.00  0.00     0.096 A 
ATOM     29  C   UNL A   1      28.556  30.220  21.986  1.00  0.00     0.019 A 
BRANCH  20  30
ATOM     30  O   UNL A   1      32.075  29.401  27.073  1.00  0.00    -0.438 OA
BRANCH  30  31
ATOM     31  C   UNL A   1      33.203  30.130  27.370  1.00  0.00     0.130 A 
ATOM     32  C   UNL A   1      34.352  33.679  28.027  1.00  0.00     0.044 C 
ATOM     33  C   UNL A   1      34.383  32.197  27.822  1.00  0.00    -0.047 A 
ATOM     34  C   UNL A   1      35.596  31.499  27.815  1.00  0.00     0.007 A 
ATOM     35  C   UNL A   1      33.188  31.492  27.654  1.00  0.00     0.050 A 
ATOM     36  C   UNL A   1      35.622  30.109  27.642  1.00  0.00    -0.047 A 
ATOM     37  C   UNL A   1      36.926  29.372  27.760  1.00  0.00     0.044 C 
ATOM     38  C   UNL A   1      34.418  29.433  27.396  1.00  0.00     0.050 A 
ENDBRANCH  30  31
ENDBRANCH  20  30
ENDBRANCH  12  19
ENDBRANCH  10  11
ENDBRANCH   9  10
ENDBRANCH   7   9
ENDBRANCH   6   7
ENDBRANCH   5   6
ENDBRANCH   4   5
ENDBRANCH   3   4
ENDBRANCH   2   3
ENDBRANCH   1   2
BRANCH   1  39
ATOM     39  O   UNL A   1      36.460  22.513  25.047  1.00  0.00    -0.377 OA
BRANCH  39  40
ATOM     40  C   UNL A   1      37.832  22.643  25.368  1.00  0.00     0.188 C 
BRANCH  40  41
ATOM     41  C   UNL A   1      38.149  22.703  26.863  1.00  0.00     0.188 C 
BRANCH  41  42
ATOM     42  O   UNL A   1      39.534  22.611  27.134  1.00  0.00    -0.376 OA
BRANCH  42  43
ATOM     43  C   UNL A   1      40.456  22.975  26.114  1.00  0.00     0.202 C 
BRANCH  43  44
ATOM     44  C   UNL A   1      40.903  24.424  25.796  1.00  0.00     0.261 C 
BRANCH  44  45
ATOM     45  O   UNL A   1      40.408  25.510  26.590  1.00  0.00    -0.460 OA
BRANCH  45  46
ATOM     46  C   UNL A   1      40.977  26.721  26.439  1.00  0.00     0.338 C 
ATOM     47  O   UNL A   1      41.580  27.126  25.462  1.00  0.00    -0.246 OA
BRANCH  46  48
ATOM     48  C   UNL A   1      40.589  27.556  27.602  1.00  0.00     0.060 A 
ATOM     49  C   UNL A   1      41.011  28.891  27.645  1.00  0.00     0.016 A 
ATOM     50  C   UNL A   1      39.840  27.026  28.653  1.00  0.00     0.016 A 
ATOM     51  C   UNL A   1      40.734  29.684  28.762  1.00  0.00     0.010 A 
ATOM     52  C   UNL A   1      39.584  27.817  29.782  1.00  0.00     0.010 A 
ATOM     53  C   UNL A   1      40.060  29.140  29.862  1.00  0.00    -0.014 A 
BRANCH  53  54
ATOM     54  C   UNL A   1      40.073  29.859  31.169  1.00  0.00     0.031 A 
ATOM     55  C   UNL A   1      41.225  29.578  32.104  1.00  0.00     0.074 A 
ATOM     56  C   UNL A   1      39.163  30.802  31.490  1.00  0.00     0.049 A 
ATOM     57  N   UNL A   1      41.443  30.024  33.313  1.00  0.00    -0.248 NA
ATOM     58  C   UNL A   1      42.291  28.697  31.591  1.00  0.00     0.031 C 
ATOM     59  C   UNL A   1      38.102  31.286  30.609  1.00  0.00     0.029 A 
ATOM     60  N   UNL A   1      38.988  31.533  32.643  1.00  0.00    -0.354 N 
ATOM     61  C   UNL A   1      42.678  29.505  33.689  1.00  0.00     0.074 A 
ATOM     62  C   UNL A   1      43.132  28.655  32.612  1.00  0.00     0.031 C 
ATOM     63  C   UNL A   1      37.376  32.213  31.258  1.00  0.00     0.029 A 
ATOM     64  C   UNL A   1      37.883  32.362  32.620  1.00  0.00     0.049 A 
ATOM     65  H   UNL A   1      39.596  31.472  33.415  1.00  0.00     0.167 HD
ATOM     66  C   UNL A   1      43.389  29.744  34.815  1.00  0.00     0.031 A 
ATOM     67  C   UNL A   1      37.326  33.116  33.597  1.00  0.00     0.031 A 
ATOM     68  C   UNL A   1      42.927  30.584  35.885  1.00  0.00     0.049 A 
ATOM     69  C   UNL A   1      37.996  33.117  34.954  1.00  0.00     0.074 A 
ATOM     70  C   UNL A   1      43.561  30.888  37.076  1.00  0.00     0.029 A 
ATOM     71  N   UNL A   1      41.714  31.255  35.891  1.00  0.00    -0.354 N 
ATOM     72  N   UNL A   1      39.149  32.594  35.306  1.00  0.00    -0.248 NA
ATOM     73  C   UNL A   1      37.295  33.805  36.046  1.00  0.00     0.031 C 
ATOM     74  C   UNL A   1      42.699  31.689  37.832  1.00  0.00     0.029 A 
ATOM     75  C   UNL A   1      41.563  31.945  37.081  1.00  0.00     0.049 A 
ATOM     76  H   UNL A   1      41.057  31.243  35.158  1.00  0.00     0.167 HD
ATOM     77  C   UNL A   1      39.352  32.978  36.629  1.00  0.00     0.074 A 
ATOM     78  C   UNL A   1      38.189  33.745  37.022  1.00  0.00     0.031 C 
ATOM     79  C   UNL A   1      40.417  32.744  37.435  1.00  0.00     0.031 A 
BRANCH  66  80
ATOM     80  C   UNL A   1      44.735  29.078  34.953  1.00  0.00    -0.014 A 
ATOM     81  C   UNL A   1      44.840  27.703  35.229  1.00  0.00     0.010 A 
ATOM     82  C   UNL A   1      45.909  29.825  34.744  1.00  0.00     0.010 A 
ATOM     83  C   UNL A   1      46.094  27.092  35.317  1.00  0.00     0.020 A 
ATOM     84  C   UNL A   1      47.163  29.211  34.803  1.00  0.00     0.020 A 
ATOM     85  C   UNL A   1      47.249  27.850  35.100  1.00  0.00     0.054 A 
BRANCH  85  86
ATOM     86  S   UNL A   1      48.860  27.020  35.169  1.00  0.00     0.124 S 
ATOM     87  O   UNL A   1      49.511  27.523  33.962  1.00  0.00    -0.237 OA
ATOM     88  O   UNL A   1      49.414  27.506  36.431  1.00  0.00    -0.237 OA
ATOM     89  O   UNL A   1      48.521  25.600  35.146  1.00  0.00    -0.744 OA
ENDBRANCH  85  86
ENDBRANCH  66  80
BRANCH  67  90
ATOM     90  C   UNL A   1      36.015  33.829  33.402  1.00  0.00    -0.014 A 
ATOM     91  C   UNL A   1      34.760  33.222  33.571  1.00  0.00     0.010 A 
ATOM     92  C   UNL A   1      36.029  35.142  32.913  1.00  0.00     0.010 A 
ATOM     93  C   UNL A   1      33.580  33.897  33.200  1.00  0.00     0.020 A 
ATOM     94  C   UNL A   1      34.871  35.839  32.570  1.00  0.00     0.020 A 
ATOM     95  C   UNL A   1      33.646  35.201  32.696  1.00  0.00     0.054 A 
BRANCH  95  96
ATOM     96  S   UNL A   1      32.128  36.045  32.173  1.00  0.00     0.124 S 
ATOM     97  O   UNL A   1      32.209  37.307  32.899  1.00  0.00    -0.237 OA
ATOM     98  O   UNL A   1      32.305  36.132  30.726  1.00  0.00    -0.237 OA
ATOM     99  O   UNL A   1      31.061  35.147  32.613  1.00  0.00    -0.744 OA
ENDBRANCH  95  96
ENDBRANCH  67  90
BRANCH  79 100
ATOM    100  C   UNL A   1      40.444  33.440  38.771  1.00  0.00    -0.014 A 
ATOM    101  C   UNL A   1      41.016  34.711  38.942  1.00  0.00     0.010 A 
ATOM    102  C   UNL A   1      39.835  32.808  39.872  1.00  0.00     0.010 A 
ATOM    103  C   UNL A   1      41.014  35.319  40.202  1.00  0.00     0.020 A 
ATOM    104  C   UNL A   1      39.797  33.428  41.122  1.00  0.00     0.020 A 
ATOM    105  C   UNL A   1      40.404  34.673  41.282  1.00  0.00     0.054 A 
BRANCH 105 106
ATOM    106  S   UNL A   1      40.383  35.499  42.896  1.00  0.00     0.124 S 
ATOM    107  O   UNL A   1      41.622  36.272  42.859  1.00  0.00    -0.237 OA
ATOM    108  O   UNL A   1      39.151  36.284  42.837  1.00  0.00    -0.237 OA
ATOM    109  O   UNL A   1      40.365  34.395  43.853  1.00  0.00    -0.744 OA
ENDBRANCH 105 106
ENDBRANCH  79 100
ENDBRANCH  53  54
ENDBRANCH  46  48
ENDBRANCH  45  46
ENDBRANCH  44  45
ENDBRANCH  43  44
ENDBRANCH  42  43
ENDBRANCH  41  42
ENDBRANCH  40  41
ENDBRANCH  39  40
ENDBRANCH   1  39
TORSDOF 28
ENDMDL
MODEL 2
REMARK VINA RESULT:      -8.8      5.565     10.069
REMARK SMILES Cc1cc(C)cc(Oc2nc3ccccn3c(=O)c2/C=C2\SC(=S)N(CCC(=O)OCCOCCOCCOCCOC(=O)c3ccc(-c4c5nc(c(-c6ccc(S(=O)(=O)[O-])cc6)c6ccc([nH]6)c(-c6ccc(S(=O)(=O)[O-])cc6)c6nc(c(-c7ccc(S(=O)(=O)[O-])cc7)c7ccc4[nH]7)C=C6)C=C5)cc3)C2=O)c1
REMARK SMILES IDX 35 1 34 2 33 3 32 4 31 5 30 6 28 7 29 8 27 9 26 10 25 11
REMARK SMILES IDX 20 12 21 13 22 14 105 15 23 16 106 17 24 18 19 19 9 20 10 21
REMARK SMILES IDX 11 22 17 23 12 24 16 25 18 26 13 27 15 28 14 29 8 30 7 31
REMARK SMILES IDX 1 32 2 33 3 34 107 35 4 36 5 37 6 38 36 39 37 40 38 41 39 42
REMARK SMILES IDX 40 43 41 44 42 45 43 46 44 47 45 48 46 49 104 50 47 51
REMARK SMILES IDX 103 52 48 53 49 54 50 55 97 56 51 57 102 58 96 59 98 60
REMARK SMILES IDX 52 61 101 62 95 63 94 64 53 66 83 67 64 68 82 69 65 70 68 71
REMARK SMILES IDX 81 72 99 73 66 74 67 75 80 77 100 78 69 79 54 80 55 81 63 82
REMARK SMILES IDX 56 83 62 84 57 85 58 86 59 87 60 88 61 89 84 90 85 91 93 92
REMARK SMILES IDX 86 93 92 94 87 95 88 96 89 97 90 98 91 99 70 100 71 101
REMARK SMILES IDX 79 102 72 103 78 104 73 105 74 106 75 107 76 108 77 109
REMARK H PARENT 98 65 68 76
REMARK Flexibility Score: inf
ROOT
ATOM      1  C   UNL A   1      35.216  22.917  22.840  1.00  0.00     0.188 C 
ENDROOT
BRANCH   1   2
ATOM      2  C   UNL A   1      33.829  23.563  22.615  1.00  0.00     0.188 C 
BRANCH   2   3
ATOM      3  O   UNL A   1      32.793  22.869  21.971  1.00  0.00    -0.376 OA
BRANCH   3   4
ATOM      4  C   UNL A   1      31.958  21.928  22.629  1.00  0.00     0.202 C 
BRANCH   4   5
ATOM      5  C   UNL A   1      32.201  20.416  22.825  1.00  0.00     0.261 C 
BRANCH   5   6
ATOM      6  O   UNL A   1      32.344  19.900  24.150  1.00  0.00    -0.463 OA
BRANCH   6   7
ATOM      7  C   UNL A   1      33.322  20.377  24.936  1.00  0.00     0.307 C 
ATOM      8  O   UNL A   1      34.470  19.944  24.946  1.00  0.00    -0.252 OA
BRANCH   7   9
ATOM      9  C   UNL A   1      32.856  21.449  25.904  1.00  0.00     0.144 C 
BRANCH   9  10
ATOM     10  C   UNL A   1      33.547  22.813  26.040  1.00  0.00     0.139 C 
BRANCH  10  11
ATOM     11  N   UNL A   1      32.754  24.059  26.039  1.00  0.00    -0.292 N 
ATOM     12  C   UNL A   1      32.738  27.593  25.372  1.00  0.00     0.041 C 
ATOM     13  C   UNL A   1      32.391  26.386  25.848  1.00  0.00     0.081 C 
ATOM     14  S   UNL A   1      30.854  25.803  26.321  1.00  0.00    -0.054 SA
ATOM     15  C   UNL A   1      33.358  25.281  25.855  1.00  0.00     0.266 C 
ATOM     16  C   UNL A   1      31.430  24.142  26.439  1.00  0.00     0.148 C 
ATOM     17  O   UNL A   1      34.551  25.496  25.721  1.00  0.00    -0.268 OA
ATOM     18  S   UNL A   1      30.425  22.923  26.982  1.00  0.00    -0.052 S 
BRANCH  12  19
ATOM     19  C   UNL A   1      31.760  28.610  25.053  1.00  0.00     0.104 A 
ATOM     20  C   UNL A   1      31.586  29.730  25.786  1.00  0.00     0.234 A 
ATOM     21  N   UNL A   1      30.861  30.797  25.336  1.00  0.00    -0.194 NA
ATOM     22  C   UNL A   1      30.181  30.676  24.241  1.00  0.00     0.143 A 
ATOM     23  C   UNL A   1      30.966  28.470  23.797  1.00  0.00     0.269 A 
ATOM     24  C   UNL A   1      29.383  31.836  23.750  1.00  0.00     0.048 A 
ATOM     25  N   UNL A   1      30.137  29.526  23.477  1.00  0.00    -0.267 N 
ATOM     26  O   UNL A   1      31.074  27.447  23.116  1.00  0.00    -0.268 OA
ATOM     27  C   UNL A   1      28.557  31.686  22.710  1.00  0.00     0.005 A 
ATOM     28  C   UNL A   1      29.276  29.418  22.392  1.00  0.00     0.096 A 
ATOM     29  C   UNL A   1      28.484  30.429  22.018  1.00  0.00     0.019 A 
BRANCH  20  30
ATOM     30  O   UNL A   1      32.048  29.848  27.107  1.00  0.00    -0.438 OA
BRANCH  30  31
ATOM     31  C   UNL A   1      33.254  30.437  27.406  1.00  0.00     0.130 A 
ATOM     32  C   UNL A   1      34.839  33.833  27.957  1.00  0.00     0.044 C 
ATOM     33  C   UNL A   1      34.681  32.352  27.810  1.00  0.00    -0.047 A 
ATOM     34  C   UNL A   1      35.794  31.505  27.863  1.00  0.00     0.007 A 
ATOM     35  C   UNL A   1      33.409  31.800  27.638  1.00  0.00     0.050 A 
ATOM     36  C   UNL A   1      35.643  30.116  27.744  1.00  0.00    -0.047 A 
ATOM     37  C   UNL A   1      36.837  29.224  27.925  1.00  0.00     0.044 C 
ATOM     38  C   UNL A   1      34.367  29.591  27.492  1.00  0.00     0.050 A 
ENDBRANCH  30  31
ENDBRANCH  20  30
ENDBRANCH  12  19
ENDBRANCH  10  11
ENDBRANCH   9  10
ENDBRANCH   7   9
ENDBRANCH   6   7
ENDBRANCH   5   6
ENDBRANCH   4   5
ENDBRANCH   3   4
ENDBRANCH   2   3
ENDBRANCH   1   2
BRANCH   1  39
ATOM     39  O   UNL A   1      36.307  23.471  23.552  1.00  0.00    -0.377 OA
BRANCH  39  40
ATOM     40  C   UNL A   1      37.148  22.612  24.298  1.00  0.00     0.188 C 
BRANCH  40  41
ATOM     41  C   UNL A   1      37.182  22.877  25.803  1.00  0.00     0.188 C 
BRANCH  41  42
ATOM     42  O   UNL A   1      38.063  22.012  26.493  1.00  0.00    -0.376 OA
BRANCH  42  43
ATOM     43  C   UNL A   1      39.463  22.237  26.390  1.00  0.00     0.202 C 
BRANCH  43  44
ATOM     44  C   UNL A   1      40.542  21.125  26.356  1.00  0.00     0.261 C 
BRANCH  44  45
ATOM     45  O   UNL A   1      41.595  21.189  25.386  1.00  0.00    -0.460 OA
BRANCH  45  46
ATOM     46  C   UNL A   1      42.828  20.796  25.758  1.00  0.00     0.338 C 
ATOM     47  O   UNL A   1      43.264  19.659  25.754  1.00  0.00    -0.246 OA
BRANCH  46  48
ATOM     48  C   UNL A   1      43.640  22.013  26.005  1.00  0.00     0.060 A 
ATOM     49  C   UNL A   1      44.302  22.145  27.232  1.00  0.00     0.016 A 
ATOM     50  C   UNL A   1      43.729  23.027  25.051  1.00  0.00     0.016 A 
ATOM     51  C   UNL A   1      45.009  23.313  27.532  1.00  0.00     0.010 A 
ATOM     52  C   UNL A   1      44.418  24.207  25.364  1.00  0.00     0.010 A 
ATOM     53  C   UNL A   1      45.033  24.375  26.620  1.00  0.00    -0.014 A 
BRANCH  53  54
ATOM     54  C   UNL A   1      45.475  25.727  27.068  1.00  0.00     0.031 A 
ATOM     55  C   UNL A   1      44.473  26.572  27.819  1.00  0.00     0.074 A 
ATOM     56  C   UNL A   1      46.741  26.167  26.914  1.00  0.00     0.049 A 
ATOM     57  N   UNL A   1      44.585  27.795  28.265  1.00  0.00    -0.248 NA
ATOM     58  C   UNL A   1      43.180  25.936  28.134  1.00  0.00     0.031 C 
ATOM     59  C   UNL A   1      47.845  25.385  26.359  1.00  0.00     0.029 A 
ATOM     60  N   UNL A   1      47.321  27.377  27.219  1.00  0.00    -0.354 N 
ATOM     61  C   UNL A   1      43.395  28.061  28.936  1.00  0.00     0.074 A 
ATOM     62  C   UNL A   1      42.546  26.902  28.781  1.00  0.00     0.031 C 
ATOM     63  C   UNL A   1      48.957  26.141  26.343  1.00  0.00     0.029 A 
ATOM     64  C   UNL A   1      48.645  27.478  26.841  1.00  0.00     0.049 A 
ATOM     65  H   UNL A   1      46.835  28.107  27.669  1.00  0.00     0.167 HD
ATOM     66  C   UNL A   1      43.053  29.159  29.650  1.00  0.00     0.031 A 
ATOM     67  C   UNL A   1      49.488  28.537  26.855  1.00  0.00     0.031 A 
ATOM     68  C   UNL A   1      43.899  30.311  29.793  1.00  0.00     0.049 A 
ATOM     69  C   UNL A   1      48.962  29.849  27.392  1.00  0.00     0.074 A 
ATOM     70  C   UNL A   1      43.650  31.482  30.484  1.00  0.00     0.029 A 
ATOM     71  N   UNL A   1      45.161  30.435  29.232  1.00  0.00    -0.354 N 
ATOM     72  N   UNL A   1      47.820  30.096  27.996  1.00  0.00    -0.248 NA
ATOM     73  C   UNL A   1      49.829  31.027  27.253  1.00  0.00     0.031 C 
ATOM     74  C   UNL A   1      44.734  32.342  30.284  1.00  0.00     0.029 A 
ATOM     75  C   UNL A   1      45.689  31.678  29.531  1.00  0.00     0.049 A 
ATOM     76  H   UNL A   1      45.614  29.742  28.699  1.00  0.00     0.167 HD
ATOM     77  C   UNL A   1      47.882  31.429  28.393  1.00  0.00     0.074 A 
ATOM     78  C   UNL A   1      49.153  31.943  27.931  1.00  0.00     0.031 C 
ATOM     79  C   UNL A   1      46.980  32.154  29.102  1.00  0.00     0.031 A 
BRANCH  66  80
ATOM     80  C   UNL A   1      41.703  29.170  30.320  1.00  0.00    -0.014 A 
ATOM     81  C   UNL A   1      41.560  28.810  31.673  1.00  0.00     0.010 A 
ATOM     82  C   UNL A   1      40.571  29.604  29.606  1.00  0.00     0.010 A 
ATOM     83  C   UNL A   1      40.307  28.861  32.290  1.00  0.00     0.020 A 
ATOM     84  C   UNL A   1      39.323  29.683  30.229  1.00  0.00     0.020 A 
ATOM     85  C   UNL A   1      39.197  29.301  31.565  1.00  0.00     0.054 A 
BRANCH  85  86
ATOM     86  S   UNL A   1      37.594  29.406  32.408  1.00  0.00     0.124 S 
ATOM     87  O   UNL A   1      37.746  30.627  33.195  1.00  0.00    -0.237 OA
ATOM     88  O   UNL A   1      36.653  29.490  31.293  1.00  0.00    -0.237 OA
ATOM     89  O   UNL A   1      37.527  28.171  33.184  1.00  0.00    -0.744 OA
ENDBRANCH  85  86
ENDBRANCH  66  80
BRANCH  67  90
ATOM     90  C   UNL A   1      50.861  28.470  26.241  1.00  0.00    -0.014 A 
ATOM     91  C   UNL A   1      51.144  28.826  24.913  1.00  0.00     0.010 A 
ATOM     92  C   UNL A   1      51.907  27.914  26.990  1.00  0.00     0.010 A 
ATOM     93  C   UNL A   1      52.412  28.571  24.355  1.00  0.00     0.020 A 
ATOM     94  C   UNL A   1      53.178  27.681  26.465  1.00  0.00     0.020 A 
ATOM     95  C   UNL A   1      53.420  27.993  25.136  1.00  0.00     0.054 A 
BRANCH  95  96
ATOM     96  S   UNL A   1      55.034  27.619  24.397  1.00  0.00     0.124 S 
ATOM     97  O   UNL A   1      55.905  27.570  25.566  1.00  0.00    -0.237 OA
ATOM     98  O   UNL A   1      54.782  26.342  23.736  1.00  0.00    -0.237 OA
ATOM     99  O   UNL A   1      55.273  28.746  23.496  1.00  0.00    -0.744 OA
ENDBRANCH  95  96
ENDBRANCH  67  90
BRANCH  79 100
ATOM    100  C   UNL A   1      47.394  33.532  29.548  1.00  0.00    -0.014 A 
ATOM    101  C   UNL A   1      47.201  34.669  28.745  1.00  0.00     0.010 A 
ATOM    102  C   UNL A   1      47.953  33.686  30.831  1.00  0.00     0.010 A 
ATOM    103  C   UNL A   1      47.598  35.929  29.204  1.00  0.00     0.020 A 
ATOM    104  C   UNL A   1      48.316  34.947  31.307  1.00  0.00     0.020 A 
ATOM    105  C   UNL A   1      48.153  36.059  30.481  1.00  0.00     0.054 A 
BRANCH 105 106
ATOM    106  S   UNL A   1      48.625  37.708  31.066  1.00  0.00     0.124 S 
ATOM    107  O   UNL A   1      47.485  38.519  30.645  1.00  0.00    -0.237 OA
ATOM    108  O   UNL A   1      48.757  37.511  32.508  1.00  0.00    -0.237 OA
ATOM    109  O   UNL A   1      49.877  37.982  30.364  1.00  0.00    -0.744 OA
ENDBRANCH 105 106
ENDBRANCH  79 100
ENDBRANCH  53  54
ENDBRANCH  46  48
ENDBRANCH  45  46
ENDBRANCH  44  45
ENDBRANCH  43  44
ENDBRANCH  42  43
ENDBRANCH  41  42
ENDBRANCH  40  41
ENDBRANCH  39  40
ENDBRANCH   1  39
TORSDOF 28
ENDMDL
MODEL 3
REMARK VINA RESULT:      -8.6      4.536      8.317
REMARK SMILES Cc1cc(C)cc(Oc2nc3ccccn3c(=O)c2/C=C2\SC(=S)N(CCC(=O)OCCOCCOCCOCCOC(=O)c3ccc(-c4c5nc(c(-c6ccc(S(=O)(=O)[O-])cc6)c6ccc([nH]6)c(-c6ccc(S(=O)(=O)[O-])cc6)c6nc(c(-c7ccc(S(=O)(=O)[O-])cc7)c7ccc4[nH]7)C=C6)C=C5)cc3)C2=O)c1
REMARK SMILES IDX 35 1 34 2 33 3 32 4 31 5 30 6 28 7 29 8 27 9 26 10 25 11
REMARK SMILES IDX 20 12 21 13 22 14 105 15 23 16 106 17 24 18 19 19 9 20 10 21
REMARK SMILES IDX 11 22 17 23 12 24 16 25 18 26 13 27 15 28 14 29 8 30 7 31
REMARK SMILES IDX 1 32 2 33 3 34 107 35 4 36 5 37 6 38 36 39 37 40 38 41 39 42
REMARK SMILES IDX 40 43 41 44 42 45 43 46 44 47 45 48 46 49 104 50 47 51
REMARK SMILES IDX 103 52 48 53 49 54 50 55 97 56 51 57 102 58 96 59 98 60
REMARK SMILES IDX 52 61 101 62 95 63 94 64 53 66 83 67 64 68 82 69 65 70 68 71
REMARK SMILES IDX 81 72 99 73 66 74 67 75 80 77 100 78 69 79 54 80 55 81 63 82
REMARK SMILES IDX 56 83 62 84 57 85 58 86 59 87 60 88 61 89 84 90 85 91 93 92
REMARK SMILES IDX 86 93 92 94 87 95 88 96 89 97 90 98 91 99 70 100 71 101
REMARK SMILES IDX 79 102 72 103 78 104 73 105 74 106 75 107 76 108 77 109
REMARK H PARENT 98 65 68 76
REMARK Flexibility Score: inf
ROOT
ATOM      1  C   UNL A   1      35.189  23.087  22.834  1.00  0.00     0.188 C 
ENDROOT
BRANCH   1   2
ATOM      2  C   UNL A   1      33.714  23.445  22.541  1.00  0.00     0.188 C 
BRANCH   2   3
ATOM      3  O   UNL A   1      32.884  22.586  21.803  1.00  0.00    -0.376 OA
BRANCH   3   4
ATOM      4  C   UNL A   1      31.949  21.700  22.400  1.00  0.00     0.202 C 
BRANCH   4   5
ATOM      5  C   UNL A   1      32.102  20.184  22.648  1.00  0.00     0.261 C 
BRANCH   5   6
ATOM      6  O   UNL A   1      32.228  19.706  23.990  1.00  0.00    -0.463 OA
BRANCH   6   7
ATOM      7  C   UNL A   1      33.149  20.257  24.796  1.00  0.00     0.307 C 
ATOM      8  O   UNL A   1      34.323  19.902  24.844  1.00  0.00    -0.252 OA
BRANCH   7   9
ATOM      9  C   UNL A   1      32.585  21.306  25.736  1.00  0.00     0.144 C 
BRANCH   9  10
ATOM     10  C   UNL A   1      33.313  22.620  26.059  1.00  0.00     0.139 C 
BRANCH  10  11
ATOM     11  N   UNL A   1      32.574  23.899  26.082  1.00  0.00    -0.292 N 
ATOM     12  C   UNL A   1      32.713  27.442  25.479  1.00  0.00     0.041 C 
ATOM     13  C   UNL A   1      32.314  26.242  25.934  1.00  0.00     0.081 C 
ATOM     14  S   UNL A   1      30.753  25.719  26.401  1.00  0.00    -0.054 SA
ATOM     15  C   UNL A   1      33.231  25.097  25.919  1.00  0.00     0.266 C 
ATOM     16  C   UNL A   1      31.256  24.033  26.487  1.00  0.00     0.148 C 
ATOM     17  O   UNL A   1      34.432  25.262  25.785  1.00  0.00    -0.268 OA
ATOM     18  S   UNL A   1      30.199  22.849  27.010  1.00  0.00    -0.052 S 
BRANCH  12  19
ATOM     19  C   UNL A   1      31.779  28.506  25.181  1.00  0.00     0.104 A 
ATOM     20  C   UNL A   1      31.688  29.640  25.908  1.00  0.00     0.234 A 
ATOM     21  N   UNL A   1      31.006  30.740  25.470  1.00  0.00    -0.194 NA
ATOM     22  C   UNL A   1      30.285  30.646  24.399  1.00  0.00     0.143 A 
ATOM     23  C   UNL A   1      30.939  28.398  23.952  1.00  0.00     0.269 A 
ATOM     24  C   UNL A   1      29.533  31.843  23.922  1.00  0.00     0.048 A 
ATOM     25  N   UNL A   1      30.157  29.493  23.648  1.00  0.00    -0.267 N 
ATOM     26  O   UNL A   1      30.971  27.365  23.279  1.00  0.00    -0.268 OA
ATOM     27  C   UNL A   1      28.667  31.727  22.910  1.00  0.00     0.005 A 
ATOM     28  C   UNL A   1      29.256  29.421  22.593  1.00  0.00     0.096 A 
ATOM     29  C   UNL A   1      28.506  30.470  22.234  1.00  0.00     0.019 A 
BRANCH  20  30
ATOM     30  O   UNL A   1      32.198  29.745  27.212  1.00  0.00    -0.438 OA
BRANCH  30  31
ATOM     31  C   UNL A   1      33.368  30.414  27.484  1.00  0.00     0.130 A 
ATOM     32  C   UNL A   1      34.735  33.909  27.999  1.00  0.00     0.044 C 
ATOM     33  C   UNL A   1      34.673  32.420  27.856  1.00  0.00    -0.047 A 
ATOM     34  C   UNL A   1      35.841  31.649  27.883  1.00  0.00     0.007 A 
ATOM     35  C   UNL A   1      33.437  31.785  27.712  1.00  0.00     0.050 A 
ATOM     36  C   UNL A   1      35.780  30.254  27.768  1.00  0.00    -0.047 A 
ATOM     37  C   UNL A   1      37.035  29.442  27.923  1.00  0.00     0.044 C 
ATOM     38  C   UNL A   1      34.537  29.644  27.545  1.00  0.00     0.050 A 
ENDBRANCH  30  31
ENDBRANCH  20  30
ENDBRANCH  12  19
ENDBRANCH  10  11
ENDBRANCH   9  10
ENDBRANCH   7   9
ENDBRANCH   6   7
ENDBRANCH   5   6
ENDBRANCH   4   5
ENDBRANCH   3   4
ENDBRANCH   2   3
ENDBRANCH   1   2
BRANCH   1  39
ATOM     39  O   UNL A   1      35.980  23.554  23.912  1.00  0.00    -0.377 OA
BRANCH  39  40
ATOM     40  C   UNL A   1      37.101  22.794  24.322  1.00  0.00     0.188 C 
BRANCH  40  41
ATOM     41  C   UNL A   1      36.809  21.707  25.356  1.00  0.00     0.188 C 
BRANCH  41  42
ATOM     42  O   UNL A   1      37.976  21.040  25.797  1.00  0.00    -0.376 OA
BRANCH  42  43
ATOM     43  C   UNL A   1      39.123  21.815  26.122  1.00  0.00     0.202 C 
BRANCH  43  44
ATOM     44  C   UNL A   1      40.589  21.382  25.869  1.00  0.00     0.261 C 
BRANCH  44  45
ATOM     45  O   UNL A   1      41.606  22.380  25.707  1.00  0.00    -0.460 OA
BRANCH  45  46
ATOM     46  C   UNL A   1      42.892  22.009  25.854  1.00  0.00     0.338 C 
ATOM     47  O   UNL A   1      43.571  21.398  25.049  1.00  0.00    -0.246 OA
BRANCH  46  48
ATOM     48  C   UNL A   1      43.407  22.631  27.099  1.00  0.00     0.060 A 
ATOM     49  C   UNL A   1      42.508  22.912  28.135  1.00  0.00     0.016 A 
ATOM     50  C   UNL A   1      44.756  22.959  27.237  1.00  0.00     0.016 A 
ATOM     51  C   UNL A   1      42.943  23.571  29.289  1.00  0.00     0.010 A 
ATOM     52  C   UNL A   1      45.184  23.641  28.384  1.00  0.00     0.010 A 
ATOM     53  C   UNL A   1      44.275  23.985  29.403  1.00  0.00    -0.014 A 
BRANCH  53  54
ATOM     54  C   UNL A   1      44.655  24.977  30.449  1.00  0.00     0.031 A 
ATOM     55  C   UNL A   1      44.889  26.401  30.003  1.00  0.00     0.074 A 
ATOM     56  C   UNL A   1      44.698  24.671  31.762  1.00  0.00     0.049 A 
ATOM     57  N   UNL A   1      45.281  27.437  30.697  1.00  0.00    -0.248 NA
ATOM     58  C   UNL A   1      44.613  26.701  28.585  1.00  0.00     0.031 C 
ATOM     59  C   UNL A   1      44.331  23.379  32.340  1.00  0.00     0.029 A 
ATOM     60  N   UNL A   1      45.061  25.425  32.855  1.00  0.00    -0.354 N 
ATOM     61  C   UNL A   1      45.268  28.510  29.812  1.00  0.00     0.074 A 
ATOM     62  C   UNL A   1      44.899  27.992  28.514  1.00  0.00     0.031 C 
ATOM     63  C   UNL A   1      44.507  23.425  33.673  1.00  0.00     0.029 A 
ATOM     64  C   UNL A   1      45.046  24.730  34.048  1.00  0.00     0.049 A 
ATOM     65  H   UNL A   1      45.307  26.376  32.793  1.00  0.00     0.167 HD
ATOM     66  C   UNL A   1      45.507  29.818  30.063  1.00  0.00     0.031 A 
ATOM     67  C   UNL A   1      45.459  25.091  35.285  1.00  0.00     0.031 A 
ATOM     68  C   UNL A   1      45.882  30.325  31.355  1.00  0.00     0.049 A 
ATOM     69  C   UNL A   1      46.010  26.489  35.463  1.00  0.00     0.074 A 
ATOM     70  C   UNL A   1      46.158  31.629  31.722  1.00  0.00     0.029 A 
ATOM     71  N   UNL A   1      46.034  29.546  32.492  1.00  0.00    -0.354 N 
ATOM     72  N   UNL A   1      46.023  27.486  34.607  1.00  0.00    -0.248 NA
ATOM     73  C   UNL A   1      46.604  26.814  36.766  1.00  0.00     0.031 C 
ATOM     74  C   UNL A   1      46.543  31.629  33.066  1.00  0.00     0.029 A 
ATOM     75  C   UNL A   1      46.434  30.337  33.554  1.00  0.00     0.049 A 
ATOM     76  H   UNL A   1      45.880  28.575  32.537  1.00  0.00     0.167 HD
ATOM     77  C   UNL A   1      46.532  28.579  35.304  1.00  0.00     0.074 A 
ATOM     78  C   UNL A   1      46.848  28.111  36.637  1.00  0.00     0.031 C 
ATOM     79  C   UNL A   1      46.696  29.860  34.889  1.00  0.00     0.031 A 
BRANCH  66  80
ATOM     80  C   UNL A   1      45.382  30.790  28.918  1.00  0.00    -0.014 A 
ATOM     81  C   UNL A   1      44.157  31.418  28.629  1.00  0.00     0.010 A 
ATOM     82  C   UNL A   1      46.518  31.126  28.159  1.00  0.00     0.010 A 
ATOM     83  C   UNL A   1      44.065  32.345  27.587  1.00  0.00     0.020 A 
ATOM     84  C   UNL A   1      46.435  32.073  27.135  1.00  0.00     0.020 A 
ATOM     85  C   UNL A   1      45.206  32.670  26.848  1.00  0.00     0.054 A 
BRANCH  85  86
ATOM     86  S   UNL A   1      45.068  33.914  25.536  1.00  0.00     0.124 S 
ATOM     87  O   UNL A   1      44.353  34.991  26.215  1.00  0.00    -0.237 OA
ATOM     88  O   UNL A   1      46.466  34.194  25.214  1.00  0.00    -0.237 OA
ATOM     89  O   UNL A   1      44.314  33.232  24.487  1.00  0.00    -0.744 OA
ENDBRANCH  85  86
ENDBRANCH  66  80
BRANCH  67  90
ATOM     90  C   UNL A   1      45.502  24.113  36.428  1.00  0.00    -0.014 A 
ATOM     91  C   UNL A   1      45.045  24.401  37.724  1.00  0.00     0.010 A 
ATOM     92  C   UNL A   1      46.137  22.879  36.235  1.00  0.00     0.010 A 
ATOM     93  C   UNL A   1      45.278  23.504  38.785  1.00  0.00     0.020 A 
ATOM     94  C   UNL A   1      46.351  21.963  37.265  1.00  0.00     0.020 A 
ATOM     95  C   UNL A   1      45.936  22.291  38.547  1.00  0.00     0.054 A 
BRANCH  95  96
ATOM     96  S   UNL A   1      46.280  21.164  39.927  1.00  0.00     0.124 S 
ATOM     97  O   UNL A   1      47.684  21.442  40.210  1.00  0.00    -0.237 OA
ATOM     98  O   UNL A   1      45.326  21.613  40.937  1.00  0.00    -0.237 OA
ATOM     99  O   UNL A   1      46.013  19.840  39.368  1.00  0.00    -0.744 OA
ENDBRANCH  95  96
ENDBRANCH  67  90
BRANCH  79 100
ATOM    100  C   UNL A   1      47.103  30.878  35.921  1.00  0.00    -0.014 A 
ATOM    101  C   UNL A   1      46.194  31.402  36.856  1.00  0.00     0.010 A 
ATOM    102  C   UNL A   1      48.451  31.283  35.974  1.00  0.00     0.010 A 
ATOM    103  C   UNL A   1      46.620  32.344  37.798  1.00  0.00     0.020 A 
ATOM    104  C   UNL A   1      48.887  32.194  36.937  1.00  0.00     0.020 A 
ATOM    105  C   UNL A   1      47.963  32.733  37.832  1.00  0.00     0.054 A 
BRANCH 105 106
ATOM    106  S   UNL A   1      48.496  33.927  39.088  1.00  0.00     0.124 S 
ATOM    107  O   UNL A   1      47.587  33.633  40.193  1.00  0.00    -0.237 OA
ATOM    108  O   UNL A   1      49.892  33.557  39.308  1.00  0.00    -0.237 OA
ATOM    109  O   UNL A   1      48.295  35.223  38.444  1.00  0.00    -0.744 OA
ENDBRANCH 105 106
ENDBRANCH  79 100
ENDBRANCH  53  54
ENDBRANCH  46  48
ENDBRANCH  45  46
ENDBRANCH  44  45
ENDBRANCH  43  44
ENDBRANCH  42  43
ENDBRANCH  41  42
ENDBRANCH  40  41
ENDBRANCH  39  40
ENDBRANCH   1  39
TORSDOF 28
ENDMDL
