MODEL 1
REMARK VINA RESULT:      -8.9      0.000      0.000
REMARK SMILES N#Cc1cnc2cc(C(=O)OCCOCCOCCOCCOC(=O)c3ccc(-c4c5nc(c(-c6ccc(S(=O)(=O)[O-])cc6)c6ccc([nH]6)c(-c6ccc(S(=O)(=O)[O-])cc6)c6nc(c(-c7ccc(S(=O)(=O)[O-])cc7)c7ccc4[nH]7)C=C6)C=C5)cc3)[nH]c2c1
REMARK SMILES IDX 18 1 17 2 16 3 15 4 14 5 13 6 12 7 11 8 9 9 10 10 8 11 3 12
REMARK SMILES IDX 4 13 88 14 5 15 87 16 6 17 86 18 7 19 2 21 1 22 19 23 20 24
REMARK SMILES IDX 21 25 22 26 23 27 24 28 25 29 26 30 27 31 85 32 28 33 84 34
REMARK SMILES IDX 29 35 30 36 31 37 78 38 32 39 83 40 77 41 79 42 33 43 82 44
REMARK SMILES IDX 76 45 75 46 34 48 64 49 45 50 63 51 46 52 49 53 62 54 80 55
REMARK SMILES IDX 47 56 48 57 61 59 81 60 50 61 35 62 36 63 44 64 37 65 43 66
REMARK SMILES IDX 38 67 39 68 40 69 41 70 42 71 65 72 66 73 74 74 67 75 73 76
REMARK SMILES IDX 68 77 69 78 70 79 71 80 72 81 51 82 52 83 60 84 53 85 59 86
REMARK SMILES IDX 54 87 55 88 56 89 57 90 58 91
REMARK H PARENT 86 20 79 47 49 58
REMARK Flexibility Score: inf
ROOT
ATOM      1  C   UNL A   1      33.399  31.233  27.549  1.00  0.00     0.188 C 
ENDROOT
BRANCH   1   2
ATOM      2  O   UNL A   1      33.076  30.014  26.883  1.00  0.00    -0.377 OA
BRANCH   2   3
ATOM      3  C   UNL A   1      32.003  30.048  25.966  1.00  0.00     0.188 C 
BRANCH   3   4
ATOM      4  C   UNL A   1      31.623  28.667  25.381  1.00  0.00     0.188 C 
BRANCH   4   5
ATOM      5  O   UNL A   1      32.453  27.980  24.453  1.00  0.00    -0.376 OA
BRANCH   5   6
ATOM      6  C   UNL A   1      32.379  28.204  23.057  1.00  0.00     0.202 C 
BRANCH   6   7
ATOM      7  C   UNL A   1      31.470  27.378  22.126  1.00  0.00     0.261 C 
BRANCH   7   8
ATOM      8  O   UNL A   1      31.498  25.958  22.272  1.00  0.00    -0.459 OA
BRANCH   8   9
ATOM      9  C   UNL A   1      32.568  25.331  21.720  1.00  0.00     0.354 C 
ATOM     10  O   UNL A   1      33.239  25.749  20.787  1.00  0.00    -0.244 OA
BRANCH   9  11
ATOM     11  C   UNL A   1      32.937  24.203  22.539  1.00  0.00     0.127 A 
ATOM     12  C   UNL A   1      33.124  20.128  24.598  1.00  0.00     0.072 A 
ATOM     13  C   UNL A   1      34.395  20.633  24.844  1.00  0.00     0.131 A 
ATOM     14  C   UNL A   1      32.215  20.898  23.868  1.00  0.00     0.049 A 
ATOM     15  N   UNL A   1      34.861  21.833  24.424  1.00  0.00    -0.253 NA
ATOM     16  C   UNL A   1      32.672  22.154  23.464  1.00  0.00     0.066 A 
ATOM     17  C   UNL A   1      33.970  22.578  23.729  1.00  0.00     0.089 A 
ATOM     18  N   UNL A   1      32.052  23.174  22.788  1.00  0.00    -0.348 N 
ATOM     19  C   UNL A   1      34.140  23.847  23.128  1.00  0.00     0.064 A 
ATOM     20  H   UNL A   1      31.104  23.173  22.518  1.00  0.00     0.167 HD
BRANCH  12  21
ATOM     21  C   UNL A   1      32.743  18.846  25.110  1.00  0.00     0.101 C 
ATOM     22  N   UNL A   1      32.450  17.817  25.546  1.00  0.00    -0.192 NA
ENDBRANCH  12  21
ENDBRANCH   9  11
ENDBRANCH   8   9
ENDBRANCH   7   8
ENDBRANCH   6   7
ENDBRANCH   5   6
ENDBRANCH   4   5
ENDBRANCH   3   4
ENDBRANCH   2   3
ENDBRANCH   1   2
BRANCH   1  23
ATOM     23  C   UNL A   1      34.876  31.711  27.633  1.00  0.00     0.188 C 
BRANCH  23  24
ATOM     24  O   UNL A   1      35.057  33.116  27.593  1.00  0.00    -0.376 OA
BRANCH  24  25
ATOM     25  C   UNL A   1      34.084  34.059  28.005  1.00  0.00     0.202 C 
BRANCH  25  26
ATOM     26  C   UNL A   1      34.069  34.584  29.437  1.00  0.00     0.261 C 
BRANCH  26  27
ATOM     27  O   UNL A   1      34.008  33.572  30.414  1.00  0.00    -0.460 OA
BRANCH  27  28
ATOM     28  C   UNL A   1      34.815  33.782  31.472  1.00  0.00     0.338 C 
ATOM     29  O   UNL A   1      34.873  34.781  32.164  1.00  0.00    -0.246 OA
BRANCH  28  30
ATOM     30  C   UNL A   1      35.689  32.612  31.591  1.00  0.00     0.060 A 
ATOM     31  C   UNL A   1      35.915  32.155  32.884  1.00  0.00     0.016 A 
ATOM     32  C   UNL A   1      36.517  32.274  30.507  1.00  0.00     0.016 A 
ATOM     33  C   UNL A   1      37.171  31.677  33.155  1.00  0.00     0.010 A 
ATOM     34  C   UNL A   1      37.758  31.771  30.777  1.00  0.00     0.010 A 
ATOM     35  C   UNL A   1      38.107  31.640  32.112  1.00  0.00    -0.014 A 
BRANCH  35  36
ATOM     36  C   UNL A   1      39.493  31.451  32.449  1.00  0.00     0.031 A 
ATOM     37  C   UNL A   1      40.165  32.731  32.712  1.00  0.00     0.074 A 
ATOM     38  C   UNL A   1      40.071  30.238  32.529  1.00  0.00     0.049 A 
ATOM     39  N   UNL A   1      40.939  33.364  31.899  1.00  0.00    -0.248 NA
ATOM     40  C   UNL A   1      39.738  33.507  33.885  1.00  0.00     0.031 C 
ATOM     41  C   UNL A   1      39.481  28.896  32.487  1.00  0.00     0.029 A 
ATOM     42  N   UNL A   1      41.381  29.972  32.736  1.00  0.00    -0.354 N 
ATOM     43  C   UNL A   1      41.283  34.532  32.556  1.00  0.00     0.074 A 
ATOM     44  C   UNL A   1      40.371  34.660  33.666  1.00  0.00     0.031 C 
ATOM     45  C   UNL A   1      40.400  27.987  32.906  1.00  0.00     0.029 A 
ATOM     46  C   UNL A   1      41.676  28.660  33.083  1.00  0.00     0.049 A 
ATOM     47  H   UNL A   1      42.079  30.661  32.646  1.00  0.00     0.167 HD
ATOM     48  C   UNL A   1      42.453  35.167  32.288  1.00  0.00     0.031 A 
ATOM     49  C   UNL A   1      42.889  28.208  33.501  1.00  0.00     0.031 A 
ATOM     50  C   UNL A   1      43.049  34.699  31.062  1.00  0.00     0.049 A 
ATOM     51  C   UNL A   1      43.893  29.186  33.002  1.00  0.00     0.074 A 
ATOM     52  C   UNL A   1      42.679  34.735  29.731  1.00  0.00     0.029 A 
ATOM     53  N   UNL A   1      43.993  33.703  31.166  1.00  0.00    -0.354 N 
ATOM     54  N   UNL A   1      44.140  29.358  31.732  1.00  0.00    -0.248 NA
ATOM     55  C   UNL A   1      44.239  30.308  33.862  1.00  0.00     0.031 C 
ATOM     56  C   UNL A   1      43.059  33.464  29.207  1.00  0.00     0.029 A 
ATOM     57  C   UNL A   1      43.704  32.750  30.219  1.00  0.00     0.049 A 
ATOM     58  H   UNL A   1      44.742  33.678  31.805  1.00  0.00     0.167 HD
ATOM     59  C   UNL A   1      44.261  30.730  31.574  1.00  0.00     0.074 A 
ATOM     60  C   UNL A   1      44.382  31.259  32.934  1.00  0.00     0.031 C 
ATOM     61  C   UNL A   1      43.972  31.335  30.384  1.00  0.00     0.031 A 
BRANCH  48  62
ATOM     62  C   UNL A   1      43.232  35.888  33.348  1.00  0.00    -0.014 A 
ATOM     63  C   UNL A   1      43.724  37.174  33.076  1.00  0.00     0.010 A 
ATOM     64  C   UNL A   1      43.724  35.234  34.500  1.00  0.00     0.010 A 
ATOM     65  C   UNL A   1      44.701  37.757  33.891  1.00  0.00     0.020 A 
ATOM     66  C   UNL A   1      44.664  35.822  35.342  1.00  0.00     0.020 A 
ATOM     67  C   UNL A   1      45.171  37.071  35.013  1.00  0.00     0.054 A 
BRANCH  67  68
ATOM     68  S   UNL A   1      46.507  37.789  35.995  1.00  0.00     0.124 S 
ATOM     69  O   UNL A   1      47.184  38.629  35.012  1.00  0.00    -0.237 OA
ATOM     70  O   UNL A   1      45.770  38.498  37.038  1.00  0.00    -0.237 OA
ATOM     71  O   UNL A   1      47.261  36.625  36.453  1.00  0.00    -0.744 OA
ENDBRANCH  67  68
ENDBRANCH  48  62
BRANCH  49  72
ATOM     72  C   UNL A   1      43.199  27.299  34.640  1.00  0.00    -0.014 A 
ATOM     73  C   UNL A   1      44.423  26.600  34.681  1.00  0.00     0.010 A 
ATOM     74  C   UNL A   1      42.458  27.386  35.835  1.00  0.00     0.010 A 
ATOM     75  C   UNL A   1      44.927  26.083  35.889  1.00  0.00     0.020 A 
ATOM     76  C   UNL A   1      42.954  26.870  37.043  1.00  0.00     0.020 A 
ATOM     77  C   UNL A   1      44.200  26.247  37.070  1.00  0.00     0.054 A 
BRANCH  77  78
ATOM     78  S   UNL A   1      44.951  25.757  38.655  1.00  0.00     0.124 S 
ATOM     79  O   UNL A   1      44.096  26.433  39.629  1.00  0.00    -0.237 OA
ATOM     80  O   UNL A   1      44.838  24.302  38.622  1.00  0.00    -0.237 OA
ATOM     81  O   UNL A   1      46.315  26.273  38.565  1.00  0.00    -0.744 OA
ENDBRANCH  77  78
ENDBRANCH  49  72
BRANCH  61  82
ATOM     82  C   UNL A   1      43.731  30.448  29.179  1.00  0.00    -0.014 A 
ATOM     83  C   UNL A   1      44.755  29.898  28.379  1.00  0.00     0.010 A 
ATOM     84  C   UNL A   1      42.405  30.063  28.919  1.00  0.00     0.010 A 
ATOM     85  C   UNL A   1      44.450  29.022  27.322  1.00  0.00     0.020 A 
ATOM     86  C   UNL A   1      42.097  29.180  27.880  1.00  0.00     0.020 A 
ATOM     87  C   UNL A   1      43.119  28.675  27.076  1.00  0.00     0.054 A 
BRANCH  87  88
ATOM     88  S   UNL A   1      42.719  27.553  25.704  1.00  0.00     0.124 S 
ATOM     89  O   UNL A   1      41.693  26.691  26.285  1.00  0.00    -0.237 OA
ATOM     90  O   UNL A   1      42.257  28.467  24.663  1.00  0.00    -0.237 OA
ATOM     91  O   UNL A   1      43.990  26.890  25.414  1.00  0.00    -0.744 OA
ENDBRANCH  87  88
ENDBRANCH  61  82
ENDBRANCH  35  36
ENDBRANCH  28  30
ENDBRANCH  27  28
ENDBRANCH  26  27
ENDBRANCH  25  26
ENDBRANCH  24  25
ENDBRANCH  23  24
ENDBRANCH   1  23
TORSDOF 24
ENDMDL
MODEL 2
REMARK VINA RESULT:      -8.4      5.357     10.283
REMARK SMILES N#Cc1cnc2cc(C(=O)OCCOCCOCCOCCOC(=O)c3ccc(-c4c5nc(c(-c6ccc(S(=O)(=O)[O-])cc6)c6ccc([nH]6)c(-c6ccc(S(=O)(=O)[O-])cc6)c6nc(c(-c7ccc(S(=O)(=O)[O-])cc7)c7ccc4[nH]7)C=C6)C=C5)cc3)[nH]c2c1
REMARK SMILES IDX 18 1 17 2 16 3 15 4 14 5 13 6 12 7 11 8 9 9 10 10 8 11 3 12
REMARK SMILES IDX 4 13 88 14 5 15 87 16 6 17 86 18 7 19 2 21 1 22 19 23 20 24
REMARK SMILES IDX 21 25 22 26 23 27 24 28 25 29 26 30 27 31 85 32 28 33 84 34
REMARK SMILES IDX 29 35 30 36 31 37 78 38 32 39 83 40 77 41 79 42 33 43 82 44
REMARK SMILES IDX 76 45 75 46 34 48 64 49 45 50 63 51 46 52 49 53 62 54 80 55
REMARK SMILES IDX 47 56 48 57 61 59 81 60 50 61 35 62 36 63 44 64 37 65 43 66
REMARK SMILES IDX 38 67 39 68 40 69 41 70 42 71 65 72 66 73 74 74 67 75 73 76
REMARK SMILES IDX 68 77 69 78 70 79 71 80 72 81 51 82 52 83 60 84 53 85 59 86
REMARK SMILES IDX 54 87 55 88 56 89 57 90 58 91
REMARK H PARENT 86 20 79 47 49 58
REMARK Flexibility Score: inf
ROOT
ATOM      1  C   UNL A   1      34.431  34.959  29.061  1.00  0.00     0.188 C 
ENDROOT
BRANCH   1   2
ATOM      2  O   UNL A   1      33.404  34.607  29.985  1.00  0.00    -0.377 OA
BRANCH   2   3
ATOM      3  C   UNL A   1      32.865  35.649  30.773  1.00  0.00     0.188 C 
BRANCH   3   4
ATOM      4  C   UNL A   1      33.724  36.020  32.005  1.00  0.00     0.188 C 
BRANCH   4   5
ATOM      5  O   UNL A   1      34.821  35.225  32.436  1.00  0.00    -0.376 OA
BRANCH   5   6
ATOM      6  C   UNL A   1      34.701  34.262  33.469  1.00  0.00     0.202 C 
BRANCH   6   7
ATOM      7  C   UNL A   1      35.705  34.157  34.632  1.00  0.00     0.261 C 
BRANCH   7   8
ATOM      8  O   UNL A   1      36.945  33.498  34.372  1.00  0.00    -0.459 OA
BRANCH   8   9
ATOM      9  C   UNL A   1      37.603  33.031  35.463  1.00  0.00     0.354 C 
ATOM     10  O   UNL A   1      37.116  32.353  36.356  1.00  0.00    -0.244 OA
BRANCH   9  11
ATOM     11  C   UNL A   1      39.017  33.265  35.306  1.00  0.00     0.127 A 
ATOM     12  C   UNL A   1      43.127  34.544  33.771  1.00  0.00     0.072 A 
ATOM     13  C   UNL A   1      43.394  34.262  35.106  1.00  0.00     0.131 A 
ATOM     14  C   UNL A   1      41.825  34.387  33.289  1.00  0.00     0.049 A 
ATOM     15  N   UNL A   1      42.485  33.847  36.020  1.00  0.00    -0.253 NA
ATOM     16  C   UNL A   1      40.888  33.922  34.214  1.00  0.00     0.066 A 
ATOM     17  C   UNL A   1      41.229  33.685  35.542  1.00  0.00     0.089 A 
ATOM     18  N   UNL A   1      39.558  33.612  34.084  1.00  0.00    -0.348 N 
ATOM     19  C   UNL A   1      40.053  33.299  36.226  1.00  0.00     0.064 A 
ATOM     20  H   UNL A   1      39.057  33.633  33.236  1.00  0.00     0.167 HD
BRANCH  12  21
ATOM     21  C   UNL A   1      44.180  34.964  32.896  1.00  0.00     0.101 C 
ATOM     22  N   UNL A   1      45.041  35.276  32.192  1.00  0.00    -0.192 NA
ENDBRANCH  12  21
ENDBRANCH   9  11
ENDBRANCH   8   9
ENDBRANCH   7   8
ENDBRANCH   6   7
ENDBRANCH   5   6
ENDBRANCH   4   5
ENDBRANCH   3   4
ENDBRANCH   2   3
ENDBRANCH   1   2
BRANCH   1  23
ATOM     23  C   UNL A   1      34.778  34.011  27.879  1.00  0.00     0.188 C 
BRANCH  23  24
ATOM     24  O   UNL A   1      34.082  32.776  27.874  1.00  0.00    -0.376 OA
BRANCH  24  25
ATOM     25  C   UNL A   1      34.631  31.551  27.420  1.00  0.00     0.202 C 
BRANCH  25  26
ATOM     26  C   UNL A   1      35.230  30.556  28.407  1.00  0.00     0.261 C 
BRANCH  26  27
ATOM     27  O   UNL A   1      36.318  31.066  29.142  1.00  0.00    -0.460 OA
BRANCH  27  28
ATOM     28  C   UNL A   1      36.045  31.292  30.440  1.00  0.00     0.338 C 
ATOM     29  O   UNL A   1      35.111  31.926  30.895  1.00  0.00    -0.246 OA
BRANCH  28  30
ATOM     30  C   UNL A   1      37.137  30.708  31.223  1.00  0.00     0.060 A 
ATOM     31  C   UNL A   1      38.266  31.504  31.375  1.00  0.00     0.016 A 
ATOM     32  C   UNL A   1      37.151  29.319  31.433  1.00  0.00     0.016 A 
ATOM     33  C   UNL A   1      39.477  30.860  31.365  1.00  0.00     0.010 A 
ATOM     34  C   UNL A   1      38.358  28.681  31.451  1.00  0.00     0.010 A 
ATOM     35  C   UNL A   1      39.485  29.463  31.252  1.00  0.00    -0.014 A 
BRANCH  35  36
ATOM     36  C   UNL A   1      40.726  28.815  30.918  1.00  0.00     0.031 A 
ATOM     37  C   UNL A   1      41.570  28.618  32.105  1.00  0.00     0.074 A 
ATOM     38  C   UNL A   1      41.040  28.428  29.668  1.00  0.00     0.049 A 
ATOM     39  N   UNL A   1      42.584  29.338  32.444  1.00  0.00    -0.248 NA
ATOM     40  C   UNL A   1      41.093  27.697  33.146  1.00  0.00     0.031 C 
ATOM     41  C   UNL A   1      40.223  28.385  28.450  1.00  0.00     0.029 A 
ATOM     42  N   UNL A   1      42.216  27.911  29.246  1.00  0.00    -0.354 N 
ATOM     43  C   UNL A   1      43.018  28.813  33.648  1.00  0.00     0.074 A 
ATOM     44  C   UNL A   1      41.962  27.954  34.124  1.00  0.00     0.031 C 
ATOM     45  C   UNL A   1      40.862  27.646  27.506  1.00  0.00     0.029 A 
ATOM     46  C   UNL A   1      42.189  27.310  27.994  1.00  0.00     0.049 A 
ATOM     47  H   UNL A   1      43.036  27.957  29.788  1.00  0.00     0.167 HD
ATOM     48  C   UNL A   1      44.317  28.923  34.031  1.00  0.00     0.031 A 
ATOM     49  C   UNL A   1      43.198  26.580  27.447  1.00  0.00     0.031 A 
ATOM     50  C   UNL A   1      45.024  29.908  33.253  1.00  0.00     0.049 A 
ATOM     51  C   UNL A   1      44.443  27.003  28.145  1.00  0.00     0.074 A 
ATOM     52  C   UNL A   1      44.914  31.276  33.092  1.00  0.00     0.029 A 
ATOM     53  N   UNL A   1      45.728  29.454  32.160  1.00  0.00    -0.354 N 
ATOM     54  N   UNL A   1      44.943  28.202  28.032  1.00  0.00    -0.248 NA
ATOM     55  C   UNL A   1      44.835  26.273  29.342  1.00  0.00     0.031 C 
ATOM     56  C   UNL A   1      45.134  31.504  31.701  1.00  0.00     0.029 A 
ATOM     57  C   UNL A   1      45.438  30.281  31.101  1.00  0.00     0.049 A 
ATOM     58  H   UNL A   1      46.331  28.676  32.141  1.00  0.00     0.167 HD
ATOM     59  C   UNL A   1      45.349  28.542  29.314  1.00  0.00     0.074 A 
ATOM     60  C   UNL A   1      45.320  27.286  30.066  1.00  0.00     0.031 C 
ATOM     61  C   UNL A   1      45.399  29.846  29.719  1.00  0.00     0.031 A 
BRANCH  48  62
ATOM     62  C   UNL A   1      45.014  27.847  34.810  1.00  0.00    -0.014 A 
ATOM     63  C   UNL A   1      45.126  26.565  34.250  1.00  0.00     0.010 A 
ATOM     64  C   UNL A   1      45.321  27.987  36.182  1.00  0.00     0.010 A 
ATOM     65  C   UNL A   1      45.480  25.465  35.039  1.00  0.00     0.020 A 
ATOM     66  C   UNL A   1      45.715  26.907  36.966  1.00  0.00     0.020 A 
ATOM     67  C   UNL A   1      45.762  25.643  36.395  1.00  0.00     0.054 A 
BRANCH  67  68
ATOM     68  S   UNL A   1      46.113  24.200  37.424  1.00  0.00     0.124 S 
ATOM     69  O   UNL A   1      46.049  24.765  38.768  1.00  0.00    -0.237 OA
ATOM     70  O   UNL A   1      45.024  23.297  37.061  1.00  0.00    -0.237 OA
ATOM     71  O   UNL A   1      47.439  23.778  36.982  1.00  0.00    -0.744 OA
ENDBRANCH  67  68
ENDBRANCH  48  62
BRANCH  49  72
ATOM     72  C   UNL A   1      43.120  25.275  26.734  1.00  0.00    -0.014 A 
ATOM     73  C   UNL A   1      43.647  25.140  25.433  1.00  0.00     0.010 A 
ATOM     74  C   UNL A   1      42.846  24.093  27.451  1.00  0.00     0.010 A 
ATOM     75  C   UNL A   1      43.968  23.876  24.903  1.00  0.00     0.020 A 
ATOM     76  C   UNL A   1      43.163  22.829  26.928  1.00  0.00     0.020 A 
ATOM     77  C   UNL A   1      43.750  22.729  25.668  1.00  0.00     0.054 A 
BRANCH  77  78
ATOM     78  S   UNL A   1      44.355  21.122  25.060  1.00  0.00     0.124 S 
ATOM     79  O   UNL A   1      43.264  20.220  25.421  1.00  0.00    -0.237 OA
ATOM     80  O   UNL A   1      44.522  21.368  23.630  1.00  0.00    -0.237 OA
ATOM     81  O   UNL A   1      45.598  20.919  25.801  1.00  0.00    -0.744 OA
ENDBRANCH  77  78
ENDBRANCH  49  72
BRANCH  61  82
ATOM     82  C   UNL A   1      45.215  30.922  28.668  1.00  0.00    -0.014 A 
ATOM     83  C   UNL A   1      46.154  31.942  28.402  1.00  0.00     0.010 A 
ATOM     84  C   UNL A   1      44.089  30.821  27.834  1.00  0.00     0.010 A 
ATOM     85  C   UNL A   1      45.943  32.859  27.357  1.00  0.00     0.020 A 
ATOM     86  C   UNL A   1      43.883  31.720  26.784  1.00  0.00     0.020 A 
ATOM     87  C   UNL A   1      44.802  32.745  26.559  1.00  0.00     0.054 A 
BRANCH  87  88
ATOM     88  S   UNL A   1      44.518  33.934  25.216  1.00  0.00     0.124 S 
ATOM     89  O   UNL A   1      43.509  34.823  25.785  1.00  0.00    -0.237 OA
ATOM     90  O   UNL A   1      45.840  34.525  25.022  1.00  0.00    -0.237 OA
ATOM     91  O   UNL A   1      44.052  33.103  24.106  1.00  0.00    -0.744 OA
ENDBRANCH  87  88
ENDBRANCH  61  82
ENDBRANCH  35  36
ENDBRANCH  28  30
ENDBRANCH  27  28
ENDBRANCH  26  27
ENDBRANCH  25  26
ENDBRANCH  24  25
ENDBRANCH  23  24
ENDBRANCH   1  23
TORSDOF 24
ENDMDL
MODEL 3
REMARK VINA RESULT:      -8.4      2.957      3.955
REMARK SMILES N#Cc1cnc2cc(C(=O)OCCOCCOCCOCCOC(=O)c3ccc(-c4c5nc(c(-c6ccc(S(=O)(=O)[O-])cc6)c6ccc([nH]6)c(-c6ccc(S(=O)(=O)[O-])cc6)c6nc(c(-c7ccc(S(=O)(=O)[O-])cc7)c7ccc4[nH]7)C=C6)C=C5)cc3)[nH]c2c1
REMARK SMILES IDX 18 1 17 2 16 3 15 4 14 5 13 6 12 7 11 8 9 9 10 10 8 11 3 12
REMARK SMILES IDX 4 13 88 14 5 15 87 16 6 17 86 18 7 19 2 21 1 22 19 23 20 24
REMARK SMILES IDX 21 25 22 26 23 27 24 28 25 29 26 30 27 31 85 32 28 33 84 34
REMARK SMILES IDX 29 35 30 36 31 37 78 38 32 39 83 40 77 41 79 42 33 43 82 44
REMARK SMILES IDX 76 45 75 46 34 48 64 49 45 50 63 51 46 52 49 53 62 54 80 55
REMARK SMILES IDX 47 56 48 57 61 59 81 60 50 61 35 62 36 63 44 64 37 65 43 66
REMARK SMILES IDX 38 67 39 68 40 69 41 70 42 71 65 72 66 73 74 74 67 75 73 76
REMARK SMILES IDX 68 77 69 78 70 79 71 80 72 81 51 82 52 83 60 84 53 85 59 86
REMARK SMILES IDX 54 87 55 88 56 89 57 90 58 91
REMARK H PARENT 86 20 79 47 49 58
REMARK Flexibility Score: inf
ROOT
ATOM      1  C   UNL A   1      33.207  30.767  27.217  1.00  0.00     0.188 C 
ENDROOT
BRANCH   1   2
ATOM      2  O   UNL A   1      33.102  29.422  26.759  1.00  0.00    -0.377 OA
BRANCH   2   3
ATOM      3  C   UNL A   1      31.849  29.013  26.250  1.00  0.00     0.188 C 
BRANCH   3   4
ATOM      4  C   UNL A   1      31.772  27.513  25.881  1.00  0.00     0.188 C 
BRANCH   4   5
ATOM      5  O   UNL A   1      32.704  26.896  25.002  1.00  0.00    -0.376 OA
BRANCH   5   6
ATOM      6  C   UNL A   1      33.361  27.610  23.970  1.00  0.00     0.202 C 
BRANCH   6   7
ATOM      7  C   UNL A   1      32.933  27.525  22.493  1.00  0.00     0.261 C 
BRANCH   7   8
ATOM      8  O   UNL A   1      32.107  26.425  22.111  1.00  0.00    -0.459 OA
BRANCH   8   9
ATOM      9  C   UNL A   1      32.718  25.454  21.387  1.00  0.00     0.354 C 
ATOM     10  O   UNL A   1      33.146  25.574  20.248  1.00  0.00    -0.244 OA
BRANCH   9  11
ATOM     11  C   UNL A   1      32.991  24.322  22.237  1.00  0.00     0.127 A 
ATOM     12  C   UNL A   1      32.973  20.220  24.251  1.00  0.00     0.072 A 
ATOM     13  C   UNL A   1      34.182  20.750  24.688  1.00  0.00     0.131 A 
ATOM     14  C   UNL A   1      32.163  20.981  23.406  1.00  0.00     0.049 A 
ATOM     15  N   UNL A   1      34.675  21.966  24.355  1.00  0.00    -0.253 NA
ATOM     16  C   UNL A   1      32.643  22.253  23.088  1.00  0.00     0.066 A 
ATOM     17  C   UNL A   1      33.878  22.702  23.546  1.00  0.00     0.089 A 
ATOM     18  N   UNL A   1      32.104  23.270  22.341  1.00  0.00    -0.348 N 
ATOM     19  C   UNL A   1      34.103  23.984  22.992  1.00  0.00     0.064 A 
ATOM     20  H   UNL A   1      31.207  23.252  21.935  1.00  0.00     0.167 HD
BRANCH  12  21
ATOM     21  C   UNL A   1      32.553  18.922  24.686  1.00  0.00     0.101 C 
ATOM     22  N   UNL A   1      32.187  17.884  25.037  1.00  0.00    -0.192 NA
ENDBRANCH  12  21
ENDBRANCH   9  11
ENDBRANCH   8   9
ENDBRANCH   7   8
ENDBRANCH   6   7
ENDBRANCH   5   6
ENDBRANCH   4   5
ENDBRANCH   3   4
ENDBRANCH   2   3
ENDBRANCH   1   2
BRANCH   1  23
ATOM     23  C   UNL A   1      34.548  31.291  27.803  1.00  0.00     0.188 C 
BRANCH  23  24
ATOM     24  O   UNL A   1      34.843  32.647  27.513  1.00  0.00    -0.376 OA
BRANCH  24  25
ATOM     25  C   UNL A   1      34.575  33.728  28.389  1.00  0.00     0.202 C 
BRANCH  25  26
ATOM     26  C   UNL A   1      35.582  34.125  29.463  1.00  0.00     0.261 C 
BRANCH  26  27
ATOM     27  O   UNL A   1      35.968  33.063  30.303  1.00  0.00    -0.460 OA
BRANCH  27  28
ATOM     28  C   UNL A   1      36.985  33.362  31.133  1.00  0.00     0.338 C 
ATOM     29  O   UNL A   1      37.364  34.472  31.460  1.00  0.00    -0.246 OA
BRANCH  28  30
ATOM     30  C   UNL A   1      37.626  32.100  31.509  1.00  0.00     0.060 A 
ATOM     31  C   UNL A   1      38.301  32.102  32.724  1.00  0.00     0.016 A 
ATOM     32  C   UNL A   1      37.851  31.132  30.514  1.00  0.00     0.016 A 
ATOM     33  C   UNL A   1      39.458  31.369  32.785  1.00  0.00     0.010 A 
ATOM     34  C   UNL A   1      38.990  30.382  30.590  1.00  0.00     0.010 A 
ATOM     35  C   UNL A   1      39.844  30.643  31.649  1.00  0.00    -0.014 A 
BRANCH  35  36
ATOM     36  C   UNL A   1      41.192  30.142  31.590  1.00  0.00     0.031 A 
ATOM     37  C   UNL A   1      42.070  31.040  30.826  1.00  0.00     0.074 A 
ATOM     38  C   UNL A   1      41.579  29.000  32.188  1.00  0.00     0.049 A 
ATOM     39  N   UNL A   1      42.457  30.871  29.609  1.00  0.00    -0.248 NA
ATOM     40  C   UNL A   1      42.336  32.377  31.377  1.00  0.00     0.031 C 
ATOM     41  C   UNL A   1      40.867  28.127  33.128  1.00  0.00     0.029 A 
ATOM     42  N   UNL A   1      42.790  28.404  32.099  1.00  0.00    -0.354 N 
ATOM     43  C   UNL A   1      43.213  31.990  29.307  1.00  0.00     0.074 A 
ATOM     44  C   UNL A   1      42.941  32.959  30.340  1.00  0.00     0.031 C 
ATOM     45  C   UNL A   1      41.748  27.264  33.696  1.00  0.00     0.029 A 
ATOM     46  C   UNL A   1      43.039  27.414  33.042  1.00  0.00     0.049 A 
ATOM     47  H   UNL A   1      43.451  28.653  31.413  1.00  0.00     0.167 HD
ATOM     48  C   UNL A   1      44.200  31.936  28.375  1.00  0.00     0.031 A 
ATOM     49  C   UNL A   1      44.237  26.807  33.251  1.00  0.00     0.031 A 
ATOM     50  C   UNL A   1      44.097  30.758  27.552  1.00  0.00     0.049 A 
ATOM     51  C   UNL A   1      45.015  26.977  31.994  1.00  0.00     0.074 A 
ATOM     52  C   UNL A   1      43.164  30.287  26.648  1.00  0.00     0.029 A 
ATOM     53  N   UNL A   1      44.844  29.665  27.928  1.00  0.00    -0.354 N 
ATOM     54  N   UNL A   1      44.669  26.417  30.869  1.00  0.00    -0.248 NA
ATOM     55  C   UNL A   1      45.862  28.155  31.871  1.00  0.00     0.031 C 
ATOM     56  C   UNL A   1      43.090  28.883  26.890  1.00  0.00     0.029 A 
ATOM     57  C   UNL A   1      44.030  28.559  27.871  1.00  0.00     0.049 A 
ATOM     58  H   UNL A   1      45.793  29.674  28.192  1.00  0.00     0.167 HD
ATOM     59  C   UNL A   1      44.881  27.391  29.904  1.00  0.00     0.074 A 
ATOM     60  C   UNL A   1      45.682  28.417  30.573  1.00  0.00     0.031 C 
ATOM     61  C   UNL A   1      44.157  27.411  28.745  1.00  0.00     0.031 A 
BRANCH  48  62
ATOM     62  C   UNL A   1      45.466  32.730  28.506  1.00  0.00    -0.014 A 
ATOM     63  C   UNL A   1      46.125  33.156  27.341  1.00  0.00     0.010 A 
ATOM     64  C   UNL A   1      46.168  32.837  29.727  1.00  0.00     0.010 A 
ATOM     65  C   UNL A   1      47.444  33.620  27.392  1.00  0.00     0.020 A 
ATOM     66  C   UNL A   1      47.465  33.337  29.794  1.00  0.00     0.020 A 
ATOM     67  C   UNL A   1      48.108  33.697  28.619  1.00  0.00     0.054 A 
BRANCH  67  68
ATOM     68  S   UNL A   1      49.844  34.196  28.656  1.00  0.00     0.124 S 
ATOM     69  O   UNL A   1      49.753  35.624  28.371  1.00  0.00    -0.237 OA
ATOM     70  O   UNL A   1      50.233  33.842  30.019  1.00  0.00    -0.237 OA
ATOM     71  O   UNL A   1      50.457  33.384  27.608  1.00  0.00    -0.744 OA
ENDBRANCH  67  68
ENDBRANCH  48  62
BRANCH  49  72
ATOM     72  C   UNL A   1      44.916  26.512  34.544  1.00  0.00    -0.014 A 
ATOM     73  C   UNL A   1      44.784  27.395  35.636  1.00  0.00     0.010 A 
ATOM     74  C   UNL A   1      45.397  25.215  34.810  1.00  0.00     0.010 A 
ATOM     75  C   UNL A   1      45.041  26.970  36.952  1.00  0.00     0.020 A 
ATOM     76  C   UNL A   1      45.657  24.785  36.121  1.00  0.00     0.020 A 
ATOM     77  C   UNL A   1      45.449  25.656  37.189  1.00  0.00     0.054 A 
BRANCH  77  78
ATOM     78  S   UNL A   1      45.583  25.058  38.904  1.00  0.00     0.124 S 
ATOM     79  O   UNL A   1      46.997  25.270  39.201  1.00  0.00    -0.237 OA
ATOM     80  O   UNL A   1      44.652  25.928  39.616  1.00  0.00    -0.237 OA
ATOM     81  O   UNL A   1      45.173  23.657  38.813  1.00  0.00    -0.744 OA
ENDBRANCH  77  78
ENDBRANCH  49  72
BRANCH  61  82
ATOM     82  C   UNL A   1      43.275  26.218  28.441  1.00  0.00    -0.014 A 
ATOM     83  C   UNL A   1      41.921  26.110  28.827  1.00  0.00     0.010 A 
ATOM     84  C   UNL A   1      43.814  25.210  27.624  1.00  0.00     0.010 A 
ATOM     85  C   UNL A   1      41.148  25.002  28.440  1.00  0.00     0.020 A 
ATOM     86  C   UNL A   1      43.046  24.114  27.223  1.00  0.00     0.020 A 
ATOM     87  C   UNL A   1      41.721  24.005  27.644  1.00  0.00     0.054 A 
BRANCH  87  88
ATOM     88  S   UNL A   1      40.730  22.565  27.151  1.00  0.00     0.124 S 
ATOM     89  O   UNL A   1      39.409  23.147  26.930  1.00  0.00    -0.237 OA
ATOM     90  O   UNL A   1      41.419  22.092  25.953  1.00  0.00    -0.237 OA
ATOM     91  O   UNL A   1      40.824  21.667  28.303  1.00  0.00    -0.744 OA
ENDBRANCH  87  88
ENDBRANCH  61  82
ENDBRANCH  35  36
ENDBRANCH  28  30
ENDBRANCH  27  28
ENDBRANCH  26  27
ENDBRANCH  25  26
ENDBRANCH  24  25
ENDBRANCH  23  24
ENDBRANCH   1  23
TORSDOF 24
ENDMDL
