MODEL 1
REMARK VINA RESULT:      -8.6      0.000      0.000
REMARK SMILES CCOc1cc(N2CCOCC2)ccc1[C@H]([NH3+])C(=O)OCCOCCOCCOCCOC(=O)c1ccc(-c2c3nc(c(-c4ccc(S(=O)(=O)[O-])cc4)c4ccc([nH]4)c(-c4ccc(S(=O)(=O)[O-])cc4)c4nc(c(-c5ccc(S(=O)(=O)[O-])cc5)c5ccc2[nH]5)C=C4)C=C3)cc1
REMARK SMILES IDX 26 1 25 2 24 3 23 4 22 5 21 6 20 7 18 8 19 9 16 10 15 11
REMARK SMILES IDX 4 12 5 13 6 14 14 15 13 16 3 17 2 18 1 19 7 20 8 21 12 22
REMARK SMILES IDX 9 23 11 24 10 25 17 26 27 30 28 31 29 32 30 33 31 34 32 35
REMARK SMILES IDX 33 36 34 37 35 38 36 39 94 40 37 41 93 42 38 43 39 44 40 45
REMARK SMILES IDX 87 46 41 47 92 48 86 49 88 50 42 51 91 52 85 53 84 54 43 56
REMARK SMILES IDX 73 57 54 58 72 59 55 60 58 61 71 62 89 63 56 64 57 65 70 67
REMARK SMILES IDX 90 68 59 69 44 70 45 71 53 72 46 73 52 74 47 75 48 76 49 77
REMARK SMILES IDX 50 78 51 79 74 80 75 81 83 82 76 83 82 84 77 85 78 86 79 87
REMARK SMILES IDX 80 88 81 89 60 90 61 91 69 92 62 93 68 94 63 95 64 96 65 97
REMARK SMILES IDX 66 98 67 99
REMARK H PARENT 17 27 17 28 17 29 88 55 58 66
REMARK Flexibility Score: inf
ROOT
ATOM      1  O   UNL A   1      35.561  23.429  22.993  1.00  0.00    -0.377 OA
ENDROOT
BRANCH   1   2
ATOM      2  C   UNL A   1      34.260  22.939  22.752  1.00  0.00     0.188 C 
BRANCH   2   3
ATOM      3  C   UNL A   1      33.109  23.797  22.202  1.00  0.00     0.188 C 
BRANCH   3   4
ATOM      4  O   UNL A   1      32.131  24.179  23.143  1.00  0.00    -0.376 OA
BRANCH   4   5
ATOM      5  C   UNL A   1      31.257  23.177  23.644  1.00  0.00     0.202 C 
BRANCH   5   6
ATOM      6  C   UNL A   1      31.514  22.803  25.112  1.00  0.00     0.261 C 
BRANCH   6   7
ATOM      7  O   UNL A   1      32.257  23.786  25.858  1.00  0.00    -0.459 OA
BRANCH   7   8
ATOM      8  C   UNL A   1      31.573  24.863  26.324  1.00  0.00     0.369 C 
ATOM      9  O   UNL A   1      30.447  24.802  26.811  1.00  0.00    -0.245 OA
BRANCH   8  10
ATOM     10  C   UNL A   1      32.369  26.176  26.220  1.00  0.00     0.326 C 
BRANCH  10  11
ATOM     11  C   UNL A   1      31.685  27.097  25.252  1.00  0.00     0.063 A 
ATOM     12  C   UNL A   1      32.212  28.330  24.823  1.00  0.00     0.131 A 
ATOM     13  C   UNL A   1      31.498  29.101  23.906  1.00  0.00     0.072 A 
ATOM     14  C   UNL A   1      30.244  28.667  23.443  1.00  0.00     0.040 A 
ATOM     15  C   UNL A   1      30.481  26.632  24.720  1.00  0.00     0.016 A 
ATOM     16  C   UNL A   1      29.770  27.412  23.832  1.00  0.00     0.027 A 
BRANCH  12  17
ATOM     17  O   UNL A   1      33.287  28.856  25.494  1.00  0.00    -0.493 OA
BRANCH  17  18
ATOM     18  C   UNL A   1      32.982  29.754  26.567  1.00  0.00     0.226 C 
ATOM     19  C   UNL A   1      34.310  30.091  27.239  1.00  0.00     0.049 C 
ENDBRANCH  17  18
ENDBRANCH  12  17
BRANCH  14  20
ATOM     20  N   UNL A   1      29.448  29.524  22.703  1.00  0.00    -0.367 N 
ATOM     21  C   UNL A   1      29.595  30.967  22.939  1.00  0.00     0.145 C 
ATOM     22  C   UNL A   1      28.107  29.076  22.316  1.00  0.00     0.145 C 
ATOM     23  C   UNL A   1      28.454  31.512  23.812  1.00  0.00     0.181 C 
ATOM     24  C   UNL A   1      27.040  29.713  23.223  1.00  0.00     0.181 C 
ATOM     25  O   UNL A   1      27.166  31.148  23.292  1.00  0.00    -0.378 OA
ENDBRANCH  14  20
ENDBRANCH  10  11
BRANCH  10  26
ATOM     26  N   UNL A   1      33.816  26.073  25.968  1.00  0.00    -0.342 N 
ATOM     27  H   UNL A   1      34.043  25.122  25.677  1.00  0.00     0.345 HD
ATOM     28  H   UNL A   1      34.326  26.297  26.823  1.00  0.00     0.345 HD
ATOM     29  H   UNL A   1      34.081  26.727  25.232  1.00  0.00     0.345 HD
ENDBRANCH  10  26
ENDBRANCH   8  10
ENDBRANCH   7   8
ENDBRANCH   6   7
ENDBRANCH   5   6
ENDBRANCH   4   5
ENDBRANCH   3   4
ENDBRANCH   2   3
ENDBRANCH   1   2
BRANCH   1  30
ATOM     30  C   UNL A   1      36.509  22.640  23.676  1.00  0.00     0.188 C 
BRANCH  30  31
ATOM     31  C   UNL A   1      35.966  21.521  24.584  1.00  0.00     0.188 C 
BRANCH  31  32
ATOM     32  O   UNL A   1      36.771  20.707  25.415  1.00  0.00    -0.376 OA
BRANCH  32  33
ATOM     33  C   UNL A   1      37.812  19.871  24.963  1.00  0.00     0.202 C 
BRANCH  33  34
ATOM     34  C   UNL A   1      39.292  20.017  25.363  1.00  0.00     0.261 C 
BRANCH  34  35
ATOM     35  O   UNL A   1      39.600  20.710  26.568  1.00  0.00    -0.460 OA
BRANCH  35  36
ATOM     36  C   UNL A   1      40.889  20.671  26.951  1.00  0.00     0.338 C 
ATOM     37  O   UNL A   1      41.665  19.733  26.843  1.00  0.00    -0.246 OA
BRANCH  36  38
ATOM     38  C   UNL A   1      41.273  22.028  27.387  1.00  0.00     0.060 A 
ATOM     39  C   UNL A   1      40.939  23.107  26.560  1.00  0.00     0.016 A 
ATOM     40  C   UNL A   1      41.955  22.236  28.590  1.00  0.00     0.016 A 
ATOM     41  C   UNL A   1      41.323  24.395  26.907  1.00  0.00     0.010 A 
ATOM     42  C   UNL A   1      42.377  23.526  28.918  1.00  0.00     0.010 A 
ATOM     43  C   UNL A   1      42.100  24.598  28.053  1.00  0.00    -0.014 A 
BRANCH  43  44
ATOM     44  C   UNL A   1      42.824  25.880  28.191  1.00  0.00     0.031 A 
ATOM     45  C   UNL A   1      42.056  27.070  28.694  1.00  0.00     0.074 A 
ATOM     46  C   UNL A   1      44.140  25.968  27.937  1.00  0.00     0.049 A 
ATOM     47  N   UNL A   1      42.462  28.295  28.895  1.00  0.00    -0.248 NA
ATOM     48  C   UNL A   1      40.635  26.843  29.014  1.00  0.00     0.031 C 
ATOM     49  C   UNL A   1      44.992  24.865  27.501  1.00  0.00     0.029 A 
ATOM     50  N   UNL A   1      44.984  27.045  28.008  1.00  0.00    -0.354 N 
ATOM     51  C   UNL A   1      41.346  28.988  29.351  1.00  0.00     0.074 A 
ATOM     52  C   UNL A   1      40.242  28.056  29.366  1.00  0.00     0.031 C 
ATOM     53  C   UNL A   1      46.240  25.328  27.320  1.00  0.00     0.029 A 
ATOM     54  C   UNL A   1      46.263  26.764  27.594  1.00  0.00     0.049 A 
ATOM     55  H   UNL A   1      44.701  27.933  28.323  1.00  0.00     0.167 HD
ATOM     56  C   UNL A   1      41.252  30.286  29.725  1.00  0.00     0.031 A 
ATOM     57  C   UNL A   1      47.320  27.583  27.425  1.00  0.00     0.031 A 
ATOM     58  C   UNL A   1      42.352  31.210  29.675  1.00  0.00     0.049 A 
ATOM     59  C   UNL A   1      47.180  29.041  27.771  1.00  0.00     0.074 A 
ATOM     60  C   UNL A   1      42.374  32.545  30.035  1.00  0.00     0.029 A 
ATOM     61  N   UNL A   1      43.626  30.898  29.217  1.00  0.00    -0.354 N 
ATOM     62  N   UNL A   1      46.129  29.682  28.226  1.00  0.00    -0.248 NA
ATOM     63  C   UNL A   1      48.370  29.883  27.593  1.00  0.00     0.031 C 
ATOM     64  C   UNL A   1      43.639  33.057  29.725  1.00  0.00     0.029 A 
ATOM     65  C   UNL A   1      44.431  32.023  29.250  1.00  0.00     0.049 A 
ATOM     66  H   UNL A   1      43.914  30.006  28.913  1.00  0.00     0.167 HD
ATOM     67  C   UNL A   1      46.535  31.000  28.409  1.00  0.00     0.074 A 
ATOM     68  C   UNL A   1      47.933  31.057  28.031  1.00  0.00     0.031 C 
ATOM     69  C   UNL A   1      45.819  32.064  28.854  1.00  0.00     0.031 A 
BRANCH  56  70
ATOM     70  C   UNL A   1      39.893  30.781  30.151  1.00  0.00    -0.014 A 
ATOM     71  C   UNL A   1      38.922  31.179  29.214  1.00  0.00     0.010 A 
ATOM     72  C   UNL A   1      39.591  30.872  31.522  1.00  0.00     0.010 A 
ATOM     73  C   UNL A   1      37.704  31.718  29.637  1.00  0.00     0.020 A 
ATOM     74  C   UNL A   1      38.360  31.377  31.952  1.00  0.00     0.020 A 
ATOM     75  C   UNL A   1      37.435  31.822  31.007  1.00  0.00     0.054 A 
BRANCH  75  76
ATOM     76  S   UNL A   1      35.857  32.545  31.532  1.00  0.00     0.124 S 
ATOM     77  O   UNL A   1      36.162  33.974  31.518  1.00  0.00    -0.237 OA
ATOM     78  O   UNL A   1      34.936  32.090  30.494  1.00  0.00    -0.237 OA
ATOM     79  O   UNL A   1      35.634  31.970  32.855  1.00  0.00    -0.744 OA
ENDBRANCH  75  76
ENDBRANCH  56  70
BRANCH  57  80
ATOM     80  C   UNL A   1      48.584  27.029  26.868  1.00  0.00    -0.014 A 
ATOM     81  C   UNL A   1      48.878  27.123  25.498  1.00  0.00     0.010 A 
ATOM     82  C   UNL A   1      49.533  26.450  27.733  1.00  0.00     0.010 A 
ATOM     83  C   UNL A   1      50.103  26.660  25.005  1.00  0.00     0.020 A 
ATOM     84  C   UNL A   1      50.768  26.013  27.250  1.00  0.00     0.020 A 
ATOM     85  C   UNL A   1      51.046  26.120  25.887  1.00  0.00     0.054 A 
BRANCH  85  86
ATOM     86  S   UNL A   1      52.668  25.627  25.241  1.00  0.00     0.124 S 
ATOM     87  O   UNL A   1      52.525  25.900  23.815  1.00  0.00    -0.237 OA
ATOM     88  O   UNL A   1      53.576  26.509  25.968  1.00  0.00    -0.237 OA
ATOM     89  O   UNL A   1      52.765  24.214  25.602  1.00  0.00    -0.744 OA
ENDBRANCH  85  86
ENDBRANCH  57  80
BRANCH  69  90
ATOM     90  C   UNL A   1      46.540  33.382  28.985  1.00  0.00    -0.014 A 
ATOM     91  C   UNL A   1      46.547  34.323  27.941  1.00  0.00     0.010 A 
ATOM     92  C   UNL A   1      47.168  33.707  30.203  1.00  0.00     0.010 A 
ATOM     93  C   UNL A   1      47.197  35.551  28.100  1.00  0.00     0.020 A 
ATOM     94  C   UNL A   1      47.790  34.946  30.378  1.00  0.00     0.020 A 
ATOM     95  C   UNL A   1      47.812  35.854  29.319  1.00  0.00     0.054 A 
BRANCH  95  96
ATOM     96  S   UNL A   1      48.611  37.471  29.514  1.00  0.00     0.124 S 
ATOM     97  O   UNL A   1      49.721  37.377  28.570  1.00  0.00    -0.237 OA
ATOM     98  O   UNL A   1      47.546  38.400  29.143  1.00  0.00    -0.237 OA
ATOM     99  O   UNL A   1      48.993  37.502  30.924  1.00  0.00    -0.744 OA
ENDBRANCH  95  96
ENDBRANCH  69  90
ENDBRANCH  43  44
ENDBRANCH  36  38
ENDBRANCH  35  36
ENDBRANCH  34  35
ENDBRANCH  33  34
ENDBRANCH  32  33
ENDBRANCH  31  32
ENDBRANCH  30  31
ENDBRANCH   1  30
TORSDOF 28
ENDMDL
MODEL 2
REMARK VINA RESULT:      -8.1      1.917      8.452
REMARK SMILES CCOc1cc(N2CCOCC2)ccc1[C@H]([NH3+])C(=O)OCCOCCOCCOCCOC(=O)c1ccc(-c2c3nc(c(-c4ccc(S(=O)(=O)[O-])cc4)c4ccc([nH]4)c(-c4ccc(S(=O)(=O)[O-])cc4)c4nc(c(-c5ccc(S(=O)(=O)[O-])cc5)c5ccc2[nH]5)C=C4)C=C3)cc1
REMARK SMILES IDX 26 1 25 2 24 3 23 4 22 5 21 6 20 7 18 8 19 9 16 10 15 11
REMARK SMILES IDX 4 12 5 13 6 14 14 15 13 16 3 17 2 18 1 19 7 20 8 21 12 22
REMARK SMILES IDX 9 23 11 24 10 25 17 26 27 30 28 31 29 32 30 33 31 34 32 35
REMARK SMILES IDX 33 36 34 37 35 38 36 39 94 40 37 41 93 42 38 43 39 44 40 45
REMARK SMILES IDX 87 46 41 47 92 48 86 49 88 50 42 51 91 52 85 53 84 54 43 56
REMARK SMILES IDX 73 57 54 58 72 59 55 60 58 61 71 62 89 63 56 64 57 65 70 67
REMARK SMILES IDX 90 68 59 69 44 70 45 71 53 72 46 73 52 74 47 75 48 76 49 77
REMARK SMILES IDX 50 78 51 79 74 80 75 81 83 82 76 83 82 84 77 85 78 86 79 87
REMARK SMILES IDX 80 88 81 89 60 90 61 91 69 92 62 93 68 94 63 95 64 96 65 97
REMARK SMILES IDX 66 98 67 99
REMARK H PARENT 17 27 17 28 17 29 88 55 58 66
REMARK Flexibility Score: inf
ROOT
ATOM      1  O   UNL A   1      35.740  23.443  23.273  1.00  0.00    -0.377 OA
ENDROOT
BRANCH   1   2
ATOM      2  C   UNL A   1      34.541  23.045  22.645  1.00  0.00     0.188 C 
BRANCH   2   3
ATOM      3  C   UNL A   1      33.302  23.947  22.513  1.00  0.00     0.188 C 
BRANCH   3   4
ATOM      4  O   UNL A   1      33.532  25.218  21.948  1.00  0.00    -0.376 OA
BRANCH   4   5
ATOM      5  C   UNL A   1      33.864  26.288  22.821  1.00  0.00     0.202 C 
BRANCH   5   6
ATOM      6  C   UNL A   1      33.757  27.677  22.173  1.00  0.00     0.261 C 
BRANCH   6   7
ATOM      7  O   UNL A   1      32.436  28.250  22.202  1.00  0.00    -0.459 OA
BRANCH   7   8
ATOM      8  C   UNL A   1      32.039  28.845  23.356  1.00  0.00     0.369 C 
ATOM      9  O   UNL A   1      32.714  29.665  23.972  1.00  0.00    -0.245 OA
BRANCH   8  10
ATOM     10  C   UNL A   1      30.629  28.417  23.803  1.00  0.00     0.326 C 
BRANCH  10  11
ATOM     11  C   UNL A   1      30.723  27.149  24.600  1.00  0.00     0.063 A 
ATOM     12  C   UNL A   1      31.071  27.093  25.962  1.00  0.00     0.131 A 
ATOM     13  C   UNL A   1      31.111  25.859  26.611  1.00  0.00     0.072 A 
ATOM     14  C   UNL A   1      30.843  24.677  25.900  1.00  0.00     0.040 A 
ATOM     15  C   UNL A   1      30.371  25.980  23.922  1.00  0.00     0.016 A 
ATOM     16  C   UNL A   1      30.437  24.761  24.566  1.00  0.00     0.027 A 
BRANCH  12  17
ATOM     17  O   UNL A   1      31.596  28.214  26.555  1.00  0.00    -0.493 OA
BRANCH  17  18
ATOM     18  C   UNL A   1      32.555  27.986  27.594  1.00  0.00     0.226 C 
ATOM     19  C   UNL A   1      33.863  28.611  27.119  1.00  0.00     0.049 C 
ENDBRANCH  17  18
ENDBRANCH  12  17
BRANCH  14  20
ATOM     20  N   UNL A   1      31.087  23.448  26.487  1.00  0.00    -0.367 N 
ATOM     21  C   UNL A   1      32.261  23.331  27.362  1.00  0.00     0.145 C 
ATOM     22  C   UNL A   1      30.718  22.235  25.753  1.00  0.00     0.145 C 
ATOM     23  C   UNL A   1      33.426  22.628  26.648  1.00  0.00     0.181 C 
ATOM     24  C   UNL A   1      31.960  21.587  25.115  1.00  0.00     0.181 C 
ATOM     25  O   UNL A   1      33.018  21.378  26.071  1.00  0.00    -0.378 OA
ENDBRANCH  14  20
ENDBRANCH  10  11
BRANCH  10  26
ATOM     26  N   UNL A   1      29.582  28.354  22.771  1.00  0.00    -0.342 N 
ATOM     27  H   UNL A   1      29.363  29.298  22.451  1.00  0.00     0.345 HD
ATOM     28  H   UNL A   1      28.743  27.927  23.164  1.00  0.00     0.345 HD
ATOM     29  H   UNL A   1      29.912  27.796  21.984  1.00  0.00     0.345 HD
ENDBRANCH  10  26
ENDBRANCH   8  10
ENDBRANCH   7   8
ENDBRANCH   6   7
ENDBRANCH   5   6
ENDBRANCH   4   5
ENDBRANCH   3   4
ENDBRANCH   2   3
ENDBRANCH   1   2
BRANCH   1  30
ATOM     30  C   UNL A   1      36.702  22.486  23.652  1.00  0.00     0.188 C 
BRANCH  30  31
ATOM     31  C   UNL A   1      36.249  21.386  24.631  1.00  0.00     0.188 C 
BRANCH  31  32
ATOM     32  O   UNL A   1      37.101  20.746  25.563  1.00  0.00    -0.376 OA
BRANCH  32  33
ATOM     33  C   UNL A   1      38.413  20.308  25.291  1.00  0.00     0.202 C 
BRANCH  33  34
ATOM     34  C   UNL A   1      39.693  21.020  25.764  1.00  0.00     0.261 C 
BRANCH  34  35
ATOM     35  O   UNL A   1      39.727  21.531  27.092  1.00  0.00    -0.460 OA
BRANCH  35  36
ATOM     36  C   UNL A   1      40.940  21.563  27.675  1.00  0.00     0.338 C 
ATOM     37  O   UNL A   1      41.753  20.652  27.740  1.00  0.00    -0.246 OA
BRANCH  36  38
ATOM     38  C   UNL A   1      41.205  22.952  28.095  1.00  0.00     0.060 A 
ATOM     39  C   UNL A   1      40.318  23.951  27.675  1.00  0.00     0.016 A 
ATOM     40  C   UNL A   1      42.313  23.270  28.887  1.00  0.00     0.016 A 
ATOM     41  C   UNL A   1      40.557  25.278  28.005  1.00  0.00     0.010 A 
ATOM     42  C   UNL A   1      42.575  24.610  29.184  1.00  0.00     0.010 A 
ATOM     43  C   UNL A   1      41.720  25.616  28.705  1.00  0.00    -0.014 A 
BRANCH  43  44
ATOM     44  C   UNL A   1      42.155  27.029  28.698  1.00  0.00     0.031 A 
ATOM     45  C   UNL A   1      43.415  27.373  27.956  1.00  0.00     0.074 A 
ATOM     46  C   UNL A   1      41.416  27.988  29.280  1.00  0.00     0.049 A 
ATOM     47  N   UNL A   1      44.003  28.531  27.808  1.00  0.00    -0.248 NA
ATOM     48  C   UNL A   1      44.107  26.255  27.290  1.00  0.00     0.031 C 
ATOM     49  C   UNL A   1      40.150  27.774  29.975  1.00  0.00     0.029 A 
ATOM     50  N   UNL A   1      41.637  29.338  29.379  1.00  0.00    -0.354 N 
ATOM     51  C   UNL A   1      45.137  28.280  27.045  1.00  0.00     0.074 A 
ATOM     52  C   UNL A   1      45.173  26.858  26.790  1.00  0.00     0.031 C 
ATOM     53  C   UNL A   1      39.713  28.953  30.450  1.00  0.00     0.029 A 
ATOM     54  C   UNL A   1      40.688  29.993  30.123  1.00  0.00     0.049 A 
ATOM     55  H   UNL A   1      42.402  29.792  28.958  1.00  0.00     0.167 HD
ATOM     56  C   UNL A   1      46.066  29.157  26.598  1.00  0.00     0.031 A 
ATOM     57  C   UNL A   1      40.632  31.280  30.520  1.00  0.00     0.031 A 
ATOM     58  C   UNL A   1      46.034  30.565  26.887  1.00  0.00     0.049 A 
ATOM     59  C   UNL A   1      41.713  32.229  30.080  1.00  0.00     0.074 A 
ATOM     60  C   UNL A   1      46.918  31.549  26.481  1.00  0.00     0.029 A 
ATOM     61  N   UNL A   1      45.075  31.189  27.674  1.00  0.00    -0.354 N 
ATOM     62  N   UNL A   1      42.769  31.989  29.338  1.00  0.00    -0.248 NA
ATOM     63  C   UNL A   1      41.591  33.625  30.520  1.00  0.00     0.031 C 
ATOM     64  C   UNL A   1      46.534  32.752  27.083  1.00  0.00     0.029 A 
ATOM     65  C   UNL A   1      45.364  32.537  27.797  1.00  0.00     0.049 A 
ATOM     66  H   UNL A   1      44.301  30.738  28.085  1.00  0.00     0.167 HD
ATOM     67  C   UNL A   1      43.427  33.207  29.203  1.00  0.00     0.074 A 
ATOM     68  C   UNL A   1      42.639  34.184  29.927  1.00  0.00     0.031 C 
ATOM     69  C   UNL A   1      44.575  33.492  28.537  1.00  0.00     0.031 A 
BRANCH  56  70
ATOM     70  C   UNL A   1      47.222  28.593  25.810  1.00  0.00    -0.014 A 
ATOM     71  C   UNL A   1      48.497  28.426  26.383  1.00  0.00     0.010 A 
ATOM     72  C   UNL A   1      47.031  28.244  24.461  1.00  0.00     0.010 A 
ATOM     73  C   UNL A   1      49.571  27.985  25.606  1.00  0.00     0.020 A 
ATOM     74  C   UNL A   1      48.095  27.769  23.688  1.00  0.00     0.020 A 
ATOM     75  C   UNL A   1      49.364  27.668  24.259  1.00  0.00     0.054 A 
BRANCH  75  76
ATOM     76  S   UNL A   1      50.779  27.119  23.266  1.00  0.00     0.124 S 
ATOM     77  O   UNL A   1      51.445  28.384  22.967  1.00  0.00    -0.237 OA
ATOM     78  O   UNL A   1      51.492  26.236  24.185  1.00  0.00    -0.237 OA
ATOM     79  O   UNL A   1      50.163  26.454  22.121  1.00  0.00    -0.744 OA
ENDBRANCH  75  76
ENDBRANCH  56  70
BRANCH  57  80
ATOM     80  C   UNL A   1      39.524  31.716  31.413  1.00  0.00    -0.014 A 
ATOM     81  C   UNL A   1      39.410  31.227  32.724  1.00  0.00     0.010 A 
ATOM     82  C   UNL A   1      38.602  32.680  30.959  1.00  0.00     0.010 A 
ATOM     83  C   UNL A   1      38.402  31.703  33.570  1.00  0.00     0.020 A 
ATOM     84  C   UNL A   1      37.613  33.178  31.810  1.00  0.00     0.020 A 
ATOM     85  C   UNL A   1      37.519  32.686  33.111  1.00  0.00     0.054 A 
BRANCH  85  86
ATOM     86  S   UNL A   1      36.291  33.365  34.261  1.00  0.00     0.124 S 
ATOM     87  O   UNL A   1      35.041  32.847  33.716  1.00  0.00    -0.237 OA
ATOM     88  O   UNL A   1      36.710  32.796  35.539  1.00  0.00    -0.237 OA
ATOM     89  O   UNL A   1      36.474  34.810  34.145  1.00  0.00    -0.744 OA
ENDBRANCH  85  86
ENDBRANCH  57  80
BRANCH  69  90
ATOM     90  C   UNL A   1      45.039  34.927  28.534  1.00  0.00    -0.014 A 
ATOM     91  C   UNL A   1      44.527  35.863  27.617  1.00  0.00     0.010 A 
ATOM     92  C   UNL A   1      45.957  35.359  29.509  1.00  0.00     0.010 A 
ATOM     93  C   UNL A   1      44.950  37.195  27.656  1.00  0.00     0.020 A 
ATOM     94  C   UNL A   1      46.358  36.695  29.574  1.00  0.00     0.020 A 
ATOM     95  C   UNL A   1      45.861  37.602  28.636  1.00  0.00     0.054 A 
BRANCH  95  96
ATOM     96  S   UNL A   1      46.361  39.345  28.691  1.00  0.00     0.124 S 
ATOM     97  O   UNL A   1      45.319  39.934  29.528  1.00  0.00    -0.237 OA
ATOM     98  O   UNL A   1      47.690  39.277  29.296  1.00  0.00    -0.237 OA
ATOM     99  O   UNL A   1      46.341  39.757  27.290  1.00  0.00    -0.744 OA
ENDBRANCH  95  96
ENDBRANCH  69  90
ENDBRANCH  43  44
ENDBRANCH  36  38
ENDBRANCH  35  36
ENDBRANCH  34  35
ENDBRANCH  33  34
ENDBRANCH  32  33
ENDBRANCH  31  32
ENDBRANCH  30  31
ENDBRANCH   1  30
TORSDOF 28
ENDMDL
MODEL 3
REMARK VINA RESULT:      -8.1      1.494      2.433
REMARK SMILES CCOc1cc(N2CCOCC2)ccc1[C@H]([NH3+])C(=O)OCCOCCOCCOCCOC(=O)c1ccc(-c2c3nc(c(-c4ccc(S(=O)(=O)[O-])cc4)c4ccc([nH]4)c(-c4ccc(S(=O)(=O)[O-])cc4)c4nc(c(-c5ccc(S(=O)(=O)[O-])cc5)c5ccc2[nH]5)C=C4)C=C3)cc1
REMARK SMILES IDX 26 1 25 2 24 3 23 4 22 5 21 6 20 7 18 8 19 9 16 10 15 11
REMARK SMILES IDX 4 12 5 13 6 14 14 15 13 16 3 17 2 18 1 19 7 20 8 21 12 22
REMARK SMILES IDX 9 23 11 24 10 25 17 26 27 30 28 31 29 32 30 33 31 34 32 35
REMARK SMILES IDX 33 36 34 37 35 38 36 39 94 40 37 41 93 42 38 43 39 44 40 45
REMARK SMILES IDX 87 46 41 47 92 48 86 49 88 50 42 51 91 52 85 53 84 54 43 56
REMARK SMILES IDX 73 57 54 58 72 59 55 60 58 61 71 62 89 63 56 64 57 65 70 67
REMARK SMILES IDX 90 68 59 69 44 70 45 71 53 72 46 73 52 74 47 75 48 76 49 77
REMARK SMILES IDX 50 78 51 79 74 80 75 81 83 82 76 83 82 84 77 85 78 86 79 87
REMARK SMILES IDX 80 88 81 89 60 90 61 91 69 92 62 93 68 94 63 95 64 96 65 97
REMARK SMILES IDX 66 98 67 99
REMARK H PARENT 17 27 17 28 17 29 88 55 58 66
REMARK Flexibility Score: inf
ROOT
ATOM      1  O   UNL A   1      36.483  21.949  24.410  1.00  0.00    -0.377 OA
ENDROOT
BRANCH   1   2
ATOM      2  C   UNL A   1      35.157  22.009  24.891  1.00  0.00     0.188 C 
BRANCH   2   3
ATOM      3  C   UNL A   1      34.502  20.907  25.739  1.00  0.00     0.188 C 
BRANCH   3   4
ATOM      4  O   UNL A   1      33.430  21.323  26.555  1.00  0.00    -0.376 OA
BRANCH   4   5
ATOM      5  C   UNL A   1      32.466  22.204  25.997  1.00  0.00     0.202 C 
BRANCH   5   6
ATOM      6  C   UNL A   1      32.476  23.610  26.615  1.00  0.00     0.261 C 
BRANCH   6   7
ATOM      7  O   UNL A   1      32.685  24.678  25.671  1.00  0.00    -0.459 OA
BRANCH   7   8
ATOM      8  C   UNL A   1      32.296  25.925  26.044  1.00  0.00     0.369 C 
ATOM      9  O   UNL A   1      31.599  26.160  27.027  1.00  0.00    -0.245 OA
BRANCH   8  10
ATOM     10  C   UNL A   1      32.852  27.030  25.128  1.00  0.00     0.326 C 
BRANCH  10  11
ATOM     11  C   UNL A   1      31.717  27.695  24.405  1.00  0.00     0.063 A 
ATOM     12  C   UNL A   1      30.970  27.091  23.376  1.00  0.00     0.131 A 
ATOM     13  C   UNL A   1      29.923  27.795  22.783  1.00  0.00     0.072 A 
ATOM     14  C   UNL A   1      29.640  29.112  23.184  1.00  0.00     0.040 A 
ATOM     15  C   UNL A   1      31.373  28.970  24.859  1.00  0.00     0.016 A 
ATOM     16  C   UNL A   1      30.351  29.668  24.250  1.00  0.00     0.027 A 
BRANCH  12  17
ATOM     17  O   UNL A   1      31.438  25.929  22.816  1.00  0.00    -0.493 OA
BRANCH  17  18
ATOM     18  C   UNL A   1      31.750  25.984  21.420  1.00  0.00     0.226 C 
ATOM     19  C   UNL A   1      32.936  25.048  21.205  1.00  0.00     0.049 C 
ENDBRANCH  17  18
ENDBRANCH  12  17
BRANCH  14  20
ATOM     20  N   UNL A   1      28.746  29.878  22.456  1.00  0.00    -0.367 N 
ATOM     21  C   UNL A   1      29.290  30.978  21.648  1.00  0.00     0.145 C 
ATOM     22  C   UNL A   1      27.402  30.092  22.999  1.00  0.00     0.145 C 
ATOM     23  C   UNL A   1      29.078  32.337  22.334  1.00  0.00     0.181 C 
ATOM     24  C   UNL A   1      27.285  31.495  23.622  1.00  0.00     0.181 C 
ATOM     25  O   UNL A   1      27.708  32.532  22.715  1.00  0.00    -0.378 OA
ENDBRANCH  14  20
ENDBRANCH  10  11
BRANCH  10  26
ATOM     26  N   UNL A   1      33.957  26.670  24.225  1.00  0.00    -0.342 N 
ATOM     27  H   UNL A   1      34.838  26.696  24.739  1.00  0.00     0.345 HD
ATOM     28  H   UNL A   1      33.995  27.336  23.453  1.00  0.00     0.345 HD
ATOM     29  H   UNL A   1      33.804  25.731  23.858  1.00  0.00     0.345 HD
ENDBRANCH  10  26
ENDBRANCH   8  10
ENDBRANCH   7   8
ENDBRANCH   6   7
ENDBRANCH   5   6
ENDBRANCH   4   5
ENDBRANCH   3   4
ENDBRANCH   2   3
ENDBRANCH   1   2
BRANCH   1  30
ATOM     30  C   UNL A   1      37.166  20.718  24.346  1.00  0.00     0.188 C 
BRANCH  30  31
ATOM     31  C   UNL A   1      38.200  20.430  25.450  1.00  0.00     0.188 C 
BRANCH  31  32
ATOM     32  O   UNL A   1      39.256  21.304  25.801  1.00  0.00    -0.376 OA
BRANCH  32  33
ATOM     33  C   UNL A   1      40.166  21.089  26.857  1.00  0.00     0.202 C 
BRANCH  33  34
ATOM     34  C   UNL A   1      41.433  20.220  26.762  1.00  0.00     0.261 C 
BRANCH  34  35
ATOM     35  O   UNL A   1      42.091  20.123  25.504  1.00  0.00    -0.460 OA
BRANCH  35  36
ATOM     36  C   UNL A   1      43.401  20.429  25.504  1.00  0.00     0.338 C 
ATOM     37  O   UNL A   1      44.316  19.765  25.037  1.00  0.00    -0.246 OA
BRANCH  36  38
ATOM     38  C   UNL A   1      43.546  21.801  26.027  1.00  0.00     0.060 A 
ATOM     39  C   UNL A   1      43.290  22.870  25.160  1.00  0.00     0.016 A 
ATOM     40  C   UNL A   1      43.932  22.034  27.351  1.00  0.00     0.016 A 
ATOM     41  C   UNL A   1      43.461  24.177  25.597  1.00  0.00     0.010 A 
ATOM     42  C   UNL A   1      44.145  23.347  27.777  1.00  0.00     0.010 A 
ATOM     43  C   UNL A   1      43.952  24.415  26.885  1.00  0.00    -0.014 A 
BRANCH  43  44
ATOM     44  C   UNL A   1      44.499  25.754  27.189  1.00  0.00     0.031 A 
ATOM     45  C   UNL A   1      43.583  26.757  27.835  1.00  0.00     0.074 A 
ATOM     46  C   UNL A   1      45.788  26.050  26.958  1.00  0.00     0.049 A 
ATOM     47  N   UNL A   1      43.823  27.990  28.193  1.00  0.00    -0.248 NA
ATOM     48  C   UNL A   1      42.209  26.302  28.114  1.00  0.00     0.031 C 
ATOM     49  C   UNL A   1      46.776  25.136  26.391  1.00  0.00     0.029 A 
ATOM     50  N   UNL A   1      46.481  27.214  27.171  1.00  0.00    -0.354 N 
ATOM     51  C   UNL A   1      42.630  28.463  28.726  1.00  0.00     0.074 A 
ATOM     52  C   UNL A   1      41.660  27.396  28.615  1.00  0.00     0.031 C 
ATOM     53  C   UNL A   1      47.949  25.783  26.279  1.00  0.00     0.029 A 
ATOM     54  C   UNL A   1      47.781  27.162  26.734  1.00  0.00     0.049 A 
ATOM     55  H   UNL A   1      46.085  28.008  27.595  1.00  0.00     0.167 HD
ATOM     56  C   UNL A   1      42.365  29.678  29.262  1.00  0.00     0.031 A 
ATOM     57  C   UNL A   1      48.718  28.130  26.678  1.00  0.00     0.031 A 
ATOM     58  C   UNL A   1      43.331  30.740  29.337  1.00  0.00     0.049 A 
ATOM     59  C   UNL A   1      48.386  29.500  27.205  1.00  0.00     0.074 A 
ATOM     60  C   UNL A   1      43.177  32.010  29.864  1.00  0.00     0.029 A 
ATOM     61  N   UNL A   1      44.630  30.663  28.852  1.00  0.00    -0.354 N 
ATOM     62  N   UNL A   1      47.263  29.931  27.731  1.00  0.00    -0.248 NA
ATOM     63  C   UNL A   1      49.451  30.511  27.144  1.00  0.00     0.031 C 
ATOM     64  C   UNL A   1      44.358  32.723  29.631  1.00  0.00     0.029 A 
ATOM     65  C   UNL A   1      45.278  31.873  29.033  1.00  0.00     0.049 A 
ATOM     66  H   UNL A   1      45.032  29.864  28.439  1.00  0.00     0.167 HD
ATOM     67  C   UNL A   1      47.491  31.258  28.083  1.00  0.00     0.074 A 
ATOM     68  C   UNL A   1      48.865  31.550  27.725  1.00  0.00     0.031 C 
ATOM     69  C   UNL A   1      46.643  32.151  28.655  1.00  0.00     0.031 A 
BRANCH  56  70
ATOM     70  C   UNL A   1      40.956  29.928  29.738  1.00  0.00    -0.014 A 
ATOM     71  C   UNL A   1      39.947  30.371  28.864  1.00  0.00     0.010 A 
ATOM     72  C   UNL A   1      40.644  29.737  31.096  1.00  0.00     0.010 A 
ATOM     73  C   UNL A   1      38.673  30.680  29.349  1.00  0.00     0.020 A 
ATOM     74  C   UNL A   1      39.362  30.011  31.581  1.00  0.00     0.020 A 
ATOM     75  C   UNL A   1      38.392  30.507  30.709  1.00  0.00     0.054 A 
BRANCH  75  76
ATOM     76  S   UNL A   1      36.739  30.936  31.318  1.00  0.00     0.124 S 
ATOM     77  O   UNL A   1      36.331  29.699  31.979  1.00  0.00    -0.237 OA
ATOM     78  O   UNL A   1      37.008  32.064  32.206  1.00  0.00    -0.237 OA
ATOM     79  O   UNL A   1      35.996  31.266  30.104  1.00  0.00    -0.744 OA
ENDBRANCH  75  76
ENDBRANCH  56  70
BRANCH  57  80
ATOM     80  C   UNL A   1      50.038  27.827  26.063  1.00  0.00    -0.014 A 
ATOM     81  C   UNL A   1      51.125  27.402  26.844  1.00  0.00     0.010 A 
ATOM     82  C   UNL A   1      50.191  27.911  24.665  1.00  0.00     0.010 A 
ATOM     83  C   UNL A   1      52.337  27.054  26.237  1.00  0.00     0.020 A 
ATOM     84  C   UNL A   1      51.390  27.537  24.054  1.00  0.00     0.020 A 
ATOM     85  C   UNL A   1      52.457  27.111  24.844  1.00  0.00     0.054 A 
BRANCH  85  86
ATOM     86  S   UNL A   1      54.002  26.552  24.076  1.00  0.00     0.124 S 
ATOM     87  O   UNL A   1      55.004  27.326  24.801  1.00  0.00    -0.237 OA
ATOM     88  O   UNL A   1      53.987  25.118  24.351  1.00  0.00    -0.237 OA
ATOM     89  O   UNL A   1      53.833  26.907  22.668  1.00  0.00    -0.744 OA
ENDBRANCH  85  86
ENDBRANCH  57  80
BRANCH  69  90
ATOM     90  C   UNL A   1      47.182  33.526  28.958  1.00  0.00    -0.014 A 
ATOM     91  C   UNL A   1      47.838  33.808  30.169  1.00  0.00     0.010 A 
ATOM     92  C   UNL A   1      47.084  34.537  27.982  1.00  0.00     0.010 A 
ATOM     93  C   UNL A   1      48.356  35.083  30.412  1.00  0.00     0.020 A 
ATOM     94  C   UNL A   1      47.631  35.802  28.206  1.00  0.00     0.020 A 
ATOM     95  C   UNL A   1      48.251  36.071  29.428  1.00  0.00     0.054 A 
BRANCH  95  96
ATOM     96  S   UNL A   1      48.971  37.705  29.751  1.00  0.00     0.124 S 
ATOM     97  O   UNL A   1      49.304  38.162  28.405  1.00  0.00    -0.237 OA
ATOM     98  O   UNL A   1      47.872  38.414  30.403  1.00  0.00    -0.237 OA
ATOM     99  O   UNL A   1      50.116  37.416  30.612  1.00  0.00    -0.744 OA
ENDBRANCH  95  96
ENDBRANCH  69  90
ENDBRANCH  43  44
ENDBRANCH  36  38
ENDBRANCH  35  36
ENDBRANCH  34  35
ENDBRANCH  33  34
ENDBRANCH  32  33
ENDBRANCH  31  32
ENDBRANCH  30  31
ENDBRANCH   1  30
TORSDOF 28
ENDMDL
