MODEL 1
REMARK VINA RESULT:      -8.9      0.000      0.000
REMARK SMILES CC(C)[C@H](NC(=O)OCc1ccccc1)C(=O)NCC(=O)OCCOCCOCCOCCOC(=O)c1ccc(-c2c3nc(c(-c4ccc(S(=O)(=O)[O-])cc4)c4ccc([nH]4)c(-c4ccc(S(=O)(=O)[O-])cc4)c4nc(c(-c5ccc(S(=O)(=O)[O-])cc5)c5ccc2[nH]5)C=C4)C=C3)cc1
REMARK SMILES IDX 26 1 25 2 24 3 23 4 22 5 20 6 21 7 19 8 18 9 16 10 17 11
REMARK SMILES IDX 4 13 2 14 1 15 3 16 5 17 6 18 7 20 8 21 9 22 10 23 11 24
REMARK SMILES IDX 15 25 12 26 14 27 13 28 27 29 28 30 29 31 30 32 31 33 32 34
REMARK SMILES IDX 33 35 34 36 35 37 36 38 37 39 38 40 96 41 39 42 95 43 40 44
REMARK SMILES IDX 41 45 42 46 89 47 43 48 94 49 88 50 90 51 44 52 93 53 87 54
REMARK SMILES IDX 86 55 45 57 75 58 56 59 74 60 57 61 60 62 73 63 91 64 58 65
REMARK SMILES IDX 59 66 72 68 92 69 61 70 46 71 47 72 55 73 48 74 54 75 49 76
REMARK SMILES IDX 50 77 51 78 52 79 53 80 76 81 77 82 85 83 78 84 84 85 79 86
REMARK SMILES IDX 80 87 81 88 82 89 83 90 62 91 63 92 71 93 64 94 70 95 65 96
REMARK SMILES IDX 66 97 67 98 68 99 69 100
REMARK H PARENT 18 12 5 19 90 56 60 67
REMARK Flexibility Score: inf
ROOT
ATOM      1  C   UNL A   1      39.466  21.864  26.517  1.00  0.00     0.188 C 
ENDROOT
BRANCH   1   2
ATOM      2  O   UNL A   1      38.680  22.477  25.454  1.00  0.00    -0.376 OA
BRANCH   2   3
ATOM      3  C   UNL A   1      37.232  22.463  25.286  1.00  0.00     0.202 C 
BRANCH   3   4
ATOM      4  C   UNL A   1      36.373  23.413  24.214  1.00  0.00     0.261 C 
BRANCH   4   5
ATOM      5  O   UNL A   1      34.878  23.249  23.563  1.00  0.00    -0.462 OA
BRANCH   5   6
ATOM      6  C   UNL A   1      33.762  23.247  22.772  1.00  0.00     0.325 C 
ATOM      7  O   UNL A   1      33.832  23.871  21.701  1.00  0.00    -0.250 OA
BRANCH   6   8
ATOM      8  C   UNL A   1      32.304  22.404  22.967  1.00  0.00     0.238 C 
BRANCH   8   9
ATOM      9  N   UNL A   1      31.807  20.966  23.095  1.00  0.00    -0.343 N 
ATOM     10  C   UNL A   1      32.370  19.966  23.857  1.00  0.00     0.243 C 
ATOM     11  O   UNL A   1      31.868  18.852  23.959  1.00  0.00    -0.273 OA
ATOM     12  H   UNL A   1      31.002  20.730  22.581  1.00  0.00     0.164 HD
BRANCH  10  13
ATOM     13  C   UNL A   1      33.576  20.410  24.635  1.00  0.00     0.177 C 
BRANCH  13  14
ATOM     14  C   UNL A   1      34.749  19.370  24.366  1.00  0.00     0.015 C 
ATOM     15  C   UNL A   1      36.113  19.745  24.956  1.00  0.00     0.010 C 
ATOM     16  C   UNL A   1      34.453  17.866  24.673  1.00  0.00     0.010 C 
ENDBRANCH  13  14
BRANCH  13  17
ATOM     17  N   UNL A   1      33.028  20.572  26.007  1.00  0.00    -0.309 N 
ATOM     18  C   UNL A   1      33.485  21.622  26.828  1.00  0.00     0.408 C 
ATOM     19  H   UNL A   1      32.345  19.946  26.342  1.00  0.00     0.167 HD
ATOM     20  O   UNL A   1      34.260  21.319  27.734  1.00  0.00    -0.225 OA
BRANCH  18  21
ATOM     21  O   UNL A   1      33.000  22.945  26.717  1.00  0.00    -0.445 OA
BRANCH  21  22
ATOM     22  C   UNL A   1      32.185  24.189  25.937  1.00  0.00     0.270 C 
BRANCH  22  23
ATOM     23  C   UNL A   1      32.425  25.735  25.661  1.00  0.00    -0.011 A 
ATOM     24  C   UNL A   1      33.671  26.397  25.780  1.00  0.00     0.007 A 
ATOM     25  C   UNL A   1      31.383  26.554  25.221  1.00  0.00     0.007 A 
ATOM     26  C   UNL A   1      33.823  27.785  25.717  1.00  0.00     0.000 A 
ATOM     27  C   UNL A   1      31.513  27.951  25.173  1.00  0.00     0.000 A 
ATOM     28  C   UNL A   1      32.721  28.572  25.461  1.00  0.00     0.000 A 
ENDBRANCH  22  23
ENDBRANCH  21  22
ENDBRANCH  18  21
ENDBRANCH  13  17
ENDBRANCH  10  13
ENDBRANCH   8   9
ENDBRANCH   6   8
ENDBRANCH   5   6
ENDBRANCH   4   5
ENDBRANCH   3   4
ENDBRANCH   2   3
ENDBRANCH   1   2
BRANCH   1  29
ATOM     29  C   UNL A   1      40.202  20.496  26.372  1.00  0.00     0.188 C 
BRANCH  29  30
ATOM     30  O   UNL A   1      41.156  20.184  27.358  1.00  0.00    -0.377 OA
BRANCH  30  31
ATOM     31  C   UNL A   1      42.404  20.847  27.262  1.00  0.00     0.188 C 
BRANCH  31  32
ATOM     32  C   UNL A   1      43.062  20.901  25.871  1.00  0.00     0.188 C 
BRANCH  32  33
ATOM     33  O   UNL A   1      42.634  21.976  25.047  1.00  0.00    -0.376 OA
BRANCH  33  34
ATOM     34  C   UNL A   1      43.332  23.211  25.123  1.00  0.00     0.202 C 
BRANCH  34  35
ATOM     35  C   UNL A   1      43.217  24.037  26.414  1.00  0.00     0.261 C 
BRANCH  35  36
ATOM     36  O   UNL A   1      43.704  25.392  26.381  1.00  0.00    -0.460 OA
BRANCH  36  37
ATOM     37  C   UNL A   1      44.623  25.804  27.288  1.00  0.00     0.338 C 
ATOM     38  O   UNL A   1      45.824  25.672  27.226  1.00  0.00    -0.246 OA
BRANCH  37  39
ATOM     39  C   UNL A   1      43.921  26.707  28.240  1.00  0.00     0.060 A 
ATOM     40  C   UNL A   1      44.058  28.095  28.079  1.00  0.00     0.016 A 
ATOM     41  C   UNL A   1      43.087  26.196  29.235  1.00  0.00     0.016 A 
ATOM     42  C   UNL A   1      43.397  28.972  28.936  1.00  0.00     0.010 A 
ATOM     43  C   UNL A   1      42.463  27.073  30.126  1.00  0.00     0.010 A 
ATOM     44  C   UNL A   1      42.654  28.461  30.005  1.00  0.00    -0.014 A 
BRANCH  44  45
ATOM     45  C   UNL A   1      42.361  29.351  31.152  1.00  0.00     0.031 A 
ATOM     46  C   UNL A   1      41.107  30.183  31.068  1.00  0.00     0.074 A 
ATOM     47  C   UNL A   1      43.143  29.395  32.245  1.00  0.00     0.049 A 
ATOM     48  N   UNL A   1      40.632  31.054  31.917  1.00  0.00    -0.248 NA
ATOM     49  C   UNL A   1      40.277  30.005  29.862  1.00  0.00     0.031 C 
ATOM     50  C   UNL A   1      44.348  28.598  32.465  1.00  0.00     0.029 A 
ATOM     51  N   UNL A   1      43.031  30.158  33.381  1.00  0.00    -0.354 N 
ATOM     52  C   UNL A   1      39.460  31.535  31.344  1.00  0.00     0.074 A 
ATOM     53  C   UNL A   1      39.301  30.874  30.070  1.00  0.00     0.031 C 
ATOM     54  C   UNL A   1      44.874  28.928  33.659  1.00  0.00     0.029 A 
ATOM     55  C   UNL A   1      44.062  29.978  34.272  1.00  0.00     0.049 A 
ATOM     56  H   UNL A   1      42.282  30.777  33.542  1.00  0.00     0.167 HD
ATOM     57  C   UNL A   1      38.591  32.445  31.836  1.00  0.00     0.031 A 
ATOM     58  C   UNL A   1      44.329  30.610  35.433  1.00  0.00     0.031 A 
ATOM     59  C   UNL A   1      38.754  33.105  33.101  1.00  0.00     0.049 A 
ATOM     60  C   UNL A   1      43.379  31.679  35.923  1.00  0.00     0.074 A 
ATOM     61  C   UNL A   1      37.916  34.031  33.697  1.00  0.00     0.029 A 
ATOM     62  N   UNL A   1      39.826  32.919  33.957  1.00  0.00    -0.354 N 
ATOM     63  N   UNL A   1      42.254  32.096  35.388  1.00  0.00    -0.248 NA
ATOM     64  C   UNL A   1      43.732  32.357  37.180  1.00  0.00     0.031 C 
ATOM     65  C   UNL A   1      38.516  34.452  34.887  1.00  0.00     0.029 A 
ATOM     66  C   UNL A   1      39.690  33.737  35.064  1.00  0.00     0.049 A 
ATOM     67  H   UNL A   1      40.574  32.297  33.801  1.00  0.00     0.167 HD
ATOM     68  C   UNL A   1      41.752  33.060  36.259  1.00  0.00     0.074 A 
ATOM     69  C   UNL A   1      42.685  33.151  37.363  1.00  0.00     0.031 C 
ATOM     70  C   UNL A   1      40.624  33.805  36.158  1.00  0.00     0.031 A 
BRANCH  57  71
ATOM     71  C   UNL A   1      37.404  32.813  30.989  1.00  0.00    -0.014 A 
ATOM     72  C   UNL A   1      37.497  33.796  29.989  1.00  0.00     0.010 A 
ATOM     73  C   UNL A   1      36.197  32.109  31.152  1.00  0.00     0.010 A 
ATOM     74  C   UNL A   1      36.399  34.074  29.170  1.00  0.00     0.020 A 
ATOM     75  C   UNL A   1      35.106  32.366  30.320  1.00  0.00     0.020 A 
ATOM     76  C   UNL A   1      35.213  33.351  29.337  1.00  0.00     0.054 A 
BRANCH  76  77
ATOM     77  S   UNL A   1      33.829  33.682  28.212  1.00  0.00     0.124 S 
ATOM     78  O   UNL A   1      33.504  32.343  27.730  1.00  0.00    -0.237 OA
ATOM     79  O   UNL A   1      32.838  34.289  29.097  1.00  0.00    -0.237 OA
ATOM     80  O   UNL A   1      34.401  34.582  27.213  1.00  0.00    -0.744 OA
ENDBRANCH  76  77
ENDBRANCH  57  71
BRANCH  58  81
ATOM     81  C   UNL A   1      45.568  30.297  36.201  1.00  0.00    -0.014 A 
ATOM     82  C   UNL A   1      45.555  29.359  37.249  1.00  0.00     0.010 A 
ATOM     83  C   UNL A   1      46.763  30.987  35.921  1.00  0.00     0.010 A 
ATOM     84  C   UNL A   1      46.700  29.147  38.026  1.00  0.00     0.020 A 
ATOM     85  C   UNL A   1      47.917  30.755  36.675  1.00  0.00     0.020 A 
ATOM     86  C   UNL A   1      47.872  29.850  37.737  1.00  0.00     0.054 A 
BRANCH  86  87
ATOM     87  S   UNL A   1      49.346  29.558  38.754  1.00  0.00     0.124 S 
ATOM     88  O   UNL A   1      48.934  28.414  39.561  1.00  0.00    -0.237 OA
ATOM     89  O   UNL A   1      50.373  29.289  37.751  1.00  0.00    -0.237 OA
ATOM     90  O   UNL A   1      49.512  30.814  39.484  1.00  0.00    -0.744 OA
ENDBRANCH  86  87
ENDBRANCH  58  81
BRANCH  70  91
ATOM     91  C   UNL A   1      40.303  34.749  37.287  1.00  0.00    -0.014 A 
ATOM     92  C   UNL A   1      39.461  34.367  38.346  1.00  0.00     0.010 A 
ATOM     93  C   UNL A   1      40.911  36.019  37.319  1.00  0.00     0.010 A 
ATOM     94  C   UNL A   1      39.203  35.252  39.397  1.00  0.00     0.020 A 
ATOM     95  C   UNL A   1      40.681  36.893  38.384  1.00  0.00     0.020 A 
ATOM     96  C   UNL A   1      39.815  36.509  39.409  1.00  0.00     0.054 A 
BRANCH  96  97
ATOM     97  S   UNL A   1      39.493  37.624  40.803  1.00  0.00     0.124 S 
ATOM     98  O   UNL A   1      39.052  36.695  41.840  1.00  0.00    -0.237 OA
ATOM     99  O   UNL A   1      40.798  38.242  41.026  1.00  0.00    -0.237 OA
ATOM    100  O   UNL A   1      38.462  38.526  40.296  1.00  0.00    -0.744 OA
ENDBRANCH  96  97
ENDBRANCH  70  91
ENDBRANCH  44  45
ENDBRANCH  37  39
ENDBRANCH  36  37
ENDBRANCH  35  36
ENDBRANCH  34  35
ENDBRANCH  33  34
ENDBRANCH  32  33
ENDBRANCH  31  32
ENDBRANCH  30  31
ENDBRANCH  29  30
ENDBRANCH   1  29
TORSDOF 30
ENDMDL
MODEL 2
REMARK VINA RESULT:      -8.6      4.901      8.290
REMARK SMILES CC(C)[C@H](NC(=O)OCc1ccccc1)C(=O)NCC(=O)OCCOCCOCCOCCOC(=O)c1ccc(-c2c3nc(c(-c4ccc(S(=O)(=O)[O-])cc4)c4ccc([nH]4)c(-c4ccc(S(=O)(=O)[O-])cc4)c4nc(c(-c5ccc(S(=O)(=O)[O-])cc5)c5ccc2[nH]5)C=C4)C=C3)cc1
REMARK SMILES IDX 26 1 25 2 24 3 23 4 22 5 20 6 21 7 19 8 18 9 16 10 17 11
REMARK SMILES IDX 4 13 2 14 1 15 3 16 5 17 6 18 7 20 8 21 9 22 10 23 11 24
REMARK SMILES IDX 15 25 12 26 14 27 13 28 27 29 28 30 29 31 30 32 31 33 32 34
REMARK SMILES IDX 33 35 34 36 35 37 36 38 37 39 38 40 96 41 39 42 95 43 40 44
REMARK SMILES IDX 41 45 42 46 89 47 43 48 94 49 88 50 90 51 44 52 93 53 87 54
REMARK SMILES IDX 86 55 45 57 75 58 56 59 74 60 57 61 60 62 73 63 91 64 58 65
REMARK SMILES IDX 59 66 72 68 92 69 61 70 46 71 47 72 55 73 48 74 54 75 49 76
REMARK SMILES IDX 50 77 51 78 52 79 53 80 76 81 77 82 85 83 78 84 84 85 79 86
REMARK SMILES IDX 80 87 81 88 82 89 83 90 62 91 63 92 71 93 64 94 70 95 65 96
REMARK SMILES IDX 66 97 67 98 68 99 69 100
REMARK H PARENT 18 12 5 19 90 56 60 67
REMARK Flexibility Score: inf
ROOT
ATOM      1  C   UNL A   1      37.923  24.051  26.396  1.00  0.00     0.188 C 
ENDROOT
BRANCH   1   2
ATOM      2  O   UNL A   1      37.671  23.657  25.016  1.00  0.00    -0.376 OA
BRANCH   2   3
ATOM      3  C   UNL A   1      36.919  22.506  24.534  1.00  0.00     0.202 C 
BRANCH   3   4
ATOM      4  C   UNL A   1      35.648  21.776  25.336  1.00  0.00     0.261 C 
BRANCH   4   5
ATOM      5  O   UNL A   1      34.462  22.386  26.289  1.00  0.00    -0.462 OA
BRANCH   5   6
ATOM      6  C   UNL A   1      33.533  22.645  27.258  1.00  0.00     0.325 C 
ATOM      7  O   UNL A   1      33.932  22.637  28.434  1.00  0.00    -0.250 OA
BRANCH   6   8
ATOM      8  C   UNL A   1      31.910  23.109  27.101  1.00  0.00     0.238 C 
BRANCH   8   9
ATOM      9  N   UNL A   1      31.090  24.302  26.616  1.00  0.00    -0.343 N 
ATOM     10  C   UNL A   1      31.383  25.123  25.549  1.00  0.00     0.243 C 
ATOM     11  O   UNL A   1      30.633  26.021  25.183  1.00  0.00    -0.273 OA
ATOM     12  H   UNL A   1      30.267  24.505  27.118  1.00  0.00     0.164 HD
BRANCH  10  13
ATOM     13  C   UNL A   1      32.634  24.732  24.817  1.00  0.00     0.177 C 
BRANCH  13  14
ATOM     14  C   UNL A   1      33.602  25.994  24.783  1.00  0.00     0.015 C 
ATOM     15  C   UNL A   1      33.425  26.930  23.583  1.00  0.00     0.010 C 
ATOM     16  C   UNL A   1      33.705  26.847  26.089  1.00  0.00     0.010 C 
ENDBRANCH  13  14
BRANCH  13  17
ATOM     17  N   UNL A   1      32.100  24.171  23.548  1.00  0.00    -0.309 N 
ATOM     18  C   UNL A   1      32.593  22.946  23.057  1.00  0.00     0.408 C 
ATOM     19  H   UNL A   1      31.402  24.656  23.051  1.00  0.00     0.167 HD
ATOM     20  O   UNL A   1      33.364  23.003  22.101  1.00  0.00    -0.225 OA
BRANCH  18  21
ATOM     21  O   UNL A   1      32.146  21.695  23.540  1.00  0.00    -0.445 OA
BRANCH  21  22
ATOM     22  C   UNL A   1      32.178  20.391  24.597  1.00  0.00     0.270 C 
BRANCH  22  23
ATOM     23  C   UNL A   1      32.612  18.863  24.537  1.00  0.00    -0.011 A 
ATOM     24  C   UNL A   1      32.670  17.992  25.652  1.00  0.00     0.007 A 
ATOM     25  C   UNL A   1      32.930  18.255  23.320  1.00  0.00     0.007 A 
ATOM     26  C   UNL A   1      33.231  16.713  25.611  1.00  0.00     0.000 A 
ATOM     27  C   UNL A   1      33.514  16.980  23.264  1.00  0.00     0.000 A 
ATOM     28  C   UNL A   1      33.704  16.224  24.413  1.00  0.00     0.000 A 
ENDBRANCH  22  23
ENDBRANCH  21  22
ENDBRANCH  18  21
ENDBRANCH  13  17
ENDBRANCH  10  13
ENDBRANCH   8   9
ENDBRANCH   6   8
ENDBRANCH   5   6
ENDBRANCH   4   5
ENDBRANCH   3   4
ENDBRANCH   2   3
ENDBRANCH   1   2
BRANCH   1  29
ATOM     29  C   UNL A   1      39.228  23.698  27.174  1.00  0.00     0.188 C 
BRANCH  29  30
ATOM     30  O   UNL A   1      39.888  24.761  27.818  1.00  0.00    -0.377 OA
BRANCH  30  31
ATOM     31  C   UNL A   1      39.472  26.069  27.466  1.00  0.00     0.188 C 
BRANCH  31  32
ATOM     32  C   UNL A   1      39.759  27.190  28.482  1.00  0.00     0.188 C 
BRANCH  32  33
ATOM     33  O   UNL A   1      38.719  28.146  28.628  1.00  0.00    -0.376 OA
BRANCH  33  34
ATOM     34  C   UNL A   1      38.410  28.622  29.931  1.00  0.00     0.202 C 
BRANCH  34  35
ATOM     35  C   UNL A   1      36.950  28.974  30.254  1.00  0.00     0.261 C 
BRANCH  35  36
ATOM     36  O   UNL A   1      36.698  29.724  31.458  1.00  0.00    -0.460 OA
BRANCH  36  37
ATOM     37  C   UNL A   1      37.334  29.394  32.607  1.00  0.00     0.338 C 
ATOM     38  O   UNL A   1      37.413  28.298  33.114  1.00  0.00    -0.246 OA
BRANCH  37  39
ATOM     39  C   UNL A   1      38.169  30.563  32.994  1.00  0.00     0.060 A 
ATOM     40  C   UNL A   1      39.484  30.337  33.436  1.00  0.00     0.016 A 
ATOM     41  C   UNL A   1      37.690  31.867  32.861  1.00  0.00     0.016 A 
ATOM     42  C   UNL A   1      40.304  31.408  33.783  1.00  0.00     0.010 A 
ATOM     43  C   UNL A   1      38.494  32.938  33.256  1.00  0.00     0.010 A 
ATOM     44  C   UNL A   1      39.786  32.707  33.761  1.00  0.00    -0.014 A 
BRANCH  44  45
ATOM     45  C   UNL A   1      40.469  33.754  34.556  1.00  0.00     0.031 A 
ATOM     46  C   UNL A   1      41.467  34.620  33.831  1.00  0.00     0.074 A 
ATOM     47  C   UNL A   1      40.192  33.963  35.855  1.00  0.00     0.049 A 
ATOM     48  N   UNL A   1      42.214  35.587  34.292  1.00  0.00    -0.248 NA
ATOM     49  C   UNL A   1      41.642  34.360  32.389  1.00  0.00     0.031 C 
ATOM     50  C   UNL A   1      39.208  33.229  36.648  1.00  0.00     0.029 A 
ATOM     51  N   UNL A   1      40.728  34.869  36.737  1.00  0.00    -0.354 N 
ATOM     52  C   UNL A   1      42.953  36.040  33.205  1.00  0.00     0.074 A 
ATOM     53  C   UNL A   1      42.581  35.235  32.065  1.00  0.00     0.031 C 
ATOM     54  C   UNL A   1      39.225  33.703  37.907  1.00  0.00     0.029 A 
ATOM     55  C   UNL A   1      40.238  34.751  38.016  1.00  0.00     0.049 A 
ATOM     56  H   UNL A   1      41.401  35.540  36.478  1.00  0.00     0.167 HD
ATOM     57  C   UNL A   1      43.861  37.038  33.159  1.00  0.00     0.031 A 
ATOM     58  C   UNL A   1      40.591  35.399  39.145  1.00  0.00     0.031 A 
ATOM     59  C   UNL A   1      44.236  37.834  34.294  1.00  0.00     0.049 A 
ATOM     60  C   UNL A   1      41.665  36.461  39.079  1.00  0.00     0.074 A 
ATOM     61  C   UNL A   1      45.134  38.884  34.345  1.00  0.00     0.029 A 
ATOM     62  N   UNL A   1      43.740  37.663  35.577  1.00  0.00    -0.354 N 
ATOM     63  N   UNL A   1      42.328  36.903  38.036  1.00  0.00    -0.248 NA
ATOM     64  C   UNL A   1      42.031  37.116  40.344  1.00  0.00     0.031 C 
ATOM     65  C   UNL A   1      45.231  39.307  35.674  1.00  0.00     0.029 A 
ATOM     66  C   UNL A   1      44.340  38.567  36.435  1.00  0.00     0.049 A 
ATOM     67  H   UNL A   1      43.064  36.997  35.838  1.00  0.00     0.167 HD
ATOM     68  C   UNL A   1      43.165  37.908  38.516  1.00  0.00     0.074 A 
ATOM     69  C   UNL A   1      42.911  38.021  39.937  1.00  0.00     0.031 C 
ATOM     70  C   UNL A   1      44.064  38.670  37.845  1.00  0.00     0.031 A 
BRANCH  57  71
ATOM     71  C   UNL A   1      44.547  37.305  31.847  1.00  0.00    -0.014 A 
ATOM     72  C   UNL A   1      45.666  36.556  31.442  1.00  0.00     0.010 A 
ATOM     73  C   UNL A   1      44.016  38.273  30.977  1.00  0.00     0.010 A 
ATOM     74  C   UNL A   1      46.245  36.778  30.189  1.00  0.00     0.020 A 
ATOM     75  C   UNL A   1      44.576  38.480  29.714  1.00  0.00     0.020 A 
ATOM     76  C   UNL A   1      45.691  37.733  29.331  1.00  0.00     0.054 A 
BRANCH  76  77
ATOM     77  S   UNL A   1      46.419  37.947  27.684  1.00  0.00     0.124 S 
ATOM     78  O   UNL A   1      45.825  36.837  26.944  1.00  0.00    -0.237 OA
ATOM     79  O   UNL A   1      45.954  39.278  27.301  1.00  0.00    -0.237 OA
ATOM     80  O   UNL A   1      47.856  37.837  27.922  1.00  0.00    -0.744 OA
ENDBRANCH  76  77
ENDBRANCH  57  71
BRANCH  58  81
ATOM     81  C   UNL A   1      39.967  35.042  40.451  1.00  0.00    -0.014 A 
ATOM     82  C   UNL A   1      40.599  34.155  41.340  1.00  0.00     0.010 A 
ATOM     83  C   UNL A   1      38.697  35.550  40.787  1.00  0.00     0.010 A 
ATOM     84  C   UNL A   1      39.958  33.751  42.517  1.00  0.00     0.020 A 
ATOM     85  C   UNL A   1      38.067  35.174  41.977  1.00  0.00     0.020 A 
ATOM     86  C   UNL A   1      38.694  34.260  42.825  1.00  0.00     0.054 A 
BRANCH  86  87
ATOM     87  S   UNL A   1      37.881  33.727  44.358  1.00  0.00     0.124 S 
ATOM     88  O   UNL A   1      36.592  33.250  43.866  1.00  0.00    -0.237 OA
ATOM     89  O   UNL A   1      38.789  32.698  44.855  1.00  0.00    -0.237 OA
ATOM     90  O   UNL A   1      37.833  34.947  45.162  1.00  0.00    -0.744 OA
ENDBRANCH  86  87
ENDBRANCH  58  81
BRANCH  70  91
ATOM     91  C   UNL A   1      44.807  39.726  38.621  1.00  0.00    -0.014 A 
ATOM     92  C   UNL A   1      45.913  39.403  39.425  1.00  0.00     0.010 A 
ATOM     93  C   UNL A   1      44.427  41.076  38.487  1.00  0.00     0.010 A 
ATOM     94  C   UNL A   1      46.603  40.406  40.113  1.00  0.00     0.020 A 
ATOM     95  C   UNL A   1      45.135  42.084  39.147  1.00  0.00     0.020 A 
ATOM     96  C   UNL A   1      46.210  41.740  39.968  1.00  0.00     0.054 A 
BRANCH  96  97
ATOM     97  S   UNL A   1      47.146  43.026  40.840  1.00  0.00     0.124 S 
ATOM     98  O   UNL A   1      46.213  43.422  41.891  1.00  0.00    -0.237 OA
ATOM     99  O   UNL A   1      48.335  42.306  41.292  1.00  0.00    -0.237 OA
ATOM    100  O   UNL A   1      47.390  44.035  39.812  1.00  0.00    -0.744 OA
ENDBRANCH  96  97
ENDBRANCH  70  91
ENDBRANCH  44  45
ENDBRANCH  37  39
ENDBRANCH  36  37
ENDBRANCH  35  36
ENDBRANCH  34  35
ENDBRANCH  33  34
ENDBRANCH  32  33
ENDBRANCH  31  32
ENDBRANCH  30  31
ENDBRANCH  29  30
ENDBRANCH   1  29
TORSDOF 30
ENDMDL
MODEL 3
REMARK VINA RESULT:      -8.0      2.007      3.401
REMARK SMILES CC(C)[C@H](NC(=O)OCc1ccccc1)C(=O)NCC(=O)OCCOCCOCCOCCOC(=O)c1ccc(-c2c3nc(c(-c4ccc(S(=O)(=O)[O-])cc4)c4ccc([nH]4)c(-c4ccc(S(=O)(=O)[O-])cc4)c4nc(c(-c5ccc(S(=O)(=O)[O-])cc5)c5ccc2[nH]5)C=C4)C=C3)cc1
REMARK SMILES IDX 26 1 25 2 24 3 23 4 22 5 20 6 21 7 19 8 18 9 16 10 17 11
REMARK SMILES IDX 4 13 2 14 1 15 3 16 5 17 6 18 7 20 8 21 9 22 10 23 11 24
REMARK SMILES IDX 15 25 12 26 14 27 13 28 27 29 28 30 29 31 30 32 31 33 32 34
REMARK SMILES IDX 33 35 34 36 35 37 36 38 37 39 38 40 96 41 39 42 95 43 40 44
REMARK SMILES IDX 41 45 42 46 89 47 43 48 94 49 88 50 90 51 44 52 93 53 87 54
REMARK SMILES IDX 86 55 45 57 75 58 56 59 74 60 57 61 60 62 73 63 91 64 58 65
REMARK SMILES IDX 59 66 72 68 92 69 61 70 46 71 47 72 55 73 48 74 54 75 49 76
REMARK SMILES IDX 50 77 51 78 52 79 53 80 76 81 77 82 85 83 78 84 84 85 79 86
REMARK SMILES IDX 80 87 81 88 82 89 83 90 62 91 63 92 71 93 64 94 70 95 65 96
REMARK SMILES IDX 66 97 67 98 68 99 69 100
REMARK H PARENT 18 12 5 19 90 56 60 67
REMARK Flexibility Score: inf
ROOT
ATOM      1  C   UNL A   1      39.376  25.231  28.151  1.00  0.00     0.188 C 
ENDROOT
BRANCH   1   2
ATOM      2  O   UNL A   1      40.088  23.961  28.198  1.00  0.00    -0.376 OA
BRANCH   2   3
ATOM      3  C   UNL A   1      40.710  23.239  27.095  1.00  0.00     0.202 C 
BRANCH   3   4
ATOM      4  C   UNL A   1      40.027  21.957  26.270  1.00  0.00     0.261 C 
BRANCH   4   5
ATOM      5  O   UNL A   1      38.494  21.675  25.762  1.00  0.00    -0.462 OA
BRANCH   5   6
ATOM      6  C   UNL A   1      37.301  21.618  25.097  1.00  0.00     0.325 C 
ATOM      7  O   UNL A   1      37.335  21.788  23.868  1.00  0.00    -0.250 OA
BRANCH   6   8
ATOM      8  C   UNL A   1      35.760  21.216  25.679  1.00  0.00     0.238 C 
BRANCH   8   9
ATOM      9  N   UNL A   1      34.885  21.466  26.904  1.00  0.00    -0.343 N 
ATOM     10  C   UNL A   1      33.524  21.680  26.914  1.00  0.00     0.243 C 
ATOM     11  O   UNL A   1      32.883  21.805  27.952  1.00  0.00    -0.273 OA
ATOM     12  H   UNL A   1      35.340  21.475  27.777  1.00  0.00     0.164 HD
BRANCH  10  13
ATOM     13  C   UNL A   1      32.897  21.620  25.550  1.00  0.00     0.177 C 
BRANCH  13  14
ATOM     14  C   UNL A   1      33.129  20.160  24.963  1.00  0.00     0.015 C 
ATOM     15  C   UNL A   1      32.782  19.004  25.908  1.00  0.00     0.010 C 
ATOM     16  C   UNL A   1      32.540  19.859  23.546  1.00  0.00     0.010 C 
ENDBRANCH  13  14
BRANCH  13  17
ATOM     17  N   UNL A   1      33.496  22.798  24.871  1.00  0.00    -0.309 N 
ATOM     18  C   UNL A   1      32.872  23.348  23.734  1.00  0.00     0.408 C 
ATOM     19  H   UNL A   1      34.329  23.194  25.216  1.00  0.00     0.167 HD
ATOM     20  O   UNL A   1      33.394  23.108  22.646  1.00  0.00    -0.225 OA
BRANCH  18  21
ATOM     21  O   UNL A   1      31.774  24.234  23.818  1.00  0.00    -0.445 OA
BRANCH  21  22
ATOM     22  C   UNL A   1      30.863  25.435  24.556  1.00  0.00     0.270 C 
BRANCH  22  23
ATOM     23  C   UNL A   1      30.410  26.919  24.214  1.00  0.00    -0.011 A 
ATOM     24  C   UNL A   1      29.249  27.265  23.482  1.00  0.00     0.007 A 
ATOM     25  C   UNL A   1      31.141  28.016  24.677  1.00  0.00     0.007 A 
ATOM     26  C   UNL A   1      28.969  28.559  23.032  1.00  0.00     0.000 A 
ATOM     27  C   UNL A   1      30.887  29.318  24.218  1.00  0.00     0.000 A 
ATOM     28  C   UNL A   1      29.826  29.585  23.362  1.00  0.00     0.000 A 
ENDBRANCH  22  23
ENDBRANCH  21  22
ENDBRANCH  18  21
ENDBRANCH  13  17
ENDBRANCH  10  13
ENDBRANCH   8   9
ENDBRANCH   6   8
ENDBRANCH   5   6
ENDBRANCH   4   5
ENDBRANCH   3   4
ENDBRANCH   2   3
ENDBRANCH   1   2
BRANCH   1  29
ATOM     29  C   UNL A   1      39.885  26.536  28.837  1.00  0.00     0.188 C 
BRANCH  29  30
ATOM     30  O   UNL A   1      40.928  27.225  28.190  1.00  0.00    -0.377 OA
BRANCH  30  31
ATOM     31  C   UNL A   1      40.652  27.709  26.887  1.00  0.00     0.188 C 
BRANCH  31  32
ATOM     32  C   UNL A   1      41.172  26.870  25.705  1.00  0.00     0.188 C 
BRANCH  32  33
ATOM     33  O   UNL A   1      42.379  26.164  25.956  1.00  0.00    -0.376 OA
BRANCH  33  34
ATOM     34  C   UNL A   1      43.605  26.882  25.934  1.00  0.00     0.202 C 
BRANCH  34  35
ATOM     35  C   UNL A   1      44.866  26.192  26.475  1.00  0.00     0.261 C 
BRANCH  35  36
ATOM     36  O   UNL A   1      44.686  25.148  27.451  1.00  0.00    -0.460 OA
BRANCH  36  37
ATOM     37  C   UNL A   1      45.690  24.838  28.305  1.00  0.00     0.338 C 
ATOM     38  O   UNL A   1      46.717  24.252  28.048  1.00  0.00    -0.246 OA
BRANCH  37  39
ATOM     39  C   UNL A   1      45.445  25.598  29.561  1.00  0.00     0.060 A 
ATOM     40  C   UNL A   1      44.519  25.091  30.487  1.00  0.00     0.016 A 
ATOM     41  C   UNL A   1      46.165  26.757  29.853  1.00  0.00     0.016 A 
ATOM     42  C   UNL A   1      44.281  25.761  31.684  1.00  0.00     0.010 A 
ATOM     43  C   UNL A   1      45.892  27.457  31.031  1.00  0.00     0.010 A 
ATOM     44  C   UNL A   1      44.916  26.984  31.926  1.00  0.00    -0.014 A 
BRANCH  44  45
ATOM     45  C   UNL A   1      44.327  27.899  32.931  1.00  0.00     0.031 A 
ATOM     46  C   UNL A   1      43.034  28.579  32.562  1.00  0.00     0.074 A 
ATOM     47  C   UNL A   1      44.885  28.092  34.140  1.00  0.00     0.049 A 
ATOM     48  N   UNL A   1      42.325  29.438  33.244  1.00  0.00    -0.248 NA
ATOM     49  C   UNL A   1      42.464  28.242  31.244  1.00  0.00     0.031 C 
ATOM     50  C   UNL A   1      46.101  27.448  34.631  1.00  0.00     0.029 A 
ATOM     51  N   UNL A   1      44.488  28.899  35.177  1.00  0.00    -0.354 N 
ATOM     52  C   UNL A   1      41.237  29.751  32.437  1.00  0.00     0.074 A 
ATOM     53  C   UNL A   1      41.385  29.006  31.208  1.00  0.00     0.031 C 
ATOM     54  C   UNL A   1      46.361  27.901  35.872  1.00  0.00     0.029 A 
ATOM     55  C   UNL A   1      45.348  28.886  36.248  1.00  0.00     0.049 A 
ATOM     56  H   UNL A   1      43.664  29.438  35.154  1.00  0.00     0.167 HD
ATOM     57  C   UNL A   1      40.206  30.584  32.696  1.00  0.00     0.031 A 
ATOM     58  C   UNL A   1      45.330  29.609  37.387  1.00  0.00     0.031 A 
ATOM     59  C   UNL A   1      40.064  31.328  33.915  1.00  0.00     0.049 A 
ATOM     60  C   UNL A   1      44.204  30.590  37.617  1.00  0.00     0.074 A 
ATOM     61  C   UNL A   1      39.042  32.186  34.281  1.00  0.00     0.029 A 
ATOM     62  N   UNL A   1      40.972  31.312  34.961  1.00  0.00    -0.354 N 
ATOM     63  N   UNL A   1      43.162  30.847  36.861  1.00  0.00    -0.248 NA
ATOM     64  C   UNL A   1      44.248  31.373  38.862  1.00  0.00     0.031 C 
ATOM     65  C   UNL A   1      39.365  32.738  35.524  1.00  0.00     0.029 A 
ATOM     66  C   UNL A   1      40.551  32.170  35.960  1.00  0.00     0.049 A 
ATOM     67  H   UNL A   1      41.794  30.770  34.989  1.00  0.00     0.167 HD
ATOM     68  C   UNL A   1      42.413  31.796  37.553  1.00  0.00     0.074 A 
ATOM     69  C   UNL A   1      43.111  32.053  38.796  1.00  0.00     0.031 C 
ATOM     70  C   UNL A   1      41.254  32.403  37.196  1.00  0.00     0.031 A 
BRANCH  57  71
ATOM     71  C   UNL A   1      39.166  30.769  31.625  1.00  0.00    -0.014 A 
ATOM     72  C   UNL A   1      37.995  29.992  31.602  1.00  0.00     0.010 A 
ATOM     73  C   UNL A   1      39.335  31.788  30.670  1.00  0.00     0.010 A 
ATOM     74  C   UNL A   1      37.012  30.228  30.636  1.00  0.00     0.020 A 
ATOM     75  C   UNL A   1      38.344  32.043  29.719  1.00  0.00     0.020 A 
ATOM     76  C   UNL A   1      37.191  31.257  29.706  1.00  0.00     0.054 A 
BRANCH  76  77
ATOM     77  S   UNL A   1      35.867  31.587  28.511  1.00  0.00     0.124 S 
ATOM     78  O   UNL A   1      34.727  31.846  29.386  1.00  0.00    -0.237 OA
ATOM     79  O   UNL A   1      36.377  32.748  27.784  1.00  0.00    -0.237 OA
ATOM     80  O   UNL A   1      35.786  30.354  27.732  1.00  0.00    -0.744 OA
ENDBRANCH  76  77
ENDBRANCH  57  71
BRANCH  58  81
ATOM     81  C   UNL A   1      46.430  29.480  38.385  1.00  0.00    -0.014 A 
ATOM     82  C   UNL A   1      47.608  30.241  38.271  1.00  0.00     0.010 A 
ATOM     83  C   UNL A   1      46.325  28.544  39.432  1.00  0.00     0.010 A 
ATOM     84  C   UNL A   1      48.673  30.039  39.157  1.00  0.00     0.020 A 
ATOM     85  C   UNL A   1      47.373  28.363  40.338  1.00  0.00     0.020 A 
ATOM     86  C   UNL A   1      48.550  29.097  40.182  1.00  0.00     0.054 A 
BRANCH  86  87
ATOM     87  S   UNL A   1      49.940  28.854  41.323  1.00  0.00     0.124 S 
ATOM     88  O   UNL A   1      51.081  28.852  40.412  1.00  0.00    -0.237 OA
ATOM     89  O   UNL A   1      49.834  30.014  42.202  1.00  0.00    -0.237 OA
ATOM     90  O   UNL A   1      49.642  27.570  41.956  1.00  0.00    -0.744 OA
ENDBRANCH  86  87
ENDBRANCH  58  81
BRANCH  70  91
ATOM     91  C   UNL A   1      40.637  33.367  38.174  1.00  0.00    -0.014 A 
ATOM     92  C   UNL A   1      39.781  32.925  39.198  1.00  0.00     0.010 A 
ATOM     93  C   UNL A   1      40.975  34.733  38.106  1.00  0.00     0.010 A 
ATOM     94  C   UNL A   1      39.244  33.836  40.113  1.00  0.00     0.020 A 
ATOM     95  C   UNL A   1      40.466  35.641  39.037  1.00  0.00     0.020 A 
ATOM     96  C   UNL A   1      39.591  35.189  40.026  1.00  0.00     0.054 A 
BRANCH  96  97
ATOM     97  S   UNL A   1      38.911  36.344  41.247  1.00  0.00     0.124 S 
ATOM     98  O   UNL A   1      40.037  36.520  42.159  1.00  0.00    -0.237 OA
ATOM     99  O   UNL A   1      38.573  37.509  40.432  1.00  0.00    -0.237 OA
ATOM    100  O   UNL A   1      37.765  35.628  41.803  1.00  0.00    -0.744 OA
ENDBRANCH  96  97
ENDBRANCH  70  91
ENDBRANCH  44  45
ENDBRANCH  37  39
ENDBRANCH  36  37
ENDBRANCH  35  36
ENDBRANCH  34  35
ENDBRANCH  33  34
ENDBRANCH  32  33
ENDBRANCH  31  32
ENDBRANCH  30  31
ENDBRANCH  29  30
ENDBRANCH   1  29
TORSDOF 30
ENDMDL
