MODEL 1
REMARK VINA RESULT:      -9.6      0.000      0.000
REMARK SMILES Cc1ccc(S(=O)(=O)n2cc(C(=O)C(=O)N[C@@H](Cc3c[nH]c4ccccc34)C(=O)NCC(=O)OCCOCCOCCOCCOC(=O)c3ccc(-c4c5nc(c(-c6ccc(S(=O)(=O)[O-])cc6)c6ccc([nH]6)c(-c6ccc(S(=O)(=O)[O-])cc6)c6nc(c(-c7ccc(S(=O)(=O)[O-])cc7)c7ccc4[nH]7)C=C6)C=C5)cc3)c3ccccc32)cc1
REMARK SMILES IDX 38 1 37 2 36 3 35 4 34 5 32 6 33 7 31 8 30 9 28 10 29 11
REMARK SMILES IDX 17 13 16 14 14 15 15 16 12 18 13 19 11 20 9 21 10 22 114 23
REMARK SMILES IDX 109 24 113 25 110 26 112 27 111 28 6 29 7 30 8 31 5 32 1 33
REMARK SMILES IDX 2 34 3 35 116 36 4 37 115 38 18 39 19 40 20 41 27 42 21 43
REMARK SMILES IDX 22 44 26 45 23 47 25 48 24 49 39 50 40 51 41 52 42 53 43 54
REMARK SMILES IDX 44 55 45 56 46 57 47 58 48 59 49 60 50 61 108 62 51 63
REMARK SMILES IDX 107 64 52 65 53 66 54 67 101 68 55 69 106 70 100 71 102 72
REMARK SMILES IDX 56 73 105 74 99 75 98 76 57 78 87 79 68 80 86 81 69 82 72 83
REMARK SMILES IDX 85 84 103 85 70 86 71 87 84 89 104 90 73 91 58 92 59 93
REMARK SMILES IDX 67 94 60 95 66 96 61 97 62 98 63 99 64 100 65 101 88 102
REMARK SMILES IDX 89 103 97 104 90 105 96 106 91 107 92 108 93 109 94 110
REMARK SMILES IDX 95 111 74 112 75 113 83 114 76 115 82 116 77 117 78 118
REMARK SMILES IDX 79 119 80 120 81 121
REMARK H PARENT 30 12 16 17 21 46 102 77 72 88
REMARK Flexibility Score: inf
ROOT
ATOM      1  C   UNL A   1      38.848  21.284  26.073  1.00  0.00     0.188 C 
ENDROOT
BRANCH   1   2
ATOM      2  O   UNL A   1      38.137  22.457  25.696  1.00  0.00    -0.376 OA
BRANCH   2   3
ATOM      3  C   UNL A   1      36.750  22.551  26.046  1.00  0.00     0.202 C 
BRANCH   3   4
ATOM      4  C   UNL A   1      36.027  23.850  25.675  1.00  0.00     0.261 C 
BRANCH   4   5
ATOM      5  O   UNL A   1      34.616  23.587  25.669  1.00  0.00    -0.462 OA
BRANCH   5   6
ATOM      6  C   UNL A   1      33.900  24.205  24.727  1.00  0.00     0.325 C 
ATOM      7  O   UNL A   1      33.238  23.646  23.854  1.00  0.00    -0.250 OA
BRANCH   6   8
ATOM      8  C   UNL A   1      34.019  25.712  24.811  1.00  0.00     0.238 C 
BRANCH   8   9
ATOM      9  N   UNL A   1      34.054  26.700  23.767  1.00  0.00    -0.343 N 
ATOM     10  C   UNL A   1      33.856  28.025  24.096  1.00  0.00     0.243 C 
ATOM     11  O   UNL A   1      34.717  28.853  23.788  1.00  0.00    -0.273 OA
ATOM     12  H   UNL A   1      34.215  26.435  22.833  1.00  0.00     0.164 HD
BRANCH  10  13
ATOM     13  C   UNL A   1      32.629  28.441  24.979  1.00  0.00     0.176 C 
BRANCH  13  14
ATOM     14  N   UNL A   1      32.768  29.833  25.477  1.00  0.00    -0.337 N 
ATOM     15  C   UNL A   1      33.379  30.344  26.620  1.00  0.00     0.293 C 
ATOM     16  O   UNL A   1      33.265  31.530  26.920  1.00  0.00    -0.265 OA
ATOM     17  H   UNL A   1      32.354  30.514  24.899  1.00  0.00     0.164 HD
BRANCH  15  18
ATOM     18  C   UNL A   1      34.231  29.454  27.532  1.00  0.00     0.252 C 
ATOM     19  O   UNL A   1      33.669  28.473  28.017  1.00  0.00    -0.283 OA
BRANCH  18  20
ATOM     20  C   UNL A   1      35.594  29.834  27.954  1.00  0.00     0.054 A 
ATOM     21  N   UNL A   1      37.817  30.125  28.283  1.00  0.00    -0.240 N 
ATOM     22  C   UNL A   1      36.855  29.224  27.818  1.00  0.00     0.117 A 
ATOM     23  C   UNL A   1      37.148  31.330  28.569  1.00  0.00     0.065 A 
ATOM     24  C   UNL A   1      35.823  30.972  28.775  1.00  0.00     0.012 A 
ATOM     25  C   UNL A   1      37.642  32.583  28.981  1.00  0.00     0.028 A 
ATOM     26  C   UNL A   1      35.029  31.773  29.620  1.00  0.00     0.011 A 
ATOM     27  C   UNL A   1      36.873  33.312  29.885  1.00  0.00     0.002 A 
ATOM     28  C   UNL A   1      35.602  32.885  30.242  1.00  0.00     0.001 A 
BRANCH  21  29
ATOM     29  S   UNL A   1      39.124  29.887  29.415  1.00  0.00     0.268 S 
ATOM     30  O   UNL A   1      40.289  29.802  28.546  1.00  0.00    -0.201 OA
ATOM     31  O   UNL A   1      38.643  28.708  30.130  1.00  0.00    -0.201 OA
BRANCH  29  32
ATOM     32  C   UNL A   1      39.691  30.830  30.781  1.00  0.00     0.088 A 
ATOM     33  C   UNL A   1      42.176  32.995  33.589  1.00  0.00     0.044 C 
ATOM     34  C   UNL A   1      41.255  32.298  32.628  1.00  0.00    -0.051 A 
ATOM     35  C   UNL A   1      41.686  32.182  31.317  1.00  0.00     0.005 A 
ATOM     36  C   UNL A   1      40.018  31.714  32.994  1.00  0.00     0.005 A 
ATOM     37  C   UNL A   1      40.907  31.478  30.419  1.00  0.00     0.022 A 
ATOM     38  C   UNL A   1      39.225  30.970  32.075  1.00  0.00     0.022 A 
ENDBRANCH  29  32
ENDBRANCH  21  29
ENDBRANCH  18  20
ENDBRANCH  15  18
ENDBRANCH  13  14
BRANCH  13  39
ATOM     39  C   UNL A   1      31.196  28.030  24.413  1.00  0.00     0.072 C 
BRANCH  39  40
ATOM     40  C   UNL A   1      30.664  28.627  23.116  1.00  0.00    -0.020 A 
ATOM     41  C   UNL A   1      31.339  29.429  22.201  1.00  0.00     0.087 A 
ATOM     42  C   UNL A   1      29.290  28.635  22.702  1.00  0.00     0.003 A 
ATOM     43  N   UNL A   1      30.398  30.110  21.450  1.00  0.00    -0.361 N 
ATOM     44  C   UNL A   1      29.149  29.789  21.930  1.00  0.00     0.046 A 
ATOM     45  C   UNL A   1      28.147  28.017  23.236  1.00  0.00     0.010 A 
ATOM     46  H   UNL A   1      30.590  30.720  20.701  1.00  0.00     0.166 HD
ATOM     47  C   UNL A   1      27.981  30.542  21.933  1.00  0.00     0.026 A 
ATOM     48  C   UNL A   1      27.029  28.822  23.390  1.00  0.00     0.001 A 
ATOM     49  C   UNL A   1      27.027  30.093  22.839  1.00  0.00     0.002 A 
ENDBRANCH  39  40
ENDBRANCH  13  39
ENDBRANCH  10  13
ENDBRANCH   8   9
ENDBRANCH   6   8
ENDBRANCH   5   6
ENDBRANCH   4   5
ENDBRANCH   3   4
ENDBRANCH   2   3
ENDBRANCH   1   2
BRANCH   1  50
ATOM     50  C   UNL A   1      40.386  21.293  26.106  1.00  0.00     0.188 C 
BRANCH  50  51
ATOM     51  O   UNL A   1      40.977  20.034  25.821  1.00  0.00    -0.377 OA
BRANCH  51  52
ATOM     52  C   UNL A   1      42.067  19.699  26.690  1.00  0.00     0.188 C 
BRANCH  52  53
ATOM     53  C   UNL A   1      42.852  18.420  26.340  1.00  0.00     0.188 C 
BRANCH  53  54
ATOM     54  O   UNL A   1      43.522  18.457  25.081  1.00  0.00    -0.376 OA
BRANCH  54  55
ATOM     55  C   UNL A   1      44.853  18.965  25.038  1.00  0.00     0.202 C 
BRANCH  55  56
ATOM     56  C   UNL A   1      45.115  20.151  24.099  1.00  0.00     0.261 C 
BRANCH  56  57
ATOM     57  O   UNL A   1      44.144  21.206  24.246  1.00  0.00    -0.460 OA
BRANCH  57  58
ATOM     58  C   UNL A   1      44.654  22.446  24.528  1.00  0.00     0.338 C 
ATOM     59  O   UNL A   1      45.137  23.178  23.702  1.00  0.00    -0.246 OA
BRANCH  58  60
ATOM     60  C   UNL A   1      44.404  22.802  25.952  1.00  0.00     0.060 A 
ATOM     61  C   UNL A   1      43.205  23.411  26.345  1.00  0.00     0.016 A 
ATOM     62  C   UNL A   1      45.443  22.672  26.861  1.00  0.00     0.016 A 
ATOM     63  C   UNL A   1      43.107  24.036  27.600  1.00  0.00     0.010 A 
ATOM     64  C   UNL A   1      45.382  23.379  28.042  1.00  0.00     0.010 A 
ATOM     65  C   UNL A   1      44.230  24.087  28.428  1.00  0.00    -0.014 A 
BRANCH  65  66
ATOM     66  C   UNL A   1      44.434  24.990  29.579  1.00  0.00     0.031 A 
ATOM     67  C   UNL A   1      44.271  24.442  30.985  1.00  0.00     0.074 A 
ATOM     68  C   UNL A   1      45.200  26.087  29.367  1.00  0.00     0.049 A 
ATOM     69  N   UNL A   1      44.715  24.982  32.073  1.00  0.00    -0.248 NA
ATOM     70  C   UNL A   1      43.554  23.192  31.269  1.00  0.00     0.031 C 
ATOM     71  C   UNL A   1      46.273  26.499  30.258  1.00  0.00     0.029 A 
ATOM     72  N   UNL A   1      45.360  26.961  28.308  1.00  0.00    -0.354 N 
ATOM     73  C   UNL A   1      44.556  24.090  33.122  1.00  0.00     0.074 A 
ATOM     74  C   UNL A   1      43.815  22.991  32.566  1.00  0.00     0.031 C 
ATOM     75  C   UNL A   1      46.947  27.538  29.760  1.00  0.00     0.029 A 
ATOM     76  C   UNL A   1      46.159  28.053  28.683  1.00  0.00     0.049 A 
ATOM     77  H   UNL A   1      44.969  26.834  27.414  1.00  0.00     0.167 HD
ATOM     78  C   UNL A   1      45.109  24.352  34.344  1.00  0.00     0.031 A 
ATOM     79  C   UNL A   1      45.659  29.319  28.775  1.00  0.00     0.031 A 
ATOM     80  C   UNL A   1      45.560  25.748  34.477  1.00  0.00     0.049 A 
ATOM     81  C   UNL A   1      45.390  29.791  30.216  1.00  0.00     0.074 A 
ATOM     82  C   UNL A   1      46.608  26.355  35.136  1.00  0.00     0.029 A 
ATOM     83  N   UNL A   1      44.867  26.788  33.830  1.00  0.00    -0.354 N 
ATOM     84  N   UNL A   1      45.347  29.014  31.286  1.00  0.00    -0.248 NA
ATOM     85  C   UNL A   1      45.190  31.195  30.563  1.00  0.00     0.031 C 
ATOM     86  C   UNL A   1      46.417  27.747  35.027  1.00  0.00     0.029 A 
ATOM     87  C   UNL A   1      45.440  28.010  34.080  1.00  0.00     0.049 A 
ATOM     88  H   UNL A   1      44.069  26.655  33.268  1.00  0.00     0.167 HD
ATOM     89  C   UNL A   1      45.053  29.762  32.404  1.00  0.00     0.074 A 
ATOM     90  C   UNL A   1      45.019  31.125  31.894  1.00  0.00     0.031 C 
ATOM     91  C   UNL A   1      44.840  29.279  33.675  1.00  0.00     0.031 A 
BRANCH  78  92
ATOM     92  C   UNL A   1      45.352  23.316  35.468  1.00  0.00    -0.014 A 
ATOM     93  C   UNL A   1      45.528  23.758  36.804  1.00  0.00     0.010 A 
ATOM     94  C   UNL A   1      45.557  21.932  35.280  1.00  0.00     0.010 A 
ATOM     95  C   UNL A   1      45.979  22.926  37.846  1.00  0.00     0.020 A 
ATOM     96  C   UNL A   1      45.941  21.066  36.335  1.00  0.00     0.020 A 
ATOM     97  C   UNL A   1      46.193  21.578  37.605  1.00  0.00     0.054 A 
BRANCH  97  98
ATOM     98  S   UNL A   1      46.764  20.518  38.968  1.00  0.00     0.124 S 
ATOM     99  O   UNL A   1      48.042  21.130  39.324  1.00  0.00    -0.237 OA
ATOM    100  O   UNL A   1      45.702  20.664  39.961  1.00  0.00    -0.237 OA
ATOM    101  O   UNL A   1      46.857  19.194  38.358  1.00  0.00    -0.744 OA
ENDBRANCH  97  98
ENDBRANCH  78  92
BRANCH  79 102
ATOM    102  C   UNL A   1      45.211  29.811  27.424  1.00  0.00    -0.014 A 
ATOM    103  C   UNL A   1      44.043  30.616  27.493  1.00  0.00     0.010 A 
ATOM    104  C   UNL A   1      46.221  30.209  26.525  1.00  0.00     0.010 A 
ATOM    105  C   UNL A   1      44.077  31.946  27.052  1.00  0.00     0.020 A 
ATOM    106  C   UNL A   1      46.253  31.540  26.068  1.00  0.00     0.020 A 
ATOM    107  C   UNL A   1      45.228  32.424  26.429  1.00  0.00     0.054 A 
BRANCH 107 108
ATOM    108  S   UNL A   1      45.555  34.223  26.471  1.00  0.00     0.124 S 
ATOM    109  O   UNL A   1      46.004  34.434  27.842  1.00  0.00    -0.237 OA
ATOM    110  O   UNL A   1      46.567  34.396  25.429  1.00  0.00    -0.237 OA
ATOM    111  O   UNL A   1      44.254  34.794  26.135  1.00  0.00    -0.744 OA
ENDBRANCH 107 108
ENDBRANCH  79 102
BRANCH  91 112
ATOM    112  C   UNL A   1      44.120  30.042  34.785  1.00  0.00    -0.014 A 
ATOM    113  C   UNL A   1      42.878  29.676  35.317  1.00  0.00     0.010 A 
ATOM    114  C   UNL A   1      44.787  31.108  35.448  1.00  0.00     0.010 A 
ATOM    115  C   UNL A   1      42.288  30.401  36.362  1.00  0.00     0.020 A 
ATOM    116  C   UNL A   1      44.223  31.827  36.501  1.00  0.00     0.020 A 
ATOM    117  C   UNL A   1      42.958  31.480  36.937  1.00  0.00     0.054 A 
BRANCH 117 118
ATOM    118  S   UNL A   1      42.195  32.363  38.314  1.00  0.00     0.124 S 
ATOM    119  O   UNL A   1      40.788  32.369  37.923  1.00  0.00    -0.237 OA
ATOM    120  O   UNL A   1      42.526  31.512  39.455  1.00  0.00    -0.237 OA
ATOM    121  O   UNL A   1      42.855  33.666  38.303  1.00  0.00    -0.744 OA
ENDBRANCH 117 118
ENDBRANCH  91 112
ENDBRANCH  65  66
ENDBRANCH  58  60
ENDBRANCH  57  58
ENDBRANCH  56  57
ENDBRANCH  55  56
ENDBRANCH  54  55
ENDBRANCH  53  54
ENDBRANCH  52  53
ENDBRANCH  51  52
ENDBRANCH  50  51
ENDBRANCH   1  50
TORSDOF 32
ENDMDL
MODEL 2
REMARK VINA RESULT:      -9.3      1.908      2.695
REMARK SMILES Cc1ccc(S(=O)(=O)n2cc(C(=O)C(=O)N[C@@H](Cc3c[nH]c4ccccc34)C(=O)NCC(=O)OCCOCCOCCOCCOC(=O)c3ccc(-c4c5nc(c(-c6ccc(S(=O)(=O)[O-])cc6)c6ccc([nH]6)c(-c6ccc(S(=O)(=O)[O-])cc6)c6nc(c(-c7ccc(S(=O)(=O)[O-])cc7)c7ccc4[nH]7)C=C6)C=C5)cc3)c3ccccc32)cc1
REMARK SMILES IDX 38 1 37 2 36 3 35 4 34 5 32 6 33 7 31 8 30 9 28 10 29 11
REMARK SMILES IDX 17 13 16 14 14 15 15 16 12 18 13 19 11 20 9 21 10 22 114 23
REMARK SMILES IDX 109 24 113 25 110 26 112 27 111 28 6 29 7 30 8 31 5 32 1 33
REMARK SMILES IDX 2 34 3 35 116 36 4 37 115 38 18 39 19 40 20 41 27 42 21 43
REMARK SMILES IDX 22 44 26 45 23 47 25 48 24 49 39 50 40 51 41 52 42 53 43 54
REMARK SMILES IDX 44 55 45 56 46 57 47 58 48 59 49 60 50 61 108 62 51 63
REMARK SMILES IDX 107 64 52 65 53 66 54 67 101 68 55 69 106 70 100 71 102 72
REMARK SMILES IDX 56 73 105 74 99 75 98 76 57 78 87 79 68 80 86 81 69 82 72 83
REMARK SMILES IDX 85 84 103 85 70 86 71 87 84 89 104 90 73 91 58 92 59 93
REMARK SMILES IDX 67 94 60 95 66 96 61 97 62 98 63 99 64 100 65 101 88 102
REMARK SMILES IDX 89 103 97 104 90 105 96 106 91 107 92 108 93 109 94 110
REMARK SMILES IDX 95 111 74 112 75 113 83 114 76 115 82 116 77 117 78 118
REMARK SMILES IDX 79 119 80 120 81 121
REMARK H PARENT 30 12 16 17 21 46 102 77 72 88
REMARK Flexibility Score: inf
ROOT
ATOM      1  C   UNL A   1      37.171  21.271  25.399  1.00  0.00     0.188 C 
ENDROOT
BRANCH   1   2
ATOM      2  O   UNL A   1      36.282  22.270  25.887  1.00  0.00    -0.376 OA
BRANCH   2   3
ATOM      3  C   UNL A   1      35.754  23.220  24.953  1.00  0.00     0.202 C 
BRANCH   3   4
ATOM      4  C   UNL A   1      35.138  22.661  23.666  1.00  0.00     0.261 C 
BRANCH   4   5
ATOM      5  O   UNL A   1      33.895  23.342  23.436  1.00  0.00    -0.462 OA
BRANCH   5   6
ATOM      6  C   UNL A   1      32.920  23.114  24.318  1.00  0.00     0.325 C 
ATOM      7  O   UNL A   1      32.627  22.016  24.788  1.00  0.00    -0.250 OA
BRANCH   6   8
ATOM      8  C   UNL A   1      32.154  24.373  24.665  1.00  0.00     0.238 C 
BRANCH   8   9
ATOM      9  N   UNL A   1      31.879  24.969  25.944  1.00  0.00    -0.343 N 
ATOM     10  C   UNL A   1      30.946  25.982  26.021  1.00  0.00     0.243 C 
ATOM     11  O   UNL A   1      29.989  25.856  26.789  1.00  0.00    -0.273 OA
ATOM     12  H   UNL A   1      32.350  24.660  26.752  1.00  0.00     0.164 HD
BRANCH  10  13
ATOM     13  C   UNL A   1      31.026  27.201  25.038  1.00  0.00     0.176 C 
BRANCH  13  14
ATOM     14  N   UNL A   1      32.407  27.396  24.530  1.00  0.00    -0.337 N 
ATOM     15  C   UNL A   1      33.382  28.338  24.852  1.00  0.00     0.293 C 
ATOM     16  O   UNL A   1      34.427  28.410  24.211  1.00  0.00    -0.265 OA
ATOM     17  H   UNL A   1      32.682  26.746  23.844  1.00  0.00     0.164 HD
BRANCH  15  18
ATOM     18  C   UNL A   1      33.195  29.306  26.027  1.00  0.00     0.252 C 
ATOM     19  O   UNL A   1      32.090  29.834  26.127  1.00  0.00    -0.283 OA
BRANCH  18  20
ATOM     20  C   UNL A   1      34.319  29.722  26.890  1.00  0.00     0.054 A 
ATOM     21  N   UNL A   1      36.247  29.994  28.048  1.00  0.00    -0.240 N 
ATOM     22  C   UNL A   1      35.433  29.046  27.420  1.00  0.00     0.117 A 
ATOM     23  C   UNL A   1      35.693  31.259  27.772  1.00  0.00     0.065 A 
ATOM     24  C   UNL A   1      34.359  31.017  27.477  1.00  0.00     0.012 A 
ATOM     25  C   UNL A   1      36.152  32.554  28.084  1.00  0.00     0.028 A 
ATOM     26  C   UNL A   1      33.415  32.032  27.729  1.00  0.00     0.011 A 
ATOM     27  C   UNL A   1      35.198  33.513  28.413  1.00  0.00     0.002 A 
ATOM     28  C   UNL A   1      33.843  33.238  28.288  1.00  0.00     0.001 A 
BRANCH  21  29
ATOM     29  S   UNL A   1      36.953  29.989  29.643  1.00  0.00     0.268 S 
ATOM     30  O   UNL A   1      37.880  28.867  29.580  1.00  0.00    -0.201 OA
ATOM     31  O   UNL A   1      35.749  29.910  30.465  1.00  0.00    -0.201 OA
BRANCH  29  32
ATOM     32  C   UNL A   1      37.833  31.205  30.552  1.00  0.00     0.088 A 
ATOM     33  C   UNL A   1      38.862  34.530  33.126  1.00  0.00     0.044 C 
ATOM     34  C   UNL A   1      38.572  33.338  32.258  1.00  0.00    -0.051 A 
ATOM     35  C   UNL A   1      37.376  32.676  32.481  1.00  0.00     0.005 A 
ATOM     36  C   UNL A   1      39.411  32.897  31.208  1.00  0.00     0.005 A 
ATOM     37  C   UNL A   1      37.032  31.625  31.653  1.00  0.00     0.022 A 
ATOM     38  C   UNL A   1      39.048  31.827  30.340  1.00  0.00     0.022 A 
ENDBRANCH  29  32
ENDBRANCH  21  29
ENDBRANCH  18  20
ENDBRANCH  15  18
ENDBRANCH  13  14
BRANCH  13  39
ATOM     39  C   UNL A   1      29.853  27.303  23.963  1.00  0.00     0.072 C 
BRANCH  39  40
ATOM     40  C   UNL A   1      29.876  28.369  22.874  1.00  0.00    -0.020 A 
ATOM     41  C   UNL A   1      30.946  28.751  22.072  1.00  0.00     0.087 A 
ATOM     42  C   UNL A   1      28.835  29.323  22.617  1.00  0.00     0.003 A 
ATOM     43  N   UNL A   1      30.681  30.014  21.574  1.00  0.00    -0.361 N 
ATOM     44  C   UNL A   1      29.490  30.446  22.109  1.00  0.00     0.046 A 
ATOM     45  C   UNL A   1      27.537  29.454  23.135  1.00  0.00     0.010 A 
ATOM     46  H   UNL A   1      31.248  30.517  20.945  1.00  0.00     0.166 HD
ATOM     47  C   UNL A   1      29.059  31.739  22.385  1.00  0.00     0.026 A 
ATOM     48  C   UNL A   1      27.171  30.722  23.562  1.00  0.00     0.001 A 
ATOM     49  C   UNL A   1      27.997  31.797  23.279  1.00  0.00     0.002 A 
ENDBRANCH  39  40
ENDBRANCH  13  39
ENDBRANCH  10  13
ENDBRANCH   8   9
ENDBRANCH   6   8
ENDBRANCH   5   6
ENDBRANCH   4   5
ENDBRANCH   3   4
ENDBRANCH   2   3
ENDBRANCH   1   2
BRANCH   1  50
ATOM     50  C   UNL A   1      38.670  21.344  25.734  1.00  0.00     0.188 C 
BRANCH  50  51
ATOM     51  O   UNL A   1      39.079  22.590  26.279  1.00  0.00    -0.377 OA
BRANCH  51  52
ATOM     52  C   UNL A   1      40.491  22.680  26.515  1.00  0.00     0.188 C 
BRANCH  52  53
ATOM     53  C   UNL A   1      41.317  21.413  26.216  1.00  0.00     0.188 C 
BRANCH  53  54
ATOM     54  O   UNL A   1      42.490  21.637  25.436  1.00  0.00    -0.376 OA
BRANCH  54  55
ATOM     55  C   UNL A   1      43.678  22.049  26.106  1.00  0.00     0.202 C 
BRANCH  55  56
ATOM     56  C   UNL A   1      45.015  21.630  25.476  1.00  0.00     0.261 C 
BRANCH  56  57
ATOM     57  O   UNL A   1      46.085  22.548  25.774  1.00  0.00    -0.460 OA
BRANCH  57  58
ATOM     58  C   UNL A   1      46.193  23.625  24.934  1.00  0.00     0.338 C 
ATOM     59  O   UNL A   1      46.225  23.540  23.732  1.00  0.00    -0.246 OA
BRANCH  58  60
ATOM     60  C   UNL A   1      46.129  24.897  25.705  1.00  0.00     0.060 A 
ATOM     61  C   UNL A   1      47.287  25.475  26.242  1.00  0.00     0.016 A 
ATOM     62  C   UNL A   1      44.884  25.418  26.025  1.00  0.00     0.016 A 
ATOM     63  C   UNL A   1      47.187  26.472  27.229  1.00  0.00     0.010 A 
ATOM     64  C   UNL A   1      44.789  26.313  27.068  1.00  0.00     0.010 A 
ATOM     65  C   UNL A   1      45.928  26.842  27.702  1.00  0.00    -0.014 A 
BRANCH  65  66
ATOM     66  C   UNL A   1      45.637  27.570  28.954  1.00  0.00     0.031 A 
ATOM     67  C   UNL A   1      45.294  26.782  30.204  1.00  0.00     0.074 A 
ATOM     68  C   UNL A   1      46.139  28.824  29.063  1.00  0.00     0.049 A 
ATOM     69  N   UNL A   1      45.331  27.220  31.420  1.00  0.00    -0.248 NA
ATOM     70  C   UNL A   1      44.859  25.379  30.161  1.00  0.00     0.031 C 
ATOM     71  C   UNL A   1      46.846  29.303  30.240  1.00  0.00     0.029 A 
ATOM     72  N   UNL A   1      46.320  29.870  28.178  1.00  0.00    -0.354 N 
ATOM     73  C   UNL A   1      45.159  26.159  32.294  1.00  0.00     0.074 A 
ATOM     74  C   UNL A   1      44.856  25.032  31.453  1.00  0.00     0.031 C 
ATOM     75  C   UNL A   1      47.341  30.527  30.045  1.00  0.00     0.029 A 
ATOM     76  C   UNL A   1      46.720  31.031  28.859  1.00  0.00     0.049 A 
ATOM     77  H   UNL A   1      46.187  29.809  27.205  1.00  0.00     0.167 HD
ATOM     78  C   UNL A   1      45.336  26.330  33.637  1.00  0.00     0.031 A 
ATOM     79  C   UNL A   1      45.919  32.132  28.948  1.00  0.00     0.031 A 
ATOM     80  C   UNL A   1      45.391  27.750  34.027  1.00  0.00     0.049 A 
ATOM     81  C   UNL A   1      45.220  32.298  30.310  1.00  0.00     0.074 A 
ATOM     82  C   UNL A   1      46.079  28.450  34.996  1.00  0.00     0.029 A 
ATOM     83  N   UNL A   1      44.631  28.711  33.333  1.00  0.00    -0.354 N 
ATOM     84  N   UNL A   1      45.124  31.368  31.245  1.00  0.00    -0.248 NA
ATOM     85  C   UNL A   1      44.610  33.555  30.736  1.00  0.00     0.031 C 
ATOM     86  C   UNL A   1      45.584  29.770  34.985  1.00  0.00     0.029 A 
ATOM     87  C   UNL A   1      44.816  29.970  33.849  1.00  0.00     0.049 A 
ATOM     88  H   UNL A   1      44.041  28.506  32.573  1.00  0.00     0.167 HD
ATOM     89  C   UNL A   1      44.408  31.848  32.320  1.00  0.00     0.074 A 
ATOM     90  C   UNL A   1      44.161  33.237  31.962  1.00  0.00     0.031 C 
ATOM     91  C   UNL A   1      44.034  31.133  33.434  1.00  0.00     0.031 A 
BRANCH  78  92
ATOM     92  C   UNL A   1      45.560  25.202  34.673  1.00  0.00    -0.014 A 
ATOM     93  C   UNL A   1      46.806  24.526  34.717  1.00  0.00     0.010 A 
ATOM     94  C   UNL A   1      44.574  24.663  35.527  1.00  0.00     0.010 A 
ATOM     95  C   UNL A   1      47.027  23.347  35.455  1.00  0.00     0.020 A 
ATOM     96  C   UNL A   1      44.803  23.519  36.333  1.00  0.00     0.020 A 
ATOM     97  C   UNL A   1      46.017  22.841  36.257  1.00  0.00     0.054 A 
BRANCH  97  98
ATOM     98  S   UNL A   1      46.327  21.325  37.212  1.00  0.00     0.124 S 
ATOM     99  O   UNL A   1      47.785  21.238  37.194  1.00  0.00    -0.237 OA
ATOM    100  O   UNL A   1      45.734  21.631  38.512  1.00  0.00    -0.237 OA
ATOM    101  O   UNL A   1      45.633  20.290  36.449  1.00  0.00    -0.744 OA
ENDBRANCH  97  98
ENDBRANCH  78  92
BRANCH  79 102
ATOM    102  C   UNL A   1      45.686  32.729  27.585  1.00  0.00    -0.014 A 
ATOM    103  C   UNL A   1      44.307  32.842  27.264  1.00  0.00     0.010 A 
ATOM    104  C   UNL A   1      46.530  33.792  27.204  1.00  0.00     0.010 A 
ATOM    105  C   UNL A   1      43.745  34.101  27.005  1.00  0.00     0.020 A 
ATOM    106  C   UNL A   1      45.971  35.054  26.929  1.00  0.00     0.020 A 
ATOM    107  C   UNL A   1      44.579  35.214  26.940  1.00  0.00     0.054 A 
BRANCH 107 108
ATOM    108  S   UNL A   1      43.859  36.860  27.284  1.00  0.00     0.124 S 
ATOM    109  O   UNL A   1      44.967  37.761  26.994  1.00  0.00    -0.237 OA
ATOM    110  O   UNL A   1      42.724  36.919  26.362  1.00  0.00    -0.237 OA
ATOM    111  O   UNL A   1      43.477  36.755  28.690  1.00  0.00    -0.744 OA
ENDBRANCH 107 108
ENDBRANCH  79 102
BRANCH  91 112
ATOM    112  C   UNL A   1      42.916  31.539  34.392  1.00  0.00    -0.014 A 
ATOM    113  C   UNL A   1      41.563  31.611  34.039  1.00  0.00     0.010 A 
ATOM    114  C   UNL A   1      43.205  31.718  35.772  1.00  0.00     0.010 A 
ATOM    115  C   UNL A   1      40.579  31.956  34.977  1.00  0.00     0.020 A 
ATOM    116  C   UNL A   1      42.237  32.042  36.722  1.00  0.00     0.020 A 
ATOM    117  C   UNL A   1      40.926  32.184  36.309  1.00  0.00     0.054 A 
BRANCH 117 118
ATOM    118  S   UNL A   1      39.632  32.577  37.504  1.00  0.00     0.124 S 
ATOM    119  O   UNL A   1      39.252  33.928  37.100  1.00  0.00    -0.237 OA
ATOM    120  O   UNL A   1      38.637  31.540  37.244  1.00  0.00    -0.237 OA
ATOM    121  O   UNL A   1      40.306  32.476  38.796  1.00  0.00    -0.744 OA
ENDBRANCH 117 118
ENDBRANCH  91 112
ENDBRANCH  65  66
ENDBRANCH  58  60
ENDBRANCH  57  58
ENDBRANCH  56  57
ENDBRANCH  55  56
ENDBRANCH  54  55
ENDBRANCH  53  54
ENDBRANCH  52  53
ENDBRANCH  51  52
ENDBRANCH  50  51
ENDBRANCH   1  50
TORSDOF 32
ENDMDL
MODEL 3
REMARK VINA RESULT:      -9.1      2.861      7.549
REMARK SMILES Cc1ccc(S(=O)(=O)n2cc(C(=O)C(=O)N[C@@H](Cc3c[nH]c4ccccc34)C(=O)NCC(=O)OCCOCCOCCOCCOC(=O)c3ccc(-c4c5nc(c(-c6ccc(S(=O)(=O)[O-])cc6)c6ccc([nH]6)c(-c6ccc(S(=O)(=O)[O-])cc6)c6nc(c(-c7ccc(S(=O)(=O)[O-])cc7)c7ccc4[nH]7)C=C6)C=C5)cc3)c3ccccc32)cc1
REMARK SMILES IDX 38 1 37 2 36 3 35 4 34 5 32 6 33 7 31 8 30 9 28 10 29 11
REMARK SMILES IDX 17 13 16 14 14 15 15 16 12 18 13 19 11 20 9 21 10 22 114 23
REMARK SMILES IDX 109 24 113 25 110 26 112 27 111 28 6 29 7 30 8 31 5 32 1 33
REMARK SMILES IDX 2 34 3 35 116 36 4 37 115 38 18 39 19 40 20 41 27 42 21 43
REMARK SMILES IDX 22 44 26 45 23 47 25 48 24 49 39 50 40 51 41 52 42 53 43 54
REMARK SMILES IDX 44 55 45 56 46 57 47 58 48 59 49 60 50 61 108 62 51 63
REMARK SMILES IDX 107 64 52 65 53 66 54 67 101 68 55 69 106 70 100 71 102 72
REMARK SMILES IDX 56 73 105 74 99 75 98 76 57 78 87 79 68 80 86 81 69 82 72 83
REMARK SMILES IDX 85 84 103 85 70 86 71 87 84 89 104 90 73 91 58 92 59 93
REMARK SMILES IDX 67 94 60 95 66 96 61 97 62 98 63 99 64 100 65 101 88 102
REMARK SMILES IDX 89 103 97 104 90 105 96 106 91 107 92 108 93 109 94 110
REMARK SMILES IDX 95 111 74 112 75 113 83 114 76 115 82 116 77 117 78 118
REMARK SMILES IDX 79 119 80 120 81 121
REMARK H PARENT 30 12 16 17 21 46 102 77 72 88
REMARK Flexibility Score: inf
ROOT
ATOM      1  C   UNL A   1      38.684  21.231  26.053  1.00  0.00     0.188 C 
ENDROOT
BRANCH   1   2
ATOM      2  O   UNL A   1      38.137  22.418  25.489  1.00  0.00    -0.376 OA
BRANCH   2   3
ATOM      3  C   UNL A   1      36.712  22.568  25.476  1.00  0.00     0.202 C 
BRANCH   3   4
ATOM      4  C   UNL A   1      36.154  23.838  24.825  1.00  0.00     0.261 C 
BRANCH   4   5
ATOM      5  O   UNL A   1      34.837  23.545  24.335  1.00  0.00    -0.462 OA
BRANCH   5   6
ATOM      6  C   UNL A   1      34.443  24.215  23.250  1.00  0.00     0.325 C 
ATOM      7  O   UNL A   1      34.256  23.723  22.138  1.00  0.00    -0.250 OA
BRANCH   6   8
ATOM      8  C   UNL A   1      34.285  25.697  23.516  1.00  0.00     0.238 C 
BRANCH   8   9
ATOM      9  N   UNL A   1      34.051  26.784  22.604  1.00  0.00    -0.343 N 
ATOM     10  C   UNL A   1      33.551  27.971  23.097  1.00  0.00     0.243 C 
ATOM     11  O   UNL A   1      34.179  29.014  22.895  1.00  0.00    -0.273 OA
ATOM     12  H   UNL A   1      34.243  26.682  21.644  1.00  0.00     0.164 HD
BRANCH  10  13
ATOM     13  C   UNL A   1      32.286  27.968  24.024  1.00  0.00     0.176 C 
BRANCH  13  14
ATOM     14  N   UNL A   1      31.852  29.349  24.350  1.00  0.00    -0.337 N 
ATOM     15  C   UNL A   1      31.818  30.042  25.558  1.00  0.00     0.293 C 
ATOM     16  O   UNL A   1      31.290  31.148  25.637  1.00  0.00    -0.265 OA
ATOM     17  H   UNL A   1      31.529  29.866  23.576  1.00  0.00     0.164 HD
BRANCH  15  18
ATOM     18  C   UNL A   1      32.455  29.461  26.826  1.00  0.00     0.252 C 
ATOM     19  O   UNL A   1      31.778  28.647  27.452  1.00  0.00    -0.283 OA
BRANCH  18  20
ATOM     20  C   UNL A   1      33.729  29.970  27.372  1.00  0.00     0.054 A 
ATOM     21  N   UNL A   1      35.853  30.359  28.060  1.00  0.00    -0.240 N 
ATOM     22  C   UNL A   1      34.933  29.351  27.756  1.00  0.00     0.117 A 
ATOM     23  C   UNL A   1      35.246  31.585  27.722  1.00  0.00     0.065 A 
ATOM     24  C   UNL A   1      33.882  31.334  27.744  1.00  0.00     0.012 A 
ATOM     25  C   UNL A   1      35.751  32.899  27.742  1.00  0.00     0.028 A 
ATOM     26  C   UNL A   1      33.002  32.397  28.033  1.00  0.00     0.011 A 
ATOM     27  C   UNL A   1      34.879  33.918  28.117  1.00  0.00     0.002 A 
ATOM     28  C   UNL A   1      33.529  33.661  28.312  1.00  0.00     0.001 A 
BRANCH  21  29
ATOM     29  S   UNL A   1      36.872  30.566  29.461  1.00  0.00     0.268 S 
ATOM     30  O   UNL A   1      38.082  31.145  28.894  1.00  0.00    -0.201 OA
ATOM     31  O   UNL A   1      36.876  29.204  29.987  1.00  0.00    -0.201 OA
BRANCH  29  32
ATOM     32  C   UNL A   1      36.653  31.446  30.963  1.00  0.00     0.088 A 
ATOM     33  C   UNL A   1      35.146  34.074  34.056  1.00  0.00     0.044 C 
ATOM     34  C   UNL A   1      35.690  33.110  33.040  1.00  0.00    -0.051 A 
ATOM     35  C   UNL A   1      34.805  32.634  32.087  1.00  0.00     0.005 A 
ATOM     36  C   UNL A   1      37.046  32.710  32.971  1.00  0.00     0.005 A 
ATOM     37  C   UNL A   1      35.281  31.810  31.087  1.00  0.00     0.022 A 
ATOM     38  C   UNL A   1      37.543  31.877  31.928  1.00  0.00     0.022 A 
ENDBRANCH  29  32
ENDBRANCH  21  29
ENDBRANCH  18  20
ENDBRANCH  15  18
ENDBRANCH  13  14
BRANCH  13  39
ATOM     39  C   UNL A   1      31.137  26.937  23.625  1.00  0.00     0.072 C 
BRANCH  39  40
ATOM     40  C   UNL A   1      30.539  25.990  24.658  1.00  0.00    -0.020 A 
ATOM     41  C   UNL A   1      30.141  26.282  25.959  1.00  0.00     0.087 A 
ATOM     42  C   UNL A   1      30.464  24.562  24.539  1.00  0.00     0.003 A 
ATOM     43  N   UNL A   1      30.102  25.098  26.672  1.00  0.00    -0.361 N 
ATOM     44  C   UNL A   1      30.532  24.084  25.848  1.00  0.00     0.046 A 
ATOM     45  C   UNL A   1      30.748  23.697  23.470  1.00  0.00     0.010 A 
ATOM     46  H   UNL A   1      29.816  24.998  27.609  1.00  0.00     0.166 HD
ATOM     47  C   UNL A   1      31.178  22.896  26.167  1.00  0.00     0.026 A 
ATOM     48  C   UNL A   1      31.536  22.594  23.765  1.00  0.00     0.001 A 
ATOM     49  C   UNL A   1      31.822  22.300  25.089  1.00  0.00     0.002 A 
ENDBRANCH  39  40
ENDBRANCH  13  39
ENDBRANCH  10  13
ENDBRANCH   8   9
ENDBRANCH   6   8
ENDBRANCH   5   6
ENDBRANCH   4   5
ENDBRANCH   3   4
ENDBRANCH   2   3
ENDBRANCH   1   2
BRANCH   1  50
ATOM     50  C   UNL A   1      40.208  21.052  26.142  1.00  0.00     0.188 C 
BRANCH  50  51
ATOM     51  O   UNL A   1      40.649  19.723  25.909  1.00  0.00    -0.377 OA
BRANCH  51  52
ATOM     52  C   UNL A   1      41.774  19.339  26.711  1.00  0.00     0.188 C 
BRANCH  52  53
ATOM     53  C   UNL A   1      42.843  18.472  26.019  1.00  0.00     0.188 C 
BRANCH  53  54
ATOM     54  O   UNL A   1      43.508  19.105  24.927  1.00  0.00    -0.376 OA
BRANCH  54  55
ATOM     55  C   UNL A   1      44.434  20.149  25.213  1.00  0.00     0.202 C 
BRANCH  55  56
ATOM     56  C   UNL A   1      43.954  21.590  24.982  1.00  0.00     0.261 C 
BRANCH  56  57
ATOM     57  O   UNL A   1      43.523  22.235  26.196  1.00  0.00    -0.460 OA
BRANCH  57  58
ATOM     58  C   UNL A   1      44.177  23.396  26.514  1.00  0.00     0.338 C 
ATOM     59  O   UNL A   1      44.359  24.301  25.739  1.00  0.00    -0.246 OA
BRANCH  58  60
ATOM     60  C   UNL A   1      44.505  23.429  27.966  1.00  0.00     0.060 A 
ATOM     61  C   UNL A   1      43.712  22.752  28.902  1.00  0.00     0.016 A 
ATOM     62  C   UNL A   1      45.514  24.277  28.400  1.00  0.00     0.016 A 
ATOM     63  C   UNL A   1      43.823  23.051  30.271  1.00  0.00     0.010 A 
ATOM     64  C   UNL A   1      45.544  24.646  29.727  1.00  0.00     0.010 A 
ATOM     65  C   UNL A   1      44.694  24.061  30.682  1.00  0.00    -0.014 A 
BRANCH  65  66
ATOM     66  C   UNL A   1      44.681  24.759  31.985  1.00  0.00     0.031 A 
ATOM     67  C   UNL A   1      44.495  26.264  32.015  1.00  0.00     0.074 A 
ATOM     68  C   UNL A   1      44.358  24.017  33.072  1.00  0.00     0.049 A 
ATOM     69  N   UNL A   1      44.144  26.972  33.038  1.00  0.00    -0.248 NA
ATOM     70  C   UNL A   1      44.713  27.112  30.834  1.00  0.00     0.031 C 
ATOM     71  C   UNL A   1      43.396  24.445  34.075  1.00  0.00     0.029 A 
ATOM     72  N   UNL A   1      44.619  22.718  33.464  1.00  0.00    -0.354 N 
ATOM     73  C   UNL A   1      43.877  28.268  32.626  1.00  0.00     0.074 A 
ATOM     74  C   UNL A   1      44.260  28.303  31.240  1.00  0.00     0.031 C 
ATOM     75  C   UNL A   1      43.171  23.484  34.974  1.00  0.00     0.029 A 
ATOM     76  C   UNL A   1      44.199  22.506  34.788  1.00  0.00     0.049 A 
ATOM     77  H   UNL A   1      45.039  22.035  32.894  1.00  0.00     0.167 HD
ATOM     78  C   UNL A   1      43.315  29.167  33.487  1.00  0.00     0.031 A 
ATOM     79  C   UNL A   1      45.083  22.275  35.801  1.00  0.00     0.031 A 
ATOM     80  C   UNL A   1      43.349  28.712  34.887  1.00  0.00     0.049 A 
ATOM     81  C   UNL A   1      45.336  23.491  36.710  1.00  0.00     0.074 A 
ATOM     82  C   UNL A   1      42.501  28.867  35.964  1.00  0.00     0.029 A 
ATOM     83  N   UNL A   1      44.419  27.927  35.358  1.00  0.00    -0.354 N 
ATOM     84  N   UNL A   1      44.998  24.740  36.439  1.00  0.00    -0.248 NA
ATOM     85  C   UNL A   1      45.959  23.377  38.027  1.00  0.00     0.031 C 
ATOM     86  C   UNL A   1      43.161  28.339  37.092  1.00  0.00     0.029 A 
ATOM     87  C   UNL A   1      44.267  27.610  36.685  1.00  0.00     0.049 A 
ATOM     88  H   UNL A   1      45.181  27.643  34.804  1.00  0.00     0.167 HD
ATOM     89  C   UNL A   1      45.403  25.574  37.457  1.00  0.00     0.074 A 
ATOM     90  C   UNL A   1      45.950  24.654  38.444  1.00  0.00     0.031 C 
ATOM     91  C   UNL A   1      45.301  26.946  37.477  1.00  0.00     0.031 A 
BRANCH  78  92
ATOM     92  C   UNL A   1      42.615  30.489  33.087  1.00  0.00    -0.014 A 
ATOM     93  C   UNL A   1      41.457  30.452  32.269  1.00  0.00     0.010 A 
ATOM     94  C   UNL A   1      43.101  31.788  33.351  1.00  0.00     0.010 A 
ATOM     95  C   UNL A   1      40.891  31.592  31.668  1.00  0.00     0.020 A 
ATOM     96  C   UNL A   1      42.498  32.954  32.812  1.00  0.00     0.020 A 
ATOM     97  C   UNL A   1      41.421  32.844  31.936  1.00  0.00     0.054 A 
BRANCH  97  98
ATOM     98  S   UNL A   1      40.668  34.305  31.159  1.00  0.00     0.124 S 
ATOM     99  O   UNL A   1      39.962  33.723  30.021  1.00  0.00    -0.237 OA
ATOM    100  O   UNL A   1      39.814  34.835  32.220  1.00  0.00    -0.237 OA
ATOM    101  O   UNL A   1      41.814  35.143  30.818  1.00  0.00    -0.744 OA
ENDBRANCH  97  98
ENDBRANCH  78  92
BRANCH  79 102
ATOM    102  C   UNL A   1      45.816  20.978  35.578  1.00  0.00    -0.014 A 
ATOM    103  C   UNL A   1      46.936  21.122  34.716  1.00  0.00     0.010 A 
ATOM    104  C   UNL A   1      45.961  20.130  36.694  1.00  0.00     0.010 A 
ATOM    105  C   UNL A   1      48.224  20.817  35.179  1.00  0.00     0.020 A 
ATOM    106  C   UNL A   1      47.252  19.809  37.156  1.00  0.00     0.020 A 
ATOM    107  C   UNL A   1      48.374  20.253  36.444  1.00  0.00     0.054 A 
BRANCH 107 108
ATOM    108  S   UNL A   1      49.968  20.478  37.312  1.00  0.00     0.124 S 
ATOM    109  O   UNL A   1      49.693  19.925  38.633  1.00  0.00    -0.237 OA
ATOM    110  O   UNL A   1      50.903  19.722  36.480  1.00  0.00    -0.237 OA
ATOM    111  O   UNL A   1      50.161  21.925  37.258  1.00  0.00    -0.744 OA
ENDBRANCH 107 108
ENDBRANCH  79 102
BRANCH  91 112
ATOM    112  C   UNL A   1      46.110  27.865  38.390  1.00  0.00    -0.014 A 
ATOM    113  C   UNL A   1      45.619  28.435  39.571  1.00  0.00     0.010 A 
ATOM    114  C   UNL A   1      47.496  28.058  38.140  1.00  0.00     0.010 A 
ATOM    115  C   UNL A   1      46.427  29.242  40.385  1.00  0.00     0.020 A 
ATOM    116  C   UNL A   1      48.318  28.841  38.949  1.00  0.00     0.020 A 
ATOM    117  C   UNL A   1      47.767  29.451  40.060  1.00  0.00     0.054 A 
BRANCH 117 118
ATOM    118  S   UNL A   1      48.795  30.454  41.152  1.00  0.00     0.124 S 
ATOM    119  O   UNL A   1      48.118  31.747  41.098  1.00  0.00    -0.237 OA
ATOM    120  O   UNL A   1      48.690  29.743  42.424  1.00  0.00    -0.237 OA
ATOM    121  O   UNL A   1      50.115  30.411  40.528  1.00  0.00    -0.744 OA
ENDBRANCH 117 118
ENDBRANCH  91 112
ENDBRANCH  65  66
ENDBRANCH  58  60
ENDBRANCH  57  58
ENDBRANCH  56  57
ENDBRANCH  55  56
ENDBRANCH  54  55
ENDBRANCH  53  54
ENDBRANCH  52  53
ENDBRANCH  51  52
ENDBRANCH  50  51
ENDBRANCH   1  50
TORSDOF 32
ENDMDL
