MODEL 1
REMARK VINA RESULT:      -9.7      0.000      0.000
REMARK SMILES CCc1cc(C)c2c(c1)C=C(C(=O)OCCOCCOCCOCCOC(=O)c1ccc(-c3c4nc(c(-c5ccc(S(=O)(=O)[O-])cc5)c5ccc([nH]5)c(-c5ccc(S(=O)(=O)[O-])cc5)c5nc(c(-c6ccc(S(=O)(=O)[O-])cc6)c6ccc3[nH]6)C=C5)C=C4)cc1)[C@@H](C(F)(F)F)O2
REMARK SMILES IDX 21 1 20 2 19 3 18 4 17 5 16 6 15 7 14 8 12 9 13 10 11 11
REMARK SMILES IDX 3 12 4 13 9 14 5 15 8 16 6 17 7 18 10 19 94 20 89 21 2 22
REMARK SMILES IDX 1 23 90 24 91 25 92 26 93 27 22 28 23 29 24 30 25 31 26 32
REMARK SMILES IDX 27 33 28 34 29 35 30 36 88 37 31 38 87 39 32 40 33 41 34 42
REMARK SMILES IDX 81 43 35 44 86 45 80 46 82 47 36 48 85 49 79 50 78 51 37 53
REMARK SMILES IDX 67 54 48 55 66 56 49 57 52 58 65 59 83 60 50 61 51 62 64 64
REMARK SMILES IDX 84 65 53 66 38 67 39 68 47 69 40 70 46 71 41 72 42 73 43 74
REMARK SMILES IDX 44 75 45 76 68 77 69 78 77 79 70 80 76 81 71 82 72 83 73 84
REMARK SMILES IDX 74 85 75 86 54 87 55 88 63 89 56 90 62 91 57 92 58 93 59 94
REMARK SMILES IDX 60 95 61 96
REMARK H PARENT 82 52 52 63
REMARK Flexibility Score: inf
ROOT
ATOM      1  C   UNL A   1      43.163  19.953  25.819  1.00  0.00     0.188 C 
ENDROOT
BRANCH   1   2
ATOM      2  O   UNL A   1      41.876  19.644  25.280  1.00  0.00    -0.377 OA
BRANCH   2   3
ATOM      3  C   UNL A   1      40.768  19.647  26.163  1.00  0.00     0.188 C 
BRANCH   3   4
ATOM      4  C   UNL A   1      40.955  20.599  27.361  1.00  0.00     0.188 C 
BRANCH   4   5
ATOM      5  O   UNL A   1      40.380  21.879  27.183  1.00  0.00    -0.376 OA
BRANCH   5   6
ATOM      6  C   UNL A   1      39.560  22.191  26.068  1.00  0.00     0.202 C 
BRANCH   6   7
ATOM      7  C   UNL A   1      38.087  21.771  25.884  1.00  0.00     0.261 C 
BRANCH   7   8
ATOM      8  O   UNL A   1      37.108  22.803  25.793  1.00  0.00    -0.460 OA
BRANCH   8   9
ATOM      9  C   UNL A   1      36.468  22.950  24.621  1.00  0.00     0.338 C 
ATOM     10  O   UNL A   1      36.816  22.520  23.536  1.00  0.00    -0.246 OA
BRANCH   9  11
ATOM     11  C   UNL A   1      35.152  23.561  24.907  1.00  0.00     0.087 C 
ATOM     12  C   UNL A   1      32.682  27.373  26.506  1.00  0.00    -0.047 A 
ATOM     13  C   UNL A   1      31.509  26.603  26.479  1.00  0.00     0.011 A 
ATOM     14  C   UNL A   1      33.872  26.793  26.054  1.00  0.00     0.015 A 
ATOM     15  C   UNL A   1      31.514  25.287  25.987  1.00  0.00    -0.008 A 
ATOM     16  C   UNL A   1      33.896  25.473  25.590  1.00  0.00     0.018 A 
ATOM     17  C   UNL A   1      30.252  24.468  26.011  1.00  0.00     0.048 C 
ATOM     18  C   UNL A   1      32.715  24.734  25.521  1.00  0.00     0.130 A 
ATOM     19  C   UNL A   1      35.165  24.847  25.277  1.00  0.00     0.027 C 
ATOM     20  O   UNL A   1      32.661  23.457  25.037  1.00  0.00    -0.475 OA
ATOM     21  C   UNL A   1      33.894  22.759  24.704  1.00  0.00     0.316 C 
BRANCH  12  22
ATOM     22  C   UNL A   1      32.678  28.750  27.123  1.00  0.00     0.032 C 
ATOM     23  C   UNL A   1      32.365  29.875  26.146  1.00  0.00     0.009 C 
ENDBRANCH  12  22
BRANCH  21  24
ATOM     24  C   UNL A   1      33.921  21.441  25.489  1.00  0.00     0.430 C 
ATOM     25  F   UNL A   1      34.077  21.660  26.816  1.00  0.00    -0.167 F 
ATOM     26  F   UNL A   1      32.777  20.738  25.335  1.00  0.00    -0.167 F 
ATOM     27  F   UNL A   1      34.940  20.646  25.086  1.00  0.00    -0.167 F 
ENDBRANCH  21  24
ENDBRANCH   9  11
ENDBRANCH   8   9
ENDBRANCH   7   8
ENDBRANCH   6   7
ENDBRANCH   5   6
ENDBRANCH   4   5
ENDBRANCH   3   4
ENDBRANCH   2   3
ENDBRANCH   1   2
BRANCH   1  28
ATOM     28  C   UNL A   1      43.874  21.293  25.507  1.00  0.00     0.188 C 
BRANCH  28  29
ATOM     29  O   UNL A   1      43.659  22.310  26.477  1.00  0.00    -0.376 OA
BRANCH  29  30
ATOM     30  C   UNL A   1      44.790  22.958  27.031  1.00  0.00     0.202 C 
BRANCH  30  31
ATOM     31  C   UNL A   1      45.263  24.232  26.320  1.00  0.00     0.261 C 
BRANCH  31  32
ATOM     32  O   UNL A   1      44.867  25.473  26.917  1.00  0.00    -0.460 OA
BRANCH  32  33
ATOM     33  C   UNL A   1      43.834  26.137  26.356  1.00  0.00     0.338 C 
ATOM     34  O   UNL A   1      43.414  26.019  25.218  1.00  0.00    -0.246 OA
BRANCH  33  35
ATOM     35  C   UNL A   1      43.184  26.915  27.429  1.00  0.00     0.060 A 
ATOM     36  C   UNL A   1      43.437  28.288  27.537  1.00  0.00     0.016 A 
ATOM     37  C   UNL A   1      42.309  26.280  28.313  1.00  0.00     0.016 A 
ATOM     38  C   UNL A   1      42.829  29.030  28.550  1.00  0.00     0.010 A 
ATOM     39  C   UNL A   1      41.733  27.015  29.350  1.00  0.00     0.010 A 
ATOM     40  C   UNL A   1      42.016  28.384  29.490  1.00  0.00    -0.014 A 
BRANCH  40  41
ATOM     41  C   UNL A   1      41.662  29.075  30.751  1.00  0.00     0.031 A 
ATOM     42  C   UNL A   1      40.460  29.978  30.737  1.00  0.00     0.074 A 
ATOM     43  C   UNL A   1      42.378  28.909  31.876  1.00  0.00     0.049 A 
ATOM     44  N   UNL A   1      39.988  30.739  31.688  1.00  0.00    -0.248 NA
ATOM     45  C   UNL A   1      39.685  30.028  29.483  1.00  0.00     0.031 C 
ATOM     46  C   UNL A   1      43.528  28.018  32.028  1.00  0.00     0.029 A 
ATOM     47  N   UNL A   1      42.241  29.498  33.108  1.00  0.00    -0.354 N 
ATOM     48  C   UNL A   1      38.868  31.359  31.149  1.00  0.00     0.074 A 
ATOM     49  C   UNL A   1      38.736  30.901  29.785  1.00  0.00     0.031 C 
ATOM     50  C   UNL A   1      44.000  28.130  33.284  1.00  0.00     0.029 A 
ATOM     51  C   UNL A   1      43.209  29.123  34.010  1.00  0.00     0.049 A 
ATOM     52  H   UNL A   1      41.519  30.129  33.326  1.00  0.00     0.167 HD
ATOM     53  C   UNL A   1      38.025  32.234  31.738  1.00  0.00     0.031 A 
ATOM     54  C   UNL A   1      43.442  29.551  35.268  1.00  0.00     0.031 A 
ATOM     55  C   UNL A   1      38.167  32.702  33.088  1.00  0.00     0.049 A 
ATOM     56  C   UNL A   1      42.539  30.592  35.877  1.00  0.00     0.074 A 
ATOM     57  C   UNL A   1      37.355  33.585  33.775  1.00  0.00     0.029 A 
ATOM     58  N   UNL A   1      39.186  32.334  33.950  1.00  0.00    -0.354 N 
ATOM     59  N   UNL A   1      41.483  31.170  35.356  1.00  0.00    -0.248 NA
ATOM     60  C   UNL A   1      42.856  31.040  37.241  1.00  0.00     0.031 C 
ATOM     61  C   UNL A   1      37.916  33.796  35.037  1.00  0.00     0.029 A 
ATOM     62  C   UNL A   1      39.041  32.994  35.155  1.00  0.00     0.049 A 
ATOM     63  H   UNL A   1      39.907  31.698  33.736  1.00  0.00     0.167 HD
ATOM     64  C   UNL A   1      40.998  32.032  36.335  1.00  0.00     0.074 A 
ATOM     65  C   UNL A   1      41.872  31.898  37.481  1.00  0.00     0.031 C 
ATOM     66  C   UNL A   1      39.921  32.853  36.287  1.00  0.00     0.031 A 
BRANCH  53  67
ATOM     67  C   UNL A   1      36.884  32.771  30.923  1.00  0.00    -0.014 A 
ATOM     68  C   UNL A   1      35.556  32.430  31.228  1.00  0.00     0.010 A 
ATOM     69  C   UNL A   1      37.142  33.699  29.898  1.00  0.00     0.010 A 
ATOM     70  C   UNL A   1      34.502  33.010  30.519  1.00  0.00     0.020 A 
ATOM     71  C   UNL A   1      36.090  34.297  29.201  1.00  0.00     0.020 A 
ATOM     72  C   UNL A   1      34.776  33.948  29.518  1.00  0.00     0.054 A 
BRANCH  72  73
ATOM     73  S   UNL A   1      33.382  34.724  28.656  1.00  0.00     0.124 S 
ATOM     74  O   UNL A   1      32.984  33.679  27.714  1.00  0.00    -0.237 OA
ATOM     75  O   UNL A   1      32.443  34.978  29.745  1.00  0.00    -0.237 OA
ATOM     76  O   UNL A   1      33.967  35.915  28.045  1.00  0.00    -0.744 OA
ENDBRANCH  72  73
ENDBRANCH  53  67
BRANCH  54  77
ATOM     77  C   UNL A   1      44.598  29.001  36.026  1.00  0.00    -0.014 A 
ATOM     78  C   UNL A   1      44.485  27.785  36.720  1.00  0.00     0.010 A 
ATOM     79  C   UNL A   1      45.834  29.676  36.023  1.00  0.00     0.010 A 
ATOM     80  C   UNL A   1      45.590  27.249  37.391  1.00  0.00     0.020 A 
ATOM     81  C   UNL A   1      46.944  29.132  36.675  1.00  0.00     0.020 A 
ATOM     82  C   UNL A   1      46.816  27.919  37.351  1.00  0.00     0.054 A 
BRANCH  82  83
ATOM     83  S   UNL A   1      48.245  27.165  38.176  1.00  0.00     0.124 S 
ATOM     84  O   UNL A   1      47.683  25.924  38.698  1.00  0.00    -0.237 OA
ATOM     85  O   UNL A   1      49.192  27.017  37.074  1.00  0.00    -0.237 OA
ATOM     86  O   UNL A   1      48.620  28.153  39.186  1.00  0.00    -0.744 OA
ENDBRANCH  82  83
ENDBRANCH  54  77
BRANCH  66  87
ATOM     87  C   UNL A   1      39.589  33.665  37.510  1.00  0.00    -0.014 A 
ATOM     88  C   UNL A   1      38.850  33.111  38.569  1.00  0.00     0.010 A 
ATOM     89  C   UNL A   1      40.139  34.953  37.653  1.00  0.00     0.010 A 
ATOM     90  C   UNL A   1      38.663  33.835  39.749  1.00  0.00     0.020 A 
ATOM     91  C   UNL A   1      39.974  35.669  38.840  1.00  0.00     0.020 A 
ATOM     92  C   UNL A   1      39.235  35.105  39.882  1.00  0.00     0.054 A 
BRANCH  92  93
ATOM     93  S   UNL A   1      39.021  35.994  41.448  1.00  0.00     0.124 S 
ATOM     94  O   UNL A   1      40.179  35.546  42.218  1.00  0.00    -0.237 OA
ATOM     95  O   UNL A   1      39.051  37.390  41.023  1.00  0.00    -0.237 OA
ATOM     96  O   UNL A   1      37.729  35.523  41.944  1.00  0.00    -0.744 OA
ENDBRANCH  92  93
ENDBRANCH  66  87
ENDBRANCH  40  41
ENDBRANCH  33  35
ENDBRANCH  32  33
ENDBRANCH  31  32
ENDBRANCH  30  31
ENDBRANCH  29  30
ENDBRANCH  28  29
ENDBRANCH   1  28
TORSDOF 25
ENDMDL
MODEL 2
REMARK VINA RESULT:      -9.6      6.438     12.494
REMARK SMILES CCc1cc(C)c2c(c1)C=C(C(=O)OCCOCCOCCOCCOC(=O)c1ccc(-c3c4nc(c(-c5ccc(S(=O)(=O)[O-])cc5)c5ccc([nH]5)c(-c5ccc(S(=O)(=O)[O-])cc5)c5nc(c(-c6ccc(S(=O)(=O)[O-])cc6)c6ccc3[nH]6)C=C5)C=C4)cc1)[C@@H](C(F)(F)F)O2
REMARK SMILES IDX 21 1 20 2 19 3 18 4 17 5 16 6 15 7 14 8 12 9 13 10 11 11
REMARK SMILES IDX 3 12 4 13 9 14 5 15 8 16 6 17 7 18 10 19 94 20 89 21 2 22
REMARK SMILES IDX 1 23 90 24 91 25 92 26 93 27 22 28 23 29 24 30 25 31 26 32
REMARK SMILES IDX 27 33 28 34 29 35 30 36 88 37 31 38 87 39 32 40 33 41 34 42
REMARK SMILES IDX 81 43 35 44 86 45 80 46 82 47 36 48 85 49 79 50 78 51 37 53
REMARK SMILES IDX 67 54 48 55 66 56 49 57 52 58 65 59 83 60 50 61 51 62 64 64
REMARK SMILES IDX 84 65 53 66 38 67 39 68 47 69 40 70 46 71 41 72 42 73 43 74
REMARK SMILES IDX 44 75 45 76 68 77 69 78 77 79 70 80 76 81 71 82 72 83 73 84
REMARK SMILES IDX 74 85 75 86 54 87 55 88 63 89 56 90 62 91 57 92 58 93 59 94
REMARK SMILES IDX 60 95 61 96
REMARK H PARENT 82 52 52 63
REMARK Flexibility Score: inf
ROOT
ATOM      1  C   UNL A   1      32.102  29.951  26.608  1.00  0.00     0.188 C 
ENDROOT
BRANCH   1   2
ATOM      2  O   UNL A   1      31.991  29.866  25.186  1.00  0.00    -0.377 OA
BRANCH   2   3
ATOM      3  C   UNL A   1      31.583  28.630  24.625  1.00  0.00     0.188 C 
BRANCH   3   4
ATOM      4  C   UNL A   1      30.354  28.763  23.704  1.00  0.00     0.188 C 
BRANCH   4   5
ATOM      5  O   UNL A   1      29.871  27.534  23.197  1.00  0.00    -0.376 OA
BRANCH   5   6
ATOM      6  C   UNL A   1      29.870  26.344  23.971  1.00  0.00     0.202 C 
BRANCH   6   7
ATOM      7  C   UNL A   1      30.328  24.953  23.489  1.00  0.00     0.261 C 
BRANCH   7   8
ATOM      8  O   UNL A   1      31.578  24.462  23.969  1.00  0.00    -0.460 OA
BRANCH   8   9
ATOM      9  C   UNL A   1      31.554  23.630  25.022  1.00  0.00     0.338 C 
ATOM     10  O   UNL A   1      30.674  23.528  25.858  1.00  0.00    -0.246 OA
BRANCH   9  11
ATOM     11  C   UNL A   1      32.702  22.707  24.885  1.00  0.00     0.087 C 
ATOM     12  C   UNL A   1      34.280  18.166  24.602  1.00  0.00    -0.047 A 
ATOM     13  C   UNL A   1      35.598  18.636  24.715  1.00  0.00     0.011 A 
ATOM     14  C   UNL A   1      33.240  19.101  24.559  1.00  0.00     0.015 A 
ATOM     15  C   UNL A   1      35.880  20.011  24.758  1.00  0.00    -0.008 A 
ATOM     16  C   UNL A   1      33.505  20.473  24.632  1.00  0.00     0.018 A 
ATOM     17  C   UNL A   1      37.297  20.486  24.925  1.00  0.00     0.048 C 
ATOM     18  C   UNL A   1      34.822  20.930  24.694  1.00  0.00     0.130 A 
ATOM     19  C   UNL A   1      32.405  21.411  24.743  1.00  0.00     0.027 C 
ATOM     20  O   UNL A   1      35.152  22.256  24.722  1.00  0.00    -0.475 OA
ATOM     21  C   UNL A   1      34.104  23.257  24.838  1.00  0.00     0.316 C 
BRANCH  12  22
ATOM     22  C   UNL A   1      33.989  16.687  24.650  1.00  0.00     0.032 C 
ATOM     23  C   UNL A   1      35.121  15.842  25.220  1.00  0.00     0.009 C 
ENDBRANCH  12  22
BRANCH  21  24
ATOM     24  C   UNL A   1      34.417  24.134  26.056  1.00  0.00     0.430 C 
ATOM     25  F   UNL A   1      35.675  23.922  26.508  1.00  0.00    -0.167 F 
ATOM     26  F   UNL A   1      34.315  25.452  25.770  1.00  0.00    -0.167 F 
ATOM     27  F   UNL A   1      33.569  23.878  27.081  1.00  0.00    -0.167 F 
ENDBRANCH  21  24
ENDBRANCH   9  11
ENDBRANCH   8   9
ENDBRANCH   7   8
ENDBRANCH   6   7
ENDBRANCH   5   6
ENDBRANCH   4   5
ENDBRANCH   3   4
ENDBRANCH   2   3
ENDBRANCH   1   2
BRANCH   1  28
ATOM     28  C   UNL A   1      32.838  31.127  27.297  1.00  0.00     0.188 C 
BRANCH  28  29
ATOM     29  O   UNL A   1      34.127  30.799  27.796  1.00  0.00    -0.376 OA
BRANCH  29  30
ATOM     30  C   UNL A   1      35.064  31.847  27.972  1.00  0.00     0.202 C 
BRANCH  30  31
ATOM     31  C   UNL A   1      36.516  31.428  28.239  1.00  0.00     0.261 C 
BRANCH  31  32
ATOM     32  O   UNL A   1      36.818  30.041  28.049  1.00  0.00    -0.460 OA
BRANCH  32  33
ATOM     33  C   UNL A   1      37.475  29.401  29.040  1.00  0.00     0.338 C 
ATOM     34  O   UNL A   1      36.985  28.793  29.976  1.00  0.00    -0.246 OA
BRANCH  33  35
ATOM     35  C   UNL A   1      38.909  29.419  28.692  1.00  0.00     0.060 A 
ATOM     36  C   UNL A   1      39.302  29.189  27.367  1.00  0.00     0.016 A 
ATOM     37  C   UNL A   1      39.860  29.680  29.680  1.00  0.00     0.016 A 
ATOM     38  C   UNL A   1      40.655  29.200  27.030  1.00  0.00     0.010 A 
ATOM     39  C   UNL A   1      41.216  29.652  29.350  1.00  0.00     0.010 A 
ATOM     40  C   UNL A   1      41.618  29.381  28.031  1.00  0.00    -0.014 A 
BRANCH  40  41
ATOM     41  C   UNL A   1      43.033  29.044  27.757  1.00  0.00     0.031 A 
ATOM     42  C   UNL A   1      44.058  30.126  27.958  1.00  0.00     0.074 A 
ATOM     43  C   UNL A   1      43.404  27.820  27.345  1.00  0.00     0.049 A 
ATOM     44  N   UNL A   1      45.343  30.100  27.724  1.00  0.00    -0.248 NA
ATOM     45  C   UNL A   1      43.569  31.409  28.496  1.00  0.00     0.031 C 
ATOM     46  C   UNL A   1      42.511  26.675  27.169  1.00  0.00     0.029 A 
ATOM     47  N   UNL A   1      44.641  27.341  26.992  1.00  0.00    -0.354 N 
ATOM     48  C   UNL A   1      45.813  31.357  28.081  1.00  0.00     0.074 A 
ATOM     49  C   UNL A   1      44.679  32.129  28.533  1.00  0.00     0.031 C 
ATOM     50  C   UNL A   1      43.231  25.627  26.728  1.00  0.00     0.029 A 
ATOM     51  C   UNL A   1      44.625  26.037  26.558  1.00  0.00     0.049 A 
ATOM     52  H   UNL A   1      45.462  27.881  27.044  1.00  0.00     0.167 HD
ATOM     53  C   UNL A   1      47.079  31.826  28.034  1.00  0.00     0.031 A 
ATOM     54  C   UNL A   1      45.617  25.271  26.059  1.00  0.00     0.031 A 
ATOM     55  C   UNL A   1      48.203  31.063  27.569  1.00  0.00     0.049 A 
ATOM     56  C   UNL A   1      47.006  25.843  25.937  1.00  0.00     0.074 A 
ATOM     57  C   UNL A   1      49.527  31.453  27.494  1.00  0.00     0.029 A 
ATOM     58  N   UNL A   1      48.135  29.764  27.095  1.00  0.00    -0.354 N 
ATOM     59  N   UNL A   1      47.437  27.034  26.278  1.00  0.00    -0.248 NA
ATOM     60  C   UNL A   1      48.042  24.972  25.362  1.00  0.00     0.031 C 
ATOM     61  C   UNL A   1      50.252  30.408  26.918  1.00  0.00     0.029 A 
ATOM     62  C   UNL A   1      49.390  29.345  26.697  1.00  0.00     0.049 A 
ATOM     63  H   UNL A   1      47.315  29.220  27.047  1.00  0.00     0.167 HD
ATOM     64  C   UNL A   1      48.796  27.047  25.981  1.00  0.00     0.074 A 
ATOM     65  C   UNL A   1      49.119  25.745  25.436  1.00  0.00     0.031 C 
ATOM     66  C   UNL A   1      49.695  28.047  26.153  1.00  0.00     0.031 A 
BRANCH  53  67
ATOM     67  C   UNL A   1      47.321  33.242  28.472  1.00  0.00    -0.014 A 
ATOM     68  C   UNL A   1      47.192  34.309  27.568  1.00  0.00     0.010 A 
ATOM     69  C   UNL A   1      47.592  33.511  29.826  1.00  0.00     0.010 A 
ATOM     70  C   UNL A   1      47.331  35.626  28.012  1.00  0.00     0.020 A 
ATOM     71  C   UNL A   1      47.710  34.827  30.277  1.00  0.00     0.020 A 
ATOM     72  C   UNL A   1      47.578  35.877  29.366  1.00  0.00     0.054 A 
BRANCH  72  73
ATOM     73  S   UNL A   1      47.695  37.599  29.918  1.00  0.00     0.124 S 
ATOM     74  O   UNL A   1      47.101  37.535  31.251  1.00  0.00    -0.237 OA
ATOM     75  O   UNL A   1      49.135  37.842  29.883  1.00  0.00    -0.237 OA
ATOM     76  O   UNL A   1      46.914  38.337  28.928  1.00  0.00    -0.744 OA
ENDBRANCH  72  73
ENDBRANCH  53  67
BRANCH  54  77
ATOM     77  C   UNL A   1      45.320  23.881  25.621  1.00  0.00    -0.014 A 
ATOM     78  C   UNL A   1      45.009  23.604  24.279  1.00  0.00     0.010 A 
ATOM     79  C   UNL A   1      45.386  22.818  26.542  1.00  0.00     0.010 A 
ATOM     80  C   UNL A   1      44.778  22.288  23.863  1.00  0.00     0.020 A 
ATOM     81  C   UNL A   1      45.177  21.500  26.125  1.00  0.00     0.020 A 
ATOM     82  C   UNL A   1      44.878  21.244  24.787  1.00  0.00     0.054 A 
BRANCH  82  83
ATOM     83  S   UNL A   1      44.637  19.543  24.204  1.00  0.00     0.124 S 
ATOM     84  O   UNL A   1      44.431  19.732  22.771  1.00  0.00    -0.237 OA
ATOM     85  O   UNL A   1      45.896  18.908  24.584  1.00  0.00    -0.237 OA
ATOM     86  O   UNL A   1      43.464  19.086  24.947  1.00  0.00    -0.744 OA
ENDBRANCH  82  83
ENDBRANCH  54  77
BRANCH  66  87
ATOM     87  C   UNL A   1      51.130  27.789  25.778  1.00  0.00    -0.014 A 
ATOM     88  C   UNL A   1      52.057  27.337  26.732  1.00  0.00     0.010 A 
ATOM     89  C   UNL A   1      51.515  27.871  24.426  1.00  0.00     0.010 A 
ATOM     90  C   UNL A   1      53.350  26.978  26.340  1.00  0.00     0.020 A 
ATOM     91  C   UNL A   1      52.798  27.491  24.028  1.00  0.00     0.020 A 
ATOM     92  C   UNL A   1      53.709  27.047  24.989  1.00  0.00     0.054 A 
BRANCH  92  93
ATOM     93  S   UNL A   1      55.376  26.520  24.506  1.00  0.00     0.124 S 
ATOM     94  O   UNL A   1      55.354  25.095  24.828  1.00  0.00    -0.237 OA
ATOM     95  O   UNL A   1      55.406  26.843  23.082  1.00  0.00    -0.237 OA
ATOM     96  O   UNL A   1      56.255  27.331  25.345  1.00  0.00    -0.744 OA
ENDBRANCH  92  93
ENDBRANCH  66  87
ENDBRANCH  40  41
ENDBRANCH  33  35
ENDBRANCH  32  33
ENDBRANCH  31  32
ENDBRANCH  30  31
ENDBRANCH  29  30
ENDBRANCH  28  29
ENDBRANCH   1  28
TORSDOF 25
ENDMDL
MODEL 3
REMARK VINA RESULT:      -9.4      5.544     10.746
REMARK SMILES CCc1cc(C)c2c(c1)C=C(C(=O)OCCOCCOCCOCCOC(=O)c1ccc(-c3c4nc(c(-c5ccc(S(=O)(=O)[O-])cc5)c5ccc([nH]5)c(-c5ccc(S(=O)(=O)[O-])cc5)c5nc(c(-c6ccc(S(=O)(=O)[O-])cc6)c6ccc3[nH]6)C=C5)C=C4)cc1)[C@@H](C(F)(F)F)O2
REMARK SMILES IDX 21 1 20 2 19 3 18 4 17 5 16 6 15 7 14 8 12 9 13 10 11 11
REMARK SMILES IDX 3 12 4 13 9 14 5 15 8 16 6 17 7 18 10 19 94 20 89 21 2 22
REMARK SMILES IDX 1 23 90 24 91 25 92 26 93 27 22 28 23 29 24 30 25 31 26 32
REMARK SMILES IDX 27 33 28 34 29 35 30 36 88 37 31 38 87 39 32 40 33 41 34 42
REMARK SMILES IDX 81 43 35 44 86 45 80 46 82 47 36 48 85 49 79 50 78 51 37 53
REMARK SMILES IDX 67 54 48 55 66 56 49 57 52 58 65 59 83 60 50 61 51 62 64 64
REMARK SMILES IDX 84 65 53 66 38 67 39 68 47 69 40 70 46 71 41 72 42 73 43 74
REMARK SMILES IDX 44 75 45 76 68 77 69 78 77 79 70 80 76 81 71 82 72 83 73 84
REMARK SMILES IDX 74 85 75 86 54 87 55 88 63 89 56 90 62 91 57 92 58 93 59 94
REMARK SMILES IDX 60 95 61 96
REMARK H PARENT 82 52 52 63
REMARK Flexibility Score: inf
ROOT
ATOM      1  C   UNL A   1      35.537  23.414  25.732  1.00  0.00     0.188 C 
ENDROOT
BRANCH   1   2
ATOM      2  O   UNL A   1      34.657  23.195  26.835  1.00  0.00    -0.377 OA
BRANCH   2   3
ATOM      3  C   UNL A   1      33.272  23.419  26.634  1.00  0.00     0.188 C 
BRANCH   3   4
ATOM      4  C   UNL A   1      32.517  22.154  26.180  1.00  0.00     0.188 C 
BRANCH   4   5
ATOM      5  O   UNL A   1      31.407  22.409  25.342  1.00  0.00    -0.376 OA
BRANCH   5   6
ATOM      6  C   UNL A   1      31.537  22.549  23.935  1.00  0.00     0.202 C 
BRANCH   6   7
ATOM      7  C   UNL A   1      32.134  23.767  23.200  1.00  0.00     0.261 C 
BRANCH   7   8
ATOM      8  O   UNL A   1      31.233  24.768  22.733  1.00  0.00    -0.460 OA
BRANCH   8   9
ATOM      9  C   UNL A   1      31.759  25.831  22.104  1.00  0.00     0.338 C 
ATOM     10  O   UNL A   1      32.234  25.859  20.982  1.00  0.00    -0.246 OA
BRANCH   9  11
ATOM     11  C   UNL A   1      31.483  27.022  22.936  1.00  0.00     0.087 C 
ATOM     12  C   UNL A   1      29.027  31.124  23.510  1.00  0.00    -0.047 A 
ATOM     13  C   UNL A   1      29.842  31.438  24.608  1.00  0.00     0.011 A 
ATOM     14  C   UNL A   1      29.218  29.896  22.866  1.00  0.00     0.015 A 
ATOM     15  C   UNL A   1      30.813  30.538  25.075  1.00  0.00    -0.008 A 
ATOM     16  C   UNL A   1      30.202  29.003  23.303  1.00  0.00     0.018 A 
ATOM     17  C   UNL A   1      31.704  30.919  26.225  1.00  0.00     0.048 C 
ATOM     18  C   UNL A   1      30.973  29.305  24.426  1.00  0.00     0.130 A 
ATOM     19  C   UNL A   1      30.485  27.812  22.526  1.00  0.00     0.027 C 
ATOM     20  O   UNL A   1      31.920  28.458  24.931  1.00  0.00    -0.475 OA
ATOM     21  C   UNL A   1      32.263  27.245  24.206  1.00  0.00     0.316 C 
BRANCH  12  22
ATOM     22  C   UNL A   1      28.053  32.140  22.964  1.00  0.00     0.032 C 
ATOM     23  C   UNL A   1      28.075  32.278  21.448  1.00  0.00     0.009 C 
ENDBRANCH  12  22
BRANCH  21  24
ATOM     24  C   UNL A   1      33.776  27.251  23.956  1.00  0.00     0.430 C 
ATOM     25  F   UNL A   1      34.417  28.067  24.827  1.00  0.00    -0.167 F 
ATOM     26  F   UNL A   1      34.317  26.020  24.096  1.00  0.00    -0.167 F 
ATOM     27  F   UNL A   1      34.069  27.681  22.706  1.00  0.00    -0.167 F 
ENDBRANCH  21  24
ENDBRANCH   9  11
ENDBRANCH   8   9
ENDBRANCH   7   8
ENDBRANCH   6   7
ENDBRANCH   5   6
ENDBRANCH   4   5
ENDBRANCH   3   4
ENDBRANCH   2   3
ENDBRANCH   1   2
BRANCH   1  28
ATOM     28  C   UNL A   1      35.735  22.349  24.625  1.00  0.00     0.188 C 
BRANCH  28  29
ATOM     29  O   UNL A   1      37.093  22.021  24.365  1.00  0.00    -0.376 OA
BRANCH  29  30
ATOM     30  C   UNL A   1      37.686  20.977  25.116  1.00  0.00     0.202 C 
BRANCH  30  31
ATOM     31  C   UNL A   1      39.200  21.074  25.345  1.00  0.00     0.261 C 
BRANCH  31  32
ATOM     32  O   UNL A   1      39.719  20.334  26.457  1.00  0.00    -0.460 OA
BRANCH  32  33
ATOM     33  C   UNL A   1      41.026  19.995  26.428  1.00  0.00     0.338 C 
ATOM     34  O   UNL A   1      41.500  18.909  26.141  1.00  0.00    -0.246 OA
BRANCH  33  35
ATOM     35  C   UNL A   1      41.800  21.235  26.637  1.00  0.00     0.060 A 
ATOM     36  C   UNL A   1      42.235  21.569  27.926  1.00  0.00     0.016 A 
ATOM     37  C   UNL A   1      42.107  22.053  25.548  1.00  0.00     0.016 A 
ATOM     38  C   UNL A   1      42.963  22.740  28.133  1.00  0.00     0.010 A 
ATOM     39  C   UNL A   1      42.803  23.244  25.762  1.00  0.00     0.010 A 
ATOM     40  C   UNL A   1      43.205  23.606  27.059  1.00  0.00    -0.014 A 
BRANCH  40  41
ATOM     41  C   UNL A   1      43.652  24.993  27.321  1.00  0.00     0.031 A 
ATOM     42  C   UNL A   1      45.097  25.320  27.061  1.00  0.00     0.074 A 
ATOM     43  C   UNL A   1      42.809  25.937  27.772  1.00  0.00     0.049 A 
ATOM     44  N   UNL A   1      45.742  26.435  27.274  1.00  0.00    -0.248 NA
ATOM     45  C   UNL A   1      45.924  24.244  26.483  1.00  0.00     0.031 C 
ATOM     46  C   UNL A   1      41.377  25.757  28.007  1.00  0.00     0.029 A 
ATOM     47  N   UNL A   1      43.047  27.243  28.122  1.00  0.00    -0.354 N 
ATOM     48  C   UNL A   1      47.046  26.196  26.861  1.00  0.00     0.074 A 
ATOM     49  C   UNL A   1      47.109  24.828  26.400  1.00  0.00     0.031 C 
ATOM     50  C   UNL A   1      40.865  26.910  28.475  1.00  0.00     0.029 A 
ATOM     51  C   UNL A   1      41.938  27.896  28.605  1.00  0.00     0.049 A 
ATOM     52  H   UNL A   1      43.928  27.672  28.035  1.00  0.00     0.167 HD
ATOM     53  C   UNL A   1      48.099  27.042  26.867  1.00  0.00     0.031 A 
ATOM     54  C   UNL A   1      41.810  29.138  29.115  1.00  0.00     0.031 A 
ATOM     55  C   UNL A   1      48.040  28.396  27.341  1.00  0.00     0.049 A 
ATOM     56  C   UNL A   1      43.017  30.037  29.191  1.00  0.00     0.074 A 
ATOM     57  C   UNL A   1      49.056  29.333  27.379  1.00  0.00     0.029 A 
ATOM     58  N   UNL A   1      46.910  29.002  27.866  1.00  0.00    -0.354 N 
ATOM     59  N   UNL A   1      44.246  29.798  28.798  1.00  0.00    -0.248 NA
ATOM     60  C   UNL A   1      42.824  31.370  29.781  1.00  0.00     0.031 C 
ATOM     61  C   UNL A   1      48.555  30.489  27.981  1.00  0.00     0.029 A 
ATOM     62  C   UNL A   1      47.211  30.293  28.257  1.00  0.00     0.049 A 
ATOM     63  H   UNL A   1      46.026  28.576  27.948  1.00  0.00     0.167 HD
ATOM     64  C   UNL A   1      44.965  30.957  29.070  1.00  0.00     0.074 A 
ATOM     65  C   UNL A   1      44.036  31.899  29.659  1.00  0.00     0.031 C 
ATOM     66  C   UNL A   1      46.276  31.217  28.845  1.00  0.00     0.031 A 
BRANCH  53  67
ATOM     67  C   UNL A   1      49.420  26.527  26.372  1.00  0.00    -0.014 A 
ATOM     68  C   UNL A   1      49.906  26.887  25.104  1.00  0.00     0.010 A 
ATOM     69  C   UNL A   1      50.223  25.747  27.224  1.00  0.00     0.010 A 
ATOM     70  C   UNL A   1      51.175  26.474  24.695  1.00  0.00     0.020 A 
ATOM     71  C   UNL A   1      51.501  25.350  26.827  1.00  0.00     0.020 A 
ATOM     72  C   UNL A   1      51.970  25.718  25.565  1.00  0.00     0.054 A 
BRANCH  72  73
ATOM     73  S   UNL A   1      53.635  25.248  25.024  1.00  0.00     0.124 S 
ATOM     74  O   UNL A   1      53.620  25.634  23.614  1.00  0.00    -0.237 OA
ATOM     75  O   UNL A   1      54.486  26.060  25.888  1.00  0.00    -0.237 OA
ATOM     76  O   UNL A   1      53.688  23.809  25.269  1.00  0.00    -0.744 OA
ENDBRANCH  72  73
ENDBRANCH  53  67
BRANCH  54  77
ATOM     77  C   UNL A   1      40.483  29.593  29.611  1.00  0.00    -0.014 A 
ATOM     78  C   UNL A   1      40.208  29.632  30.988  1.00  0.00     0.010 A 
ATOM     79  C   UNL A   1      39.499  30.030  28.704  1.00  0.00     0.010 A 
ATOM     80  C   UNL A   1      38.976  30.107  31.450  1.00  0.00     0.020 A 
ATOM     81  C   UNL A   1      38.275  30.525  29.163  1.00  0.00     0.020 A 
ATOM     82  C   UNL A   1      38.023  30.564  30.534  1.00  0.00     0.054 A 
BRANCH  82  83
ATOM     83  S   UNL A   1      36.461  31.235  31.168  1.00  0.00     0.124 S 
ATOM     84  O   UNL A   1      36.852  32.571  31.605  1.00  0.00    -0.237 OA
ATOM     85  O   UNL A   1      35.603  31.180  29.987  1.00  0.00    -0.237 OA
ATOM     86  O   UNL A   1      36.099  30.310  32.240  1.00  0.00    -0.744 OA
ENDBRANCH  82  83
ENDBRANCH  54  77
BRANCH  66  87
ATOM     87  C   UNL A   1      46.805  32.580  29.205  1.00  0.00    -0.014 A 
ATOM     88  C   UNL A   1      46.999  33.564  28.221  1.00  0.00     0.010 A 
ATOM     89  C   UNL A   1      46.980  32.916  30.560  1.00  0.00     0.010 A 
ATOM     90  C   UNL A   1      47.366  34.861  28.588  1.00  0.00     0.020 A 
ATOM     91  C   UNL A   1      47.323  34.218  30.931  1.00  0.00     0.020 A 
ATOM     92  C   UNL A   1      47.515  35.183  29.942  1.00  0.00     0.054 A 
BRANCH  92  93
ATOM     93  S   UNL A   1      47.936  36.890  30.387  1.00  0.00     0.124 S 
ATOM     94  O   UNL A   1      48.326  37.457  29.098  1.00  0.00    -0.237 OA
ATOM     95  O   UNL A   1      46.680  37.389  30.938  1.00  0.00    -0.237 OA
ATOM     96  O   UNL A   1      49.023  36.741  31.352  1.00  0.00    -0.744 OA
ENDBRANCH  92  93
ENDBRANCH  66  87
ENDBRANCH  40  41
ENDBRANCH  33  35
ENDBRANCH  32  33
ENDBRANCH  31  32
ENDBRANCH  30  31
ENDBRANCH  29  30
ENDBRANCH  28  29
ENDBRANCH   1  28
TORSDOF 25
ENDMDL
