MODEL 1
REMARK VINA RESULT:      -8.9      0.000      0.000
REMARK SMILES C[C@]12CC[C@@H]3[C@@H](CCC4=C/C(=N\OCC(=O)N5CCC[C@@H]5C(=O)OCCOCCOCCOCCOC(=O)c5ccc(-c6c7nc(c(-c8ccc(S(=O)(=O)[O-])cc8)c8ccc([nH]8)c(-c8ccc(S(=O)(=O)[O-])cc8)c8nc(c(-c9ccc(S(=O)(=O)[O-])cc9)c9ccc6[nH]9)C=C8)C=C7)cc5)CC[C@@]43C)[C@@H]1CC[C@@H]2O
REMARK SMILES IDX 29 1 28 2 27 3 26 4 25 5 24 6 22 7 23 8 21 9 17 10 18 11
REMARK SMILES IDX 19 12 20 13 15 14 16 15 14 16 13 17 12 18 1 19 2 20 3 21
REMARK SMILES IDX 103 22 106 23 4 24 6 25 104 26 105 27 5 28 7 29 101 30 8 31
REMARK SMILES IDX 9 32 100 33 102 34 10 35 99 36 11 37 107 38 30 40 31 41
REMARK SMILES IDX 32 42 33 43 34 44 35 45 36 46 37 47 38 48 39 49 40 50 98 51
REMARK SMILES IDX 41 52 97 53 42 54 43 55 44 56 91 57 45 58 96 59 90 60 92 61
REMARK SMILES IDX 46 62 95 63 89 64 88 65 47 67 77 68 58 69 76 70 59 71 62 72
REMARK SMILES IDX 75 73 93 74 60 75 61 76 74 78 94 79 63 80 48 81 49 82 57 83
REMARK SMILES IDX 50 84 56 85 51 86 52 87 53 88 54 89 55 90 78 91 79 92 87 93
REMARK SMILES IDX 80 94 86 95 81 96 82 97 83 98 84 99 85 100 64 101 65 102
REMARK SMILES IDX 73 103 66 104 72 105 67 106 68 107 69 108 70 109 71 110
REMARK H PARENT 107 39 92 66 62 77
REMARK Flexibility Score: inf
ROOT
ATOM      1  C   UNL A   1      31.909  27.183  23.642  1.00  0.00     0.188 C 
ENDROOT
BRANCH   1   2
ATOM      2  C   UNL A   1      32.225  25.908  24.429  1.00  0.00     0.188 C 
BRANCH   2   3
ATOM      3  O   UNL A   1      31.933  24.698  23.733  1.00  0.00    -0.376 OA
BRANCH   3   4
ATOM      4  C   UNL A   1      32.294  24.691  22.356  1.00  0.00     0.202 C 
BRANCH   4   5
ATOM      5  C   UNL A   1      33.562  23.866  22.150  1.00  0.00     0.261 C 
BRANCH   5   6
ATOM      6  O   UNL A   1      33.883  23.111  23.315  1.00  0.00    -0.462 OA
BRANCH   6   7
ATOM      7  C   UNL A   1      35.203  22.939  23.509  1.00  0.00     0.328 C 
ATOM      8  O   UNL A   1      36.068  23.183  22.678  1.00  0.00    -0.250 OA
BRANCH   7   9
ATOM      9  C   UNL A   1      35.458  22.405  24.918  1.00  0.00     0.195 C 
ATOM     10  N   UNL A   1      36.166  21.126  24.941  1.00  0.00    -0.326 N 
ATOM     11  C   UNL A   1      35.216  20.015  25.019  1.00  0.00     0.120 C 
ATOM     12  C   UNL A   1      33.835  20.643  24.923  1.00  0.00     0.024 C 
ATOM     13  C   UNL A   1      34.071  22.048  25.481  1.00  0.00     0.039 C 
BRANCH  10  14
ATOM     14  C   UNL A   1      37.519  20.873  25.012  1.00  0.00     0.264 C 
ATOM     15  O   UNL A   1      37.913  19.712  24.810  1.00  0.00    -0.271 OA
BRANCH  14  16
ATOM     16  C   UNL A   1      38.588  21.943  25.425  1.00  0.00     0.363 C 
BRANCH  16  17
ATOM     17  O   UNL A   1      38.505  22.924  26.453  1.00  0.00    -0.385 OA
BRANCH  17  18
ATOM     18  N   UNL A   1      39.745  23.003  27.112  1.00  0.00    -0.091 NA
ATOM     19  C   UNL A   1      43.905  29.318  31.456  1.00  0.00     0.014 C 
ATOM     20  C   UNL A   1      43.142  27.993  31.163  1.00  0.00    -0.003 C 
ATOM     21  C   UNL A   1      43.936  27.355  30.032  1.00  0.00     0.010 C 
ATOM     22  C   UNL A   1      41.615  28.172  30.897  1.00  0.00     0.001 C 
ATOM     23  C   UNL A   1      42.984  27.114  32.419  1.00  0.00     0.120 C 
ATOM     24  C   UNL A   1      43.575  27.988  28.687  1.00  0.00     0.005 C 
ATOM     25  C   UNL A   1      41.304  28.849  29.567  1.00  0.00    -0.003 C 
ATOM     26  C   UNL A   1      41.147  28.725  32.260  1.00  0.00     0.007 C 
ATOM     27  C   UNL A   1      42.066  27.988  33.284  1.00  0.00     0.032 C 
ATOM     28  C   UNL A   1      42.052  28.121  28.428  1.00  0.00     0.002 C 
ATOM     29  C   UNL A   1      39.828  28.963  29.144  1.00  0.00     0.008 C 
ATOM     30  C   UNL A   1      41.435  26.757  27.925  1.00  0.00    -0.008 C 
ATOM     31  C   UNL A   1      39.116  27.668  28.731  1.00  0.00     0.032 C 
ATOM     32  C   UNL A   1      39.919  26.588  28.039  1.00  0.00    -0.062 C 
ATOM     33  C   UNL A   1      42.004  25.520  28.652  1.00  0.00     0.018 C 
ATOM     34  C   UNL A   1      41.880  26.733  26.440  1.00  0.00     0.016 C 
ATOM     35  C   UNL A   1      39.289  25.415  27.758  1.00  0.00     0.027 C 
ATOM     36  C   UNL A   1      41.449  24.170  28.261  1.00  0.00     0.061 C 
ATOM     37  C   UNL A   1      40.077  24.155  27.615  1.00  0.00     0.080 C 
BRANCH  23  38
ATOM     38  O   UNL A   1      44.193  26.764  33.047  1.00  0.00    -0.393 OA
ATOM     39  H   UNL A   1      44.238  25.801  33.148  1.00  0.00     0.210 HD
ENDBRANCH  23  38
ENDBRANCH  17  18
ENDBRANCH  16  17
ENDBRANCH  14  16
ENDBRANCH  10  14
ENDBRANCH   7   9
ENDBRANCH   6   7
ENDBRANCH   5   6
ENDBRANCH   4   5
ENDBRANCH   3   4
ENDBRANCH   2   3
ENDBRANCH   1   2
BRANCH   1  40
ATOM     40  O   UNL A   1      30.776  27.834  24.212  1.00  0.00    -0.377 OA
BRANCH  40  41
ATOM     41  C   UNL A   1      30.528  29.100  23.616  1.00  0.00     0.188 C 
BRANCH  41  42
ATOM     42  C   UNL A   1      30.746  30.246  24.589  1.00  0.00     0.188 C 
BRANCH  42  43
ATOM     43  O   UNL A   1      31.552  30.032  25.724  1.00  0.00    -0.376 OA
BRANCH  43  44
ATOM     44  C   UNL A   1      31.964  31.097  26.561  1.00  0.00     0.202 C 
BRANCH  44  45
ATOM     45  C   UNL A   1      33.265  31.095  27.387  1.00  0.00     0.261 C 
BRANCH  45  46
ATOM     46  O   UNL A   1      34.081  32.275  27.475  1.00  0.00    -0.460 OA
BRANCH  46  47
ATOM     47  C   UNL A   1      33.756  33.260  28.336  1.00  0.00     0.338 C 
ATOM     48  O   UNL A   1      32.838  34.044  28.246  1.00  0.00    -0.246 OA
BRANCH  47  49
ATOM     49  C   UNL A   1      34.666  33.151  29.508  1.00  0.00     0.060 A 
ATOM     50  C   UNL A   1      35.074  34.318  30.164  1.00  0.00     0.016 A 
ATOM     51  C   UNL A   1      35.173  31.912  29.913  1.00  0.00     0.016 A 
ATOM     52  C   UNL A   1      36.031  34.255  31.186  1.00  0.00     0.010 A 
ATOM     53  C   UNL A   1      36.144  31.853  30.927  1.00  0.00     0.010 A 
ATOM     54  C   UNL A   1      36.612  33.029  31.542  1.00  0.00    -0.014 A 
BRANCH  54  55
ATOM     55  C   UNL A   1      37.844  33.003  32.384  1.00  0.00     0.031 A 
ATOM     56  C   UNL A   1      39.186  32.968  31.695  1.00  0.00     0.074 A 
ATOM     57  C   UNL A   1      37.803  33.041  33.730  1.00  0.00     0.049 A 
ATOM     58  N   UNL A   1      40.387  32.914  32.214  1.00  0.00    -0.248 NA
ATOM     59  C   UNL A   1      39.168  33.004  30.223  1.00  0.00     0.031 C 
ATOM     60  C   UNL A   1      36.592  33.130  34.541  1.00  0.00     0.029 A 
ATOM     61  N   UNL A   1      38.824  33.002  34.654  1.00  0.00    -0.354 N 
ATOM     62  C   UNL A   1      41.266  32.909  31.137  1.00  0.00     0.074 A 
ATOM     63  C   UNL A   1      40.459  32.936  29.936  1.00  0.00     0.031 C 
ATOM     64  C   UNL A   1      36.941  33.123  35.841  1.00  0.00     0.029 A 
ATOM     65  C   UNL A   1      38.394  33.009  35.961  1.00  0.00     0.049 A 
ATOM     66  H   UNL A   1      39.775  32.974  34.402  1.00  0.00     0.167 HD
ATOM     67  C   UNL A   1      42.621  32.887  31.138  1.00  0.00     0.031 A 
ATOM     68  C   UNL A   1      39.078  32.914  37.122  1.00  0.00     0.031 A 
ATOM     69  C   UNL A   1      43.437  32.833  32.322  1.00  0.00     0.049 A 
ATOM     70  C   UNL A   1      40.582  32.787  37.098  1.00  0.00     0.074 A 
ATOM     71  C   UNL A   1      44.819  32.798  32.412  1.00  0.00     0.029 A 
ATOM     72  N   UNL A   1      42.954  32.793  33.620  1.00  0.00    -0.354 N 
ATOM     73  N   UNL A   1      41.397  32.799  36.070  1.00  0.00    -0.248 NA
ATOM     74  C   UNL A   1      41.261  32.632  38.395  1.00  0.00     0.031 C 
ATOM     75  C   UNL A   1      45.169  32.668  33.758  1.00  0.00     0.029 A 
ATOM     76  C   UNL A   1      44.009  32.700  34.515  1.00  0.00     0.049 A 
ATOM     77  H   UNL A   1      42.003  32.825  33.870  1.00  0.00     0.167 HD
ATOM     78  C   UNL A   1      42.681  32.688  36.599  1.00  0.00     0.074 A 
ATOM     79  C   UNL A   1      42.538  32.624  38.037  1.00  0.00     0.031 C 
ATOM     80  C   UNL A   1      43.870  32.644  35.949  1.00  0.00     0.031 A 
BRANCH  67  81
ATOM     81  C   UNL A   1      43.316  32.875  29.800  1.00  0.00    -0.014 A 
ATOM     82  C   UNL A   1      43.821  34.055  29.226  1.00  0.00     0.010 A 
ATOM     83  C   UNL A   1      43.504  31.652  29.129  1.00  0.00     0.010 A 
ATOM     84  C   UNL A   1      44.471  34.017  27.989  1.00  0.00     0.020 A 
ATOM     85  C   UNL A   1      44.179  31.607  27.906  1.00  0.00     0.020 A 
ATOM     86  C   UNL A   1      44.644  32.793  27.336  1.00  0.00     0.054 A 
BRANCH  86  87
ATOM     87  S   UNL A   1      45.512  32.771  25.743  1.00  0.00     0.124 S 
ATOM     88  O   UNL A   1      46.188  31.477  25.787  1.00  0.00    -0.237 OA
ATOM     89  O   UNL A   1      44.417  32.877  24.782  1.00  0.00    -0.237 OA
ATOM     90  O   UNL A   1      46.392  33.935  25.812  1.00  0.00    -0.744 OA
ENDBRANCH  86  87
ENDBRANCH  67  81
BRANCH  68  91
ATOM     91  C   UNL A   1      38.350  32.899  38.426  1.00  0.00    -0.014 A 
ATOM     92  C   UNL A   1      37.550  31.802  38.797  1.00  0.00     0.010 A 
ATOM     93  C   UNL A   1      38.422  34.008  39.289  1.00  0.00     0.010 A 
ATOM     94  C   UNL A   1      36.821  31.825  39.991  1.00  0.00     0.020 A 
ATOM     95  C   UNL A   1      37.723  34.020  40.499  1.00  0.00     0.020 A 
ATOM     96  C   UNL A   1      36.917  32.934  40.837  1.00  0.00     0.054 A 
BRANCH  96  97
ATOM     97  S   UNL A   1      36.003  32.923  42.404  1.00  0.00     0.124 S 
ATOM     98  O   UNL A   1      36.079  34.322  42.813  1.00  0.00    -0.237 OA
ATOM     99  O   UNL A   1      34.683  32.452  41.992  1.00  0.00    -0.237 OA
ATOM    100  O   UNL A   1      36.758  31.985  43.232  1.00  0.00    -0.744 OA
ENDBRANCH  96  97
ENDBRANCH  68  91
BRANCH  80 101
ATOM    101  C   UNL A   1      45.131  32.570  36.775  1.00  0.00    -0.014 A 
ATOM    102  C   UNL A   1      45.987  33.676  36.918  1.00  0.00     0.010 A 
ATOM    103  C   UNL A   1      45.429  31.386  37.477  1.00  0.00     0.010 A 
ATOM    104  C   UNL A   1      47.129  33.591  37.721  1.00  0.00     0.020 A 
ATOM    105  C   UNL A   1      46.553  31.306  38.305  1.00  0.00     0.020 A 
ATOM    106  C   UNL A   1      47.404  32.407  38.412  1.00  0.00     0.054 A 
BRANCH 106 107
ATOM    107  S   UNL A   1      48.867  32.338  39.483  1.00  0.00     0.124 S 
ATOM    108  O   UNL A   1      48.376  32.960  40.710  1.00  0.00    -0.237 OA
ATOM    109  O   UNL A   1      49.132  30.904  39.569  1.00  0.00    -0.237 OA
ATOM    110  O   UNL A   1      49.871  33.108  38.753  1.00  0.00    -0.744 OA
ENDBRANCH 106 107
ENDBRANCH  80 101
ENDBRANCH  54  55
ENDBRANCH  47  49
ENDBRANCH  46  47
ENDBRANCH  45  46
ENDBRANCH  44  45
ENDBRANCH  43  44
ENDBRANCH  42  43
ENDBRANCH  41  42
ENDBRANCH  40  41
ENDBRANCH   1  40
TORSDOF 28
ENDMDL
MODEL 2
REMARK VINA RESULT:      -8.5      4.197     11.275
REMARK SMILES C[C@]12CC[C@@H]3[C@@H](CCC4=C/C(=N\OCC(=O)N5CCC[C@@H]5C(=O)OCCOCCOCCOCCOC(=O)c5ccc(-c6c7nc(c(-c8ccc(S(=O)(=O)[O-])cc8)c8ccc([nH]8)c(-c8ccc(S(=O)(=O)[O-])cc8)c8nc(c(-c9ccc(S(=O)(=O)[O-])cc9)c9ccc6[nH]9)C=C8)C=C7)cc5)CC[C@@]43C)[C@@H]1CC[C@@H]2O
REMARK SMILES IDX 29 1 28 2 27 3 26 4 25 5 24 6 22 7 23 8 21 9 17 10 18 11
REMARK SMILES IDX 19 12 20 13 15 14 16 15 14 16 13 17 12 18 1 19 2 20 3 21
REMARK SMILES IDX 103 22 106 23 4 24 6 25 104 26 105 27 5 28 7 29 101 30 8 31
REMARK SMILES IDX 9 32 100 33 102 34 10 35 99 36 11 37 107 38 30 40 31 41
REMARK SMILES IDX 32 42 33 43 34 44 35 45 36 46 37 47 38 48 39 49 40 50 98 51
REMARK SMILES IDX 41 52 97 53 42 54 43 55 44 56 91 57 45 58 96 59 90 60 92 61
REMARK SMILES IDX 46 62 95 63 89 64 88 65 47 67 77 68 58 69 76 70 59 71 62 72
REMARK SMILES IDX 75 73 93 74 60 75 61 76 74 78 94 79 63 80 48 81 49 82 57 83
REMARK SMILES IDX 50 84 56 85 51 86 52 87 53 88 54 89 55 90 78 91 79 92 87 93
REMARK SMILES IDX 80 94 86 95 81 96 82 97 83 98 84 99 85 100 64 101 65 102
REMARK SMILES IDX 73 103 66 104 72 105 67 106 68 107 69 108 70 109 71 110
REMARK H PARENT 107 39 92 66 62 77
REMARK Flexibility Score: inf
ROOT
ATOM      1  C   UNL A   1      32.761  35.798  29.280  1.00  0.00     0.188 C 
ENDROOT
BRANCH   1   2
ATOM      2  C   UNL A   1      34.128  35.129  29.439  1.00  0.00     0.188 C 
BRANCH   2   3
ATOM      3  O   UNL A   1      34.122  33.962  30.259  1.00  0.00    -0.376 OA
BRANCH   3   4
ATOM      4  C   UNL A   1      35.388  33.332  30.423  1.00  0.00     0.202 C 
BRANCH   4   5
ATOM      5  C   UNL A   1      36.479  34.165  29.756  1.00  0.00     0.261 C 
BRANCH   5   6
ATOM      6  O   UNL A   1      37.221  33.391  28.818  1.00  0.00    -0.462 OA
BRANCH   6   7
ATOM      7  C   UNL A   1      37.843  32.326  29.355  1.00  0.00     0.328 C 
ATOM      8  O   UNL A   1      38.458  32.339  30.415  1.00  0.00    -0.250 OA
BRANCH   7   9
ATOM      9  C   UNL A   1      37.661  31.106  28.455  1.00  0.00     0.195 C 
ATOM     10  N   UNL A   1      36.300  30.574  28.455  1.00  0.00    -0.326 N 
ATOM     11  C   UNL A   1      36.171  29.493  29.434  1.00  0.00     0.120 C 
ATOM     12  C   UNL A   1      37.504  29.432  30.161  1.00  0.00     0.024 C 
ATOM     13  C   UNL A   1      38.477  29.980  29.115  1.00  0.00     0.039 C 
BRANCH  10  14
ATOM     14  C   UNL A   1      35.241  30.870  27.622  1.00  0.00     0.264 C 
ATOM     15  O   UNL A   1      34.892  32.057  27.512  1.00  0.00    -0.271 OA
BRANCH  14  16
ATOM     16  C   UNL A   1      34.388  29.788  26.875  1.00  0.00     0.363 C 
BRANCH  16  17
ATOM     17  O   UNL A   1      32.973  29.724  26.728  1.00  0.00    -0.385 OA
BRANCH  17  18
ATOM     18  N   UNL A   1      32.517  28.487  27.217  1.00  0.00    -0.091 NA
ATOM     19  C   UNL A   1      32.376  20.384  23.995  1.00  0.00     0.014 C 
ATOM     20  C   UNL A   1      32.748  21.604  24.888  1.00  0.00    -0.003 C 
ATOM     21  C   UNL A   1      31.402  22.134  25.363  1.00  0.00     0.010 C 
ATOM     22  C   UNL A   1      33.679  22.649  24.198  1.00  0.00     0.001 C 
ATOM     23  C   UNL A   1      33.731  21.232  26.014  1.00  0.00     0.120 C 
ATOM     24  C   UNL A   1      30.740  22.989  24.281  1.00  0.00     0.005 C 
ATOM     25  C   UNL A   1      32.989  23.445  23.095  1.00  0.00    -0.003 C 
ATOM     26  C   UNL A   1      34.945  21.798  23.965  1.00  0.00     0.007 C 
ATOM     27  C   UNL A   1      34.982  20.857  25.209  1.00  0.00     0.032 C 
ATOM     28  C   UNL A   1      31.674  24.046  23.636  1.00  0.00     0.002 C 
ATOM     29  C   UNL A   1      33.778  24.590  22.432  1.00  0.00     0.008 C 
ATOM     30  C   UNL A   1      31.795  25.333  24.544  1.00  0.00    -0.008 C 
ATOM     31  C   UNL A   1      34.029  25.846  23.277  1.00  0.00     0.032 C 
ATOM     32  C   UNL A   1      32.983  26.263  24.287  1.00  0.00    -0.062 C 
ATOM     33  C   UNL A   1      31.891  25.015  26.051  1.00  0.00     0.018 C 
ATOM     34  C   UNL A   1      30.457  26.058  24.253  1.00  0.00     0.016 C 
ATOM     35  C   UNL A   1      33.264  27.329  25.084  1.00  0.00     0.027 C 
ATOM     36  C   UNL A   1      32.044  26.182  26.999  1.00  0.00     0.061 C 
ATOM     37  C   UNL A   1      32.605  27.466  26.417  1.00  0.00     0.080 C 
BRANCH  23  38
ATOM     38  O   UNL A   1      33.281  20.214  26.874  1.00  0.00    -0.393 OA
ATOM     39  H   UNL A   1      33.446  19.350  26.466  1.00  0.00     0.210 HD
ENDBRANCH  23  38
ENDBRANCH  17  18
ENDBRANCH  16  17
ENDBRANCH  14  16
ENDBRANCH  10  14
ENDBRANCH   7   9
ENDBRANCH   6   7
ENDBRANCH   5   6
ENDBRANCH   4   5
ENDBRANCH   3   4
ENDBRANCH   2   3
ENDBRANCH   1   2
BRANCH   1  40
ATOM     40  O   UNL A   1      32.349  36.359  30.524  1.00  0.00    -0.377 OA
BRANCH  40  41
ATOM     41  C   UNL A   1      33.391  37.089  31.155  1.00  0.00     0.188 C 
BRANCH  41  42
ATOM     42  C   UNL A   1      33.267  37.077  32.669  1.00  0.00     0.188 C 
BRANCH  42  43
ATOM     43  O   UNL A   1      34.402  36.771  33.444  1.00  0.00    -0.376 OA
BRANCH  43  44
ATOM     44  C   UNL A   1      34.864  35.442  33.603  1.00  0.00     0.202 C 
BRANCH  44  45
ATOM     45  C   UNL A   1      36.257  34.951  33.161  1.00  0.00     0.261 C 
BRANCH  45  46
ATOM     46  O   UNL A   1      37.032  34.084  34.005  1.00  0.00    -0.460 OA
BRANCH  46  47
ATOM     47  C   UNL A   1      36.861  32.748  33.942  1.00  0.00     0.338 C 
ATOM     48  O   UNL A   1      35.860  32.149  33.622  1.00  0.00    -0.246 OA
BRANCH  47  49
ATOM     49  C   UNL A   1      38.176  32.113  34.229  1.00  0.00     0.060 A 
ATOM     50  C   UNL A   1      39.340  32.699  33.719  1.00  0.00     0.016 A 
ATOM     51  C   UNL A   1      38.254  30.907  34.933  1.00  0.00     0.016 A 
ATOM     52  C   UNL A   1      40.576  32.054  33.864  1.00  0.00     0.010 A 
ATOM     53  C   UNL A   1      39.491  30.254  35.062  1.00  0.00     0.010 A 
ATOM     54  C   UNL A   1      40.655  30.802  34.491  1.00  0.00    -0.014 A 
BRANCH  54  55
ATOM     55  C   UNL A   1      41.892  29.977  34.357  1.00  0.00     0.031 A 
ATOM     56  C   UNL A   1      42.874  29.960  35.503  1.00  0.00     0.074 A 
ATOM     57  C   UNL A   1      42.148  29.227  33.268  1.00  0.00     0.049 A 
ATOM     58  N   UNL A   1      44.025  29.344  35.603  1.00  0.00    -0.248 NA
ATOM     59  C   UNL A   1      42.503  30.741  36.695  1.00  0.00     0.031 C 
ATOM     60  C   UNL A   1      41.277  29.094  32.103  1.00  0.00     0.029 A 
ATOM     61  N   UNL A   1      43.234  28.434  32.967  1.00  0.00    -0.354 N 
ATOM     62  C   UNL A   1      44.515  29.660  36.866  1.00  0.00     0.074 A 
ATOM     63  C   UNL A   1      43.551  30.546  37.481  1.00  0.00     0.031 C 
ATOM     64  C   UNL A   1      41.871  28.281  31.210  1.00  0.00     0.029 A 
ATOM     65  C   UNL A   1      43.171  27.850  31.723  1.00  0.00     0.049 A 
ATOM     66  H   UNL A   1      43.985  28.296  33.587  1.00  0.00     0.167 HD
ATOM     67  C   UNL A   1      45.660  29.253  37.466  1.00  0.00     0.031 A 
ATOM     68  C   UNL A   1      44.057  27.077  31.058  1.00  0.00     0.031 A 
ATOM     69  C   UNL A   1      46.641  28.395  36.857  1.00  0.00     0.049 A 
ATOM     70  C   UNL A   1      45.373  26.719  31.705  1.00  0.00     0.074 A 
ATOM     71  C   UNL A   1      47.835  27.940  37.393  1.00  0.00     0.029 A 
ATOM     72  N   UNL A   1      46.556  27.869  35.579  1.00  0.00    -0.354 N 
ATOM     73  N   UNL A   1      45.812  27.015  32.905  1.00  0.00    -0.248 NA
ATOM     74  C   UNL A   1      46.317  25.920  30.906  1.00  0.00     0.031 C 
ATOM     75  C   UNL A   1      48.502  27.198  36.415  1.00  0.00     0.029 A 
ATOM     76  C   UNL A   1      47.690  27.124  35.296  1.00  0.00     0.049 A 
ATOM     77  H   UNL A   1      45.801  28.005  34.961  1.00  0.00     0.167 HD
ATOM     78  C   UNL A   1      47.064  26.411  33.013  1.00  0.00     0.074 A 
ATOM     79  C   UNL A   1      47.306  25.722  31.766  1.00  0.00     0.031 C 
ATOM     80  C   UNL A   1      47.931  26.429  34.056  1.00  0.00     0.031 A 
BRANCH  67  81
ATOM     81  C   UNL A   1      45.940  29.775  38.852  1.00  0.00    -0.014 A 
ATOM     82  C   UNL A   1      46.648  30.972  39.055  1.00  0.00     0.010 A 
ATOM     83  C   UNL A   1      45.443  29.075  39.968  1.00  0.00     0.010 A 
ATOM     84  C   UNL A   1      46.886  31.441  40.351  1.00  0.00     0.020 A 
ATOM     85  C   UNL A   1      45.654  29.557  41.263  1.00  0.00     0.020 A 
ATOM     86  C   UNL A   1      46.388  30.729  41.446  1.00  0.00     0.054 A 
BRANCH  86  87
ATOM     87  S   UNL A   1      46.691  31.375  43.114  1.00  0.00     0.124 S 
ATOM     88  O   UNL A   1      46.944  30.150  43.870  1.00  0.00    -0.237 OA
ATOM     89  O   UNL A   1      47.850  32.241  42.915  1.00  0.00    -0.237 OA
ATOM     90  O   UNL A   1      45.450  32.068  43.450  1.00  0.00    -0.744 OA
ENDBRANCH  86  87
ENDBRANCH  67  81
BRANCH  68  91
ATOM     91  C   UNL A   1      43.756  26.606  29.673  1.00  0.00    -0.014 A 
ATOM     92  C   UNL A   1      43.375  25.273  29.427  1.00  0.00     0.010 A 
ATOM     93  C   UNL A   1      43.893  27.484  28.582  1.00  0.00     0.010 A 
ATOM     94  C   UNL A   1      43.157  24.826  28.120  1.00  0.00     0.020 A 
ATOM     95  C   UNL A   1      43.642  27.050  27.278  1.00  0.00     0.020 A 
ATOM     96  C   UNL A   1      43.289  25.720  27.053  1.00  0.00     0.054 A 
BRANCH  96  97
ATOM     97  S   UNL A   1      42.955  25.132  25.369  1.00  0.00     0.124 S 
ATOM     98  O   UNL A   1      44.298  24.862  24.867  1.00  0.00    -0.237 OA
ATOM     99  O   UNL A   1      42.118  23.959  25.609  1.00  0.00    -0.237 OA
ATOM    100  O   UNL A   1      42.266  26.260  24.745  1.00  0.00    -0.744 OA
ENDBRANCH  96  97
ENDBRANCH  68  91
BRANCH  80 101
ATOM    101  C   UNL A   1      49.212  25.641  33.928  1.00  0.00    -0.014 A 
ATOM    102  C   UNL A   1      49.327  24.331  34.426  1.00  0.00     0.010 A 
ATOM    103  C   UNL A   1      50.302  26.203  33.236  1.00  0.00     0.010 A 
ATOM    104  C   UNL A   1      50.515  23.610  34.260  1.00  0.00     0.020 A 
ATOM    105  C   UNL A   1      51.481  25.475  33.041  1.00  0.00     0.020 A 
ATOM    106  C   UNL A   1      51.583  24.186  33.567  1.00  0.00     0.054 A 
BRANCH 106 107
ATOM    107  S   UNL A   1      53.096  23.213  33.326  1.00  0.00     0.124 S 
ATOM    108  O   UNL A   1      53.916  24.118  32.524  1.00  0.00    -0.237 OA
ATOM    109  O   UNL A   1      53.557  22.995  34.695  1.00  0.00    -0.237 OA
ATOM    110  O   UNL A   1      52.633  22.013  32.632  1.00  0.00    -0.744 OA
ENDBRANCH 106 107
ENDBRANCH  80 101
ENDBRANCH  54  55
ENDBRANCH  47  49
ENDBRANCH  46  47
ENDBRANCH  45  46
ENDBRANCH  44  45
ENDBRANCH  43  44
ENDBRANCH  42  43
ENDBRANCH  41  42
ENDBRANCH  40  41
ENDBRANCH   1  40
TORSDOF 28
ENDMDL
MODEL 3
REMARK VINA RESULT:      -8.4      4.162      9.361
REMARK SMILES C[C@]12CC[C@@H]3[C@@H](CCC4=C/C(=N\OCC(=O)N5CCC[C@@H]5C(=O)OCCOCCOCCOCCOC(=O)c5ccc(-c6c7nc(c(-c8ccc(S(=O)(=O)[O-])cc8)c8ccc([nH]8)c(-c8ccc(S(=O)(=O)[O-])cc8)c8nc(c(-c9ccc(S(=O)(=O)[O-])cc9)c9ccc6[nH]9)C=C8)C=C7)cc5)CC[C@@]43C)[C@@H]1CC[C@@H]2O
REMARK SMILES IDX 29 1 28 2 27 3 26 4 25 5 24 6 22 7 23 8 21 9 17 10 18 11
REMARK SMILES IDX 19 12 20 13 15 14 16 15 14 16 13 17 12 18 1 19 2 20 3 21
REMARK SMILES IDX 103 22 106 23 4 24 6 25 104 26 105 27 5 28 7 29 101 30 8 31
REMARK SMILES IDX 9 32 100 33 102 34 10 35 99 36 11 37 107 38 30 40 31 41
REMARK SMILES IDX 32 42 33 43 34 44 35 45 36 46 37 47 38 48 39 49 40 50 98 51
REMARK SMILES IDX 41 52 97 53 42 54 43 55 44 56 91 57 45 58 96 59 90 60 92 61
REMARK SMILES IDX 46 62 95 63 89 64 88 65 47 67 77 68 58 69 76 70 59 71 62 72
REMARK SMILES IDX 75 73 93 74 60 75 61 76 74 78 94 79 63 80 48 81 49 82 57 83
REMARK SMILES IDX 50 84 56 85 51 86 52 87 53 88 54 89 55 90 78 91 79 92 87 93
REMARK SMILES IDX 80 94 86 95 81 96 82 97 83 98 84 99 85 100 64 101 65 102
REMARK SMILES IDX 73 103 66 104 72 105 67 106 68 107 69 108 70 109 71 110
REMARK H PARENT 107 39 92 66 62 77
REMARK Flexibility Score: inf
ROOT
ATOM      1  C   UNL A   1      32.947  35.145  29.361  1.00  0.00     0.188 C 
ENDROOT
BRANCH   1   2
ATOM      2  C   UNL A   1      34.404  34.778  29.654  1.00  0.00     0.188 C 
BRANCH   2   3
ATOM      3  O   UNL A   1      34.570  33.586  30.418  1.00  0.00    -0.376 OA
BRANCH   3   4
ATOM      4  C   UNL A   1      35.909  33.115  30.520  1.00  0.00     0.202 C 
BRANCH   4   5
ATOM      5  C   UNL A   1      36.841  33.999  29.697  1.00  0.00     0.261 C 
BRANCH   5   6
ATOM      6  O   UNL A   1      37.647  33.223  28.815  1.00  0.00    -0.462 OA
BRANCH   6   7
ATOM      7  C   UNL A   1      38.226  32.157  29.397  1.00  0.00     0.328 C 
ATOM      8  O   UNL A   1      38.833  32.187  30.460  1.00  0.00    -0.250 OA
BRANCH   7   9
ATOM      9  C   UNL A   1      38.006  30.911  28.540  1.00  0.00     0.195 C 
ATOM     10  N   UNL A   1      36.616  30.460  28.506  1.00  0.00    -0.326 N 
ATOM     11  C   UNL A   1      36.386  29.432  29.522  1.00  0.00     0.120 C 
ATOM     12  C   UNL A   1      37.684  29.325  30.306  1.00  0.00     0.024 C 
ATOM     13  C   UNL A   1      38.727  29.770  29.279  1.00  0.00     0.039 C 
BRANCH  10  14
ATOM     14  C   UNL A   1      35.610  30.781  27.620  1.00  0.00     0.264 C 
ATOM     15  O   UNL A   1      35.349  31.981  27.433  1.00  0.00    -0.271 OA
BRANCH  14  16
ATOM     16  C   UNL A   1      34.709  29.719  26.899  1.00  0.00     0.363 C 
BRANCH  16  17
ATOM     17  O   UNL A   1      33.289  29.692  26.791  1.00  0.00    -0.385 OA
BRANCH  17  18
ATOM     18  N   UNL A   1      32.815  28.469  27.300  1.00  0.00    -0.091 NA
ATOM     19  C   UNL A   1      32.345  20.364  24.116  1.00  0.00     0.014 C 
ATOM     20  C   UNL A   1      32.779  21.576  24.991  1.00  0.00    -0.003 C 
ATOM     21  C   UNL A   1      31.465  22.145  25.507  1.00  0.00     0.010 C 
ATOM     22  C   UNL A   1      33.716  22.592  24.267  1.00  0.00     0.001 C 
ATOM     23  C   UNL A   1      33.788  21.180  26.086  1.00  0.00     0.120 C 
ATOM     24  C   UNL A   1      30.792  23.014  24.444  1.00  0.00     0.005 C 
ATOM     25  C   UNL A   1      33.014  23.404  23.185  1.00  0.00    -0.003 C 
ATOM     26  C   UNL A   1      34.950  21.706  23.997  1.00  0.00     0.007 C 
ATOM     27  C   UNL A   1      35.001  20.767  25.243  1.00  0.00     0.032 C 
ATOM     28  C   UNL A   1      31.733  24.043  23.765  1.00  0.00     0.002 C 
ATOM     29  C   UNL A   1      33.811  24.524  22.492  1.00  0.00     0.008 C 
ATOM     30  C   UNL A   1      31.920  25.328  24.664  1.00  0.00    -0.008 C 
ATOM     31  C   UNL A   1      34.125  25.775  23.323  1.00  0.00     0.032 C 
ATOM     32  C   UNL A   1      33.124  26.224  24.365  1.00  0.00    -0.062 C 
ATOM     33  C   UNL A   1      32.055  25.012  26.169  1.00  0.00     0.018 C 
ATOM     34  C   UNL A   1      30.593  26.090  24.414  1.00  0.00     0.016 C 
ATOM     35  C   UNL A   1      33.461  27.285  25.149  1.00  0.00     0.027 C 
ATOM     36  C   UNL A   1      32.272  26.177  27.106  1.00  0.00     0.061 C 
ATOM     37  C   UNL A   1      32.849  27.443  26.502  1.00  0.00     0.080 C 
BRANCH  23  38
ATOM     38  O   UNL A   1      33.339  20.177  26.964  1.00  0.00    -0.393 OA
ATOM     39  H   UNL A   1      33.095  19.388  26.456  1.00  0.00     0.210 HD
ENDBRANCH  23  38
ENDBRANCH  17  18
ENDBRANCH  16  17
ENDBRANCH  14  16
ENDBRANCH  10  14
ENDBRANCH   7   9
ENDBRANCH   6   7
ENDBRANCH   5   6
ENDBRANCH   4   5
ENDBRANCH   3   4
ENDBRANCH   2   3
ENDBRANCH   1   2
BRANCH   1  40
ATOM     40  O   UNL A   1      32.319  35.618  30.551  1.00  0.00    -0.377 OA
BRANCH  40  41
ATOM     41  C   UNL A   1      33.025  36.703  31.137  1.00  0.00     0.188 C 
BRANCH  41  42
ATOM     42  C   UNL A   1      32.872  36.740  32.647  1.00  0.00     0.188 C 
BRANCH  42  43
ATOM     43  O   UNL A   1      34.021  36.614  33.452  1.00  0.00    -0.376 OA
BRANCH  43  44
ATOM     44  C   UNL A   1      34.652  35.364  33.663  1.00  0.00     0.202 C 
BRANCH  44  45
ATOM     45  C   UNL A   1      36.102  35.047  33.248  1.00  0.00     0.261 C 
BRANCH  45  46
ATOM     46  O   UNL A   1      36.936  34.213  34.069  1.00  0.00    -0.460 OA
BRANCH  46  47
ATOM     47  C   UNL A   1      36.840  32.871  33.988  1.00  0.00     0.338 C 
ATOM     48  O   UNL A   1      35.900  32.222  33.587  1.00  0.00    -0.246 OA
BRANCH  47  49
ATOM     49  C   UNL A   1      38.160  32.302  34.374  1.00  0.00     0.060 A 
ATOM     50  C   UNL A   1      39.329  32.950  33.960  1.00  0.00     0.016 A 
ATOM     51  C   UNL A   1      38.246  31.097  35.079  1.00  0.00     0.016 A 
ATOM     52  C   UNL A   1      40.581  32.368  34.198  1.00  0.00     0.010 A 
ATOM     53  C   UNL A   1      39.501  30.507  35.302  1.00  0.00     0.010 A 
ATOM     54  C   UNL A   1      40.676  31.118  34.826  1.00  0.00    -0.014 A 
BRANCH  54  55
ATOM     55  C   UNL A   1      41.960  30.359  34.786  1.00  0.00     0.031 A 
ATOM     56  C   UNL A   1      42.340  29.653  33.508  1.00  0.00     0.074 A 
ATOM     57  C   UNL A   1      42.804  30.306  35.835  1.00  0.00     0.049 A 
ATOM     58  N   UNL A   1      43.387  28.912  33.245  1.00  0.00    -0.248 NA
ATOM     59  C   UNL A   1      41.415  29.808  32.374  1.00  0.00     0.031 C 
ATOM     60  C   UNL A   1      42.608  30.976  37.118  1.00  0.00     0.029 A 
ATOM     61  N   UNL A   1      44.003  29.645  35.982  1.00  0.00    -0.354 N 
ATOM     62  C   UNL A   1      43.248  28.514  31.920  1.00  0.00     0.074 A 
ATOM     63  C   UNL A   1      42.001  29.071  31.443  1.00  0.00     0.031 C 
ATOM     64  C   UNL A   1      43.644  30.677  37.924  1.00  0.00     0.029 A 
ATOM     65  C   UNL A   1      44.567  29.781  37.229  1.00  0.00     0.049 A 
ATOM     66  H   UNL A   1      44.420  29.122  35.259  1.00  0.00     0.167 HD
ATOM     67  C   UNL A   1      44.079  27.757  31.162  1.00  0.00     0.031 A 
ATOM     68  C   UNL A   1      45.681  29.237  37.766  1.00  0.00     0.031 A 
ATOM     69  C   UNL A   1      45.308  27.174  31.630  1.00  0.00     0.049 A 
ATOM     70  C   UNL A   1      46.539  28.314  36.935  1.00  0.00     0.074 A 
ATOM     71  C   UNL A   1      46.205  26.385  30.928  1.00  0.00     0.029 A 
ATOM     72  N   UNL A   1      45.812  27.301  32.914  1.00  0.00    -0.354 N 
ATOM     73  N   UNL A   1      46.399  27.961  35.679  1.00  0.00    -0.248 NA
ATOM     74  C   UNL A   1      47.709  27.711  37.596  1.00  0.00     0.031 C 
ATOM     75  C   UNL A   1      47.214  25.979  31.807  1.00  0.00     0.029 A 
ATOM     76  C   UNL A   1      46.988  26.578  33.035  1.00  0.00     0.049 A 
ATOM     77  H   UNL A   1      45.395  27.827  33.635  1.00  0.00     0.167 HD
ATOM     78  C   UNL A   1      47.479  27.127  35.395  1.00  0.00     0.074 A 
ATOM     79  C   UNL A   1      48.270  27.038  36.602  1.00  0.00     0.031 C 
ATOM     80  C   UNL A   1      47.783  26.493  34.235  1.00  0.00     0.031 A 
BRANCH  67  81
ATOM     81  C   UNL A   1      43.657  27.475  29.743  1.00  0.00    -0.014 A 
ATOM     82  C   UNL A   1      42.785  26.416  29.435  1.00  0.00     0.010 A 
ATOM     83  C   UNL A   1      44.108  28.314  28.707  1.00  0.00     0.010 A 
ATOM     84  C   UNL A   1      42.400  26.179  28.111  1.00  0.00     0.020 A 
ATOM     85  C   UNL A   1      43.701  28.099  27.387  1.00  0.00     0.020 A 
ATOM     86  C   UNL A   1      42.862  27.023  27.096  1.00  0.00     0.054 A 
BRANCH  86  87
ATOM     87  S   UNL A   1      42.326  26.707  25.392  1.00  0.00     0.124 S 
ATOM     88  O   UNL A   1      42.392  28.042  24.803  1.00  0.00    -0.237 OA
ATOM     89  O   UNL A   1      43.327  25.758  24.913  1.00  0.00    -0.237 OA
ATOM     90  O   UNL A   1      40.979  26.162  25.547  1.00  0.00    -0.744 OA
ENDBRANCH  86  87
ENDBRANCH  67  81
BRANCH  68  91
ATOM     91  C   UNL A   1      46.048  29.518  39.186  1.00  0.00    -0.014 A 
ATOM     92  C   UNL A   1      45.730  28.606  40.210  1.00  0.00     0.010 A 
ATOM     93  C   UNL A   1      46.683  30.726  39.527  1.00  0.00     0.010 A 
ATOM     94  C   UNL A   1      46.021  28.908  41.545  1.00  0.00     0.020 A 
ATOM     95  C   UNL A   1      47.006  31.016  40.855  1.00  0.00     0.020 A 
ATOM     96  C   UNL A   1      46.661  30.110  41.858  1.00  0.00     0.054 A 
BRANCH  96  97
ATOM     97  S   UNL A   1      47.074  30.460  43.590  1.00  0.00     0.124 S 
ATOM     98  O   UNL A   1      48.433  29.940  43.693  1.00  0.00    -0.237 OA
ATOM     99  O   UNL A   1      46.943  31.914  43.654  1.00  0.00    -0.237 OA
ATOM    100  O   UNL A   1      46.060  29.719  44.338  1.00  0.00    -0.744 OA
ENDBRANCH  96  97
ENDBRANCH  68  91
BRANCH  80 101
ATOM    101  C   UNL A   1      49.053  25.679  34.181  1.00  0.00    -0.014 A 
ATOM    102  C   UNL A   1      49.074  24.319  34.536  1.00  0.00     0.010 A 
ATOM    103  C   UNL A   1      50.236  26.274  33.702  1.00  0.00     0.010 A 
ATOM    104  C   UNL A   1      50.258  23.578  34.440  1.00  0.00     0.020 A 
ATOM    105  C   UNL A   1      51.414  25.530  33.576  1.00  0.00     0.020 A 
ATOM    106  C   UNL A   1      51.419  24.189  33.959  1.00  0.00     0.054 A 
BRANCH 106 107
ATOM    107  S   UNL A   1      52.929  23.195  33.802  1.00  0.00     0.124 S 
ATOM    108  O   UNL A   1      52.475  21.878  34.243  1.00  0.00    -0.237 OA
ATOM    109  O   UNL A   1      53.240  23.307  32.379  1.00  0.00    -0.237 OA
ATOM    110  O   UNL A   1      53.878  23.857  34.695  1.00  0.00    -0.744 OA
ENDBRANCH 106 107
ENDBRANCH  80 101
ENDBRANCH  54  55
ENDBRANCH  47  49
ENDBRANCH  46  47
ENDBRANCH  45  46
ENDBRANCH  44  45
ENDBRANCH  43  44
ENDBRANCH  42  43
ENDBRANCH  41  42
ENDBRANCH  40  41
ENDBRANCH   1  40
TORSDOF 28
ENDMDL
