MODEL 1
REMARK VINA RESULT:      -9.2      0.000      0.000
REMARK SMILES O=C(OCCOCCOCCOCCOC(=O)[C@@H](F)[C@H]1CCCc2cccnc21)c1ccc(-c2c3nc(c(-c4ccc(S(=O)(=O)[O-])cc4)c4ccc([nH]4)c(-c4ccc(S(=O)(=O)[O-])cc4)c4nc(c(-c5ccc(S(=O)(=O)[O-])cc5)c5ccc2[nH]5)C=C4)C=C3)cc1
REMARK SMILES IDX 8 1 7 2 6 3 5 4 4 5 3 6 2 7 1 8 30 9 31 10 89 11 32 12 88 13
REMARK SMILES IDX 33 14 34 15 35 16 82 17 36 18 87 19 81 20 83 21 37 22 86 23
REMARK SMILES IDX 80 24 79 25 38 27 68 28 49 29 67 30 50 31 53 32 66 33 84 34
REMARK SMILES IDX 51 35 52 36 65 38 85 39 54 40 39 41 40 42 48 43 41 44 47 45
REMARK SMILES IDX 42 46 43 47 44 48 45 49 46 50 69 51 70 52 78 53 71 54 77 55
REMARK SMILES IDX 72 56 73 57 74 58 75 59 76 60 55 61 56 62 64 63 57 64 63 65
REMARK SMILES IDX 58 66 59 67 60 68 61 69 62 70 9 71 10 72 11 73 12 74 13 75
REMARK SMILES IDX 14 76 15 77 16 78 17 79 18 80 19 81 20 82 21 83 29 84 22 85
REMARK SMILES IDX 24 86 28 87 23 88 25 89 27 90 26 91
REMARK H PARENT 83 26 53 37
REMARK Flexibility Score: inf
ROOT
ATOM      1  C   UNL A   1      36.421  22.871  24.985  1.00  0.00     0.188 C 
ENDROOT
BRANCH   1   2
ATOM      2  C   UNL A   1      37.498  23.228  26.011  1.00  0.00     0.188 C 
BRANCH   2   3
ATOM      3  O   UNL A   1      38.674  22.470  25.759  1.00  0.00    -0.376 OA
BRANCH   3   4
ATOM      4  C   UNL A   1      39.663  22.411  26.773  1.00  0.00     0.202 C 
BRANCH   4   5
ATOM      5  C   UNL A   1      40.512  23.665  26.975  1.00  0.00     0.261 C 
BRANCH   5   6
ATOM      6  O   UNL A   1      39.840  24.920  26.737  1.00  0.00    -0.460 OA
BRANCH   6   7
ATOM      7  C   UNL A   1      40.344  26.177  26.738  1.00  0.00     0.338 C 
ATOM      8  O   UNL A   1      40.862  26.630  25.722  1.00  0.00    -0.246 OA
BRANCH   7   9
ATOM      9  C   UNL A   1      40.243  27.050  27.929  1.00  0.00     0.060 A 
ATOM     10  C   UNL A   1      40.740  28.347  27.956  1.00  0.00     0.016 A 
ATOM     11  C   UNL A   1      39.510  26.593  29.027  1.00  0.00     0.016 A 
ATOM     12  C   UNL A   1      40.749  29.085  29.130  1.00  0.00     0.010 A 
ATOM     13  C   UNL A   1      39.393  27.389  30.172  1.00  0.00     0.010 A 
ATOM     14  C   UNL A   1      40.089  28.605  30.259  1.00  0.00    -0.014 A 
BRANCH  14  15
ATOM     15  C   UNL A   1      40.268  29.300  31.557  1.00  0.00     0.031 A 
ATOM     16  C   UNL A   1      39.206  30.278  31.987  1.00  0.00     0.074 A 
ATOM     17  C   UNL A   1      41.289  28.988  32.380  1.00  0.00     0.049 A 
ATOM     18  N   UNL A   1      39.199  31.106  32.996  1.00  0.00    -0.248 NA
ATOM     19  C   UNL A   1      37.990  30.340  31.155  1.00  0.00     0.031 C 
ATOM     20  C   UNL A   1      42.312  27.970  32.120  1.00  0.00     0.029 A 
ATOM     21  N   UNL A   1      41.613  29.464  33.624  1.00  0.00    -0.354 N 
ATOM     22  C   UNL A   1      38.024  31.841  32.868  1.00  0.00     0.074 A 
ATOM     23  C   UNL A   1      37.340  31.360  31.691  1.00  0.00     0.031 C 
ATOM     24  C   UNL A   1      43.101  27.849  33.201  1.00  0.00     0.029 A 
ATOM     25  C   UNL A   1      42.707  28.849  34.186  1.00  0.00     0.049 A 
ATOM     26  H   UNL A   1      41.108  30.180  34.074  1.00  0.00     0.167 HD
ATOM     27  C   UNL A   1      37.565  32.837  33.661  1.00  0.00     0.031 A 
ATOM     28  C   UNL A   1      43.339  29.092  35.351  1.00  0.00     0.031 A 
ATOM     29  C   UNL A   1      38.240  33.261  34.854  1.00  0.00     0.049 A 
ATOM     30  C   UNL A   1      42.831  30.222  36.203  1.00  0.00     0.074 A 
ATOM     31  C   UNL A   1      37.913  34.286  35.721  1.00  0.00     0.029 A 
ATOM     32  N   UNL A   1      39.381  32.651  35.361  1.00  0.00    -0.354 N 
ATOM     33  N   UNL A   1      41.782  30.990  36.012  1.00  0.00    -0.248 NA
ATOM     34  C   UNL A   1      43.602  30.541  37.411  1.00  0.00     0.031 C 
ATOM     35  C   UNL A   1      38.877  34.316  36.736  1.00  0.00     0.029 A 
ATOM     36  C   UNL A   1      39.774  33.279  36.527  1.00  0.00     0.049 A 
ATOM     37  H   UNL A   1      39.841  31.884  34.950  1.00  0.00     0.167 HD
ATOM     38  C   UNL A   1      41.762  31.878  37.079  1.00  0.00     0.074 A 
ATOM     39  C   UNL A   1      42.890  31.534  37.925  1.00  0.00     0.031 C 
ATOM     40  C   UNL A   1      40.901  32.894  37.338  1.00  0.00     0.031 A 
BRANCH  27  41
ATOM     41  C   UNL A   1      36.333  33.568  33.200  1.00  0.00    -0.014 A 
ATOM     42  C   UNL A   1      36.399  34.841  32.605  1.00  0.00     0.010 A 
ATOM     43  C   UNL A   1      35.072  32.983  33.420  1.00  0.00     0.010 A 
ATOM     44  C   UNL A   1      35.227  35.538  32.293  1.00  0.00     0.020 A 
ATOM     45  C   UNL A   1      33.899  33.665  33.085  1.00  0.00     0.020 A 
ATOM     46  C   UNL A   1      33.984  34.950  32.548  1.00  0.00     0.054 A 
BRANCH  46  47
ATOM     47  S   UNL A   1      32.476  35.884  32.164  1.00  0.00     0.124 S 
ATOM     48  O   UNL A   1      32.708  37.136  32.880  1.00  0.00    -0.237 OA
ATOM     49  O   UNL A   1      32.518  35.979  30.707  1.00  0.00    -0.237 OA
ATOM     50  O   UNL A   1      31.405  35.049  32.699  1.00  0.00    -0.744 OA
ENDBRANCH  46  47
ENDBRANCH  27  41
BRANCH  28  51
ATOM     51  C   UNL A   1      44.536  28.294  35.746  1.00  0.00    -0.014 A 
ATOM     52  C   UNL A   1      44.403  27.125  36.515  1.00  0.00     0.010 A 
ATOM     53  C   UNL A   1      45.825  28.697  35.345  1.00  0.00     0.010 A 
ATOM     54  C   UNL A   1      45.532  26.382  36.883  1.00  0.00     0.020 A 
ATOM     55  C   UNL A   1      46.952  27.942  35.683  1.00  0.00     0.020 A 
ATOM     56  C   UNL A   1      46.799  26.794  36.461  1.00  0.00     0.054 A 
BRANCH  56  57
ATOM     57  S   UNL A   1      48.245  25.789  36.899  1.00  0.00     0.124 S 
ATOM     58  O   UNL A   1      48.536  26.250  38.255  1.00  0.00    -0.237 OA
ATOM     59  O   UNL A   1      47.730  24.426  36.792  1.00  0.00    -0.237 OA
ATOM     60  O   UNL A   1      49.235  26.154  35.888  1.00  0.00    -0.744 OA
ENDBRANCH  56  57
ENDBRANCH  28  51
BRANCH  40  61
ATOM     61  C   UNL A   1      41.129  33.668  38.604  1.00  0.00    -0.014 A 
ATOM     62  C   UNL A   1      40.534  33.271  39.813  1.00  0.00     0.010 A 
ATOM     63  C   UNL A   1      41.996  34.775  38.586  1.00  0.00     0.010 A 
ATOM     64  C   UNL A   1      40.778  33.992  40.983  1.00  0.00     0.020 A 
ATOM     65  C   UNL A   1      42.260  35.482  39.757  1.00  0.00     0.020 A 
ATOM     66  C   UNL A   1      41.638  35.095  40.946  1.00  0.00     0.054 A 
BRANCH  66  67
ATOM     67  S   UNL A   1      41.973  35.993  42.485  1.00  0.00     0.124 S 
ATOM     68  O   UNL A   1      40.772  35.712  43.267  1.00  0.00    -0.237 OA
ATOM     69  O   UNL A   1      43.201  35.364  42.965  1.00  0.00    -0.237 OA
ATOM     70  O   UNL A   1      42.123  37.380  42.048  1.00  0.00    -0.744 OA
ENDBRANCH  66  67
ENDBRANCH  40  61
ENDBRANCH  14  15
ENDBRANCH   7   9
ENDBRANCH   6   7
ENDBRANCH   5   6
ENDBRANCH   4   5
ENDBRANCH   3   4
ENDBRANCH   2   3
ENDBRANCH   1   2
BRANCH   1  71
ATOM     71  O   UNL A   1      35.082  22.844  25.493  1.00  0.00    -0.377 OA
BRANCH  71  72
ATOM     72  C   UNL A   1      34.719  21.750  26.337  1.00  0.00     0.188 C 
BRANCH  72  73
ATOM     73  C   UNL A   1      33.650  20.765  25.817  1.00  0.00     0.188 C 
BRANCH  73  74
ATOM     74  O   UNL A   1      33.368  20.963  24.446  1.00  0.00    -0.376 OA
BRANCH  74  75
ATOM     75  C   UNL A   1      32.148  21.590  24.086  1.00  0.00     0.202 C 
BRANCH  75  76
ATOM     76  C   UNL A   1      31.358  22.442  25.106  1.00  0.00     0.261 C 
BRANCH  76  77
ATOM     77  O   UNL A   1      31.730  23.825  25.203  1.00  0.00    -0.461 OA
BRANCH  77  78
ATOM     78  C   UNL A   1      31.721  24.366  26.460  1.00  0.00     0.341 C 
ATOM     79  O   UNL A   1      31.465  23.716  27.466  1.00  0.00    -0.249 OA
BRANCH  78  80
ATOM     80  C   UNL A   1      32.250  25.802  26.471  1.00  0.00     0.284 C 
ATOM     81  F   UNL A   1      33.004  26.055  25.351  1.00  0.00    -0.234 F 
BRANCH  80  82
ATOM     82  C   UNL A   1      31.221  26.948  26.582  1.00  0.00     0.084 C 
ATOM     83  C   UNL A   1      31.536  28.094  27.554  1.00  0.00     0.014 C 
ATOM     84  C   UNL A   1      30.982  27.512  25.179  1.00  0.00     0.050 A 
ATOM     85  C   UNL A   1      32.639  28.997  27.013  1.00  0.00     0.006 C 
ATOM     86  C   UNL A   1      31.454  28.778  24.798  1.00  0.00    -0.026 A 
ATOM     87  N   UNL A   1      30.326  26.704  24.310  1.00  0.00    -0.261 NA
ATOM     88  C   UNL A   1      32.148  29.707  25.758  1.00  0.00     0.037 C 
ATOM     89  C   UNL A   1      31.213  29.212  23.489  1.00  0.00     0.007 A 
ATOM     90  C   UNL A   1      30.139  27.144  23.047  1.00  0.00     0.111 A 
ATOM     91  C   UNL A   1      30.553  28.381  22.595  1.00  0.00     0.020 A 
ENDBRANCH  80  82
ENDBRANCH  78  80
ENDBRANCH  77  78
ENDBRANCH  76  77
ENDBRANCH  75  76
ENDBRANCH  74  75
ENDBRANCH  73  74
ENDBRANCH  72  73
ENDBRANCH  71  72
ENDBRANCH   1  71
TORSDOF 24
ENDMDL
MODEL 2
REMARK VINA RESULT:      -9.0      1.690      2.383
REMARK SMILES O=C(OCCOCCOCCOCCOC(=O)[C@@H](F)[C@H]1CCCc2cccnc21)c1ccc(-c2c3nc(c(-c4ccc(S(=O)(=O)[O-])cc4)c4ccc([nH]4)c(-c4ccc(S(=O)(=O)[O-])cc4)c4nc(c(-c5ccc(S(=O)(=O)[O-])cc5)c5ccc2[nH]5)C=C4)C=C3)cc1
REMARK SMILES IDX 8 1 7 2 6 3 5 4 4 5 3 6 2 7 1 8 30 9 31 10 89 11 32 12 88 13
REMARK SMILES IDX 33 14 34 15 35 16 82 17 36 18 87 19 81 20 83 21 37 22 86 23
REMARK SMILES IDX 80 24 79 25 38 27 68 28 49 29 67 30 50 31 53 32 66 33 84 34
REMARK SMILES IDX 51 35 52 36 65 38 85 39 54 40 39 41 40 42 48 43 41 44 47 45
REMARK SMILES IDX 42 46 43 47 44 48 45 49 46 50 69 51 70 52 78 53 71 54 77 55
REMARK SMILES IDX 72 56 73 57 74 58 75 59 76 60 55 61 56 62 64 63 57 64 63 65
REMARK SMILES IDX 58 66 59 67 60 68 61 69 62 70 9 71 10 72 11 73 12 74 13 75
REMARK SMILES IDX 14 76 15 77 16 78 17 79 18 80 19 81 20 82 21 83 29 84 22 85
REMARK SMILES IDX 24 86 28 87 23 88 25 89 27 90 26 91
REMARK H PARENT 83 26 53 37
REMARK Flexibility Score: inf
ROOT
ATOM      1  C   UNL A   1      36.291  22.315  25.264  1.00  0.00     0.188 C 
ENDROOT
BRANCH   1   2
ATOM      2  C   UNL A   1      37.455  22.198  26.250  1.00  0.00     0.188 C 
BRANCH   2   3
ATOM      3  O   UNL A   1      38.686  22.147  25.540  1.00  0.00    -0.376 OA
BRANCH   3   4
ATOM      4  C   UNL A   1      39.830  21.659  26.218  1.00  0.00     0.202 C 
BRANCH   4   5
ATOM      5  C   UNL A   1      40.861  22.699  26.658  1.00  0.00     0.261 C 
BRANCH   5   6
ATOM      6  O   UNL A   1      40.549  24.068  26.324  1.00  0.00    -0.460 OA
BRANCH   6   7
ATOM      7  C   UNL A   1      41.310  25.180  26.463  1.00  0.00     0.338 C 
ATOM      8  O   UNL A   1      42.242  25.384  25.691  1.00  0.00    -0.246 OA
BRANCH   7   9
ATOM      9  C   UNL A   1      41.016  26.193  27.500  1.00  0.00     0.060 A 
ATOM     10  C   UNL A   1      41.507  27.491  27.444  1.00  0.00     0.016 A 
ATOM     11  C   UNL A   1      40.110  25.865  28.511  1.00  0.00     0.016 A 
ATOM     12  C   UNL A   1      41.324  28.371  28.501  1.00  0.00     0.010 A 
ATOM     13  C   UNL A   1      39.808  26.796  29.511  1.00  0.00     0.010 A 
ATOM     14  C   UNL A   1      40.485  28.025  29.557  1.00  0.00    -0.014 A 
BRANCH  14  15
ATOM     15  C   UNL A   1      40.449  28.881  30.769  1.00  0.00     0.031 A 
ATOM     16  C   UNL A   1      39.354  29.910  30.874  1.00  0.00     0.074 A 
ATOM     17  C   UNL A   1      41.298  28.673  31.794  1.00  0.00     0.049 A 
ATOM     18  N   UNL A   1      39.190  30.861  31.753  1.00  0.00    -0.248 NA
ATOM     19  C   UNL A   1      38.308  29.870  29.835  1.00  0.00     0.031 C 
ATOM     20  C   UNL A   1      42.323  27.626  31.853  1.00  0.00     0.029 A 
ATOM     21  N   UNL A   1      41.408  29.303  33.007  1.00  0.00    -0.354 N 
ATOM     22  C   UNL A   1      38.077  31.579  31.324  1.00  0.00     0.074 A 
ATOM     23  C   UNL A   1      37.601  30.953  30.113  1.00  0.00     0.031 C 
ATOM     24  C   UNL A   1      42.903  27.641  33.064  1.00  0.00     0.029 A 
ATOM     25  C   UNL A   1      42.367  28.761  33.829  1.00  0.00     0.049 A 
ATOM     26  H   UNL A   1      40.851  30.073  33.265  1.00  0.00     0.167 HD
ATOM     27  C   UNL A   1      37.511  32.671  31.890  1.00  0.00     0.031 A 
ATOM     28  C   UNL A   1      42.788  29.149  35.049  1.00  0.00     0.031 A 
ATOM     29  C   UNL A   1      37.975  33.241  33.122  1.00  0.00     0.049 A 
ATOM     30  C   UNL A   1      42.168  30.382  35.646  1.00  0.00     0.074 A 
ATOM     31  C   UNL A   1      37.527  34.371  33.780  1.00  0.00     0.029 A 
ATOM     32  N   UNL A   1      38.990  32.697  33.899  1.00  0.00    -0.354 N 
ATOM     33  N   UNL A   1      41.191  31.123  35.175  1.00  0.00    -0.248 NA
ATOM     34  C   UNL A   1      42.720  30.850  36.923  1.00  0.00     0.031 C 
ATOM     35  C   UNL A   1      38.295  34.527  34.940  1.00  0.00     0.029 A 
ATOM     36  C   UNL A   1      39.187  33.467  35.028  1.00  0.00     0.049 A 
ATOM     37  H   UNL A   1      39.495  31.881  33.676  1.00  0.00     0.167 HD
ATOM     38  C   UNL A   1      41.006  32.141  36.100  1.00  0.00     0.074 A 
ATOM     39  C   UNL A   1      41.955  31.904  37.172  1.00  0.00     0.031 C 
ATOM     40  C   UNL A   1      40.140  33.185  36.070  1.00  0.00     0.031 A 
BRANCH  27  41
ATOM     41  C   UNL A   1      36.401  33.341  31.126  1.00  0.00    -0.014 A 
ATOM     42  C   UNL A   1      36.584  33.829  29.819  1.00  0.00     0.010 A 
ATOM     43  C   UNL A   1      35.160  33.534  31.759  1.00  0.00     0.010 A 
ATOM     44  C   UNL A   1      35.566  34.547  29.184  1.00  0.00     0.020 A 
ATOM     45  C   UNL A   1      34.130  34.228  31.117  1.00  0.00     0.020 A 
ATOM     46  C   UNL A   1      34.349  34.754  29.843  1.00  0.00     0.054 A 
BRANCH  46  47
ATOM     47  S   UNL A   1      33.053  35.714  29.012  1.00  0.00     0.124 S 
ATOM     48  O   UNL A   1      32.473  34.719  28.113  1.00  0.00    -0.237 OA
ATOM     49  O   UNL A   1      32.198  36.130  30.121  1.00  0.00    -0.237 OA
ATOM     50  O   UNL A   1      33.787  36.793  28.357  1.00  0.00    -0.744 OA
ENDBRANCH  46  47
ENDBRANCH  27  41
BRANCH  28  51
ATOM     51  C   UNL A   1      43.874  28.404  35.749  1.00  0.00    -0.014 A 
ATOM     52  C   UNL A   1      45.226  28.729  35.537  1.00  0.00     0.010 A 
ATOM     53  C   UNL A   1      43.562  27.363  36.645  1.00  0.00     0.010 A 
ATOM     54  C   UNL A   1      46.240  28.025  36.197  1.00  0.00     0.020 A 
ATOM     55  C   UNL A   1      44.569  26.678  37.330  1.00  0.00     0.020 A 
ATOM     56  C   UNL A   1      45.905  27.005  37.092  1.00  0.00     0.054 A 
BRANCH  56  57
ATOM     57  S   UNL A   1      47.230  26.140  37.981  1.00  0.00     0.124 S 
ATOM     58  O   UNL A   1      47.899  25.419  36.901  1.00  0.00    -0.237 OA
ATOM     59  O   UNL A   1      47.988  27.240  38.572  1.00  0.00    -0.237 OA
ATOM     60  O   UNL A   1      46.510  25.304  38.939  1.00  0.00    -0.744 OA
ENDBRANCH  56  57
ENDBRANCH  28  51
BRANCH  40  61
ATOM     61  C   UNL A   1      40.160  34.115  37.249  1.00  0.00    -0.014 A 
ATOM     62  C   UNL A   1      39.218  33.994  38.283  1.00  0.00     0.010 A 
ATOM     63  C   UNL A   1      41.174  35.085  37.342  1.00  0.00     0.010 A 
ATOM     64  C   UNL A   1      39.268  34.854  39.381  1.00  0.00     0.020 A 
ATOM     65  C   UNL A   1      41.242  35.929  38.449  1.00  0.00     0.020 A 
ATOM     66  C   UNL A   1      40.280  35.819  39.454  1.00  0.00     0.054 A 
BRANCH  66  67
ATOM     67  S   UNL A   1      40.352  36.899  40.908  1.00  0.00     0.124 S 
ATOM     68  O   UNL A   1      40.865  35.993  41.933  1.00  0.00    -0.237 OA
ATOM     69  O   UNL A   1      41.270  37.953  40.482  1.00  0.00    -0.237 OA
ATOM     70  O   UNL A   1      38.967  37.326  41.089  1.00  0.00    -0.744 OA
ENDBRANCH  66  67
ENDBRANCH  40  61
ENDBRANCH  14  15
ENDBRANCH   7   9
ENDBRANCH   6   7
ENDBRANCH   5   6
ENDBRANCH   4   5
ENDBRANCH   3   4
ENDBRANCH   2   3
ENDBRANCH   1   2
BRANCH   1  71
ATOM     71  O   UNL A   1      35.140  23.009  25.760  1.00  0.00    -0.377 OA
BRANCH  71  72
ATOM     72  C   UNL A   1      34.370  22.366  26.777  1.00  0.00     0.188 C 
BRANCH  72  73
ATOM     73  C   UNL A   1      33.123  21.568  26.340  1.00  0.00     0.188 C 
BRANCH  73  74
ATOM     74  O   UNL A   1      33.468  20.389  25.639  1.00  0.00    -0.376 OA
BRANCH  74  75
ATOM     75  C   UNL A   1      32.896  20.168  24.359  1.00  0.00     0.202 C 
BRANCH  75  76
ATOM     76  C   UNL A   1      32.521  21.352  23.438  1.00  0.00     0.261 C 
BRANCH  76  77
ATOM     77  O   UNL A   1      33.599  22.207  23.030  1.00  0.00    -0.461 OA
BRANCH  77  78
ATOM     78  C   UNL A   1      33.243  23.389  22.441  1.00  0.00     0.341 C 
ATOM     79  O   UNL A   1      33.369  23.603  21.242  1.00  0.00    -0.249 OA
BRANCH  78  80
ATOM     80  C   UNL A   1      32.506  24.315  23.410  1.00  0.00     0.284 C 
ATOM     81  F   UNL A   1      33.392  24.975  24.227  1.00  0.00    -0.234 F 
BRANCH  80  82
ATOM     82  C   UNL A   1      31.570  25.388  22.811  1.00  0.00     0.084 C 
ATOM     83  C   UNL A   1      30.168  25.528  23.421  1.00  0.00     0.014 C 
ATOM     84  C   UNL A   1      32.294  26.736  22.866  1.00  0.00     0.050 A 
ATOM     85  C   UNL A   1      30.220  26.191  24.793  1.00  0.00     0.006 C 
ATOM     86  C   UNL A   1      31.904  27.752  23.752  1.00  0.00    -0.026 A 
ATOM     87  N   UNL A   1      33.359  26.879  22.039  1.00  0.00    -0.261 NA
ATOM     88  C   UNL A   1      30.700  27.629  24.648  1.00  0.00     0.037 C 
ATOM     89  C   UNL A   1      32.632  28.948  23.755  1.00  0.00     0.007 A 
ATOM     90  C   UNL A   1      34.056  28.036  22.092  1.00  0.00     0.111 A 
ATOM     91  C   UNL A   1      33.730  29.092  22.919  1.00  0.00     0.020 A 
ENDBRANCH  80  82
ENDBRANCH  78  80
ENDBRANCH  77  78
ENDBRANCH  76  77
ENDBRANCH  75  76
ENDBRANCH  74  75
ENDBRANCH  73  74
ENDBRANCH  72  73
ENDBRANCH  71  72
ENDBRANCH   1  71
TORSDOF 24
ENDMDL
MODEL 3
REMARK VINA RESULT:      -9.0      1.215      2.126
REMARK SMILES O=C(OCCOCCOCCOCCOC(=O)[C@@H](F)[C@H]1CCCc2cccnc21)c1ccc(-c2c3nc(c(-c4ccc(S(=O)(=O)[O-])cc4)c4ccc([nH]4)c(-c4ccc(S(=O)(=O)[O-])cc4)c4nc(c(-c5ccc(S(=O)(=O)[O-])cc5)c5ccc2[nH]5)C=C4)C=C3)cc1
REMARK SMILES IDX 8 1 7 2 6 3 5 4 4 5 3 6 2 7 1 8 30 9 31 10 89 11 32 12 88 13
REMARK SMILES IDX 33 14 34 15 35 16 82 17 36 18 87 19 81 20 83 21 37 22 86 23
REMARK SMILES IDX 80 24 79 25 38 27 68 28 49 29 67 30 50 31 53 32 66 33 84 34
REMARK SMILES IDX 51 35 52 36 65 38 85 39 54 40 39 41 40 42 48 43 41 44 47 45
REMARK SMILES IDX 42 46 43 47 44 48 45 49 46 50 69 51 70 52 78 53 71 54 77 55
REMARK SMILES IDX 72 56 73 57 74 58 75 59 76 60 55 61 56 62 64 63 57 64 63 65
REMARK SMILES IDX 58 66 59 67 60 68 61 69 62 70 9 71 10 72 11 73 12 74 13 75
REMARK SMILES IDX 14 76 15 77 16 78 17 79 18 80 19 81 20 82 21 83 29 84 22 85
REMARK SMILES IDX 24 86 28 87 23 88 25 89 27 90 26 91
REMARK H PARENT 83 26 53 37
REMARK Flexibility Score: inf
ROOT
ATOM      1  C   UNL A   1      35.521  22.227  24.702  1.00  0.00     0.188 C 
ENDROOT
BRANCH   1   2
ATOM      2  C   UNL A   1      36.594  21.864  25.730  1.00  0.00     0.188 C 
BRANCH   2   3
ATOM      3  O   UNL A   1      37.720  22.719  25.576  1.00  0.00    -0.376 OA
BRANCH   3   4
ATOM      4  C   UNL A   1      38.949  22.319  26.155  1.00  0.00     0.202 C 
BRANCH   4   5
ATOM      5  C   UNL A   1      39.702  23.376  26.963  1.00  0.00     0.261 C 
BRANCH   5   6
ATOM      6  O   UNL A   1      39.275  24.739  26.759  1.00  0.00    -0.460 OA
BRANCH   6   7
ATOM      7  C   UNL A   1      40.001  25.882  26.800  1.00  0.00     0.338 C 
ATOM      8  O   UNL A   1      40.680  26.211  25.833  1.00  0.00    -0.246 OA
BRANCH   7   9
ATOM      9  C   UNL A   1      39.962  26.781  27.975  1.00  0.00     0.060 A 
ATOM     10  C   UNL A   1      40.472  28.073  27.950  1.00  0.00     0.016 A 
ATOM     11  C   UNL A   1      39.275  26.355  29.115  1.00  0.00     0.016 A 
ATOM     12  C   UNL A   1      40.540  28.836  29.107  1.00  0.00     0.010 A 
ATOM     13  C   UNL A   1      39.218  27.177  30.246  1.00  0.00     0.010 A 
ATOM     14  C   UNL A   1      39.928  28.388  30.275  1.00  0.00    -0.014 A 
BRANCH  14  15
ATOM     15  C   UNL A   1      40.172  29.109  31.548  1.00  0.00     0.031 A 
ATOM     16  C   UNL A   1      39.153  30.127  31.989  1.00  0.00     0.074 A 
ATOM     17  C   UNL A   1      41.212  28.788  32.342  1.00  0.00     0.049 A 
ATOM     18  N   UNL A   1      39.205  30.980  32.976  1.00  0.00    -0.248 NA
ATOM     19  C   UNL A   1      37.911  30.204  31.197  1.00  0.00     0.031 C 
ATOM     20  C   UNL A   1      42.197  27.735  32.073  1.00  0.00     0.029 A 
ATOM     21  N   UNL A   1      41.592  29.285  33.563  1.00  0.00    -0.354 N 
ATOM     22  C   UNL A   1      38.046  31.745  32.870  1.00  0.00     0.074 A 
ATOM     23  C   UNL A   1      37.309  31.255  31.730  1.00  0.00     0.031 C 
ATOM     24  C   UNL A   1      43.019  27.618  33.129  1.00  0.00     0.029 A 
ATOM     25  C   UNL A   1      42.688  28.653  34.102  1.00  0.00     0.049 A 
ATOM     26  H   UNL A   1      41.124  30.025  34.011  1.00  0.00     0.167 HD
ATOM     27  C   UNL A   1      37.644  32.773  33.652  1.00  0.00     0.031 A 
ATOM     28  C   UNL A   1      43.367  28.905  35.238  1.00  0.00     0.031 A 
ATOM     29  C   UNL A   1      38.372  33.206  34.810  1.00  0.00     0.049 A 
ATOM     30  C   UNL A   1      42.920  30.071  36.077  1.00  0.00     0.074 A 
ATOM     31  C   UNL A   1      38.104  34.261  35.662  1.00  0.00     0.029 A 
ATOM     32  N   UNL A   1      39.512  32.576  35.293  1.00  0.00    -0.354 N 
ATOM     33  N   UNL A   1      41.887  30.863  35.903  1.00  0.00    -0.248 NA
ATOM     34  C   UNL A   1      43.742  30.396  37.250  1.00  0.00     0.031 C 
ATOM     35  C   UNL A   1      39.103  34.288  36.642  1.00  0.00     0.029 A 
ATOM     36  C   UNL A   1      39.964  33.220  36.428  1.00  0.00     0.049 A 
ATOM     37  H   UNL A   1      39.936  31.786  34.886  1.00  0.00     0.167 HD
ATOM     38  C   UNL A   1      41.930  31.777  36.947  1.00  0.00     0.074 A 
ATOM     39  C   UNL A   1      43.077  31.422  37.763  1.00  0.00     0.031 C 
ATOM     40  C   UNL A   1      41.107  32.823  37.210  1.00  0.00     0.031 A 
BRANCH  27  41
ATOM     41  C   UNL A   1      36.417  33.527  33.215  1.00  0.00    -0.014 A 
ATOM     42  C   UNL A   1      35.191  33.418  33.897  1.00  0.00     0.010 A 
ATOM     43  C   UNL A   1      36.485  34.324  32.057  1.00  0.00     0.010 A 
ATOM     44  C   UNL A   1      34.045  34.043  33.395  1.00  0.00     0.020 A 
ATOM     45  C   UNL A   1      35.347  34.972  31.568  1.00  0.00     0.020 A 
ATOM     46  C   UNL A   1      34.128  34.805  32.226  1.00  0.00     0.054 A 
BRANCH  46  47
ATOM     47  S   UNL A   1      32.622  35.583  31.577  1.00  0.00     0.124 S 
ATOM     48  O   UNL A   1      32.601  35.094  30.201  1.00  0.00    -0.237 OA
ATOM     49  O   UNL A   1      31.580  35.047  32.449  1.00  0.00    -0.237 OA
ATOM     50  O   UNL A   1      32.879  37.013  31.727  1.00  0.00    -0.744 OA
ENDBRANCH  46  47
ENDBRANCH  27  41
BRANCH  28  51
ATOM     51  C   UNL A   1      44.555  28.084  35.611  1.00  0.00    -0.014 A 
ATOM     52  C   UNL A   1      45.840  28.424  35.153  1.00  0.00     0.010 A 
ATOM     53  C   UNL A   1      44.409  26.953  36.438  1.00  0.00     0.010 A 
ATOM     54  C   UNL A   1      46.951  27.648  35.506  1.00  0.00     0.020 A 
ATOM     55  C   UNL A   1      45.518  26.193  36.819  1.00  0.00     0.020 A 
ATOM     56  C   UNL A   1      46.783  26.538  36.340  1.00  0.00     0.054 A 
BRANCH  56  57
ATOM     57  S   UNL A   1      48.240  25.576  36.833  1.00  0.00     0.124 S 
ATOM     58  O   UNL A   1      47.805  24.994  38.101  1.00  0.00    -0.237 OA
ATOM     59  O   UNL A   1      48.391  24.636  35.725  1.00  0.00    -0.237 OA
ATOM     60  O   UNL A   1      49.295  26.581  36.934  1.00  0.00    -0.744 OA
ENDBRANCH  56  57
ENDBRANCH  28  51
BRANCH  40  61
ATOM     61  C   UNL A   1      41.401  33.621  38.447  1.00  0.00    -0.014 A 
ATOM     62  C   UNL A   1      42.203  34.773  38.393  1.00  0.00     0.010 A 
ATOM     63  C   UNL A   1      40.818  33.237  39.667  1.00  0.00     0.010 A 
ATOM     64  C   UNL A   1      42.445  35.513  39.551  1.00  0.00     0.020 A 
ATOM     65  C   UNL A   1      41.039  33.987  40.821  1.00  0.00     0.020 A 
ATOM     66  C   UNL A   1      41.863  35.113  40.759  1.00  0.00     0.054 A 
BRANCH  66  67
ATOM     67  S   UNL A   1      42.157  36.110  42.244  1.00  0.00     0.124 S 
ATOM     68  O   UNL A   1      41.201  37.200  42.070  1.00  0.00    -0.237 OA
ATOM     69  O   UNL A   1      41.858  35.175  43.326  1.00  0.00    -0.237 OA
ATOM     70  O   UNL A   1      43.563  36.490  42.130  1.00  0.00    -0.744 OA
ENDBRANCH  66  67
ENDBRANCH  40  61
ENDBRANCH  14  15
ENDBRANCH   7   9
ENDBRANCH   6   7
ENDBRANCH   5   6
ENDBRANCH   4   5
ENDBRANCH   3   4
ENDBRANCH   2   3
ENDBRANCH   1   2
BRANCH   1  71
ATOM     71  O   UNL A   1      34.175  22.192  25.189  1.00  0.00    -0.377 OA
BRANCH  71  72
ATOM     72  C   UNL A   1      33.657  20.928  25.608  1.00  0.00     0.188 C 
BRANCH  72  73
ATOM     73  C   UNL A   1      32.388  20.402  24.906  1.00  0.00     0.188 C 
BRANCH  73  74
ATOM     74  O   UNL A   1      32.595  20.193  23.523  1.00  0.00    -0.376 OA
BRANCH  74  75
ATOM     75  C   UNL A   1      31.982  21.081  22.601  1.00  0.00     0.202 C 
BRANCH  75  76
ATOM     76  C   UNL A   1      32.183  22.610  22.713  1.00  0.00     0.261 C 
BRANCH  76  77
ATOM     77  O   UNL A   1      33.295  23.160  21.992  1.00  0.00    -0.461 OA
BRANCH  77  78
ATOM     78  C   UNL A   1      33.324  24.522  21.873  1.00  0.00     0.341 C 
ATOM     79  O   UNL A   1      33.304  25.101  20.794  1.00  0.00    -0.249 OA
BRANCH  78  80
ATOM     80  C   UNL A   1      33.191  25.220  23.229  1.00  0.00     0.284 C 
ATOM     81  F   UNL A   1      34.427  25.518  23.750  1.00  0.00    -0.234 F 
BRANCH  80  82
ATOM     82  C   UNL A   1      32.357  26.518  23.293  1.00  0.00     0.084 C 
ATOM     83  C   UNL A   1      30.890  26.442  22.846  1.00  0.00     0.014 C 
ATOM     84  C   UNL A   1      32.434  27.064  24.722  1.00  0.00     0.050 A 
ATOM     85  C   UNL A   1      30.030  25.716  23.874  1.00  0.00     0.006 C 
ATOM     86  C   UNL A   1      31.333  27.025  25.591  1.00  0.00    -0.026 A 
ATOM     87  N   UNL A   1      33.637  27.550  25.115  1.00  0.00    -0.261 NA
ATOM     88  C   UNL A   1      29.978  26.528  25.162  1.00  0.00     0.037 C 
ATOM     89  C   UNL A   1      31.492  27.526  26.889  1.00  0.00     0.007 A 
ATOM     90  C   UNL A   1      33.760  27.996  26.384  1.00  0.00     0.111 A 
ATOM     91  C   UNL A   1      32.726  28.011  27.297  1.00  0.00     0.020 A 
ENDBRANCH  80  82
ENDBRANCH  78  80
ENDBRANCH  77  78
ENDBRANCH  76  77
ENDBRANCH  75  76
ENDBRANCH  74  75
ENDBRANCH  73  74
ENDBRANCH  72  73
ENDBRANCH  71  72
ENDBRANCH   1  71
TORSDOF 24
ENDMDL
