MODEL 1
REMARK VINA RESULT:      -7.9      0.000      0.000
REMARK SMILES [NH3+][C@@H](Cc1ccc(OC(F)F)cc1)C(=O)OCCOCCOCCOCCOC(=O)c1ccc(-c2c3nc(c(-c4ccc(S(=O)(=O)[O-])cc4)c4ccc([nH]4)c(-c4ccc(S(=O)(=O)[O-])cc4)c4nc(c(-c5ccc(S(=O)(=O)[O-])cc5)c5ccc2[nH]5)C=C4)C=C3)cc1
REMARK SMILES IDX 21 1 20 2 19 3 18 4 17 5 16 6 14 7 15 8 2 9 1 10 3 14 4 15
REMARK SMILES IDX 5 16 13 17 6 18 12 19 7 20 8 21 9 22 10 23 11 24 22 25 23 26
REMARK SMILES IDX 24 27 25 28 26 29 27 30 28 31 29 32 30 33 31 34 32 35 90 36
REMARK SMILES IDX 33 37 89 38 34 39 35 40 36 41 83 42 37 43 88 44 82 45 84 46
REMARK SMILES IDX 38 47 87 48 81 49 80 50 39 52 69 53 50 54 68 55 51 56 54 57
REMARK SMILES IDX 67 58 85 59 52 60 53 61 66 63 86 64 55 65 40 66 41 67 49 68
REMARK SMILES IDX 42 69 48 70 43 71 44 72 45 73 46 74 47 75 70 76 71 77 79 78
REMARK SMILES IDX 72 79 78 80 73 81 74 82 75 83 76 84 77 85 56 86 57 87 65 88
REMARK SMILES IDX 58 89 64 90 59 91 60 92 61 93 62 94 63 95
REMARK H PARENT 1 11 1 12 1 13 84 51 54 62
REMARK Flexibility Score: inf
ROOT
ATOM      1  C   UNL A   1      36.266  21.403  25.326  1.00  0.00     0.188 C 
ENDROOT
BRANCH   1   2
ATOM      2  C   UNL A   1      35.193  22.141  26.141  1.00  0.00     0.188 C 
BRANCH   2   3
ATOM      3  O   UNL A   1      34.031  21.461  26.606  1.00  0.00    -0.376 OA
BRANCH   3   4
ATOM      4  C   UNL A   1      32.949  22.173  27.195  1.00  0.00     0.202 C 
BRANCH   4   5
ATOM      5  C   UNL A   1      32.279  23.379  26.516  1.00  0.00     0.261 C 
BRANCH   5   6
ATOM      6  O   UNL A   1      31.315  23.070  25.510  1.00  0.00    -0.459 OA
BRANCH   6   7
ATOM      7  C   UNL A   1      31.328  23.847  24.392  1.00  0.00     0.365 C 
ATOM      8  O   UNL A   1      30.421  23.920  23.570  1.00  0.00    -0.245 OA
BRANCH   7   9
ATOM      9  C   UNL A   1      32.660  24.604  24.244  1.00  0.00     0.296 C 
BRANCH   9  10
ATOM     10  N   UNL A   1      33.627  23.905  23.369  1.00  0.00    -0.346 N 
ATOM     11  H   UNL A   1      33.221  23.027  23.046  1.00  0.00     0.345 HD
ATOM     12  H   UNL A   1      34.481  23.713  23.893  1.00  0.00     0.345 HD
ATOM     13  H   UNL A   1      33.847  24.495  22.567  1.00  0.00     0.345 HD
ENDBRANCH   9  10
BRANCH   9  14
ATOM     14  C   UNL A   1      32.415  26.048  23.784  1.00  0.00     0.113 C 
BRANCH  14  15
ATOM     15  C   UNL A   1      32.730  27.112  24.811  1.00  0.00    -0.041 A 
ATOM     16  C   UNL A   1      33.256  28.338  24.393  1.00  0.00     0.008 A 
ATOM     17  C   UNL A   1      32.551  26.894  26.185  1.00  0.00     0.008 A 
ATOM     18  C   UNL A   1      33.598  29.316  25.327  1.00  0.00     0.047 A 
ATOM     19  C   UNL A   1      32.926  27.865  27.120  1.00  0.00     0.047 A 
ATOM     20  C   UNL A   1      33.439  29.087  26.695  1.00  0.00     0.126 A 
BRANCH  20  21
ATOM     21  O   UNL A   1      33.817  30.129  27.487  1.00  0.00    -0.435 OA
BRANCH  21  22
ATOM     22  C   UNL A   1      35.201  30.363  27.695  1.00  0.00     0.542 C 
ATOM     23  F   UNL A   1      35.523  31.637  27.354  1.00  0.00    -0.167 F 
ATOM     24  F   UNL A   1      35.495  30.200  29.010  1.00  0.00    -0.167 F 
ENDBRANCH  21  22
ENDBRANCH  20  21
ENDBRANCH  14  15
ENDBRANCH   9  14
ENDBRANCH   7   9
ENDBRANCH   6   7
ENDBRANCH   5   6
ENDBRANCH   4   5
ENDBRANCH   3   4
ENDBRANCH   2   3
ENDBRANCH   1   2
BRANCH   1  25
ATOM     25  O   UNL A   1      37.492  22.099  25.227  1.00  0.00    -0.377 OA
BRANCH  25  26
ATOM     26  C   UNL A   1      37.582  23.299  25.989  1.00  0.00     0.188 C 
BRANCH  26  27
ATOM     27  C   UNL A   1      38.972  23.724  26.528  1.00  0.00     0.188 C 
BRANCH  27  28
ATOM     28  O   UNL A   1      39.814  22.655  26.941  1.00  0.00    -0.376 OA
BRANCH  28  29
ATOM     29  C   UNL A   1      40.950  22.319  26.156  1.00  0.00     0.202 C 
BRANCH  29  30
ATOM     30  C   UNL A   1      42.203  23.210  26.246  1.00  0.00     0.261 C 
BRANCH  30  31
ATOM     31  O   UNL A   1      42.055  24.570  25.812  1.00  0.00    -0.460 OA
BRANCH  31  32
ATOM     32  C   UNL A   1      43.028  25.443  26.143  1.00  0.00     0.338 C 
ATOM     33  O   UNL A   1      44.081  25.625  25.556  1.00  0.00    -0.246 OA
BRANCH  32  34
ATOM     34  C   UNL A   1      42.508  26.303  27.227  1.00  0.00     0.060 A 
ATOM     35  C   UNL A   1      43.014  27.603  27.362  1.00  0.00     0.016 A 
ATOM     36  C   UNL A   1      41.526  25.833  28.102  1.00  0.00     0.016 A 
ATOM     37  C   UNL A   1      42.568  28.424  28.396  1.00  0.00     0.010 A 
ATOM     38  C   UNL A   1      41.099  26.648  29.154  1.00  0.00     0.010 A 
ATOM     39  C   UNL A   1      41.647  27.932  29.328  1.00  0.00    -0.014 A 
BRANCH  39  40
ATOM     40  C   UNL A   1      41.421  28.666  30.596  1.00  0.00     0.031 A 
ATOM     41  C   UNL A   1      40.275  29.639  30.658  1.00  0.00     0.074 A 
ATOM     42  C   UNL A   1      42.198  28.465  31.674  1.00  0.00     0.049 A 
ATOM     43  N   UNL A   1      39.917  30.439  31.628  1.00  0.00    -0.248 NA
ATOM     44  C   UNL A   1      39.420  29.721  29.461  1.00  0.00     0.031 C 
ATOM     45  C   UNL A   1      43.302  27.510  31.762  1.00  0.00     0.029 A 
ATOM     46  N   UNL A   1      42.175  29.067  32.909  1.00  0.00    -0.354 N 
ATOM     47  C   UNL A   1      38.808  31.132  31.152  1.00  0.00     0.074 A 
ATOM     48  C   UNL A   1      38.569  30.677  29.801  1.00  0.00     0.031 C 
ATOM     49  C   UNL A   1      43.859  27.601  32.983  1.00  0.00     0.029 A 
ATOM     50  C   UNL A   1      43.183  28.650  33.744  1.00  0.00     0.049 A 
ATOM     51  H   UNL A   1      41.500  29.735  33.170  1.00  0.00     0.167 HD
ATOM     52  C   UNL A   1      38.056  32.063  31.786  1.00  0.00     0.031 A 
ATOM     53  C   UNL A   1      43.541  29.089  34.968  1.00  0.00     0.031 A 
ATOM     54  C   UNL A   1      38.309  32.524  33.124  1.00  0.00     0.049 A 
ATOM     55  C   UNL A   1      42.743  30.187  35.622  1.00  0.00     0.074 A 
ATOM     56  C   UNL A   1      37.595  33.452  33.862  1.00  0.00     0.029 A 
ATOM     57  N   UNL A   1      39.363  32.104  33.921  1.00  0.00    -0.354 N 
ATOM     58  N   UNL A   1      41.684  30.818  35.172  1.00  0.00    -0.248 NA
ATOM     59  C   UNL A   1      43.184  30.627  36.953  1.00  0.00     0.031 C 
ATOM     60  C   UNL A   1      38.259  33.645  35.077  1.00  0.00     0.029 A 
ATOM     61  C   UNL A   1      39.340  32.779  35.129  1.00  0.00     0.049 A 
ATOM     62  H   UNL A   1      40.029  31.425  33.665  1.00  0.00     0.167 HD
ATOM     63  C   UNL A   1      41.314  31.706  36.178  1.00  0.00     0.074 A 
ATOM     64  C   UNL A   1      42.256  31.523  37.263  1.00  0.00     0.031 C 
ATOM     65  C   UNL A   1      40.285  32.589  36.203  1.00  0.00     0.031 A 
BRANCH  52  66
ATOM     66  C   UNL A   1      36.920  32.682  31.014  1.00  0.00    -0.014 A 
ATOM     67  C   UNL A   1      35.578  32.379  31.311  1.00  0.00     0.010 A 
ATOM     68  C   UNL A   1      37.202  33.606  29.991  1.00  0.00     0.010 A 
ATOM     69  C   UNL A   1      34.543  32.957  30.570  1.00  0.00     0.020 A 
ATOM     70  C   UNL A   1      36.169  34.211  29.271  1.00  0.00     0.020 A 
ATOM     71  C   UNL A   1      34.845  33.868  29.553  1.00  0.00     0.054 A 
BRANCH  71  72
ATOM     72  S   UNL A   1      33.481  34.617  28.622  1.00  0.00     0.124 S 
ATOM     73  O   UNL A   1      32.969  33.474  27.869  1.00  0.00    -0.237 OA
ATOM     74  O   UNL A   1      32.607  35.113  29.682  1.00  0.00    -0.237 OA
ATOM     75  O   UNL A   1      34.132  35.649  27.821  1.00  0.00    -0.744 OA
ENDBRANCH  71  72
ENDBRANCH  52  66
BRANCH  53  76
ATOM     76  C   UNL A   1      44.739  28.515  35.640  1.00  0.00    -0.014 A 
ATOM     77  C   UNL A   1      46.029  28.733  35.128  1.00  0.00     0.010 A 
ATOM     78  C   UNL A   1      44.586  27.738  36.803  1.00  0.00     0.010 A 
ATOM     79  C   UNL A   1      47.146  28.180  35.764  1.00  0.00     0.020 A 
ATOM     80  C   UNL A   1      45.700  27.210  37.460  1.00  0.00     0.020 A 
ATOM     81  C   UNL A   1      46.973  27.429  36.931  1.00  0.00     0.054 A 
BRANCH  81  82
ATOM     82  S   UNL A   1      48.440  26.780  37.779  1.00  0.00     0.124 S 
ATOM     83  O   UNL A   1      47.848  25.891  38.773  1.00  0.00    -0.237 OA
ATOM     84  O   UNL A   1      49.165  26.127  36.693  1.00  0.00    -0.237 OA
ATOM     85  O   UNL A   1      49.080  27.981  38.311  1.00  0.00    -0.744 OA
ENDBRANCH  81  82
ENDBRANCH  53  76
BRANCH  65  86
ATOM     86  C   UNL A   1      40.087  33.402  37.457  1.00  0.00    -0.014 A 
ATOM     87  C   UNL A   1      40.618  34.698  37.585  1.00  0.00     0.010 A 
ATOM     88  C   UNL A   1      39.293  32.882  38.497  1.00  0.00     0.010 A 
ATOM     89  C   UNL A   1      40.382  35.446  38.742  1.00  0.00     0.020 A 
ATOM     90  C   UNL A   1      39.028  33.640  39.640  1.00  0.00     0.020 A 
ATOM     91  C   UNL A   1      39.586  34.914  39.761  1.00  0.00     0.054 A 
BRANCH  91  92
ATOM     92  S   UNL A   1      39.252  35.927  41.228  1.00  0.00     0.124 S 
ATOM     93  O   UNL A   1      40.220  35.403  42.186  1.00  0.00    -0.237 OA
ATOM     94  O   UNL A   1      39.512  37.281  40.746  1.00  0.00    -0.237 OA
ATOM     95  O   UNL A   1      37.852  35.640  41.537  1.00  0.00    -0.744 OA
ENDBRANCH  91  92
ENDBRANCH  65  86
ENDBRANCH  39  40
ENDBRANCH  32  34
ENDBRANCH  31  32
ENDBRANCH  30  31
ENDBRANCH  29  30
ENDBRANCH  28  29
ENDBRANCH  27  28
ENDBRANCH  26  27
ENDBRANCH  25  26
ENDBRANCH   1  25
TORSDOF 28
ENDMDL
MODEL 2
REMARK VINA RESULT:      -7.6      6.228      8.531
REMARK SMILES [NH3+][C@@H](Cc1ccc(OC(F)F)cc1)C(=O)OCCOCCOCCOCCOC(=O)c1ccc(-c2c3nc(c(-c4ccc(S(=O)(=O)[O-])cc4)c4ccc([nH]4)c(-c4ccc(S(=O)(=O)[O-])cc4)c4nc(c(-c5ccc(S(=O)(=O)[O-])cc5)c5ccc2[nH]5)C=C4)C=C3)cc1
REMARK SMILES IDX 21 1 20 2 19 3 18 4 17 5 16 6 14 7 15 8 2 9 1 10 3 14 4 15
REMARK SMILES IDX 5 16 13 17 6 18 12 19 7 20 8 21 9 22 10 23 11 24 22 25 23 26
REMARK SMILES IDX 24 27 25 28 26 29 27 30 28 31 29 32 30 33 31 34 32 35 90 36
REMARK SMILES IDX 33 37 89 38 34 39 35 40 36 41 83 42 37 43 88 44 82 45 84 46
REMARK SMILES IDX 38 47 87 48 81 49 80 50 39 52 69 53 50 54 68 55 51 56 54 57
REMARK SMILES IDX 67 58 85 59 52 60 53 61 66 63 86 64 55 65 40 66 41 67 49 68
REMARK SMILES IDX 42 69 48 70 43 71 44 72 45 73 46 74 47 75 70 76 71 77 79 78
REMARK SMILES IDX 72 79 78 80 73 81 74 82 75 83 76 84 77 85 56 86 57 87 65 88
REMARK SMILES IDX 58 89 64 90 59 91 60 92 61 93 62 94 63 95
REMARK H PARENT 1 11 1 12 1 13 84 51 54 62
REMARK Flexibility Score: inf
ROOT
ATOM      1  C   UNL A   1      36.085  20.727  25.055  1.00  0.00     0.188 C 
ENDROOT
BRANCH   1   2
ATOM      2  C   UNL A   1      35.620  21.654  26.189  1.00  0.00     0.188 C 
BRANCH   2   3
ATOM      3  O   UNL A   1      34.461  21.346  26.957  1.00  0.00    -0.376 OA
BRANCH   3   4
ATOM      4  C   UNL A   1      33.720  22.368  27.613  1.00  0.00     0.202 C 
BRANCH   4   5
ATOM      5  C   UNL A   1      33.305  23.673  26.914  1.00  0.00     0.261 C 
BRANCH   5   6
ATOM      6  O   UNL A   1      31.904  23.948  26.891  1.00  0.00    -0.459 OA
BRANCH   6   7
ATOM      7  C   UNL A   1      31.280  23.840  25.687  1.00  0.00     0.365 C 
ATOM      8  O   UNL A   1      30.743  22.826  25.257  1.00  0.00    -0.245 OA
BRANCH   7   9
ATOM      9  C   UNL A   1      31.367  25.151  24.884  1.00  0.00     0.296 C 
BRANCH   9  10
ATOM     10  N   UNL A   1      32.739  25.452  24.418  1.00  0.00    -0.346 N 
ATOM     11  H   UNL A   1      32.732  26.316  23.876  1.00  0.00     0.345 HD
ATOM     12  H   UNL A   1      33.075  24.686  23.834  1.00  0.00     0.345 HD
ATOM     13  H   UNL A   1      33.354  25.560  25.225  1.00  0.00     0.345 HD
ENDBRANCH   9  10
BRANCH   9  14
ATOM     14  C   UNL A   1      30.360  25.146  23.726  1.00  0.00     0.113 C 
BRANCH  14  15
ATOM     15  C   UNL A   1      29.606  26.441  23.524  1.00  0.00    -0.041 A 
ATOM     16  C   UNL A   1      28.262  26.521  23.901  1.00  0.00     0.008 A 
ATOM     17  C   UNL A   1      30.201  27.562  22.927  1.00  0.00     0.008 A 
ATOM     18  C   UNL A   1      27.534  27.690  23.680  1.00  0.00     0.047 A 
ATOM     19  C   UNL A   1      29.459  28.722  22.679  1.00  0.00     0.047 A 
ATOM     20  C   UNL A   1      28.124  28.796  23.066  1.00  0.00     0.126 A 
BRANCH  20  21
ATOM     21  O   UNL A   1      27.293  29.865  22.914  1.00  0.00    -0.435 OA
BRANCH  21  22
ATOM     22  C   UNL A   1      27.857  31.166  22.854  1.00  0.00     0.542 C 
ATOM     23  F   UNL A   1      27.962  31.577  21.565  1.00  0.00    -0.167 F 
ATOM     24  F   UNL A   1      27.048  32.041  23.504  1.00  0.00    -0.167 F 
ENDBRANCH  21  22
ENDBRANCH  20  21
ENDBRANCH  14  15
ENDBRANCH   9  14
ENDBRANCH   7   9
ENDBRANCH   6   7
ENDBRANCH   5   6
ENDBRANCH   4   5
ENDBRANCH   3   4
ENDBRANCH   2   3
ENDBRANCH   1   2
BRANCH   1  25
ATOM     25  O   UNL A   1      37.408  20.970  24.620  1.00  0.00    -0.377 OA
BRANCH  25  26
ATOM     26  C   UNL A   1      38.148  21.910  25.395  1.00  0.00     0.188 C 
BRANCH  26  27
ATOM     27  C   UNL A   1      39.565  21.510  25.876  1.00  0.00     0.188 C 
BRANCH  27  28
ATOM     28  O   UNL A   1      39.654  20.243  26.516  1.00  0.00    -0.376 OA
BRANCH  28  29
ATOM     29  C   UNL A   1      40.538  19.259  25.998  1.00  0.00     0.202 C 
BRANCH  29  30
ATOM     30  C   UNL A   1      42.056  19.475  26.148  1.00  0.00     0.261 C 
BRANCH  30  31
ATOM     31  O   UNL A   1      42.769  19.862  24.964  1.00  0.00    -0.460 OA
BRANCH  31  32
ATOM     32  C   UNL A   1      44.081  20.150  25.088  1.00  0.00     0.338 C 
ATOM     33  O   UNL A   1      45.019  19.473  24.704  1.00  0.00    -0.246 OA
BRANCH  32  34
ATOM     34  C   UNL A   1      44.190  21.539  25.583  1.00  0.00     0.060 A 
ATOM     35  C   UNL A   1      43.964  22.595  24.691  1.00  0.00     0.016 A 
ATOM     36  C   UNL A   1      44.509  21.797  26.918  1.00  0.00     0.016 A 
ATOM     37  C   UNL A   1      44.095  23.914  25.120  1.00  0.00     0.010 A 
ATOM     38  C   UNL A   1      44.665  23.119  27.341  1.00  0.00     0.010 A 
ATOM     39  C   UNL A   1      44.497  24.182  26.434  1.00  0.00    -0.014 A 
BRANCH  39  40
ATOM     40  C   UNL A   1      44.952  25.545  26.800  1.00  0.00     0.031 A 
ATOM     41  C   UNL A   1      43.934  26.508  27.351  1.00  0.00     0.074 A 
ATOM     42  C   UNL A   1      46.236  25.918  26.667  1.00  0.00     0.049 A 
ATOM     43  N   UNL A   1      44.075  27.765  27.681  1.00  0.00    -0.248 NA
ATOM     44  C   UNL A   1      42.574  25.980  27.552  1.00  0.00     0.031 C 
ATOM     45  C   UNL A   1      47.327  25.064  26.202  1.00  0.00     0.029 A 
ATOM     46  N   UNL A   1      46.837  27.130  26.910  1.00  0.00    -0.354 N 
ATOM     47  C   UNL A   1      42.820  28.182  28.112  1.00  0.00     0.074 A 
ATOM     48  C   UNL A   1      41.927  27.054  27.975  1.00  0.00     0.031 C 
ATOM     49  C   UNL A   1      48.463  25.783  26.181  1.00  0.00     0.029 A 
ATOM     50  C   UNL A   1      48.171  27.157  26.585  1.00  0.00     0.049 A 
ATOM     51  H   UNL A   1      46.356  27.905  27.281  1.00  0.00     0.167 HD
ATOM     52  C   UNL A   1      42.446  29.397  28.578  1.00  0.00     0.031 A 
ATOM     53  C   UNL A   1      49.048  28.182  26.581  1.00  0.00     0.031 A 
ATOM     54  C   UNL A   1      43.336  30.521  28.695  1.00  0.00     0.049 A 
ATOM     55  C   UNL A   1      48.591  29.548  27.023  1.00  0.00     0.074 A 
ATOM     56  C   UNL A   1      43.058  31.790  29.173  1.00  0.00     0.029 A 
ATOM     57  N   UNL A   1      44.670  30.517  28.319  1.00  0.00    -0.354 N 
ATOM     58  N   UNL A   1      47.408  29.925  27.449  1.00  0.00    -0.248 NA
ATOM     59  C   UNL A   1      49.590  30.626  26.992  1.00  0.00     0.031 C 
ATOM     60  C   UNL A   1      44.206  32.572  29.019  1.00  0.00     0.029 A 
ATOM     61  C   UNL A   1      45.221  31.771  28.521  1.00  0.00     0.049 A 
ATOM     62  H   UNL A   1      45.155  29.738  27.962  1.00  0.00     0.167 HD
ATOM     63  C   UNL A   1      47.530  31.275  27.766  1.00  0.00     0.074 A 
ATOM     64  C   UNL A   1      48.903  31.645  27.493  1.00  0.00     0.031 C 
ATOM     65  C   UNL A   1      46.591  32.129  28.244  1.00  0.00     0.031 A 
BRANCH  52  66
ATOM     66  C   UNL A   1      40.998  29.585  28.948  1.00  0.00    -0.014 A 
ATOM     67  C   UNL A   1      40.599  29.794  30.281  1.00  0.00     0.010 A 
ATOM     68  C   UNL A   1      40.020  29.579  27.936  1.00  0.00     0.010 A 
ATOM     69  C   UNL A   1      39.247  29.951  30.598  1.00  0.00     0.020 A 
ATOM     70  C   UNL A   1      38.671  29.770  28.245  1.00  0.00     0.020 A 
ATOM     71  C   UNL A   1      38.291  29.936  29.577  1.00  0.00     0.054 A 
BRANCH  71  72
ATOM     72  S   UNL A   1      36.546  30.163  30.016  1.00  0.00     0.124 S 
ATOM     73  O   UNL A   1      36.425  29.326  31.208  1.00  0.00    -0.237 OA
ATOM     74  O   UNL A   1      36.460  31.602  30.248  1.00  0.00    -0.237 OA
ATOM     75  O   UNL A   1      35.826  29.679  28.842  1.00  0.00    -0.744 OA
ENDBRANCH  71  72
ENDBRANCH  52  66
BRANCH  53  76
ATOM     76  C   UNL A   1      50.441  27.963  26.104  1.00  0.00    -0.014 A 
ATOM     77  C   UNL A   1      51.469  27.633  27.003  1.00  0.00     0.010 A 
ATOM     78  C   UNL A   1      50.743  28.087  24.736  1.00  0.00     0.010 A 
ATOM     79  C   UNL A   1      52.776  27.438  26.544  1.00  0.00     0.020 A 
ATOM     80  C   UNL A   1      52.040  27.862  24.268  1.00  0.00     0.020 A 
ATOM     81  C   UNL A   1      53.050  27.545  25.177  1.00  0.00     0.054 A 
BRANCH  81  82
ATOM     82  S   UNL A   1      54.737  27.220  24.594  1.00  0.00     0.124 S 
ATOM     83  O   UNL A   1      55.290  28.566  24.495  1.00  0.00    -0.237 OA
ATOM     84  O   UNL A   1      55.281  26.385  25.661  1.00  0.00    -0.237 OA
ATOM     85  O   UNL A   1      54.525  26.530  23.322  1.00  0.00    -0.744 OA
ENDBRANCH  81  82
ENDBRANCH  53  76
BRANCH  65  86
ATOM     86  C   UNL A   1      47.017  33.542  28.548  1.00  0.00    -0.014 A 
ATOM     87  C   UNL A   1      47.562  33.893  29.796  1.00  0.00     0.010 A 
ATOM     88  C   UNL A   1      46.934  34.520  27.538  1.00  0.00     0.010 A 
ATOM     89  C   UNL A   1      47.990  35.203  30.036  1.00  0.00     0.020 A 
ATOM     90  C   UNL A   1      47.391  35.820  27.764  1.00  0.00     0.020 A 
ATOM     91  C   UNL A   1      47.905  36.157  29.018  1.00  0.00     0.054 A 
BRANCH  91  92
ATOM     92  S   UNL A   1      48.516  37.834  29.340  1.00  0.00     0.124 S 
ATOM     93  O   UNL A   1      49.182  38.161  28.082  1.00  0.00    -0.237 OA
ATOM     94  O   UNL A   1      47.287  38.575  29.612  1.00  0.00    -0.237 OA
ATOM     95  O   UNL A   1      49.404  37.665  30.488  1.00  0.00    -0.744 OA
ENDBRANCH  91  92
ENDBRANCH  65  86
ENDBRANCH  39  40
ENDBRANCH  32  34
ENDBRANCH  31  32
ENDBRANCH  30  31
ENDBRANCH  29  30
ENDBRANCH  28  29
ENDBRANCH  27  28
ENDBRANCH  26  27
ENDBRANCH  25  26
ENDBRANCH   1  25
TORSDOF 28
ENDMDL
MODEL 3
REMARK VINA RESULT:      -7.4      5.706     11.975
REMARK SMILES [NH3+][C@@H](Cc1ccc(OC(F)F)cc1)C(=O)OCCOCCOCCOCCOC(=O)c1ccc(-c2c3nc(c(-c4ccc(S(=O)(=O)[O-])cc4)c4ccc([nH]4)c(-c4ccc(S(=O)(=O)[O-])cc4)c4nc(c(-c5ccc(S(=O)(=O)[O-])cc5)c5ccc2[nH]5)C=C4)C=C3)cc1
REMARK SMILES IDX 21 1 20 2 19 3 18 4 17 5 16 6 14 7 15 8 2 9 1 10 3 14 4 15
REMARK SMILES IDX 5 16 13 17 6 18 12 19 7 20 8 21 9 22 10 23 11 24 22 25 23 26
REMARK SMILES IDX 24 27 25 28 26 29 27 30 28 31 29 32 30 33 31 34 32 35 90 36
REMARK SMILES IDX 33 37 89 38 34 39 35 40 36 41 83 42 37 43 88 44 82 45 84 46
REMARK SMILES IDX 38 47 87 48 81 49 80 50 39 52 69 53 50 54 68 55 51 56 54 57
REMARK SMILES IDX 67 58 85 59 52 60 53 61 66 63 86 64 55 65 40 66 41 67 49 68
REMARK SMILES IDX 42 69 48 70 43 71 44 72 45 73 46 74 47 75 70 76 71 77 79 78
REMARK SMILES IDX 72 79 78 80 73 81 74 82 75 83 76 84 77 85 56 86 57 87 65 88
REMARK SMILES IDX 58 89 64 90 59 91 60 92 61 93 62 94 63 95
REMARK H PARENT 1 11 1 12 1 13 84 51 54 62
REMARK Flexibility Score: inf
ROOT
ATOM      1  C   UNL A   1      33.369  36.439  29.803  1.00  0.00     0.188 C 
ENDROOT
BRANCH   1   2
ATOM      2  C   UNL A   1      32.528  35.751  28.715  1.00  0.00     0.188 C 
BRANCH   2   3
ATOM      3  O   UNL A   1      32.447  34.331  28.642  1.00  0.00    -0.376 OA
BRANCH   3   4
ATOM      4  C   UNL A   1      32.500  33.655  27.391  1.00  0.00     0.202 C 
BRANCH   4   5
ATOM      5  C   UNL A   1      31.840  32.286  27.157  1.00  0.00     0.261 C 
BRANCH   5   6
ATOM      6  O   UNL A   1      32.666  31.295  26.544  1.00  0.00    -0.459 OA
BRANCH   6   7
ATOM      7  C   UNL A   1      33.623  30.728  27.327  1.00  0.00     0.365 C 
ATOM      8  O   UNL A   1      34.013  31.172  28.401  1.00  0.00    -0.245 OA
BRANCH   7   9
ATOM      9  C   UNL A   1      34.213  29.464  26.676  1.00  0.00     0.296 C 
BRANCH   9  10
ATOM     10  N   UNL A   1      35.440  28.986  27.351  1.00  0.00    -0.346 N 
ATOM     11  H   UNL A   1      35.851  28.224  26.811  1.00  0.00     0.345 HD
ATOM     12  H   UNL A   1      35.205  28.653  28.286  1.00  0.00     0.345 HD
ATOM     13  H   UNL A   1      36.109  29.753  27.422  1.00  0.00     0.345 HD
ENDBRANCH   9  10
BRANCH   9  14
ATOM     14  C   UNL A   1      33.152  28.360  26.574  1.00  0.00     0.113 C 
BRANCH  14  15
ATOM     15  C   UNL A   1      33.366  27.365  25.455  1.00  0.00    -0.041 A 
ATOM     16  C   UNL A   1      33.900  26.106  25.748  1.00  0.00     0.008 A 
ATOM     17  C   UNL A   1      33.084  27.678  24.118  1.00  0.00     0.008 A 
ATOM     18  C   UNL A   1      34.151  25.190  24.726  1.00  0.00     0.047 A 
ATOM     19  C   UNL A   1      33.367  26.769  23.093  1.00  0.00     0.047 A 
ATOM     20  C   UNL A   1      33.890  25.514  23.393  1.00  0.00     0.126 A 
BRANCH  20  21
ATOM     21  O   UNL A   1      34.185  24.524  22.505  1.00  0.00    -0.435 OA
BRANCH  21  22
ATOM     22  C   UNL A   1      33.170  23.596  22.155  1.00  0.00     0.542 C 
ATOM     23  F   UNL A   1      33.441  22.376  22.683  1.00  0.00    -0.167 F 
ATOM     24  F   UNL A   1      31.982  24.012  22.661  1.00  0.00    -0.167 F 
ENDBRANCH  21  22
ENDBRANCH  20  21
ENDBRANCH  14  15
ENDBRANCH   9  14
ENDBRANCH   7   9
ENDBRANCH   6   7
ENDBRANCH   5   6
ENDBRANCH   4   5
ENDBRANCH   3   4
ENDBRANCH   2   3
ENDBRANCH   1   2
BRANCH   1  25
ATOM     25  O   UNL A   1      32.653  36.718  30.990  1.00  0.00    -0.377 OA
BRANCH  25  26
ATOM     26  C   UNL A   1      33.422  36.702  32.190  1.00  0.00     0.188 C 
BRANCH  26  27
ATOM     27  C   UNL A   1      34.431  35.546  32.400  1.00  0.00     0.188 C 
BRANCH  27  28
ATOM     28  O   UNL A   1      33.854  34.252  32.525  1.00  0.00    -0.376 OA
BRANCH  28  29
ATOM     29  C   UNL A   1      34.698  33.130  32.748  1.00  0.00     0.202 C 
BRANCH  29  30
ATOM     30  C   UNL A   1      35.478  32.543  31.557  1.00  0.00     0.261 C 
BRANCH  30  31
ATOM     31  O   UNL A   1      36.517  31.605  31.871  1.00  0.00    -0.460 OA
BRANCH  31  32
ATOM     32  C   UNL A   1      37.679  32.094  32.351  1.00  0.00     0.338 C 
ATOM     33  O   UNL A   1      37.821  32.848  33.299  1.00  0.00    -0.246 OA
BRANCH  32  34
ATOM     34  C   UNL A   1      38.781  31.390  31.662  1.00  0.00     0.060 A 
ATOM     35  C   UNL A   1      39.651  30.592  32.416  1.00  0.00     0.016 A 
ATOM     36  C   UNL A   1      38.953  31.512  30.280  1.00  0.00     0.016 A 
ATOM     37  C   UNL A   1      40.720  29.945  31.799  1.00  0.00     0.010 A 
ATOM     38  C   UNL A   1      40.040  30.885  29.667  1.00  0.00     0.010 A 
ATOM     39  C   UNL A   1      40.950  30.130  30.430  1.00  0.00    -0.014 A 
BRANCH  39  40
ATOM     40  C   UNL A   1      42.248  29.723  29.842  1.00  0.00     0.031 A 
ATOM     41  C   UNL A   1      42.355  28.344  29.246  1.00  0.00     0.074 A 
ATOM     42  C   UNL A   1      43.303  30.556  29.817  1.00  0.00     0.049 A 
ATOM     43  N   UNL A   1      43.395  27.741  28.733  1.00  0.00    -0.248 NA
ATOM     44  C   UNL A   1      41.122  27.539  29.232  1.00  0.00     0.031 C 
ATOM     45  C   UNL A   1      43.311  31.933  30.306  1.00  0.00     0.029 A 
ATOM     46  N   UNL A   1      44.582  30.353  29.359  1.00  0.00    -0.354 N 
ATOM     47  C   UNL A   1      42.946  26.481  28.351  1.00  0.00     0.074 A 
ATOM     48  C   UNL A   1      41.550  26.398  28.716  1.00  0.00     0.031 C 
ATOM     49  C   UNL A   1      44.542  32.447  30.135  1.00  0.00     0.029 A 
ATOM     50  C   UNL A   1      45.417  31.423  29.567  1.00  0.00     0.049 A 
ATOM     51  H   UNL A   1      44.872  29.519  28.923  1.00  0.00     0.167 HD
ATOM     52  C   UNL A   1      43.637  25.482  27.751  1.00  0.00     0.031 A 
ATOM     53  C   UNL A   1      46.744  31.550  29.357  1.00  0.00     0.031 A 
ATOM     54  C   UNL A   1      45.031  25.565  27.406  1.00  0.00     0.049 A 
ATOM     55  C   UNL A   1      47.512  30.397  28.766  1.00  0.00     0.074 A 
ATOM     56  C   UNL A   1      45.817  24.614  26.780  1.00  0.00     0.029 A 
ATOM     57  N   UNL A   1      45.849  26.652  27.670  1.00  0.00    -0.354 N 
ATOM     58  N   UNL A   1      47.073  29.219  28.389  1.00  0.00    -0.248 NA
ATOM     59  C   UNL A   1      48.955  30.592  28.565  1.00  0.00     0.031 C 
ATOM     60  C   UNL A   1      47.127  25.099  26.729  1.00  0.00     0.029 A 
ATOM     61  C   UNL A   1      47.140  26.383  27.250  1.00  0.00     0.049 A 
ATOM     62  H   UNL A   1      45.554  27.492  28.091  1.00  0.00     0.167 HD
ATOM     63  C   UNL A   1      48.178  28.546  27.878  1.00  0.00     0.074 A 
ATOM     64  C   UNL A   1      49.304  29.452  27.984  1.00  0.00     0.031 C 
ATOM     65  C   UNL A   1      48.254  27.294  27.362  1.00  0.00     0.031 A 
BRANCH  52  66
ATOM     66  C   UNL A   1      42.902  24.195  27.478  1.00  0.00    -0.014 A 
ATOM     67  C   UNL A   1      42.326  23.929  26.221  1.00  0.00     0.010 A 
ATOM     68  C   UNL A   1      42.813  23.223  28.490  1.00  0.00     0.010 A 
ATOM     69  C   UNL A   1      41.639  22.733  25.999  1.00  0.00     0.020 A 
ATOM     70  C   UNL A   1      42.155  22.012  28.261  1.00  0.00     0.020 A 
ATOM     71  C   UNL A   1      41.556  21.782  27.021  1.00  0.00     0.054 A 
BRANCH  71  72
ATOM     72  S   UNL A   1      40.674  20.231  26.697  1.00  0.00     0.124 S 
ATOM     73  O   UNL A   1      40.864  19.509  27.953  1.00  0.00    -0.237 OA
ATOM     74  O   UNL A   1      39.312  20.687  26.436  1.00  0.00    -0.237 OA
ATOM     75  O   UNL A   1      41.372  19.668  25.545  1.00  0.00    -0.744 OA
ENDBRANCH  71  72
ENDBRANCH  52  66
BRANCH  53  76
ATOM     76  C   UNL A   1      47.438  32.808  29.745  1.00  0.00    -0.014 A 
ATOM     77  C   UNL A   1      48.222  32.873  30.910  1.00  0.00     0.010 A 
ATOM     78  C   UNL A   1      47.312  33.956  28.941  1.00  0.00     0.010 A 
ATOM     79  C   UNL A   1      48.862  34.064  31.267  1.00  0.00     0.020 A 
ATOM     80  C   UNL A   1      47.975  35.139  29.278  1.00  0.00     0.020 A 
ATOM     81  C   UNL A   1      48.740  35.186  30.444  1.00  0.00     0.054 A 
BRANCH  81  82
ATOM     82  S   UNL A   1      49.635  36.700  30.889  1.00  0.00     0.124 S 
ATOM     83  O   UNL A   1      50.176  36.360  32.201  1.00  0.00    -0.237 OA
ATOM     84  O   UNL A   1      50.611  36.816  29.809  1.00  0.00    -0.237 OA
ATOM     85  O   UNL A   1      48.590  37.722  30.885  1.00  0.00    -0.744 OA
ENDBRANCH  81  82
ENDBRANCH  53  76
BRANCH  65  86
ATOM     86  C   UNL A   1      49.587  26.833  26.830  1.00  0.00    -0.014 A 
ATOM     87  C   UNL A   1      50.500  26.134  27.639  1.00  0.00     0.010 A 
ATOM     88  C   UNL A   1      49.897  27.043  25.472  1.00  0.00     0.010 A 
ATOM     89  C   UNL A   1      51.711  25.679  27.106  1.00  0.00     0.020 A 
ATOM     90  C   UNL A   1      51.090  26.562  24.930  1.00  0.00     0.020 A 
ATOM     91  C   UNL A   1      51.997  25.894  25.754  1.00  0.00     0.054 A 
BRANCH  91  92
ATOM     92  S   UNL A   1      53.550  25.247  25.077  1.00  0.00     0.124 S 
ATOM     93  O   UNL A   1      53.372  23.806  25.231  1.00  0.00    -0.237 OA
ATOM     94  O   UNL A   1      53.529  25.740  23.703  1.00  0.00    -0.237 OA
ATOM     95  O   UNL A   1      54.575  25.841  25.932  1.00  0.00    -0.744 OA
ENDBRANCH  91  92
ENDBRANCH  65  86
ENDBRANCH  39  40
ENDBRANCH  32  34
ENDBRANCH  31  32
ENDBRANCH  30  31
ENDBRANCH  29  30
ENDBRANCH  28  29
ENDBRANCH  27  28
ENDBRANCH  26  27
ENDBRANCH  25  26
ENDBRANCH   1  25
TORSDOF 28
ENDMDL
