MODEL 1
REMARK VINA RESULT:      -9.0      0.000      0.000
REMARK SMILES COc1ccc(-c2nc3ccc(C)cc3[nH]2)c(C(=O)OCCOCCOCCOCCOC(=O)c2ccc(-c3c4nc(c(-c5ccc(S(=O)(=O)[O-])cc5)c5ccc([nH]5)c(-c5ccc(S(=O)(=O)[O-])cc5)c5nc(c(-c6ccc(S(=O)(=O)[O-])cc6)c6ccc3[nH]6)C=C5)C=C4)cc2)c1OC
REMARK SMILES IDX 27 1 26 2 25 3 24 4 23 5 22 6 21 7 20 8 18 9 19 10 17 11
REMARK SMILES IDX 3 12 4 13 95 14 5 15 6 16 2 17 1 18 96 19 97 20 7 21 8 22
REMARK SMILES IDX 16 23 9 24 15 25 10 27 14 28 11 29 12 30 13 31 28 32 29 33
REMARK SMILES IDX 30 34 31 35 32 36 33 37 34 38 35 39 36 40 94 41 37 42 93 43
REMARK SMILES IDX 38 44 39 45 40 46 87 47 41 48 92 49 86 50 88 51 42 52 91 53
REMARK SMILES IDX 85 54 84 55 43 57 73 58 54 59 72 60 55 61 58 62 71 63 89 64
REMARK SMILES IDX 56 65 57 66 70 68 90 69 59 70 44 71 45 72 53 73 46 74 52 75
REMARK SMILES IDX 47 76 48 77 49 78 50 79 51 80 74 81 75 82 83 83 76 84 82 85
REMARK SMILES IDX 77 86 78 87 79 88 80 89 81 90 60 91 61 92 69 93 62 94 68 95
REMARK SMILES IDX 63 96 64 97 65 98 66 99 67 100
REMARK H PARENT 16 26 88 56 58 67
REMARK Flexibility Score: inf
ROOT
ATOM      1  C   UNL A   1      32.515  29.063  27.055  1.00  0.00     0.188 C 
ENDROOT
BRANCH   1   2
ATOM      2  O   UNL A   1      31.856  28.254  26.091  1.00  0.00    -0.377 OA
BRANCH   2   3
ATOM      3  C   UNL A   1      32.636  27.183  25.577  1.00  0.00     0.188 C 
BRANCH   3   4
ATOM      4  C   UNL A   1      31.977  26.124  24.685  1.00  0.00     0.188 C 
BRANCH   4   5
ATOM      5  O   UNL A   1      32.665  25.845  23.463  1.00  0.00    -0.376 OA
BRANCH   5   6
ATOM      6  C   UNL A   1      33.374  24.605  23.467  1.00  0.00     0.202 C 
BRANCH   6   7
ATOM      7  C   UNL A   1      34.748  24.757  24.123  1.00  0.00     0.261 C 
BRANCH   7   8
ATOM      8  O   UNL A   1      35.406  23.486  24.276  1.00  0.00    -0.460 OA
BRANCH   8   9
ATOM      9  C   UNL A   1      35.164  22.778  25.405  1.00  0.00     0.342 C 
ATOM     10  O   UNL A   1      34.722  23.212  26.458  1.00  0.00    -0.246 OA
BRANCH   9  11
ATOM     11  C   UNL A   1      35.400  21.335  25.124  1.00  0.00     0.116 A 
ATOM     12  C   UNL A   1      34.542  19.104  24.692  1.00  0.00     0.161 A 
ATOM     13  C   UNL A   1      35.851  18.618  24.669  1.00  0.00     0.051 A 
ATOM     14  C   UNL A   1      34.301  20.467  24.921  1.00  0.00     0.176 A 
ATOM     15  C   UNL A   1      36.939  19.472  24.873  1.00  0.00     0.017 A 
ATOM     16  C   UNL A   1      36.733  20.833  25.133  1.00  0.00     0.036 A 
BRANCH  12  17
ATOM     17  O   UNL A   1      33.563  18.151  24.604  1.00  0.00    -0.493 OA
ATOM     18  C   UNL A   1      33.646  17.332  23.441  1.00  0.00     0.278 C 
ENDBRANCH  12  17
BRANCH  14  19
ATOM     19  O   UNL A   1      33.035  20.997  24.871  1.00  0.00    -0.492 OA
ATOM     20  C   UNL A   1      32.477  21.106  23.557  1.00  0.00     0.278 C 
ENDBRANCH  14  19
BRANCH  16  21
ATOM     21  C   UNL A   1      37.846  21.611  25.698  1.00  0.00     0.139 A 
ATOM     22  N   UNL A   1      39.036  21.088  25.870  1.00  0.00    -0.228 NA
ATOM     23  N   UNL A   1      37.880  22.942  26.060  1.00  0.00    -0.338 N 
ATOM     24  C   UNL A   1      39.801  22.005  26.510  1.00  0.00     0.089 A 
ATOM     25  C   UNL A   1      39.123  23.209  26.614  1.00  0.00     0.066 A 
ATOM     26  H   UNL A   1      37.150  23.592  25.944  1.00  0.00     0.168 HD
ATOM     27  C   UNL A   1      41.087  21.849  27.034  1.00  0.00     0.031 A 
ATOM     28  C   UNL A   1      39.712  24.336  27.199  1.00  0.00     0.031 A 
ATOM     29  C   UNL A   1      41.679  22.944  27.657  1.00  0.00     0.006 A 
ATOM     30  C   UNL A   1      41.013  24.177  27.732  1.00  0.00    -0.049 A 
ATOM     31  C   UNL A   1      41.725  25.317  28.402  1.00  0.00     0.044 C 
ENDBRANCH  16  21
ENDBRANCH   9  11
ENDBRANCH   8   9
ENDBRANCH   7   8
ENDBRANCH   6   7
ENDBRANCH   5   6
ENDBRANCH   4   5
ENDBRANCH   3   4
ENDBRANCH   2   3
ENDBRANCH   1   2
BRANCH   1  32
ATOM     32  C   UNL A   1      32.891  30.446  26.487  1.00  0.00     0.188 C 
BRANCH  32  33
ATOM     33  O   UNL A   1      32.856  31.482  27.466  1.00  0.00    -0.376 OA
BRANCH  33  34
ATOM     34  C   UNL A   1      32.268  32.724  27.106  1.00  0.00     0.202 C 
BRANCH  34  35
ATOM     35  C   UNL A   1      32.702  34.015  27.823  1.00  0.00     0.261 C 
BRANCH  35  36
ATOM     36  O   UNL A   1      32.759  33.983  29.256  1.00  0.00    -0.460 OA
BRANCH  36  37
ATOM     37  C   UNL A   1      33.065  35.118  29.918  1.00  0.00     0.338 C 
ATOM     38  O   UNL A   1      32.481  36.184  29.856  1.00  0.00    -0.246 OA
BRANCH  37  39
ATOM     39  C   UNL A   1      34.100  34.763  30.919  1.00  0.00     0.060 A 
ATOM     40  C   UNL A   1      34.473  35.725  31.869  1.00  0.00     0.016 A 
ATOM     41  C   UNL A   1      34.629  33.468  30.981  1.00  0.00     0.016 A 
ATOM     42  C   UNL A   1      35.403  35.405  32.858  1.00  0.00     0.010 A 
ATOM     43  C   UNL A   1      35.585  33.159  31.951  1.00  0.00     0.010 A 
ATOM     44  C   UNL A   1      36.005  34.140  32.866  1.00  0.00    -0.014 A 
BRANCH  44  45
ATOM     45  C   UNL A   1      37.266  33.954  33.620  1.00  0.00     0.031 A 
ATOM     46  C   UNL A   1      38.549  34.024  32.833  1.00  0.00     0.074 A 
ATOM     47  C   UNL A   1      37.290  33.773  34.952  1.00  0.00     0.049 A 
ATOM     48  N   UNL A   1      39.785  33.924  33.246  1.00  0.00    -0.248 NA
ATOM     49  C   UNL A   1      38.413  34.245  31.382  1.00  0.00     0.031 C 
ATOM     50  C   UNL A   1      36.119  33.736  35.827  1.00  0.00     0.029 A 
ATOM     51  N   UNL A   1      38.354  33.594  35.801  1.00  0.00    -0.354 N 
ATOM     52  C   UNL A   1      40.570  34.074  32.108  1.00  0.00     0.074 A 
ATOM     53  C   UNL A   1      39.675  34.237  30.985  1.00  0.00     0.031 C 
ATOM     54  C   UNL A   1      36.531  33.545  37.095  1.00  0.00     0.029 A 
ATOM     55  C   UNL A   1      37.989  33.424  37.115  1.00  0.00     0.049 A 
ATOM     56  H   UNL A   1      39.289  33.587  35.498  1.00  0.00     0.167 HD
ATOM     57  C   UNL A   1      41.919  34.084  32.005  1.00  0.00     0.031 A 
ATOM     58  C   UNL A   1      38.749  33.189  38.205  1.00  0.00     0.031 A 
ATOM     59  C   UNL A   1      42.807  33.888  33.115  1.00  0.00     0.049 A 
ATOM     60  C   UNL A   1      40.249  33.114  38.052  1.00  0.00     0.074 A 
ATOM     61  C   UNL A   1      44.189  33.867  33.119  1.00  0.00     0.029 A 
ATOM     62  N   UNL A   1      42.396  33.664  34.420  1.00  0.00    -0.354 N 
ATOM     63  N   UNL A   1      40.980  33.278  36.974  1.00  0.00    -0.248 NA
ATOM     64  C   UNL A   1      41.025  32.832  39.268  1.00  0.00     0.031 C 
ATOM     65  C   UNL A   1      44.615  33.580  34.421  1.00  0.00     0.029 A 
ATOM     66  C   UNL A   1      43.498  33.482  35.237  1.00  0.00     0.049 A 
ATOM     67  H   UNL A   1      41.459  33.640  34.721  1.00  0.00     0.167 HD
ATOM     68  C   UNL A   1      42.303  33.152  37.387  1.00  0.00     0.074 A 
ATOM     69  C   UNL A   1      42.270  32.908  38.816  1.00  0.00     0.031 C 
ATOM     70  C   UNL A   1      43.442  33.240  36.657  1.00  0.00     0.031 A 
BRANCH  57  71
ATOM     71  C   UNL A   1      42.497  34.272  30.628  1.00  0.00    -0.014 A 
ATOM     72  C   UNL A   1      42.578  35.548  30.040  1.00  0.00     0.010 A 
ATOM     73  C   UNL A   1      42.958  33.154  29.910  1.00  0.00     0.010 A 
ATOM     74  C   UNL A   1      43.069  35.696  28.741  1.00  0.00     0.020 A 
ATOM     75  C   UNL A   1      43.476  33.304  28.620  1.00  0.00     0.020 A 
ATOM     76  C   UNL A   1      43.509  34.573  28.037  1.00  0.00     0.054 A 
BRANCH  76  77
ATOM     77  S   UNL A   1      44.148  34.793  26.354  1.00  0.00     0.124 S 
ATOM     78  O   UNL A   1      44.765  33.495  26.094  1.00  0.00    -0.237 OA
ATOM     79  O   UNL A   1      42.939  35.079  25.587  1.00  0.00    -0.237 OA
ATOM     80  O   UNL A   1      45.081  35.911  26.481  1.00  0.00    -0.744 OA
ENDBRANCH  76  77
ENDBRANCH  57  71
BRANCH  58  81
ATOM     81  C   UNL A   1      38.113  33.003  39.538  1.00  0.00    -0.014 A 
ATOM     82  C   UNL A   1      38.071  34.056  40.468  1.00  0.00     0.010 A 
ATOM     83  C   UNL A   1      37.554  31.761  39.891  1.00  0.00     0.010 A 
ATOM     84  C   UNL A   1      37.497  33.868  41.730  1.00  0.00     0.020 A 
ATOM     85  C   UNL A   1      36.957  31.575  41.142  1.00  0.00     0.020 A 
ATOM     86  C   UNL A   1      36.941  32.628  42.058  1.00  0.00     0.054 A 
BRANCH  86  87
ATOM     87  S   UNL A   1      36.158  32.419  43.682  1.00  0.00     0.124 S 
ATOM     88  O   UNL A   1      36.914  31.304  44.244  1.00  0.00    -0.237 OA
ATOM     89  O   UNL A   1      36.384  33.719  44.311  1.00  0.00    -0.237 OA
ATOM     90  O   UNL A   1      34.765  32.129  43.354  1.00  0.00    -0.744 OA
ENDBRANCH  86  87
ENDBRANCH  58  81
BRANCH  70  91
ATOM     91  C   UNL A   1      44.751  33.113  37.390  1.00  0.00    -0.014 A 
ATOM     92  C   UNL A   1      45.378  34.229  37.970  1.00  0.00     0.010 A 
ATOM     93  C   UNL A   1      45.332  31.840  37.547  1.00  0.00     0.010 A 
ATOM     94  C   UNL A   1      46.583  34.080  38.664  1.00  0.00     0.020 A 
ATOM     95  C   UNL A   1      46.521  31.684  38.263  1.00  0.00     0.020 A 
ATOM     96  C   UNL A   1      47.148  32.809  38.803  1.00  0.00     0.054 A 
BRANCH  96  97
ATOM     97  S   UNL A   1      48.694  32.635  39.736  1.00  0.00     0.124 S 
ATOM     98  O   UNL A   1      48.517  33.620  40.801  1.00  0.00    -0.237 OA
ATOM     99  O   UNL A   1      48.660  31.238  40.160  1.00  0.00    -0.237 OA
ATOM    100  O   UNL A   1      49.729  32.957  38.756  1.00  0.00    -0.744 OA
ENDBRANCH  96  97
ENDBRANCH  70  91
ENDBRANCH  44  45
ENDBRANCH  37  39
ENDBRANCH  36  37
ENDBRANCH  35  36
ENDBRANCH  34  35
ENDBRANCH  33  34
ENDBRANCH  32  33
ENDBRANCH   1  32
TORSDOF 26
ENDMDL
MODEL 2
REMARK VINA RESULT:      -8.7      3.284      7.819
REMARK SMILES COc1ccc(-c2nc3ccc(C)cc3[nH]2)c(C(=O)OCCOCCOCCOCCOC(=O)c2ccc(-c3c4nc(c(-c5ccc(S(=O)(=O)[O-])cc5)c5ccc([nH]5)c(-c5ccc(S(=O)(=O)[O-])cc5)c5nc(c(-c6ccc(S(=O)(=O)[O-])cc6)c6ccc3[nH]6)C=C5)C=C4)cc2)c1OC
REMARK SMILES IDX 27 1 26 2 25 3 24 4 23 5 22 6 21 7 20 8 18 9 19 10 17 11
REMARK SMILES IDX 3 12 4 13 95 14 5 15 6 16 2 17 1 18 96 19 97 20 7 21 8 22
REMARK SMILES IDX 16 23 9 24 15 25 10 27 14 28 11 29 12 30 13 31 28 32 29 33
REMARK SMILES IDX 30 34 31 35 32 36 33 37 34 38 35 39 36 40 94 41 37 42 93 43
REMARK SMILES IDX 38 44 39 45 40 46 87 47 41 48 92 49 86 50 88 51 42 52 91 53
REMARK SMILES IDX 85 54 84 55 43 57 73 58 54 59 72 60 55 61 58 62 71 63 89 64
REMARK SMILES IDX 56 65 57 66 70 68 90 69 59 70 44 71 45 72 53 73 46 74 52 75
REMARK SMILES IDX 47 76 48 77 49 78 50 79 51 80 74 81 75 82 83 83 76 84 82 85
REMARK SMILES IDX 77 86 78 87 79 88 80 89 81 90 60 91 61 92 69 93 62 94 68 95
REMARK SMILES IDX 63 96 64 97 65 98 66 99 67 100
REMARK H PARENT 16 26 88 56 58 67
REMARK Flexibility Score: inf
ROOT
ATOM      1  C   UNL A   1      31.754  29.207  26.705  1.00  0.00     0.188 C 
ENDROOT
BRANCH   1   2
ATOM      2  O   UNL A   1      31.227  28.477  25.606  1.00  0.00    -0.377 OA
BRANCH   2   3
ATOM      3  C   UNL A   1      32.043  27.405  25.155  1.00  0.00     0.188 C 
BRANCH   3   4
ATOM      4  C   UNL A   1      31.429  26.293  24.296  1.00  0.00     0.188 C 
BRANCH   4   5
ATOM      5  O   UNL A   1      32.123  26.012  23.078  1.00  0.00    -0.376 OA
BRANCH   5   6
ATOM      6  C   UNL A   1      32.753  24.730  23.052  1.00  0.00     0.202 C 
BRANCH   6   7
ATOM      7  C   UNL A   1      34.205  24.819  23.528  1.00  0.00     0.261 C 
BRANCH   7   8
ATOM      8  O   UNL A   1      34.770  23.516  23.755  1.00  0.00    -0.460 OA
BRANCH   8   9
ATOM      9  C   UNL A   1      34.542  22.924  24.951  1.00  0.00     0.342 C 
ATOM     10  O   UNL A   1      34.087  23.455  25.953  1.00  0.00    -0.246 OA
BRANCH   9  11
ATOM     11  C   UNL A   1      34.812  21.465  24.823  1.00  0.00     0.116 A 
ATOM     12  C   UNL A   1      34.011  19.192  24.523  1.00  0.00     0.161 A 
ATOM     13  C   UNL A   1      35.322  18.725  24.655  1.00  0.00     0.051 A 
ATOM     14  C   UNL A   1      33.741  20.565  24.607  1.00  0.00     0.176 A 
ATOM     15  C   UNL A   1      36.381  19.611  24.872  1.00  0.00     0.017 A 
ATOM     16  C   UNL A   1      36.143  20.987  24.990  1.00  0.00     0.036 A 
BRANCH  12  17
ATOM     17  O   UNL A   1      33.051  18.219  24.439  1.00  0.00    -0.493 OA
ATOM     18  C   UNL A   1      33.171  17.192  25.418  1.00  0.00     0.278 C 
ENDBRANCH  12  17
BRANCH  14  19
ATOM     19  O   UNL A   1      32.480  21.069  24.403  1.00  0.00    -0.492 OA
ATOM     20  C   UNL A   1      32.061  21.111  23.034  1.00  0.00     0.278 C 
ENDBRANCH  14  19
BRANCH  16  21
ATOM     21  C   UNL A   1      37.198  21.830  25.574  1.00  0.00     0.139 A 
ATOM     22  N   UNL A   1      38.413  21.378  25.770  1.00  0.00    -0.228 NA
ATOM     23  N   UNL A   1      37.147  23.161  25.933  1.00  0.00    -0.338 N 
ATOM     24  C   UNL A   1      39.110  22.338  26.423  1.00  0.00     0.089 A 
ATOM     25  C   UNL A   1      38.361  23.500  26.510  1.00  0.00     0.066 A 
ATOM     26  H   UNL A   1      36.382  23.766  25.802  1.00  0.00     0.168 HD
ATOM     27  C   UNL A   1      40.393  22.259  26.971  1.00  0.00     0.031 A 
ATOM     28  C   UNL A   1      38.872  24.661  27.104  1.00  0.00     0.031 A 
ATOM     29  C   UNL A   1      40.908  23.387  27.603  1.00  0.00     0.006 A 
ATOM     30  C   UNL A   1      40.170  24.579  27.662  1.00  0.00    -0.049 A 
ATOM     31  C   UNL A   1      40.801  25.760  28.343  1.00  0.00     0.044 C 
ENDBRANCH  16  21
ENDBRANCH   9  11
ENDBRANCH   8   9
ENDBRANCH   7   8
ENDBRANCH   6   7
ENDBRANCH   5   6
ENDBRANCH   4   5
ENDBRANCH   3   4
ENDBRANCH   2   3
ENDBRANCH   1   2
BRANCH   1  32
ATOM     32  C   UNL A   1      32.399  30.534  26.259  1.00  0.00     0.188 C 
BRANCH  32  33
ATOM     33  O   UNL A   1      33.005  31.251  27.333  1.00  0.00    -0.376 OA
BRANCH  33  34
ATOM     34  C   UNL A   1      32.790  32.653  27.408  1.00  0.00     0.202 C 
BRANCH  34  35
ATOM     35  C   UNL A   1      33.452  33.471  28.532  1.00  0.00     0.261 C 
BRANCH  35  36
ATOM     36  O   UNL A   1      34.010  32.742  29.634  1.00  0.00    -0.460 OA
BRANCH  36  37
ATOM     37  C   UNL A   1      34.477  33.430  30.696  1.00  0.00     0.338 C 
ATOM     38  O   UNL A   1      33.883  34.268  31.348  1.00  0.00    -0.246 OA
BRANCH  37  39
ATOM     39  C   UNL A   1      35.769  32.807  31.073  1.00  0.00     0.060 A 
ATOM     40  C   UNL A   1      35.762  31.757  32.003  1.00  0.00     0.016 A 
ATOM     41  C   UNL A   1      36.963  33.188  30.450  1.00  0.00     0.016 A 
ATOM     42  C   UNL A   1      36.953  31.113  32.339  1.00  0.00     0.010 A 
ATOM     43  C   UNL A   1      38.160  32.565  30.810  1.00  0.00     0.010 A 
ATOM     44  C   UNL A   1      38.163  31.554  31.787  1.00  0.00    -0.014 A 
BRANCH  44  45
ATOM     45  C   UNL A   1      39.431  31.173  32.451  1.00  0.00     0.031 A 
ATOM     46  C   UNL A   1      39.698  31.769  33.808  1.00  0.00     0.074 A 
ATOM     47  C   UNL A   1      40.297  30.303  31.904  1.00  0.00     0.049 A 
ATOM     48  N   UNL A   1      40.710  31.584  34.613  1.00  0.00    -0.248 NA
ATOM     49  C   UNL A   1      38.676  32.697  34.325  1.00  0.00     0.031 C 
ATOM     50  C   UNL A   1      40.126  29.623  30.621  1.00  0.00     0.029 A 
ATOM     51  N   UNL A   1      41.500  29.837  32.376  1.00  0.00    -0.354 N 
ATOM     52  C   UNL A   1      40.442  32.367  35.732  1.00  0.00     0.074 A 
ATOM     53  C   UNL A   1      39.195  33.055  35.488  1.00  0.00     0.031 C 
ATOM     54  C   UNL A   1      41.190  28.824  30.407  1.00  0.00     0.029 A 
ATOM     55  C   UNL A   1      42.123  28.955  31.525  1.00  0.00     0.049 A 
ATOM     56  H   UNL A   1      41.880  30.109  33.241  1.00  0.00     0.167 HD
ATOM     57  C   UNL A   1      41.165  32.498  36.867  1.00  0.00     0.031 A 
ATOM     58  C   UNL A   1      43.315  28.335  31.639  1.00  0.00     0.031 A 
ATOM     59  C   UNL A   1      42.422  31.842  37.095  1.00  0.00     0.049 A 
ATOM     60  C   UNL A   1      44.150  28.566  32.876  1.00  0.00     0.074 A 
ATOM     61  C   UNL A   1      43.244  31.914  38.204  1.00  0.00     0.029 A 
ATOM     62  N   UNL A   1      43.045  31.000  36.186  1.00  0.00    -0.354 N 
ATOM     63  N   UNL A   1      43.875  29.292  33.934  1.00  0.00    -0.248 NA
ATOM     64  C   UNL A   1      45.450  27.882  32.935  1.00  0.00     0.031 C 
ATOM     65  C   UNL A   1      44.390  31.155  37.945  1.00  0.00     0.029 A 
ATOM     66  C   UNL A   1      44.252  30.562  36.699  1.00  0.00     0.049 A 
ATOM     67  H   UNL A   1      42.681  30.750  35.305  1.00  0.00     0.167 HD
ATOM     68  C   UNL A   1      44.954  29.127  34.799  1.00  0.00     0.074 A 
ATOM     69  C   UNL A   1      45.879  28.225  34.143  1.00  0.00     0.031 C 
ATOM     70  C   UNL A   1      45.158  29.664  36.028  1.00  0.00     0.031 A 
BRANCH  57  71
ATOM     71  C   UNL A   1      40.621  33.424  37.921  1.00  0.00    -0.014 A 
ATOM     72  C   UNL A   1      39.965  32.924  39.061  1.00  0.00     0.010 A 
ATOM     73  C   UNL A   1      40.763  34.814  37.765  1.00  0.00     0.010 A 
ATOM     74  C   UNL A   1      39.420  33.800  40.002  1.00  0.00     0.020 A 
ATOM     75  C   UNL A   1      40.243  35.693  38.719  1.00  0.00     0.020 A 
ATOM     76  C   UNL A   1      39.557  35.179  39.823  1.00  0.00     0.054 A 
BRANCH  76  77
ATOM     77  S   UNL A   1      38.846  36.295  41.063  1.00  0.00     0.124 S 
ATOM     78  O   UNL A   1      39.956  36.448  42.000  1.00  0.00    -0.237 OA
ATOM     79  O   UNL A   1      38.520  37.482  40.277  1.00  0.00    -0.237 OA
ATOM     80  O   UNL A   1      37.695  35.556  41.575  1.00  0.00    -0.744 OA
ENDBRANCH  76  77
ENDBRANCH  57  71
BRANCH  58  81
ATOM     81  C   UNL A   1      43.801  27.437  30.554  1.00  0.00    -0.014 A 
ATOM     82  C   UNL A   1      43.893  26.049  30.757  1.00  0.00     0.010 A 
ATOM     83  C   UNL A   1      44.186  27.970  29.311  1.00  0.00     0.010 A 
ATOM     84  C   UNL A   1      44.376  25.213  29.745  1.00  0.00     0.020 A 
ATOM     85  C   UNL A   1      44.646  27.136  28.287  1.00  0.00     0.020 A 
ATOM     86  C   UNL A   1      44.748  25.762  28.514  1.00  0.00     0.054 A 
BRANCH  86  87
ATOM     87  S   UNL A   1      45.326  24.656  27.197  1.00  0.00     0.124 S 
ATOM     88  O   UNL A   1      45.920  23.561  27.957  1.00  0.00    -0.237 OA
ATOM     89  O   UNL A   1      44.088  24.335  26.488  1.00  0.00    -0.237 OA
ATOM     90  O   UNL A   1      46.268  25.481  26.446  1.00  0.00    -0.744 OA
ENDBRANCH  86  87
ENDBRANCH  58  81
BRANCH  70  91
ATOM     91  C   UNL A   1      46.408  29.261  36.765  1.00  0.00    -0.014 A 
ATOM     92  C   UNL A   1      47.594  30.007  36.658  1.00  0.00     0.010 A 
ATOM     93  C   UNL A   1      46.373  28.145  37.622  1.00  0.00     0.010 A 
ATOM     94  C   UNL A   1      48.735  29.622  37.369  1.00  0.00     0.020 A 
ATOM     95  C   UNL A   1      47.503  27.775  38.355  1.00  0.00     0.020 A 
ATOM     96  C   UNL A   1      48.683  28.506  38.210  1.00  0.00     0.054 A 
BRANCH  96  97
ATOM     97  S   UNL A   1      50.165  28.047  39.149  1.00  0.00     0.124 S 
ATOM     98  O   UNL A   1      50.423  29.261  39.921  1.00  0.00    -0.237 OA
ATOM     99  O   UNL A   1      49.713  26.894  39.923  1.00  0.00    -0.237 OA
ATOM    100  O   UNL A   1      51.152  27.747  38.114  1.00  0.00    -0.744 OA
ENDBRANCH  96  97
ENDBRANCH  70  91
ENDBRANCH  44  45
ENDBRANCH  37  39
ENDBRANCH  36  37
ENDBRANCH  35  36
ENDBRANCH  34  35
ENDBRANCH  33  34
ENDBRANCH  32  33
ENDBRANCH   1  32
TORSDOF 26
ENDMDL
MODEL 3
REMARK VINA RESULT:      -8.6      2.932      3.942
REMARK SMILES COc1ccc(-c2nc3ccc(C)cc3[nH]2)c(C(=O)OCCOCCOCCOCCOC(=O)c2ccc(-c3c4nc(c(-c5ccc(S(=O)(=O)[O-])cc5)c5ccc([nH]5)c(-c5ccc(S(=O)(=O)[O-])cc5)c5nc(c(-c6ccc(S(=O)(=O)[O-])cc6)c6ccc3[nH]6)C=C5)C=C4)cc2)c1OC
REMARK SMILES IDX 27 1 26 2 25 3 24 4 23 5 22 6 21 7 20 8 18 9 19 10 17 11
REMARK SMILES IDX 3 12 4 13 95 14 5 15 6 16 2 17 1 18 96 19 97 20 7 21 8 22
REMARK SMILES IDX 16 23 9 24 15 25 10 27 14 28 11 29 12 30 13 31 28 32 29 33
REMARK SMILES IDX 30 34 31 35 32 36 33 37 34 38 35 39 36 40 94 41 37 42 93 43
REMARK SMILES IDX 38 44 39 45 40 46 87 47 41 48 92 49 86 50 88 51 42 52 91 53
REMARK SMILES IDX 85 54 84 55 43 57 73 58 54 59 72 60 55 61 58 62 71 63 89 64
REMARK SMILES IDX 56 65 57 66 70 68 90 69 59 70 44 71 45 72 53 73 46 74 52 75
REMARK SMILES IDX 47 76 48 77 49 78 50 79 51 80 74 81 75 82 83 83 76 84 82 85
REMARK SMILES IDX 77 86 78 87 79 88 80 89 81 90 60 91 61 92 69 93 62 94 68 95
REMARK SMILES IDX 63 96 64 97 65 98 66 99 67 100
REMARK H PARENT 16 26 88 56 58 67
REMARK Flexibility Score: inf
ROOT
ATOM      1  C   UNL A   1      31.606  28.819  26.240  1.00  0.00     0.188 C 
ENDROOT
BRANCH   1   2
ATOM      2  O   UNL A   1      31.006  28.105  25.167  1.00  0.00    -0.377 OA
BRANCH   2   3
ATOM      3  C   UNL A   1      31.727  26.959  24.738  1.00  0.00     0.188 C 
BRANCH   3   4
ATOM      4  C   UNL A   1      31.423  26.340  23.368  1.00  0.00     0.188 C 
BRANCH   4   5
ATOM      5  O   UNL A   1      32.485  26.423  22.413  1.00  0.00    -0.376 OA
BRANCH   5   6
ATOM      6  C   UNL A   1      33.269  25.233  22.315  1.00  0.00     0.202 C 
BRANCH   6   7
ATOM      7  C   UNL A   1      34.305  25.160  23.439  1.00  0.00     0.261 C 
BRANCH   7   8
ATOM      8  O   UNL A   1      34.751  23.810  23.662  1.00  0.00    -0.460 OA
BRANCH   8   9
ATOM      9  C   UNL A   1      34.643  23.304  24.914  1.00  0.00     0.342 C 
ATOM     10  O   UNL A   1      34.517  23.940  25.949  1.00  0.00    -0.246 OA
BRANCH   9  11
ATOM     11  C   UNL A   1      34.567  21.820  24.825  1.00  0.00     0.116 A 
ATOM     12  C   UNL A   1      33.256  19.784  24.632  1.00  0.00     0.161 A 
ATOM     13  C   UNL A   1      34.430  19.033  24.732  1.00  0.00     0.051 A 
ATOM     14  C   UNL A   1      33.310  21.184  24.679  1.00  0.00     0.176 A 
ATOM     15  C   UNL A   1      35.672  19.657  24.879  1.00  0.00     0.017 A 
ATOM     16  C   UNL A   1      35.760  21.053  24.959  1.00  0.00     0.036 A 
BRANCH  12  17
ATOM     17  O   UNL A   1      32.096  19.056  24.617  1.00  0.00    -0.493 OA
ATOM     18  C   UNL A   1      32.287  17.655  24.446  1.00  0.00     0.278 C 
ENDBRANCH  12  17
BRANCH  14  19
ATOM     19  O   UNL A   1      32.189  21.959  24.505  1.00  0.00    -0.492 OA
ATOM     20  C   UNL A   1      31.449  22.228  25.700  1.00  0.00     0.278 C 
ENDBRANCH  14  19
BRANCH  16  21
ATOM     21  C   UNL A   1      37.003  21.646  25.474  1.00  0.00     0.139 A 
ATOM     22  N   UNL A   1      37.058  22.892  25.880  1.00  0.00    -0.228 NA
ATOM     23  N   UNL A   1      38.229  21.048  25.683  1.00  0.00    -0.338 N 
ATOM     24  C   UNL A   1      38.348  23.172  26.179  1.00  0.00     0.089 A 
ATOM     25  C   UNL A   1      39.118  22.022  26.110  1.00  0.00     0.066 A 
ATOM     26  H   UNL A   1      38.437  20.095  25.554  1.00  0.00     0.168 HD
ATOM     27  C   UNL A   1      38.915  24.405  26.511  1.00  0.00     0.031 A 
ATOM     28  C   UNL A   1      40.484  22.033  26.417  1.00  0.00     0.031 A 
ATOM     29  C   UNL A   1      40.280  24.450  26.781  1.00  0.00     0.006 A 
ATOM     30  C   UNL A   1      41.058  23.283  26.749  1.00  0.00    -0.049 A 
ATOM     31  C   UNL A   1      42.520  23.408  27.072  1.00  0.00     0.044 C 
ENDBRANCH  16  21
ENDBRANCH   9  11
ENDBRANCH   8   9
ENDBRANCH   7   8
ENDBRANCH   6   7
ENDBRANCH   5   6
ENDBRANCH   4   5
ENDBRANCH   3   4
ENDBRANCH   2   3
ENDBRANCH   1   2
BRANCH   1  32
ATOM     32  C   UNL A   1      32.117  30.204  25.795  1.00  0.00     0.188 C 
BRANCH  32  33
ATOM     33  O   UNL A   1      32.256  31.123  26.877  1.00  0.00    -0.376 OA
BRANCH  33  34
ATOM     34  C   UNL A   1      31.673  32.411  26.740  1.00  0.00     0.202 C 
BRANCH  34  35
ATOM     35  C   UNL A   1      32.310  33.620  27.450  1.00  0.00     0.261 C 
BRANCH  35  36
ATOM     36  O   UNL A   1      33.543  33.397  28.148  1.00  0.00    -0.460 OA
BRANCH  36  37
ATOM     37  C   UNL A   1      33.760  34.055  29.306  1.00  0.00     0.338 C 
ATOM     38  O   UNL A   1      32.957  34.718  29.936  1.00  0.00    -0.246 OA
BRANCH  37  39
ATOM     39  C   UNL A   1      35.092  33.627  29.797  1.00  0.00     0.060 A 
ATOM     40  C   UNL A   1      35.163  32.558  30.701  1.00  0.00     0.016 A 
ATOM     41  C   UNL A   1      36.265  34.210  29.301  1.00  0.00     0.016 A 
ATOM     42  C   UNL A   1      36.404  32.095  31.140  1.00  0.00     0.010 A 
ATOM     43  C   UNL A   1      37.505  33.769  29.766  1.00  0.00     0.010 A 
ATOM     44  C   UNL A   1      37.576  32.737  30.719  1.00  0.00    -0.014 A 
BRANCH  44  45
ATOM     45  C   UNL A   1      38.820  32.535  31.497  1.00  0.00     0.031 A 
ATOM     46  C   UNL A   1      39.877  31.659  30.878  1.00  0.00     0.074 A 
ATOM     47  C   UNL A   1      39.032  33.130  32.683  1.00  0.00     0.049 A 
ATOM     48  N   UNL A   1      41.061  31.339  31.329  1.00  0.00    -0.248 NA
ATOM     49  C   UNL A   1      39.552  31.069  29.567  1.00  0.00     0.031 C 
ATOM     50  C   UNL A   1      38.106  34.037  33.359  1.00  0.00     0.029 A 
ATOM     51  N   UNL A   1      40.114  33.061  33.526  1.00  0.00    -0.354 N 
ATOM     52  C   UNL A   1      41.621  30.518  30.356  1.00  0.00     0.074 A 
ATOM     53  C   UNL A   1      40.637  30.359  29.309  1.00  0.00     0.031 C 
ATOM     54  C   UNL A   1      38.662  34.441  34.518  1.00  0.00     0.029 A 
ATOM     55  C   UNL A   1      39.969  33.804  34.673  1.00  0.00     0.049 A 
ATOM     56  H   UNL A   1      40.918  32.529  33.327  1.00  0.00     0.167 HD
ATOM     57  C   UNL A   1      42.849  29.951  30.329  1.00  0.00     0.031 A 
ATOM     58  C   UNL A   1      40.798  33.943  35.728  1.00  0.00     0.031 A 
ATOM     59  C   UNL A   1      43.812  30.081  31.384  1.00  0.00     0.049 A 
ATOM     60  C   UNL A   1      42.128  33.227  35.718  1.00  0.00     0.074 A 
ATOM     61  C   UNL A   1      45.081  29.538  31.465  1.00  0.00     0.029 A 
ATOM     62  N   UNL A   1      43.605  30.797  32.554  1.00  0.00    -0.354 N 
ATOM     63  N   UNL A   1      42.653  32.471  34.782  1.00  0.00    -0.248 NA
ATOM     64  C   UNL A   1      42.979  33.396  36.904  1.00  0.00     0.031 C 
ATOM     65  C   UNL A   1      45.623  29.885  32.707  1.00  0.00     0.029 A 
ATOM     66  C   UNL A   1      44.715  30.693  33.373  1.00  0.00     0.049 A 
ATOM     67  H   UNL A   1      42.789  31.305  32.768  1.00  0.00     0.167 HD
ATOM     68  C   UNL A   1      43.909  32.100  35.253  1.00  0.00     0.074 A 
ATOM     69  C   UNL A   1      44.067  32.723  36.552  1.00  0.00     0.031 C 
ATOM     70  C   UNL A   1      44.851  31.323  34.663  1.00  0.00     0.031 A 
BRANCH  57  71
ATOM     71  C   UNL A   1      43.184  29.105  29.130  1.00  0.00    -0.014 A 
ATOM     72  C   UNL A   1      42.967  27.715  29.137  1.00  0.00     0.010 A 
ATOM     73  C   UNL A   1      43.731  29.709  27.984  1.00  0.00     0.010 A 
ATOM     74  C   UNL A   1      43.333  26.938  28.036  1.00  0.00     0.020 A 
ATOM     75  C   UNL A   1      44.072  28.937  26.870  1.00  0.00     0.020 A 
ATOM     76  C   UNL A   1      43.889  27.553  26.911  1.00  0.00     0.054 A 
BRANCH  76  77
ATOM     77  S   UNL A   1      44.349  26.523  25.492  1.00  0.00     0.124 S 
ATOM     78  O   UNL A   1      43.044  26.111  24.983  1.00  0.00    -0.237 OA
ATOM     79  O   UNL A   1      45.087  27.456  24.645  1.00  0.00    -0.237 OA
ATOM     80  O   UNL A   1      45.152  25.455  26.084  1.00  0.00    -0.744 OA
ENDBRANCH  76  77
ENDBRANCH  57  71
BRANCH  58  81
ATOM     81  C   UNL A   1      40.401  34.789  36.888  1.00  0.00    -0.014 A 
ATOM     82  C   UNL A   1      39.462  34.328  37.827  1.00  0.00     0.010 A 
ATOM     83  C   UNL A   1      40.956  36.071  37.053  1.00  0.00     0.010 A 
ATOM     84  C   UNL A   1      39.072  35.138  38.899  1.00  0.00     0.020 A 
ATOM     85  C   UNL A   1      40.588  36.875  38.136  1.00  0.00     0.020 A 
ATOM     86  C   UNL A   1      39.640  36.407  39.048  1.00  0.00     0.054 A 
BRANCH  86  87
ATOM     87  S   UNL A   1      39.158  37.422  40.472  1.00  0.00     0.124 S 
ATOM     88  O   UNL A   1      38.801  36.411  41.462  1.00  0.00    -0.237 OA
ATOM     89  O   UNL A   1      40.378  38.177  40.749  1.00  0.00    -0.237 OA
ATOM     90  O   UNL A   1      38.045  38.219  39.962  1.00  0.00    -0.744 OA
ENDBRANCH  86  87
ENDBRANCH  58  81
BRANCH  70  91
ATOM     91  C   UNL A   1      46.155  31.134  35.393  1.00  0.00    -0.014 A 
ATOM     92  C   UNL A   1      46.355  30.051  36.266  1.00  0.00     0.010 A 
ATOM     93  C   UNL A   1      47.215  32.029  35.154  1.00  0.00     0.010 A 
ATOM     94  C   UNL A   1      47.583  29.887  36.915  1.00  0.00     0.020 A 
ATOM     95  C   UNL A   1      48.451  31.852  35.779  1.00  0.00     0.020 A 
ATOM     96  C   UNL A   1      48.621  30.791  36.670  1.00  0.00     0.054 A 
BRANCH  96  97
ATOM     97  S   UNL A   1      50.216  30.538  37.498  1.00  0.00     0.124 S 
ATOM     98  O   UNL A   1      50.415  29.100  37.339  1.00  0.00    -0.237 OA
ATOM     99  O   UNL A   1      51.118  31.387  36.725  1.00  0.00    -0.237 OA
ATOM    100  O   UNL A   1      49.970  30.985  38.867  1.00  0.00    -0.744 OA
ENDBRANCH  96  97
ENDBRANCH  70  91
ENDBRANCH  44  45
ENDBRANCH  37  39
ENDBRANCH  36  37
ENDBRANCH  35  36
ENDBRANCH  34  35
ENDBRANCH  33  34
ENDBRANCH  32  33
ENDBRANCH   1  32
TORSDOF 26
ENDMDL
