MODEL 1
REMARK VINA RESULT:      -9.3      0.000      0.000
REMARK SMILES CCOC(=O)c1ccc(NC(=O)[C@H]2CC(C)=C(C)C[C@@H]2C(=O)OCCOCCOCCOCCOC(=O)c2ccc(-c3c4nc(c(-c5ccc(S(=O)(=O)[O-])cc5)c5ccc([nH]5)c(-c5ccc(S(=O)(=O)[O-])cc5)c5nc(c(-c6ccc(S(=O)(=O)[O-])cc6)c6ccc3[nH]6)C=C5)C=C4)cc2)cc1
REMARK SMILES IDX 28 1 27 2 26 3 25 4 24 5 23 6 21 7 22 8 20 9 13 10 14 11
REMARK SMILES IDX 15 12 19 13 16 14 17 15 18 16 11 17 10 18 12 20 9 21 6 22
REMARK SMILES IDX 7 23 99 24 8 25 98 26 4 27 5 28 3 29 2 30 1 31 29 32 30 33
REMARK SMILES IDX 31 34 32 35 33 36 34 37 35 38 36 39 37 40 38 41 39 42 97 43
REMARK SMILES IDX 40 44 96 45 41 46 42 47 43 48 90 49 44 50 95 51 89 52 91 53
REMARK SMILES IDX 45 54 94 55 88 56 87 57 46 59 76 60 57 61 75 62 58 63 61 64
REMARK SMILES IDX 74 65 92 66 59 67 60 68 73 70 93 71 62 72 47 73 48 74 56 75
REMARK SMILES IDX 49 76 55 77 50 78 51 79 52 80 53 81 54 82 77 83 78 84 86 85
REMARK SMILES IDX 79 86 85 87 80 88 81 89 82 90 83 91 84 92 63 93 64 94 72 95
REMARK SMILES IDX 65 96 71 97 66 98 67 99 68 100 69 101 70 102
REMARK H PARENT 10 19 91 58 61 69
REMARK Flexibility Score: inf
ROOT
ATOM      1  C   UNL A   1      29.289  27.647  23.239  1.00  0.00     0.188 C 
ENDROOT
BRANCH   1   2
ATOM      2  C   UNL A   1      29.681  27.002  24.578  1.00  0.00     0.188 C 
BRANCH   2   3
ATOM      3  O   UNL A   1      29.447  25.634  24.813  1.00  0.00    -0.376 OA
BRANCH   3   4
ATOM      4  C   UNL A   1      29.123  25.078  26.073  1.00  0.00     0.202 C 
BRANCH   4   5
ATOM      5  C   UNL A   1      29.933  24.006  26.817  1.00  0.00     0.261 C 
BRANCH   5   6
ATOM      6  O   UNL A   1      31.309  24.310  27.080  1.00  0.00    -0.463 OA
BRANCH   6   7
ATOM      7  C   UNL A   1      32.178  23.262  27.051  1.00  0.00     0.310 C 
ATOM      8  O   UNL A   1      32.316  22.464  27.975  1.00  0.00    -0.252 OA
BRANCH   7   9
ATOM      9  C   UNL A   1      32.890  23.043  25.701  1.00  0.00     0.116 C 
ATOM     10  C   UNL A   1      32.292  23.783  24.483  1.00  0.00     0.097 C 
ATOM     11  C   UNL A   1      31.820  22.957  23.273  1.00  0.00     0.045 C 
ATOM     12  C   UNL A   1      32.180  21.486  23.232  1.00  0.00    -0.074 C 
ATOM     13  C   UNL A   1      33.125  21.529  25.556  1.00  0.00     0.046 C 
ATOM     14  C   UNL A   1      31.796  20.804  21.938  1.00  0.00     0.039 C 
ATOM     15  C   UNL A   1      32.771  20.848  24.262  1.00  0.00    -0.073 C 
ATOM     16  C   UNL A   1      33.083  19.369  24.251  1.00  0.00     0.039 C 
BRANCH  10  17
ATOM     17  C   UNL A   1      33.132  25.043  24.238  1.00  0.00     0.228 C 
ATOM     18  N   UNL A   1      34.481  25.141  24.155  1.00  0.00    -0.326 N 
ATOM     19  H   UNL A   1      34.773  26.014  23.806  1.00  0.00     0.169 HD
ATOM     20  O   UNL A   1      32.518  26.111  24.079  1.00  0.00    -0.274 OA
BRANCH  18  21
ATOM     21  C   UNL A   1      35.556  24.296  24.446  1.00  0.00     0.041 A 
ATOM     22  C   UNL A   1      37.465  22.344  25.006  1.00  0.00     0.060 A 
ATOM     23  C   UNL A   1      37.228  23.366  25.924  1.00  0.00     0.018 A 
ATOM     24  C   UNL A   1      36.833  22.341  23.764  1.00  0.00     0.018 A 
ATOM     25  C   UNL A   1      36.300  24.364  25.619  1.00  0.00     0.027 A 
ATOM     26  C   UNL A   1      35.885  23.329  23.484  1.00  0.00     0.027 A 
BRANCH  22  27
ATOM     27  C   UNL A   1      38.313  21.215  25.406  1.00  0.00     0.338 C 
ATOM     28  O   UNL A   1      39.282  21.330  26.135  1.00  0.00    -0.246 OA
BRANCH  27  29
ATOM     29  O   UNL A   1      37.874  20.101  24.778  1.00  0.00    -0.462 OA
BRANCH  29  30
ATOM     30  C   UNL A   1      36.547  19.696  25.139  1.00  0.00     0.230 C 
ATOM     31  C   UNL A   1      36.330  18.229  24.804  1.00  0.00     0.049 C 
ENDBRANCH  29  30
ENDBRANCH  27  29
ENDBRANCH  22  27
ENDBRANCH  18  21
ENDBRANCH  10  17
ENDBRANCH   7   9
ENDBRANCH   6   7
ENDBRANCH   5   6
ENDBRANCH   4   5
ENDBRANCH   3   4
ENDBRANCH   2   3
ENDBRANCH   1   2
BRANCH   1  32
ATOM     32  O   UNL A   1      29.784  28.853  22.691  1.00  0.00    -0.377 OA
BRANCH  32  33
ATOM     33  C   UNL A   1      30.559  29.703  23.503  1.00  0.00     0.188 C 
BRANCH  33  34
ATOM     34  C   UNL A   1      32.053  29.376  23.435  1.00  0.00     0.188 C 
BRANCH  34  35
ATOM     35  O   UNL A   1      32.678  29.464  24.710  1.00  0.00    -0.376 OA
BRANCH  35  36
ATOM     36  C   UNL A   1      31.926  29.978  25.803  1.00  0.00     0.202 C 
BRANCH  36  37
ATOM     37  C   UNL A   1      32.582  30.675  27.014  1.00  0.00     0.261 C 
BRANCH  37  38
ATOM     38  O   UNL A   1      33.802  30.134  27.541  1.00  0.00    -0.460 OA
BRANCH  38  39
ATOM     39  C   UNL A   1      34.666  30.965  28.156  1.00  0.00     0.338 C 
ATOM     40  O   UNL A   1      34.420  32.052  28.646  1.00  0.00    -0.246 OA
BRANCH  39  41
ATOM     41  C   UNL A   1      35.942  30.229  28.300  1.00  0.00     0.060 A 
ATOM     42  C   UNL A   1      36.256  29.649  29.535  1.00  0.00     0.016 A 
ATOM     43  C   UNL A   1      36.814  30.098  27.215  1.00  0.00     0.016 A 
ATOM     44  C   UNL A   1      37.466  28.973  29.702  1.00  0.00     0.010 A 
ATOM     45  C   UNL A   1      38.036  29.441  27.389  1.00  0.00     0.010 A 
ATOM     46  C   UNL A   1      38.383  28.915  28.645  1.00  0.00    -0.014 A 
BRANCH  46  47
ATOM     47  C   UNL A   1      39.790  28.537  28.927  1.00  0.00     0.031 A 
ATOM     48  C   UNL A   1      40.654  29.540  29.646  1.00  0.00     0.074 A 
ATOM     49  C   UNL A   1      40.282  27.330  28.599  1.00  0.00     0.049 A 
ATOM     50  N   UNL A   1      41.904  29.447  30.017  1.00  0.00    -0.248 NA
ATOM     51  C   UNL A   1      40.017  30.823  29.988  1.00  0.00     0.031 C 
ATOM     52  C   UNL A   1      39.530  26.253  27.957  1.00  0.00     0.029 A 
ATOM     53  N   UNL A   1      41.539  26.807  28.772  1.00  0.00    -0.354 N 
ATOM     54  C   UNL A   1      42.205  30.663  30.623  1.00  0.00     0.074 A 
ATOM     55  C   UNL A   1      41.019  31.485  30.543  1.00  0.00     0.031 C 
ATOM     56  C   UNL A   1      40.342  25.192  27.797  1.00  0.00     0.029 A 
ATOM     57  C   UNL A   1      41.676  25.526  28.295  1.00  0.00     0.049 A 
ATOM     58  H   UNL A   1      42.274  27.304  29.200  1.00  0.00     0.167 HD
ATOM     59  C   UNL A   1      43.365  31.060  31.197  1.00  0.00     0.031 A 
ATOM     60  C   UNL A   1      42.759  24.722  28.257  1.00  0.00     0.031 A 
ATOM     61  C   UNL A   1      44.549  30.246  31.256  1.00  0.00     0.049 A 
ATOM     62  C   UNL A   1      44.064  25.216  28.826  1.00  0.00     0.074 A 
ATOM     63  C   UNL A   1      45.771  30.545  31.833  1.00  0.00     0.029 A 
ATOM     64  N   UNL A   1      44.664  28.978  30.706  1.00  0.00    -0.354 N 
ATOM     65  N   UNL A   1      44.328  26.355  29.423  1.00  0.00    -0.248 NA
ATOM     66  C   UNL A   1      45.217  24.310  28.724  1.00  0.00     0.031 C 
ATOM     67  C   UNL A   1      46.646  29.486  31.569  1.00  0.00     0.029 A 
ATOM     68  C   UNL A   1      45.948  28.495  30.896  1.00  0.00     0.049 A 
ATOM     69  H   UNL A   1      43.940  28.494  30.248  1.00  0.00     0.167 HD
ATOM     70  C   UNL A   1      45.666  26.286  29.801  1.00  0.00     0.074 A 
ATOM     71  C   UNL A   1      46.154  24.992  29.370  1.00  0.00     0.031 C 
ATOM     72  C   UNL A   1      46.419  27.204  30.458  1.00  0.00     0.031 A 
BRANCH  59  73
ATOM     73  C   UNL A   1      43.418  32.462  31.746  1.00  0.00    -0.014 A 
ATOM     74  C   UNL A   1      43.744  33.563  30.932  1.00  0.00     0.010 A 
ATOM     75  C   UNL A   1      43.144  32.678  33.109  1.00  0.00     0.010 A 
ATOM     76  C   UNL A   1      43.851  34.843  31.484  1.00  0.00     0.020 A 
ATOM     77  C   UNL A   1      43.217  33.962  33.656  1.00  0.00     0.020 A 
ATOM     78  C   UNL A   1      43.593  35.033  32.845  1.00  0.00     0.054 A 
BRANCH  78  79
ATOM     79  S   UNL A   1      43.749  36.701  33.537  1.00  0.00     0.124 S 
ATOM     80  O   UNL A   1      43.494  37.538  32.367  1.00  0.00    -0.237 OA
ATOM     81  O   UNL A   1      42.708  36.721  34.562  1.00  0.00    -0.237 OA
ATOM     82  O   UNL A   1      45.119  36.740  34.043  1.00  0.00    -0.744 OA
ENDBRANCH  78  79
ENDBRANCH  59  73
BRANCH  60  83
ATOM     83  C   UNL A   1      42.653  23.356  27.671  1.00  0.00    -0.014 A 
ATOM     84  C   UNL A   1      42.787  23.163  26.284  1.00  0.00     0.010 A 
ATOM     85  C   UNL A   1      42.422  22.240  28.496  1.00  0.00     0.010 A 
ATOM     86  C   UNL A   1      42.687  21.883  25.733  1.00  0.00     0.020 A 
ATOM     87  C   UNL A   1      42.348  20.954  27.952  1.00  0.00     0.020 A 
ATOM     88  C   UNL A   1      42.475  20.785  26.572  1.00  0.00     0.054 A 
BRANCH  88  89
ATOM     89  S   UNL A   1      42.413  19.126  25.838  1.00  0.00     0.124 S 
ATOM     90  O   UNL A   1      42.950  18.296  26.911  1.00  0.00    -0.237 OA
ATOM     91  O   UNL A   1      40.988  18.961  25.560  1.00  0.00    -0.237 OA
ATOM     92  O   UNL A   1      43.261  19.244  24.653  1.00  0.00    -0.744 OA
ENDBRANCH  88  89
ENDBRANCH  60  83
BRANCH  72  93
ATOM     93  C   UNL A   1      47.841  26.831  30.796  1.00  0.00    -0.014 A 
ATOM     94  C   UNL A   1      48.900  27.073  29.904  1.00  0.00     0.010 A 
ATOM     95  C   UNL A   1      48.124  26.277  32.059  1.00  0.00     0.010 A 
ATOM     96  C   UNL A   1      50.210  26.736  30.255  1.00  0.00     0.020 A 
ATOM     97  C   UNL A   1      49.435  25.968  32.427  1.00  0.00     0.020 A 
ATOM     98  C   UNL A   1      50.470  26.185  31.515  1.00  0.00     0.054 A 
BRANCH  98  99
ATOM     99  S   UNL A   1      52.183  25.791  31.961  1.00  0.00     0.124 S 
ATOM    100  O   UNL A   1      52.385  26.615  33.149  1.00  0.00    -0.237 OA
ATOM    101  O   UNL A   1      52.129  24.350  32.196  1.00  0.00    -0.237 OA
ATOM    102  O   UNL A   1      52.951  26.196  30.785  1.00  0.00    -0.744 OA
ENDBRANCH  98  99
ENDBRANCH  72  93
ENDBRANCH  46  47
ENDBRANCH  39  41
ENDBRANCH  38  39
ENDBRANCH  37  38
ENDBRANCH  36  37
ENDBRANCH  35  36
ENDBRANCH  34  35
ENDBRANCH  33  34
ENDBRANCH  32  33
ENDBRANCH   1  32
TORSDOF 28
ENDMDL
MODEL 2
REMARK VINA RESULT:      -8.8      2.670      7.884
REMARK SMILES CCOC(=O)c1ccc(NC(=O)[C@H]2CC(C)=C(C)C[C@@H]2C(=O)OCCOCCOCCOCCOC(=O)c2ccc(-c3c4nc(c(-c5ccc(S(=O)(=O)[O-])cc5)c5ccc([nH]5)c(-c5ccc(S(=O)(=O)[O-])cc5)c5nc(c(-c6ccc(S(=O)(=O)[O-])cc6)c6ccc3[nH]6)C=C5)C=C4)cc2)cc1
REMARK SMILES IDX 28 1 27 2 26 3 25 4 24 5 23 6 21 7 22 8 20 9 13 10 14 11
REMARK SMILES IDX 15 12 19 13 16 14 17 15 18 16 11 17 10 18 12 20 9 21 6 22
REMARK SMILES IDX 7 23 99 24 8 25 98 26 4 27 5 28 3 29 2 30 1 31 29 32 30 33
REMARK SMILES IDX 31 34 32 35 33 36 34 37 35 38 36 39 37 40 38 41 39 42 97 43
REMARK SMILES IDX 40 44 96 45 41 46 42 47 43 48 90 49 44 50 95 51 89 52 91 53
REMARK SMILES IDX 45 54 94 55 88 56 87 57 46 59 76 60 57 61 75 62 58 63 61 64
REMARK SMILES IDX 74 65 92 66 59 67 60 68 73 70 93 71 62 72 47 73 48 74 56 75
REMARK SMILES IDX 49 76 55 77 50 78 51 79 52 80 53 81 54 82 77 83 78 84 86 85
REMARK SMILES IDX 79 86 85 87 80 88 81 89 82 90 83 91 84 92 63 93 64 94 72 95
REMARK SMILES IDX 65 96 71 97 66 98 67 99 68 100 69 101 70 102
REMARK H PARENT 10 19 91 58 61 69
REMARK Flexibility Score: inf
ROOT
ATOM      1  C   UNL A   1      29.508  26.991  24.024  1.00  0.00     0.188 C 
ENDROOT
BRANCH   1   2
ATOM      2  C   UNL A   1      30.425  26.354  25.081  1.00  0.00     0.188 C 
BRANCH   2   3
ATOM      3  O   UNL A   1      30.413  24.964  25.297  1.00  0.00    -0.376 OA
BRANCH   3   4
ATOM      4  C   UNL A   1      30.520  24.346  26.567  1.00  0.00     0.202 C 
BRANCH   4   5
ATOM      5  C   UNL A   1      31.255  23.032  26.867  1.00  0.00     0.261 C 
BRANCH   5   6
ATOM      6  O   UNL A   1      32.686  23.064  26.787  1.00  0.00    -0.463 OA
BRANCH   6   7
ATOM      7  C   UNL A   1      33.312  21.865  26.638  1.00  0.00     0.310 C 
ATOM      8  O   UNL A   1      33.498  21.074  27.560  1.00  0.00    -0.252 OA
BRANCH   7   9
ATOM      9  C   UNL A   1      33.654  21.483  25.185  1.00  0.00     0.116 C 
ATOM     10  C   UNL A   1      32.525  21.664  24.144  1.00  0.00     0.097 C 
ATOM     11  C   UNL A   1      32.056  20.439  23.340  1.00  0.00     0.045 C 
ATOM     12  C   UNL A   1      32.879  19.170  23.431  1.00  0.00    -0.074 C 
ATOM     13  C   UNL A   1      34.352  20.112  25.231  1.00  0.00     0.046 C 
ATOM     14  C   UNL A   1      32.416  18.078  22.493  1.00  0.00     0.039 C 
ATOM     15  C   UNL A   1      33.915  19.029  24.282  1.00  0.00    -0.073 C 
ATOM     16  C   UNL A   1      34.706  17.749  24.419  1.00  0.00     0.039 C 
BRANCH  10  17
ATOM     17  C   UNL A   1      32.771  22.985  23.406  1.00  0.00     0.228 C 
ATOM     18  N   UNL A   1      33.924  23.695  23.331  1.00  0.00    -0.326 N 
ATOM     19  H   UNL A   1      33.884  24.404  22.649  1.00  0.00     0.169 HD
ATOM     20  O   UNL A   1      31.814  23.473  22.784  1.00  0.00    -0.274 OA
BRANCH  18  21
ATOM     21  C   UNL A   1      35.155  23.658  23.990  1.00  0.00     0.041 A 
ATOM     22  C   UNL A   1      37.550  23.235  25.353  1.00  0.00     0.060 A 
ATOM     23  C   UNL A   1      36.619  24.145  25.851  1.00  0.00     0.018 A 
ATOM     24  C   UNL A   1      37.346  22.609  24.125  1.00  0.00     0.018 A 
ATOM     25  C   UNL A   1      35.440  24.382  25.143  1.00  0.00     0.027 A 
ATOM     26  C   UNL A   1      36.148  22.833  23.441  1.00  0.00     0.027 A 
BRANCH  22  27
ATOM     27  C   UNL A   1      38.702  22.871  26.186  1.00  0.00     0.338 C 
ATOM     28  O   UNL A   1      38.978  23.433  27.230  1.00  0.00    -0.246 OA
BRANCH  27  29
ATOM     29  O   UNL A   1      39.397  21.895  25.560  1.00  0.00    -0.462 OA
BRANCH  29  30
ATOM     30  C   UNL A   1      39.397  20.632  26.240  1.00  0.00     0.230 C 
ATOM     31  C   UNL A   1      40.724  20.410  26.946  1.00  0.00     0.049 C 
ENDBRANCH  29  30
ENDBRANCH  27  29
ENDBRANCH  22  27
ENDBRANCH  18  21
ENDBRANCH  10  17
ENDBRANCH   7   9
ENDBRANCH   6   7
ENDBRANCH   5   6
ENDBRANCH   4   5
ENDBRANCH   3   4
ENDBRANCH   2   3
ENDBRANCH   1   2
BRANCH   1  32
ATOM     32  O   UNL A   1      29.843  28.006  23.098  1.00  0.00    -0.377 OA
BRANCH  32  33
ATOM     33  C   UNL A   1      30.549  29.137  23.552  1.00  0.00     0.188 C 
BRANCH  33  34
ATOM     34  C   UNL A   1      32.065  28.972  23.426  1.00  0.00     0.188 C 
BRANCH  34  35
ATOM     35  O   UNL A   1      32.744  29.336  24.621  1.00  0.00    -0.376 OA
BRANCH  35  36
ATOM     36  C   UNL A   1      31.971  29.657  25.772  1.00  0.00     0.202 C 
BRANCH  36  37
ATOM     37  C   UNL A   1      32.570  30.358  27.011  1.00  0.00     0.261 C 
BRANCH  37  38
ATOM     38  O   UNL A   1      33.996  30.383  27.164  1.00  0.00    -0.460 OA
BRANCH  38  39
ATOM     39  C   UNL A   1      34.557  31.413  27.827  1.00  0.00     0.338 C 
ATOM     40  O   UNL A   1      34.035  32.476  28.114  1.00  0.00    -0.246 OA
BRANCH  39  41
ATOM     41  C   UNL A   1      35.873  30.945  28.317  1.00  0.00     0.060 A 
ATOM     42  C   UNL A   1      35.993  29.634  28.793  1.00  0.00     0.016 A 
ATOM     43  C   UNL A   1      36.984  31.793  28.289  1.00  0.00     0.016 A 
ATOM     44  C   UNL A   1      37.217  29.179  29.285  1.00  0.00     0.010 A 
ATOM     45  C   UNL A   1      38.205  31.344  28.804  1.00  0.00     0.010 A 
ATOM     46  C   UNL A   1      38.312  30.050  29.343  1.00  0.00    -0.014 A 
BRANCH  46  47
ATOM     47  C   UNL A   1      39.476  29.695  30.191  1.00  0.00     0.031 A 
ATOM     48  C   UNL A   1      40.418  28.636  29.680  1.00  0.00     0.074 A 
ATOM     49  C   UNL A   1      39.722  30.315  31.358  1.00  0.00     0.049 A 
ATOM     50  N   UNL A   1      41.507  28.159  30.222  1.00  0.00    -0.248 NA
ATOM     51  C   UNL A   1      40.079  28.035  28.378  1.00  0.00     0.031 C 
ATOM     52  C   UNL A   1      38.920  31.395  31.931  1.00  0.00     0.029 A 
ATOM     53  N   UNL A   1      40.731  30.123  32.269  1.00  0.00    -0.354 N 
ATOM     54  C   UNL A   1      41.975  27.193  29.336  1.00  0.00     0.074 A 
ATOM     55  C   UNL A   1      41.037  27.133  28.238  1.00  0.00     0.031 C 
ATOM     56  C   UNL A   1      39.475  31.776  33.095  1.00  0.00     0.029 A 
ATOM     57  C   UNL A   1      40.649  30.947  33.366  1.00  0.00     0.049 A 
ATOM     58  H   UNL A   1      41.446  29.458  32.148  1.00  0.00     0.167 HD
ATOM     59  C   UNL A   1      43.086  26.426  29.427  1.00  0.00     0.031 A 
ATOM     60  C   UNL A   1      41.429  31.015  34.464  1.00  0.00     0.031 A 
ATOM     61  C   UNL A   1      44.006  26.475  30.531  1.00  0.00     0.049 A 
ATOM     62  C   UNL A   1      42.614  30.091  34.584  1.00  0.00     0.074 A 
ATOM     63  C   UNL A   1      45.173  25.755  30.712  1.00  0.00     0.029 A 
ATOM     64  N   UNL A   1      43.853  27.280  31.651  1.00  0.00    -0.354 N 
ATOM     65  N   UNL A   1      43.063  29.204  33.727  1.00  0.00    -0.248 NA
ATOM     66  C   UNL A   1      43.406  30.185  35.820  1.00  0.00     0.031 C 
ATOM     67  C   UNL A   1      45.689  26.072  31.973  1.00  0.00     0.029 A 
ATOM     68  C   UNL A   1      44.885  27.047  32.544  1.00  0.00     0.049 A 
ATOM     69  H   UNL A   1      43.119  27.921  31.790  1.00  0.00     0.167 HD
ATOM     70  C   UNL A   1      44.210  28.664  34.301  1.00  0.00     0.074 A 
ATOM     71  C   UNL A   1      44.388  29.327  35.577  1.00  0.00     0.031 C 
ATOM     72  C   UNL A   1      45.047  27.714  33.813  1.00  0.00     0.031 A 
BRANCH  59  73
ATOM     73  C   UNL A   1      43.324  25.425  28.326  1.00  0.00    -0.014 A 
ATOM     74  C   UNL A   1      42.621  24.207  28.270  1.00  0.00     0.010 A 
ATOM     75  C   UNL A   1      44.279  25.709  27.333  1.00  0.00     0.010 A 
ATOM     76  C   UNL A   1      42.912  23.269  27.275  1.00  0.00     0.020 A 
ATOM     77  C   UNL A   1      44.548  24.787  26.317  1.00  0.00     0.020 A 
ATOM     78  C   UNL A   1      43.879  23.563  26.308  1.00  0.00     0.054 A 
BRANCH  78  79
ATOM     79  S   UNL A   1      44.243  22.324  25.035  1.00  0.00     0.124 S 
ATOM     80  O   UNL A   1      44.002  21.075  25.752  1.00  0.00    -0.237 OA
ATOM     81  O   UNL A   1      43.274  22.645  23.990  1.00  0.00    -0.237 OA
ATOM     82  O   UNL A   1      45.639  22.584  24.688  1.00  0.00    -0.744 OA
ENDBRANCH  78  79
ENDBRANCH  59  73
BRANCH  60  83
ATOM     83  C   UNL A   1      41.123  32.003  35.536  1.00  0.00    -0.014 A 
ATOM     84  C   UNL A   1      41.885  33.179  35.660  1.00  0.00     0.010 A 
ATOM     85  C   UNL A   1      40.065  31.777  36.437  1.00  0.00     0.010 A 
ATOM     86  C   UNL A   1      41.599  34.106  36.666  1.00  0.00     0.020 A 
ATOM     87  C   UNL A   1      39.759  32.715  37.427  1.00  0.00     0.020 A 
ATOM     88  C   UNL A   1      40.533  33.872  37.540  1.00  0.00     0.054 A 
BRANCH  88  89
ATOM     89  S   UNL A   1      40.144  35.122  38.796  1.00  0.00     0.124 S 
ATOM     90  O   UNL A   1      41.439  35.763  39.001  1.00  0.00    -0.237 OA
ATOM     91  O   UNL A   1      39.132  35.935  38.124  1.00  0.00    -0.237 OA
ATOM     92  O   UNL A   1      39.650  34.333  39.923  1.00  0.00    -0.744 OA
ENDBRANCH  88  89
ENDBRANCH  60  83
BRANCH  72  93
ATOM     93  C   UNL A   1      46.262  27.363  34.634  1.00  0.00    -0.014 A 
ATOM     94  C   UNL A   1      47.507  27.976  34.408  1.00  0.00     0.010 A 
ATOM     95  C   UNL A   1      46.136  26.439  35.688  1.00  0.00     0.010 A 
ATOM     96  C   UNL A   1      48.611  27.646  35.200  1.00  0.00     0.020 A 
ATOM     97  C   UNL A   1      47.228  26.131  36.503  1.00  0.00     0.020 A 
ATOM     98  C   UNL A   1      48.464  26.724  36.243  1.00  0.00     0.054 A 
BRANCH  98  99
ATOM     99  S   UNL A   1      49.902  26.341  37.280  1.00  0.00     0.124 S 
ATOM    100  O   UNL A   1      50.590  25.329  36.484  1.00  0.00    -0.237 OA
ATOM    101  O   UNL A   1      50.579  27.631  37.379  1.00  0.00    -0.237 OA
ATOM    102  O   UNL A   1      49.312  25.856  38.527  1.00  0.00    -0.744 OA
ENDBRANCH  98  99
ENDBRANCH  72  93
ENDBRANCH  46  47
ENDBRANCH  39  41
ENDBRANCH  38  39
ENDBRANCH  37  38
ENDBRANCH  36  37
ENDBRANCH  35  36
ENDBRANCH  34  35
ENDBRANCH  33  34
ENDBRANCH  32  33
ENDBRANCH   1  32
TORSDOF 28
ENDMDL
MODEL 3
REMARK VINA RESULT:      -8.8      2.674      8.353
REMARK SMILES CCOC(=O)c1ccc(NC(=O)[C@H]2CC(C)=C(C)C[C@@H]2C(=O)OCCOCCOCCOCCOC(=O)c2ccc(-c3c4nc(c(-c5ccc(S(=O)(=O)[O-])cc5)c5ccc([nH]5)c(-c5ccc(S(=O)(=O)[O-])cc5)c5nc(c(-c6ccc(S(=O)(=O)[O-])cc6)c6ccc3[nH]6)C=C5)C=C4)cc2)cc1
REMARK SMILES IDX 28 1 27 2 26 3 25 4 24 5 23 6 21 7 22 8 20 9 13 10 14 11
REMARK SMILES IDX 15 12 19 13 16 14 17 15 18 16 11 17 10 18 12 20 9 21 6 22
REMARK SMILES IDX 7 23 99 24 8 25 98 26 4 27 5 28 3 29 2 30 1 31 29 32 30 33
REMARK SMILES IDX 31 34 32 35 33 36 34 37 35 38 36 39 37 40 38 41 39 42 97 43
REMARK SMILES IDX 40 44 96 45 41 46 42 47 43 48 90 49 44 50 95 51 89 52 91 53
REMARK SMILES IDX 45 54 94 55 88 56 87 57 46 59 76 60 57 61 75 62 58 63 61 64
REMARK SMILES IDX 74 65 92 66 59 67 60 68 73 70 93 71 62 72 47 73 48 74 56 75
REMARK SMILES IDX 49 76 55 77 50 78 51 79 52 80 53 81 54 82 77 83 78 84 86 85
REMARK SMILES IDX 79 86 85 87 80 88 81 89 82 90 83 91 84 92 63 93 64 94 72 95
REMARK SMILES IDX 65 96 71 97 66 98 67 99 68 100 69 101 70 102
REMARK H PARENT 10 19 91 58 61 69
REMARK Flexibility Score: inf
ROOT
ATOM      1  C   UNL A   1      29.175  27.268  23.495  1.00  0.00     0.188 C 
ENDROOT
BRANCH   1   2
ATOM      2  C   UNL A   1      29.747  26.781  24.836  1.00  0.00     0.188 C 
BRANCH   2   3
ATOM      3  O   UNL A   1      29.497  25.472  25.290  1.00  0.00    -0.376 OA
BRANCH   3   4
ATOM      4  C   UNL A   1      30.038  24.914  26.473  1.00  0.00     0.202 C 
BRANCH   4   5
ATOM      5  C   UNL A   1      30.899  23.645  26.555  1.00  0.00     0.261 C 
BRANCH   5   6
ATOM      6  O   UNL A   1      31.799  23.551  27.666  1.00  0.00    -0.463 OA
BRANCH   6   7
ATOM      7  C   UNL A   1      32.748  22.578  27.598  1.00  0.00     0.310 C 
ATOM      8  O   UNL A   1      33.065  21.865  28.547  1.00  0.00    -0.252 OA
BRANCH   7   9
ATOM      9  C   UNL A   1      33.315  22.318  26.188  1.00  0.00     0.116 C 
ATOM     10  C   UNL A   1      33.710  20.859  25.867  1.00  0.00     0.097 C 
ATOM     11  C   UNL A   1      35.163  20.557  25.459  1.00  0.00     0.045 C 
ATOM     12  C   UNL A   1      36.076  21.729  25.160  1.00  0.00    -0.074 C 
ATOM     13  C   UNL A   1      34.370  23.406  25.919  1.00  0.00     0.046 C 
ATOM     14  C   UNL A   1      37.432  21.322  24.630  1.00  0.00     0.039 C 
ATOM     15  C   UNL A   1      35.712  23.011  25.365  1.00  0.00    -0.073 C 
ATOM     16  C   UNL A   1      36.636  24.183  25.123  1.00  0.00     0.039 C 
BRANCH  10  17
ATOM     17  C   UNL A   1      32.568  20.228  25.061  1.00  0.00     0.228 C 
ATOM     18  N   UNL A   1      31.974  20.708  23.941  1.00  0.00    -0.326 N 
ATOM     19  H   UNL A   1      31.400  20.039  23.504  1.00  0.00     0.169 HD
ATOM     20  O   UNL A   1      32.130  19.135  25.459  1.00  0.00    -0.274 OA
BRANCH  18  21
ATOM     21  C   UNL A   1      31.984  21.929  23.261  1.00  0.00     0.041 A 
ATOM     22  C   UNL A   1      32.294  24.441  22.094  1.00  0.00     0.060 A 
ATOM     23  C   UNL A   1      31.117  24.132  22.773  1.00  0.00     0.018 A 
ATOM     24  C   UNL A   1      33.279  23.474  21.900  1.00  0.00     0.018 A 
ATOM     25  C   UNL A   1      30.952  22.858  23.321  1.00  0.00     0.027 A 
ATOM     26  C   UNL A   1      33.113  22.213  22.478  1.00  0.00     0.027 A 
BRANCH  22  27
ATOM     27  C   UNL A   1      32.526  25.827  21.672  1.00  0.00     0.338 C 
ATOM     28  O   UNL A   1      31.646  26.556  21.249  1.00  0.00    -0.246 OA
BRANCH  27  29
ATOM     29  O   UNL A   1      33.848  26.093  21.768  1.00  0.00    -0.462 OA
BRANCH  29  30
ATOM     30  C   UNL A   1      34.300  26.399  23.095  1.00  0.00     0.230 C 
ATOM     31  C   UNL A   1      33.135  26.380  24.070  1.00  0.00     0.049 C 
ENDBRANCH  29  30
ENDBRANCH  27  29
ENDBRANCH  22  27
ENDBRANCH  18  21
ENDBRANCH  10  17
ENDBRANCH   7   9
ENDBRANCH   6   7
ENDBRANCH   5   6
ENDBRANCH   4   5
ENDBRANCH   3   4
ENDBRANCH   2   3
ENDBRANCH   1   2
BRANCH   1  32
ATOM     32  O   UNL A   1      29.500  28.461  22.808  1.00  0.00    -0.377 OA
BRANCH  32  33
ATOM     33  C   UNL A   1      30.207  29.470  23.490  1.00  0.00     0.188 C 
BRANCH  33  34
ATOM     34  C   UNL A   1      31.718  29.384  23.261  1.00  0.00     0.188 C 
BRANCH  34  35
ATOM     35  O   UNL A   1      32.452  29.517  24.472  1.00  0.00    -0.376 OA
BRANCH  35  36
ATOM     36  C   UNL A   1      31.735  29.747  25.680  1.00  0.00     0.202 C 
BRANCH  36  37
ATOM     37  C   UNL A   1      32.297  30.606  26.833  1.00  0.00     0.261 C 
BRANCH  37  38
ATOM     38  O   UNL A   1      33.707  30.567  27.096  1.00  0.00    -0.460 OA
BRANCH  38  39
ATOM     39  C   UNL A   1      34.268  31.588  27.772  1.00  0.00     0.338 C 
ATOM     40  O   UNL A   1      33.747  32.647  28.073  1.00  0.00    -0.246 OA
BRANCH  39  41
ATOM     41  C   UNL A   1      35.583  31.113  28.257  1.00  0.00     0.060 A 
ATOM     42  C   UNL A   1      35.692  29.812  28.764  1.00  0.00     0.016 A 
ATOM     43  C   UNL A   1      36.707  31.943  28.193  1.00  0.00     0.016 A 
ATOM     44  C   UNL A   1      36.915  29.352  29.251  1.00  0.00     0.010 A 
ATOM     45  C   UNL A   1      37.927  31.490  28.703  1.00  0.00     0.010 A 
ATOM     46  C   UNL A   1      38.023  30.208  29.273  1.00  0.00    -0.014 A 
BRANCH  46  47
ATOM     47  C   UNL A   1      39.193  29.857  30.115  1.00  0.00     0.031 A 
ATOM     48  C   UNL A   1      40.088  28.742  29.640  1.00  0.00     0.074 A 
ATOM     49  C   UNL A   1      39.486  30.528  31.243  1.00  0.00     0.049 A 
ATOM     50  N   UNL A   1      41.173  28.256  30.185  1.00  0.00    -0.248 NA
ATOM     51  C   UNL A   1      39.701  28.087  28.379  1.00  0.00     0.031 C 
ATOM     52  C   UNL A   1      38.733  31.663  31.774  1.00  0.00     0.029 A 
ATOM     53  N   UNL A   1      40.507  30.349  32.142  1.00  0.00    -0.354 N 
ATOM     54  C   UNL A   1      41.588  27.231  29.341  1.00  0.00     0.074 A 
ATOM     55  C   UNL A   1      40.624  27.146  28.267  1.00  0.00     0.031 C 
ATOM     56  C   UNL A   1      39.326  32.084  32.906  1.00  0.00     0.029 A 
ATOM     57  C   UNL A   1      40.477  31.231  33.196  1.00  0.00     0.049 A 
ATOM     58  H   UNL A   1      41.197  29.654  32.041  1.00  0.00     0.167 HD
ATOM     59  C   UNL A   1      42.675  26.432  29.449  1.00  0.00     0.031 A 
ATOM     60  C   UNL A   1      41.283  31.328  34.273  1.00  0.00     0.031 A 
ATOM     61  C   UNL A   1      43.620  26.506  30.530  1.00  0.00     0.049 A 
ATOM     62  C   UNL A   1      42.439  30.372  34.417  1.00  0.00     0.074 A 
ATOM     63  C   UNL A   1      44.766  25.757  30.724  1.00  0.00     0.029 A 
ATOM     64  N   UNL A   1      43.518  27.372  31.610  1.00  0.00    -0.354 N 
ATOM     65  N   UNL A   1      42.839  29.427  33.597  1.00  0.00    -0.248 NA
ATOM     66  C   UNL A   1      43.260  30.502  35.629  1.00  0.00     0.031 C 
ATOM     67  C   UNL A   1      45.320  26.121  31.956  1.00  0.00     0.029 A 
ATOM     68  C   UNL A   1      44.562  27.151  32.492  1.00  0.00     0.049 A 
ATOM     69  H   UNL A   1      42.810  28.044  31.729  1.00  0.00     0.167 HD
ATOM     70  C   UNL A   1      43.979  28.878  34.176  1.00  0.00     0.074 A 
ATOM     71  C   UNL A   1      44.208  29.599  35.411  1.00  0.00     0.031 C 
ATOM     72  C   UNL A   1      44.774  27.876  33.721  1.00  0.00     0.031 A 
BRANCH  59  73
ATOM     73  C   UNL A   1      42.856  25.368  28.397  1.00  0.00    -0.014 A 
ATOM     74  C   UNL A   1      42.389  24.054  28.588  1.00  0.00     0.010 A 
ATOM     75  C   UNL A   1      43.514  25.692  27.197  1.00  0.00     0.010 A 
ATOM     76  C   UNL A   1      42.631  23.071  27.622  1.00  0.00     0.020 A 
ATOM     77  C   UNL A   1      43.727  24.720  26.216  1.00  0.00     0.020 A 
ATOM     78  C   UNL A   1      43.305  23.410  26.445  1.00  0.00     0.054 A 
BRANCH  78  79
ATOM     79  S   UNL A   1      43.613  22.115  25.214  1.00  0.00     0.124 S 
ATOM     80  O   UNL A   1      44.944  21.649  25.594  1.00  0.00    -0.237 OA
ATOM     81  O   UNL A   1      42.525  21.173  25.461  1.00  0.00    -0.237 OA
ATOM     82  O   UNL A   1      43.543  22.824  23.939  1.00  0.00    -0.744 OA
ENDBRANCH  78  79
ENDBRANCH  59  73
BRANCH  60  83
ATOM     83  C   UNL A   1      41.034  32.380  35.298  1.00  0.00    -0.014 A 
ATOM     84  C   UNL A   1      41.687  33.623  35.217  1.00  0.00     0.010 A 
ATOM     85  C   UNL A   1      40.138  32.148  36.358  1.00  0.00     0.010 A 
ATOM     86  C   UNL A   1      41.455  34.610  36.179  1.00  0.00     0.020 A 
ATOM     87  C   UNL A   1      39.882  33.142  37.307  1.00  0.00     0.020 A 
ATOM     88  C   UNL A   1      40.548  34.366  37.214  1.00  0.00     0.054 A 
BRANCH  88  89
ATOM     89  S   UNL A   1      40.217  35.688  38.413  1.00  0.00     0.124 S 
ATOM     90  O   UNL A   1      39.365  35.012  39.386  1.00  0.00    -0.237 OA
ATOM     91  O   UNL A   1      41.559  36.033  38.876  1.00  0.00    -0.237 OA
ATOM     92  O   UNL A   1      39.558  36.719  37.612  1.00  0.00    -0.744 OA
ENDBRANCH  88  89
ENDBRANCH  60  83
BRANCH  72  93
ATOM     93  C   UNL A   1      45.995  27.526  34.534  1.00  0.00    -0.014 A 
ATOM     94  C   UNL A   1      47.220  28.190  34.349  1.00  0.00     0.010 A 
ATOM     95  C   UNL A   1      45.892  26.549  35.542  1.00  0.00     0.010 A 
ATOM     96  C   UNL A   1      48.329  27.858  35.133  1.00  0.00     0.020 A 
ATOM     97  C   UNL A   1      46.988  26.238  36.350  1.00  0.00     0.020 A 
ATOM     98  C   UNL A   1      48.206  26.883  36.129  1.00  0.00     0.054 A 
BRANCH  98  99
ATOM     99  S   UNL A   1      49.648  26.498  37.159  1.00  0.00     0.124 S 
ATOM    100  O   UNL A   1      49.071  25.626  38.177  1.00  0.00    -0.237 OA
ATOM    101  O   UNL A   1      50.552  25.848  36.213  1.00  0.00    -0.237 OA
ATOM    102  O   UNL A   1      50.092  27.806  37.638  1.00  0.00    -0.744 OA
ENDBRANCH  98  99
ENDBRANCH  72  93
ENDBRANCH  46  47
ENDBRANCH  39  41
ENDBRANCH  38  39
ENDBRANCH  37  38
ENDBRANCH  36  37
ENDBRANCH  35  36
ENDBRANCH  34  35
ENDBRANCH  33  34
ENDBRANCH  32  33
ENDBRANCH   1  32
TORSDOF 28
ENDMDL
