MODEL 1
REMARK VINA RESULT:      -8.4      0.000      0.000
REMARK SMILES CC[C@](C)(NC(=O)CNC(=O)c1cccc(Cl)c1)C(=O)OCCOCCOCCOCCOC(=O)c1ccc(-c2c3nc(c(-c4ccc(S(=O)(=O)[O-])cc4)c4ccc([nH]4)c(-c4ccc(S(=O)(=O)[O-])cc4)c4nc(c(-c5ccc(S(=O)(=O)[O-])cc5)c5ccc2[nH]5)C=C4)C=C3)cc1
REMARK SMILES IDX 26 1 25 2 24 3 23 4 22 5 21 6 19 7 20 8 3 9 4 10 2 11 1 12
REMARK SMILES IDX 5 13 6 14 7 16 8 17 9 18 10 19 11 21 12 22 13 23 18 24 14 25
REMARK SMILES IDX 16 26 15 27 17 28 27 29 28 30 29 31 30 32 31 33 32 34 33 35
REMARK SMILES IDX 34 36 35 37 36 38 37 39 95 40 38 41 94 42 39 43 40 44 41 45
REMARK SMILES IDX 88 46 42 47 93 48 87 49 89 50 43 51 92 52 86 53 85 54 44 56
REMARK SMILES IDX 74 57 55 58 73 59 56 60 59 61 72 62 90 63 57 64 58 65 71 67
REMARK SMILES IDX 91 68 60 69 45 70 46 71 54 72 47 73 53 74 48 75 49 76 50 77
REMARK SMILES IDX 51 78 52 79 75 80 76 81 84 82 77 83 83 84 78 85 79 86 80 87
REMARK SMILES IDX 81 88 82 89 61 90 62 91 70 92 63 93 69 94 64 95 65 96 66 97
REMARK SMILES IDX 67 98 68 99
REMARK H PARENT 5 15 9 20 89 55 59 66
REMARK Flexibility Score: inf
ROOT
ATOM      1  C   UNL A   1      34.169  32.655  28.635  1.00  0.00     0.188 C 
ENDROOT
BRANCH   1   2
ATOM      2  C   UNL A   1      34.807  31.522  27.791  1.00  0.00     0.188 C 
BRANCH   2   3
ATOM      3  O   UNL A   1      33.794  30.890  26.983  1.00  0.00    -0.376 OA
BRANCH   3   4
ATOM      4  C   UNL A   1      33.368  29.589  27.354  1.00  0.00     0.202 C 
BRANCH   4   5
ATOM      5  C   UNL A   1      33.926  28.405  26.427  1.00  0.00     0.261 C 
BRANCH   5   6
ATOM      6  O   UNL A   1      33.229  26.958  26.309  1.00  0.00    -0.462 OA
BRANCH   6   7
ATOM      7  C   UNL A   1      32.557  25.787  26.297  1.00  0.00     0.331 C 
ATOM      8  O   UNL A   1      31.410  25.824  26.764  1.00  0.00    -0.249 OA
BRANCH   7   9
ATOM      9  C   UNL A   1      33.046  24.342  25.709  1.00  0.00     0.135 C 
ATOM     10  C   UNL A   1      33.485  23.208  26.696  1.00  0.00     0.047 C 
BRANCH   9  11
ATOM     11  C   UNL A   1      34.345  24.610  24.842  1.00  0.00     0.037 C 
ATOM     12  C   UNL A   1      35.653  24.037  25.416  1.00  0.00     0.007 C 
ENDBRANCH   9  11
BRANCH   9  13
ATOM     13  N   UNL A   1      32.074  23.733  24.826  1.00  0.00    -0.339 N 
ATOM     14  C   UNL A   1      31.550  24.389  23.770  1.00  0.00     0.240 C 
ATOM     15  H   UNL A   1      31.785  22.807  25.002  1.00  0.00     0.164 HD
ATOM     16  O   UNL A   1      30.537  23.944  23.234  1.00  0.00    -0.273 OA
BRANCH  14  17
ATOM     17  C   UNL A   1      32.392  25.514  23.174  1.00  0.00     0.216 C 
BRANCH  17  18
ATOM     18  N   UNL A   1      32.277  27.060  23.256  1.00  0.00    -0.343 N 
ATOM     19  C   UNL A   1      31.531  28.236  23.374  1.00  0.00     0.251 C 
ATOM     20  H   UNL A   1      33.208  27.373  23.192  1.00  0.00     0.164 HD
ATOM     21  O   UNL A   1      32.235  29.245  23.531  1.00  0.00    -0.269 OA
BRANCH  19  22
ATOM     22  C   UNL A   1      30.056  28.555  23.256  1.00  0.00     0.041 A 
ATOM     23  C   UNL A   1      28.973  27.656  23.377  1.00  0.00     0.014 A 
ATOM     24  C   UNL A   1      29.707  29.912  23.274  1.00  0.00     0.034 A 
ATOM     25  C   UNL A   1      27.635  28.054  23.230  1.00  0.00     0.002 A 
ATOM     26  C   UNL A   1      28.366  30.323  23.188  1.00  0.00     0.041 A 
ATOM     27  C   UNL A   1      27.331  29.398  23.112  1.00  0.00     0.020 A 
ATOM     28  Cl  UNL A   1      27.990  32.004  23.184  1.00  0.00    -0.084 Cl
ENDBRANCH  19  22
ENDBRANCH  17  18
ENDBRANCH  14  17
ENDBRANCH   9  13
ENDBRANCH   7   9
ENDBRANCH   6   7
ENDBRANCH   5   6
ENDBRANCH   4   5
ENDBRANCH   3   4
ENDBRANCH   2   3
ENDBRANCH   1   2
BRANCH   1  29
ATOM     29  O   UNL A   1      33.785  33.817  27.899  1.00  0.00    -0.377 OA
BRANCH  29  30
ATOM     30  C   UNL A   1      34.036  35.076  28.523  1.00  0.00     0.188 C 
BRANCH  30  31
ATOM     31  C   UNL A   1      32.997  35.431  29.586  1.00  0.00     0.188 C 
BRANCH  31  32
ATOM     32  O   UNL A   1      32.997  36.749  30.124  1.00  0.00    -0.376 OA
BRANCH  32  33
ATOM     33  C   UNL A   1      33.295  36.905  31.503  1.00  0.00     0.202 C 
BRANCH  33  34
ATOM     34  C   UNL A   1      33.086  35.631  32.345  1.00  0.00     0.261 C 
BRANCH  34  35
ATOM     35  O   UNL A   1      34.251  35.160  33.045  1.00  0.00    -0.460 OA
BRANCH  35  36
ATOM     36  C   UNL A   1      34.596  33.874  32.792  1.00  0.00     0.338 C 
ATOM     37  O   UNL A   1      33.939  33.049  32.180  1.00  0.00    -0.246 OA
BRANCH  36  38
ATOM     38  C   UNL A   1      35.980  33.604  33.258  1.00  0.00     0.060 A 
ATOM     39  C   UNL A   1      36.347  32.269  33.476  1.00  0.00     0.016 A 
ATOM     40  C   UNL A   1      36.845  34.638  33.626  1.00  0.00     0.016 A 
ATOM     41  C   UNL A   1      37.517  31.965  34.172  1.00  0.00     0.010 A 
ATOM     42  C   UNL A   1      38.004  34.337  34.357  1.00  0.00     0.010 A 
ATOM     43  C   UNL A   1      38.287  33.004  34.708  1.00  0.00    -0.014 A 
BRANCH  43  44
ATOM     44  C   UNL A   1      39.075  32.704  35.935  1.00  0.00     0.031 A 
ATOM     45  C   UNL A   1      40.561  32.481  35.756  1.00  0.00     0.074 A 
ATOM     46  C   UNL A   1      38.542  32.717  37.169  1.00  0.00     0.049 A 
ATOM     47  N   UNL A   1      41.490  32.282  36.655  1.00  0.00    -0.248 NA
ATOM     48  C   UNL A   1      41.066  32.495  34.371  1.00  0.00     0.031 C 
ATOM     49  C   UNL A   1      37.141  32.973  37.490  1.00  0.00     0.029 A 
ATOM     50  N   UNL A   1      39.139  32.520  38.390  1.00  0.00    -0.354 N 
ATOM     51  C   UNL A   1      42.679  32.147  35.944  1.00  0.00     0.074 A 
ATOM     52  C   UNL A   1      42.355  32.257  34.542  1.00  0.00     0.031 C 
ATOM     53  C   UNL A   1      36.986  32.920  38.827  1.00  0.00     0.029 A 
ATOM     54  C   UNL A   1      38.272  32.612  39.453  1.00  0.00     0.049 A 
ATOM     55  H   UNL A   1      40.099  32.330  38.495  1.00  0.00     0.167 HD
ATOM     56  C   UNL A   1      43.936  31.958  36.408  1.00  0.00     0.031 A 
ATOM     57  C   UNL A   1      38.495  32.464  40.774  1.00  0.00     0.031 A 
ATOM     58  C   UNL A   1      44.270  31.831  37.799  1.00  0.00     0.049 A 
ATOM     59  C   UNL A   1      39.894  32.190  41.269  1.00  0.00     0.074 A 
ATOM     60  C   UNL A   1      45.513  31.631  38.372  1.00  0.00     0.029 A 
ATOM     61  N   UNL A   1      43.352  31.886  38.834  1.00  0.00    -0.354 N 
ATOM     62  N   UNL A   1      41.008  32.085  40.583  1.00  0.00    -0.248 NA
ATOM     63  C   UNL A   1      40.065  32.030  42.720  1.00  0.00     0.031 C 
ATOM     64  C   UNL A   1      45.339  31.521  39.755  1.00  0.00     0.029 A 
ATOM     65  C   UNL A   1      43.996  31.706  40.044  1.00  0.00     0.049 A 
ATOM     66  H   UNL A   1      42.383  32.030  38.725  1.00  0.00     0.167 HD
ATOM     67  C   UNL A   1      42.015  31.885  41.524  1.00  0.00     0.074 A 
ATOM     68  C   UNL A   1      41.380  31.889  42.824  1.00  0.00     0.031 C 
ATOM     69  C   UNL A   1      43.348  31.720  41.330  1.00  0.00     0.031 A 
BRANCH  56  70
ATOM     70  C   UNL A   1      45.032  31.834  35.386  1.00  0.00    -0.014 A 
ATOM     71  C   UNL A   1      45.387  30.584  34.844  1.00  0.00     0.010 A 
ATOM     72  C   UNL A   1      45.722  32.985  34.966  1.00  0.00     0.010 A 
ATOM     73  C   UNL A   1      46.439  30.485  33.931  1.00  0.00     0.020 A 
ATOM     74  C   UNL A   1      46.758  32.892  34.034  1.00  0.00     0.020 A 
ATOM     75  C   UNL A   1      47.122  31.639  33.536  1.00  0.00     0.054 A 
BRANCH  75  76
ATOM     76  S   UNL A   1      48.477  31.488  32.339  1.00  0.00     0.124 S 
ATOM     77  O   UNL A   1      48.348  32.728  31.580  1.00  0.00    -0.237 OA
ATOM     78  O   UNL A   1      49.657  31.396  33.196  1.00  0.00    -0.237 OA
ATOM     79  O   UNL A   1      48.152  30.269  31.602  1.00  0.00    -0.744 OA
ENDBRANCH  75  76
ENDBRANCH  56  70
BRANCH  57  80
ATOM     80  C   UNL A   1      37.365  32.576  41.739  1.00  0.00    -0.014 A 
ATOM     81  C   UNL A   1      37.055  33.807  42.344  1.00  0.00     0.010 A 
ATOM     82  C   UNL A   1      36.606  31.440  42.073  1.00  0.00     0.010 A 
ATOM     83  C   UNL A   1      36.016  33.897  43.276  1.00  0.00     0.020 A 
ATOM     84  C   UNL A   1      35.550  31.531  42.985  1.00  0.00     0.020 A 
ATOM     85  C   UNL A   1      35.269  32.757  43.589  1.00  0.00     0.054 A 
BRANCH  85  86
ATOM     86  S   UNL A   1      33.888  32.907  44.758  1.00  0.00     0.124 S 
ATOM     87  O   UNL A   1      32.966  33.773  44.030  1.00  0.00    -0.237 OA
ATOM     88  O   UNL A   1      33.461  31.520  44.922  1.00  0.00    -0.237 OA
ATOM     89  O   UNL A   1      34.508  33.502  45.940  1.00  0.00    -0.744 OA
ENDBRANCH  85  86
ENDBRANCH  57  80
BRANCH  69  90
ATOM     90  C   UNL A   1      44.219  31.584  42.550  1.00  0.00    -0.014 A 
ATOM     91  C   UNL A   1      44.481  30.329  43.129  1.00  0.00     0.010 A 
ATOM     92  C   UNL A   1      44.827  32.730  43.095  1.00  0.00     0.010 A 
ATOM     93  C   UNL A   1      45.301  30.230  44.257  1.00  0.00     0.020 A 
ATOM     94  C   UNL A   1      45.667  32.632  44.206  1.00  0.00     0.020 A 
ATOM     95  C   UNL A   1      45.884  31.383  44.791  1.00  0.00     0.054 A 
BRANCH  95  96
ATOM     96  S   UNL A   1      46.963  31.231  46.241  1.00  0.00     0.124 S 
ATOM     97  O   UNL A   1      47.704  32.488  46.202  1.00  0.00    -0.237 OA
ATOM     98  O   UNL A   1      46.009  31.097  47.341  1.00  0.00    -0.237 OA
ATOM     99  O   UNL A   1      47.751  30.033  45.960  1.00  0.00    -0.744 OA
ENDBRANCH  95  96
ENDBRANCH  69  90
ENDBRANCH  43  44
ENDBRANCH  36  38
ENDBRANCH  35  36
ENDBRANCH  34  35
ENDBRANCH  33  34
ENDBRANCH  32  33
ENDBRANCH  31  32
ENDBRANCH  30  31
ENDBRANCH  29  30
ENDBRANCH   1  29
TORSDOF 28
ENDMDL
MODEL 2
REMARK VINA RESULT:      -8.3      7.740     12.065
REMARK SMILES CC[C@](C)(NC(=O)CNC(=O)c1cccc(Cl)c1)C(=O)OCCOCCOCCOCCOC(=O)c1ccc(-c2c3nc(c(-c4ccc(S(=O)(=O)[O-])cc4)c4ccc([nH]4)c(-c4ccc(S(=O)(=O)[O-])cc4)c4nc(c(-c5ccc(S(=O)(=O)[O-])cc5)c5ccc2[nH]5)C=C4)C=C3)cc1
REMARK SMILES IDX 26 1 25 2 24 3 23 4 22 5 21 6 19 7 20 8 3 9 4 10 2 11 1 12
REMARK SMILES IDX 5 13 6 14 7 16 8 17 9 18 10 19 11 21 12 22 13 23 18 24 14 25
REMARK SMILES IDX 16 26 15 27 17 28 27 29 28 30 29 31 30 32 31 33 32 34 33 35
REMARK SMILES IDX 34 36 35 37 36 38 37 39 95 40 38 41 94 42 39 43 40 44 41 45
REMARK SMILES IDX 88 46 42 47 93 48 87 49 89 50 43 51 92 52 86 53 85 54 44 56
REMARK SMILES IDX 74 57 55 58 73 59 56 60 59 61 72 62 90 63 57 64 58 65 71 67
REMARK SMILES IDX 91 68 60 69 45 70 46 71 54 72 47 73 53 74 48 75 49 76 50 77
REMARK SMILES IDX 51 78 52 79 75 80 76 81 84 82 77 83 83 84 78 85 79 86 80 87
REMARK SMILES IDX 81 88 82 89 61 90 62 91 70 92 63 93 69 94 64 95 65 96 66 97
REMARK SMILES IDX 67 98 68 99
REMARK H PARENT 5 15 9 20 89 55 59 66
REMARK Flexibility Score: inf
ROOT
ATOM      1  C   UNL A   1      34.226  31.524  28.225  1.00  0.00     0.188 C 
ENDROOT
BRANCH   1   2
ATOM      2  C   UNL A   1      35.313  30.486  27.847  1.00  0.00     0.188 C 
BRANCH   2   3
ATOM      3  O   UNL A   1      36.474  30.673  28.680  1.00  0.00    -0.376 OA
BRANCH   3   4
ATOM      4  C   UNL A   1      37.748  30.439  28.102  1.00  0.00     0.202 C 
BRANCH   4   5
ATOM      5  C   UNL A   1      38.327  28.959  28.316  1.00  0.00     0.261 C 
BRANCH   5   6
ATOM      6  O   UNL A   1      39.898  28.615  28.384  1.00  0.00    -0.462 OA
BRANCH   6   7
ATOM      7  C   UNL A   1      41.220  28.397  28.550  1.00  0.00     0.331 C 
ATOM      8  O   UNL A   1      41.837  29.286  29.154  1.00  0.00    -0.249 OA
BRANCH   7   9
ATOM      9  C   UNL A   1      42.100  27.097  28.093  1.00  0.00     0.135 C 
ATOM     10  C   UNL A   1      41.705  25.671  28.605  1.00  0.00     0.047 C 
BRANCH   9  11
ATOM     11  C   UNL A   1      43.565  27.308  28.659  1.00  0.00     0.037 C 
ATOM     12  C   UNL A   1      44.490  26.081  28.572  1.00  0.00     0.007 C 
ENDBRANCH   9  11
BRANCH   9  13
ATOM     13  N   UNL A   1      42.222  26.973  26.656  1.00  0.00    -0.339 N 
ATOM     14  C   UNL A   1      42.540  28.021  25.867  1.00  0.00     0.240 C 
ATOM     15  H   UNL A   1      42.068  26.094  26.239  1.00  0.00     0.164 HD
ATOM     16  O   UNL A   1      42.352  27.935  24.656  1.00  0.00    -0.273 OA
BRANCH  14  17
ATOM     17  C   UNL A   1      43.331  29.154  26.517  1.00  0.00     0.216 C 
BRANCH  17  18
ATOM     18  N   UNL A   1      44.780  29.671  26.307  1.00  0.00    -0.343 N 
ATOM     19  C   UNL A   1      46.134  29.464  26.029  1.00  0.00     0.251 C 
ATOM     20  H   UNL A   1      44.707  30.644  26.434  1.00  0.00     0.164 HD
ATOM     21  O   UNL A   1      46.763  30.520  25.863  1.00  0.00    -0.269 OA
BRANCH  19  22
ATOM     22  C   UNL A   1      47.016  28.235  25.983  1.00  0.00     0.041 A 
ATOM     23  C   UNL A   1      47.645  27.673  24.850  1.00  0.00     0.014 A 
ATOM     24  C   UNL A   1      47.460  27.738  27.217  1.00  0.00     0.034 A 
ATOM     25  C   UNL A   1      48.431  26.512  24.915  1.00  0.00     0.002 A 
ATOM     26  C   UNL A   1      48.296  26.612  27.292  1.00  0.00     0.041 A 
ATOM     27  C   UNL A   1      48.741  25.964  26.146  1.00  0.00     0.020 A 
ATOM     28  Cl  UNL A   1      48.790  26.023  28.834  1.00  0.00    -0.084 Cl
ENDBRANCH  19  22
ENDBRANCH  17  18
ENDBRANCH  14  17
ENDBRANCH   9  13
ENDBRANCH   7   9
ENDBRANCH   6   7
ENDBRANCH   5   6
ENDBRANCH   4   5
ENDBRANCH   3   4
ENDBRANCH   2   3
ENDBRANCH   1   2
BRANCH   1  29
ATOM     29  O   UNL A   1      34.618  32.890  28.089  1.00  0.00    -0.377 OA
BRANCH  29  30
ATOM     30  C   UNL A   1      33.564  33.846  27.982  1.00  0.00     0.188 C 
BRANCH  30  31
ATOM     31  C   UNL A   1      33.701  34.998  28.978  1.00  0.00     0.188 C 
BRANCH  31  32
ATOM     32  O   UNL A   1      33.034  34.896  30.232  1.00  0.00    -0.376 OA
BRANCH  32  33
ATOM     33  C   UNL A   1      33.823  34.941  31.410  1.00  0.00     0.202 C 
BRANCH  33  34
ATOM     34  C   UNL A   1      35.273  34.454  31.223  1.00  0.00     0.261 C 
BRANCH  34  35
ATOM     35  O   UNL A   1      36.064  34.405  32.424  1.00  0.00    -0.460 OA
BRANCH  35  36
ATOM     36  C   UNL A   1      35.855  33.320  33.209  1.00  0.00     0.338 C 
ATOM     37  O   UNL A   1      34.844  33.057  33.838  1.00  0.00    -0.246 OA
BRANCH  36  38
ATOM     38  C   UNL A   1      37.002  32.382  33.117  1.00  0.00     0.060 A 
ATOM     39  C   UNL A   1      38.069  32.565  34.009  1.00  0.00     0.016 A 
ATOM     40  C   UNL A   1      37.106  31.448  32.083  1.00  0.00     0.016 A 
ATOM     41  C   UNL A   1      39.283  31.912  33.798  1.00  0.00     0.010 A 
ATOM     42  C   UNL A   1      38.336  30.817  31.848  1.00  0.00     0.010 A 
ATOM     43  C   UNL A   1      39.449  31.123  32.653  1.00  0.00    -0.014 A 
BRANCH  43  44
ATOM     44  C   UNL A   1      40.827  31.003  32.103  1.00  0.00     0.031 A 
ATOM     45  C   UNL A   1      41.332  32.157  31.264  1.00  0.00     0.074 A 
ATOM     46  C   UNL A   1      41.645  29.977  32.394  1.00  0.00     0.049 A 
ATOM     47  N   UNL A   1      42.510  32.349  30.730  1.00  0.00    -0.248 NA
ATOM     48  C   UNL A   1      40.373  33.248  31.002  1.00  0.00     0.031 C 
ATOM     49  C   UNL A   1      41.310  28.830  33.233  1.00  0.00     0.029 A 
ATOM     50  N   UNL A   1      42.947  29.752  32.016  1.00  0.00    -0.354 N 
ATOM     51  C   UNL A   1      42.430  33.574  30.074  1.00  0.00     0.074 A 
ATOM     52  C   UNL A   1      41.085  34.068  30.249  1.00  0.00     0.031 C 
ATOM     53  C   UNL A   1      42.383  28.020  33.309  1.00  0.00     0.029 A 
ATOM     54  C   UNL A   1      43.474  28.584  32.513  1.00  0.00     0.049 A 
ATOM     55  H   UNL A   1      43.455  30.370  31.443  1.00  0.00     0.167 HD
ATOM     56  C   UNL A   1      43.388  34.243  29.391  1.00  0.00     0.031 A 
ATOM     57  C   UNL A   1      44.695  28.038  32.343  1.00  0.00     0.031 A 
ATOM     58  C   UNL A   1      44.724  33.756  29.195  1.00  0.00     0.049 A 
ATOM     59  C   UNL A   1      45.731  28.767  31.524  1.00  0.00     0.074 A 
ATOM     60  C   UNL A   1      45.768  34.355  28.514  1.00  0.00     0.029 A 
ATOM     61  N   UNL A   1      45.197  32.547  29.679  1.00  0.00    -0.354 N 
ATOM     62  N   UNL A   1      45.644  29.933  30.928  1.00  0.00    -0.248 NA
ATOM     63  C   UNL A   1      47.039  28.112  31.371  1.00  0.00     0.031 C 
ATOM     64  C   UNL A   1      46.863  33.485  28.548  1.00  0.00     0.029 A 
ATOM     65  C   UNL A   1      46.514  32.372  29.297  1.00  0.00     0.049 A 
ATOM     66  H   UNL A   1      44.674  31.908  30.215  1.00  0.00     0.167 HD
ATOM     67  C   UNL A   1      46.895  30.165  30.362  1.00  0.00     0.074 A 
ATOM     68  C   UNL A   1      47.721  29.024  30.691  1.00  0.00     0.031 C 
ATOM     69  C   UNL A   1      47.324  31.231  29.640  1.00  0.00     0.031 A 
BRANCH  56  70
ATOM     70  C   UNL A   1      42.998  35.556  28.770  1.00  0.00    -0.014 A 
ATOM     71  C   UNL A   1      42.361  35.609  27.516  1.00  0.00     0.010 A 
ATOM     72  C   UNL A   1      43.277  36.754  29.450  1.00  0.00     0.010 A 
ATOM     73  C   UNL A   1      42.049  36.841  26.935  1.00  0.00     0.020 A 
ATOM     74  C   UNL A   1      42.944  37.987  28.884  1.00  0.00     0.020 A 
ATOM     75  C   UNL A   1      42.348  38.022  27.621  1.00  0.00     0.054 A 
BRANCH  75  76
ATOM     76  S   UNL A   1      41.922  39.610  26.854  1.00  0.00     0.124 S 
ATOM     77  O   UNL A   1      43.175  39.975  26.200  1.00  0.00    -0.237 OA
ATOM     78  O   UNL A   1      40.827  39.251  25.956  1.00  0.00    -0.237 OA
ATOM     79  O   UNL A   1      41.542  40.451  27.987  1.00  0.00    -0.744 OA
ENDBRANCH  75  76
ENDBRANCH  56  70
BRANCH  57  80
ATOM     80  C   UNL A   1      45.018  26.723  32.964  1.00  0.00    -0.014 A 
ATOM     81  C   UNL A   1      44.588  25.522  32.371  1.00  0.00     0.010 A 
ATOM     82  C   UNL A   1      45.742  26.668  34.169  1.00  0.00     0.010 A 
ATOM     83  C   UNL A   1      44.863  24.293  32.978  1.00  0.00     0.020 A 
ATOM     84  C   UNL A   1      46.042  25.440  34.766  1.00  0.00     0.020 A 
ATOM     85  C   UNL A   1      45.590  24.260  34.172  1.00  0.00     0.054 A 
BRANCH  85  86
ATOM     86  S   UNL A   1      45.987  22.651  34.914  1.00  0.00     0.124 S 
ATOM     87  O   UNL A   1      45.638  21.727  33.840  1.00  0.00    -0.237 OA
ATOM     88  O   UNL A   1      47.413  22.779  35.203  1.00  0.00    -0.237 OA
ATOM     89  O   UNL A   1      45.124  22.600  36.092  1.00  0.00    -0.744 OA
ENDBRANCH  85  86
ENDBRANCH  57  80
BRANCH  69  90
ATOM     90  C   UNL A   1      48.764  31.242  29.202  1.00  0.00    -0.014 A 
ATOM     91  C   UNL A   1      49.772  31.804  30.004  1.00  0.00     0.010 A 
ATOM     92  C   UNL A   1      49.117  30.632  27.984  1.00  0.00     0.010 A 
ATOM     93  C   UNL A   1      51.103  31.792  29.576  1.00  0.00     0.020 A 
ATOM     94  C   UNL A   1      50.449  30.595  27.564  1.00  0.00     0.020 A 
ATOM     95  C   UNL A   1      51.432  31.193  28.356  1.00  0.00     0.054 A 
BRANCH  95  96
ATOM     96  S   UNL A   1      53.167  31.168  27.829  1.00  0.00     0.124 S 
ATOM     97  O   UNL A   1      53.696  32.368  28.469  1.00  0.00    -0.237 OA
ATOM     98  O   UNL A   1      53.652  29.900  28.370  1.00  0.00    -0.237 OA
ATOM     99  O   UNL A   1      53.085  31.224  26.371  1.00  0.00    -0.744 OA
ENDBRANCH  95  96
ENDBRANCH  69  90
ENDBRANCH  43  44
ENDBRANCH  36  38
ENDBRANCH  35  36
ENDBRANCH  34  35
ENDBRANCH  33  34
ENDBRANCH  32  33
ENDBRANCH  31  32
ENDBRANCH  30  31
ENDBRANCH  29  30
ENDBRANCH   1  29
TORSDOF 28
ENDMDL
MODEL 3
REMARK VINA RESULT:      -7.5      6.595     10.313
REMARK SMILES CC[C@](C)(NC(=O)CNC(=O)c1cccc(Cl)c1)C(=O)OCCOCCOCCOCCOC(=O)c1ccc(-c2c3nc(c(-c4ccc(S(=O)(=O)[O-])cc4)c4ccc([nH]4)c(-c4ccc(S(=O)(=O)[O-])cc4)c4nc(c(-c5ccc(S(=O)(=O)[O-])cc5)c5ccc2[nH]5)C=C4)C=C3)cc1
REMARK SMILES IDX 26 1 25 2 24 3 23 4 22 5 21 6 19 7 20 8 3 9 4 10 2 11 1 12
REMARK SMILES IDX 5 13 6 14 7 16 8 17 9 18 10 19 11 21 12 22 13 23 18 24 14 25
REMARK SMILES IDX 16 26 15 27 17 28 27 29 28 30 29 31 30 32 31 33 32 34 33 35
REMARK SMILES IDX 34 36 35 37 36 38 37 39 95 40 38 41 94 42 39 43 40 44 41 45
REMARK SMILES IDX 88 46 42 47 93 48 87 49 89 50 43 51 92 52 86 53 85 54 44 56
REMARK SMILES IDX 74 57 55 58 73 59 56 60 59 61 72 62 90 63 57 64 58 65 71 67
REMARK SMILES IDX 91 68 60 69 45 70 46 71 54 72 47 73 53 74 48 75 49 76 50 77
REMARK SMILES IDX 51 78 52 79 75 80 76 81 84 82 77 83 83 84 78 85 79 86 80 87
REMARK SMILES IDX 81 88 82 89 61 90 62 91 70 92 63 93 69 94 64 95 65 96 66 97
REMARK SMILES IDX 67 98 68 99
REMARK H PARENT 5 15 9 20 89 55 59 66
REMARK Flexibility Score: inf
ROOT
ATOM      1  C   UNL A   1      34.936  31.735  28.400  1.00  0.00     0.188 C 
ENDROOT
BRANCH   1   2
ATOM      2  C   UNL A   1      36.004  30.721  27.915  1.00  0.00     0.188 C 
BRANCH   2   3
ATOM      3  O   UNL A   1      35.401  29.776  27.010  1.00  0.00    -0.376 OA
BRANCH   3   4
ATOM      4  C   UNL A   1      34.019  29.496  27.170  1.00  0.00     0.202 C 
BRANCH   4   5
ATOM      5  C   UNL A   1      33.493  28.209  26.371  1.00  0.00     0.261 C 
BRANCH   5   6
ATOM      6  O   UNL A   1      33.047  28.239  24.824  1.00  0.00    -0.462 OA
BRANCH   6   7
ATOM      7  C   UNL A   1      32.564  28.205  23.563  1.00  0.00     0.331 C 
ATOM      8  O   UNL A   1      33.143  28.939  22.750  1.00  0.00    -0.249 OA
BRANCH   7   9
ATOM      9  C   UNL A   1      31.346  27.293  22.966  1.00  0.00     0.135 C 
ATOM     10  C   UNL A   1      29.929  27.926  22.760  1.00  0.00     0.047 C 
BRANCH   9  11
ATOM     11  C   UNL A   1      31.090  26.125  24.005  1.00  0.00     0.037 C 
ATOM     12  C   UNL A   1      29.999  26.402  25.055  1.00  0.00     0.007 C 
ENDBRANCH   9  11
BRANCH   9  13
ATOM     13  N   UNL A   1      31.676  26.664  21.705  1.00  0.00    -0.339 N 
ATOM     14  C   UNL A   1      32.846  26.020  21.506  1.00  0.00     0.240 C 
ATOM     15  H   UNL A   1      31.026  26.708  20.966  1.00  0.00     0.164 HD
ATOM     16  O   UNL A   1      33.196  25.759  20.357  1.00  0.00    -0.273 OA
BRANCH  14  17
ATOM     17  C   UNL A   1      33.537  25.455  22.744  1.00  0.00     0.216 C 
BRANCH  17  18
ATOM     18  N   UNL A   1      33.564  24.032  23.367  1.00  0.00    -0.343 N 
ATOM     19  C   UNL A   1      34.181  23.025  24.115  1.00  0.00     0.251 C 
ATOM     20  H   UNL A   1      32.705  23.636  23.095  1.00  0.00     0.164 HD
ATOM     21  O   UNL A   1      33.433  22.063  24.344  1.00  0.00    -0.269 OA
BRANCH  19  22
ATOM     22  C   UNL A   1      35.592  22.815  24.621  1.00  0.00     0.041 A 
ATOM     23  C   UNL A   1      36.394  23.736  25.330  1.00  0.00     0.014 A 
ATOM     24  C   UNL A   1      36.070  21.498  24.607  1.00  0.00     0.034 A 
ATOM     25  C   UNL A   1      37.705  23.445  25.739  1.00  0.00     0.002 A 
ATOM     26  C   UNL A   1      37.360  21.184  25.069  1.00  0.00     0.041 A 
ATOM     27  C   UNL A   1      38.199  22.163  25.586  1.00  0.00     0.020 A 
ATOM     28  Cl  UNL A   1      37.913  19.554  25.003  1.00  0.00    -0.084 Cl
ENDBRANCH  19  22
ENDBRANCH  17  18
ENDBRANCH  14  17
ENDBRANCH   9  13
ENDBRANCH   7   9
ENDBRANCH   6   7
ENDBRANCH   5   6
ENDBRANCH   4   5
ENDBRANCH   3   4
ENDBRANCH   2   3
ENDBRANCH   1   2
BRANCH   1  29
ATOM     29  O   UNL A   1      34.871  32.950  27.652  1.00  0.00    -0.377 OA
BRANCH  29  30
ATOM     30  C   UNL A   1      33.836  33.864  28.014  1.00  0.00     0.188 C 
BRANCH  30  31
ATOM     31  C   UNL A   1      34.172  34.682  29.261  1.00  0.00     0.188 C 
BRANCH  31  32
ATOM     32  O   UNL A   1      33.636  34.266  30.513  1.00  0.00    -0.376 OA
BRANCH  32  33
ATOM     33  C   UNL A   1      34.511  33.638  31.436  1.00  0.00     0.202 C 
BRANCH  33  34
ATOM     34  C   UNL A   1      34.033  33.689  32.900  1.00  0.00     0.261 C 
BRANCH  34  35
ATOM     35  O   UNL A   1      34.764  32.851  33.814  1.00  0.00    -0.460 OA
BRANCH  35  36
ATOM     36  C   UNL A   1      35.762  33.469  34.490  1.00  0.00     0.338 C 
ATOM     37  O   UNL A   1      35.640  34.273  35.399  1.00  0.00    -0.246 OA
BRANCH  36  38
ATOM     38  C   UNL A   1      37.084  32.942  34.065  1.00  0.00     0.060 A 
ATOM     39  C   UNL A   1      38.155  33.063  34.962  1.00  0.00     0.016 A 
ATOM     40  C   UNL A   1      37.308  32.486  32.763  1.00  0.00     0.016 A 
ATOM     41  C   UNL A   1      39.464  32.852  34.528  1.00  0.00     0.010 A 
ATOM     42  C   UNL A   1      38.625  32.307  32.315  1.00  0.00     0.010 A 
ATOM     43  C   UNL A   1      39.704  32.581  33.176  1.00  0.00    -0.014 A 
BRANCH  43  44
ATOM     44  C   UNL A   1      41.015  33.012  32.618  1.00  0.00     0.031 A 
ATOM     45  C   UNL A   1      41.616  32.145  31.532  1.00  0.00     0.074 A 
ATOM     46  C   UNL A   1      41.620  34.160  32.970  1.00  0.00     0.049 A 
ATOM     47  N   UNL A   1      42.699  32.325  30.824  1.00  0.00    -0.248 NA
ATOM     48  C   UNL A   1      40.883  30.909  31.198  1.00  0.00     0.031 C 
ATOM     49  C   UNL A   1      41.127  35.115  33.958  1.00  0.00     0.029 A 
ATOM     50  N   UNL A   1      42.788  34.719  32.512  1.00  0.00    -0.354 N 
ATOM     51  C   UNL A   1      42.774  31.231  29.966  1.00  0.00     0.074 A 
ATOM     52  C   UNL A   1      41.648  30.377  30.260  1.00  0.00     0.031 C 
ATOM     53  C   UNL A   1      41.988  36.148  34.031  1.00  0.00     0.029 A 
ATOM     54  C   UNL A   1      43.099  35.919  33.106  1.00  0.00     0.049 A 
ATOM     55  H   UNL A   1      43.351  34.298  31.823  1.00  0.00     0.167 HD
ATOM     56  C   UNL A   1      43.690  30.955  29.009  1.00  0.00     0.031 A 
ATOM     57  C   UNL A   1      44.157  36.734  32.922  1.00  0.00     0.031 A 
ATOM     58  C   UNL A   1      44.824  31.786  28.717  1.00  0.00     0.049 A 
ATOM     59  C   UNL A   1      45.203  36.378  31.894  1.00  0.00     0.074 A 
ATOM     60  C   UNL A   1      45.813  31.592  27.770  1.00  0.00     0.029 A 
ATOM     61  N   UNL A   1      45.120  32.967  29.376  1.00  0.00    -0.354 N 
ATOM     62  N   UNL A   1      45.246  35.349  31.080  1.00  0.00    -0.248 NA
ATOM     63  C   UNL A   1      46.335  37.305  31.750  1.00  0.00     0.031 C 
ATOM     64  C   UNL A   1      46.735  32.637  27.887  1.00  0.00     0.029 A 
ATOM     65  C   UNL A   1      46.287  33.507  28.869  1.00  0.00     0.049 A 
ATOM     66  H   UNL A   1      44.580  33.364  30.098  1.00  0.00     0.167 HD
ATOM     67  C   UNL A   1      46.389  35.527  30.304  1.00  0.00     0.074 A 
ATOM     68  C   UNL A   1      47.004  36.762  30.741  1.00  0.00     0.031 C 
ATOM     69  C   UNL A   1      46.881  34.743  29.312  1.00  0.00     0.031 A 
BRANCH  56  70
ATOM     70  C   UNL A   1      43.515  29.673  28.242  1.00  0.00    -0.014 A 
ATOM     71  C   UNL A   1      44.105  28.473  28.683  1.00  0.00     0.010 A 
ATOM     72  C   UNL A   1      42.754  29.670  27.060  1.00  0.00     0.010 A 
ATOM     73  C   UNL A   1      43.970  27.303  27.931  1.00  0.00     0.020 A 
ATOM     74  C   UNL A   1      42.596  28.497  26.320  1.00  0.00     0.020 A 
ATOM     75  C   UNL A   1      43.221  27.325  26.750  1.00  0.00     0.054 A 
BRANCH  75  76
ATOM     76  S   UNL A   1      43.047  25.791  25.797  1.00  0.00     0.124 S 
ATOM     77  O   UNL A   1      42.921  24.792  26.855  1.00  0.00    -0.237 OA
ATOM     78  O   UNL A   1      41.837  26.032  25.015  1.00  0.00    -0.237 OA
ATOM     79  O   UNL A   1      44.283  25.724  25.021  1.00  0.00    -0.744 OA
ENDBRANCH  75  76
ENDBRANCH  56  70
BRANCH  57  80
ATOM     80  C   UNL A   1      44.288  37.980  33.727  1.00  0.00    -0.014 A 
ATOM     81  C   UNL A   1      44.982  37.977  34.951  1.00  0.00     0.010 A 
ATOM     82  C   UNL A   1      43.699  39.177  33.279  1.00  0.00     0.010 A 
ATOM     83  C   UNL A   1      45.071  39.142  35.718  1.00  0.00     0.020 A 
ATOM     84  C   UNL A   1      43.808  40.350  34.032  1.00  0.00     0.020 A 
ATOM     85  C   UNL A   1      44.484  40.322  35.253  1.00  0.00     0.054 A 
BRANCH  85  86
ATOM     86  S   UNL A   1      44.660  41.837  36.237  1.00  0.00     0.124 S 
ATOM     87  O   UNL A   1      46.093  41.858  36.510  1.00  0.00    -0.237 OA
ATOM     88  O   UNL A   1      44.173  42.867  35.322  1.00  0.00    -0.237 OA
ATOM     89  O   UNL A   1      43.803  41.590  37.395  1.00  0.00    -0.744 OA
ENDBRANCH  85  86
ENDBRANCH  57  80
BRANCH  69  90
ATOM     90  C   UNL A   1      48.116  35.218  28.595  1.00  0.00    -0.014 A 
ATOM     91  C   UNL A   1      48.156  36.468  27.952  1.00  0.00     0.010 A 
ATOM     92  C   UNL A   1      49.273  34.418  28.610  1.00  0.00     0.010 A 
ATOM     93  C   UNL A   1      49.320  36.889  27.300  1.00  0.00     0.020 A 
ATOM     94  C   UNL A   1      50.445  34.846  27.983  1.00  0.00     0.020 A 
ATOM     95  C   UNL A   1      50.455  36.072  27.316  1.00  0.00     0.054 A 
BRANCH  95  96
ATOM     96  S   UNL A   1      51.961  36.646  26.484  1.00  0.00     0.124 S 
ATOM     97  O   UNL A   1      51.418  37.453  25.395  1.00  0.00    -0.237 OA
ATOM     98  O   UNL A   1      52.648  37.391  27.537  1.00  0.00    -0.237 OA
ATOM     99  O   UNL A   1      52.621  35.409  26.073  1.00  0.00    -0.744 OA
ENDBRANCH  95  96
ENDBRANCH  69  90
ENDBRANCH  43  44
ENDBRANCH  36  38
ENDBRANCH  35  36
ENDBRANCH  34  35
ENDBRANCH  33  34
ENDBRANCH  32  33
ENDBRANCH  31  32
ENDBRANCH  30  31
ENDBRANCH  29  30
ENDBRANCH   1  29
TORSDOF 28
ENDMDL
