MODEL 1
REMARK VINA RESULT:      -9.2      0.000      0.000
REMARK SMILES CCc1cc(/C=C/C(=O)OCCOCCOCCOCCOC(=O)c2ccc(-c3c4nc(c(-c5ccc(S(=O)(=O)[O-])cc5)c5ccc([nH]5)c(-c5ccc(S(=O)(=O)[O-])cc5)c5nc(c(-c6ccc(S(=O)(=O)[O-])cc6)c6ccc3[nH]6)C=C5)C=C4)cc2)cc(C(=O)c2ccccc2)c1
REMARK SMILES IDX 16 1 15 2 14 3 13 4 12 5 11 6 10 7 8 8 9 9 7 10 6 11 5 12
REMARK SMILES IDX 3 13 4 14 95 15 86 16 85 17 2 18 1 19 87 20 88 21 89 22
REMARK SMILES IDX 90 23 94 24 91 25 93 26 92 27 17 28 18 29 19 30 20 31 21 32
REMARK SMILES IDX 22 33 23 34 24 35 25 36 26 37 84 38 27 39 83 40 28 41 29 42
REMARK SMILES IDX 30 43 77 44 31 45 82 46 76 47 78 48 32 49 81 50 75 51 74 52
REMARK SMILES IDX 33 54 63 55 44 56 62 57 45 58 48 59 61 60 79 61 46 62 47 63
REMARK SMILES IDX 60 65 80 66 49 67 34 68 35 69 43 70 36 71 42 72 37 73 38 74
REMARK SMILES IDX 39 75 40 76 41 77 64 78 65 79 73 80 66 81 72 82 67 83 68 84
REMARK SMILES IDX 69 85 70 86 71 87 50 88 51 89 59 90 52 91 58 92 53 93 54 94
REMARK SMILES IDX 55 95 56 96 57 97
REMARK H PARENT 78 53 48 64
REMARK Flexibility Score: inf
ROOT
ATOM      1  O   UNL A   1      34.873  21.442  26.277  1.00  0.00    -0.377 OA
ENDROOT
BRANCH   1   2
ATOM      2  C   UNL A   1      33.974  22.469  25.894  1.00  0.00     0.188 C 
BRANCH   2   3
ATOM      3  C   UNL A   1      32.469  22.224  26.112  1.00  0.00     0.188 C 
BRANCH   3   4
ATOM      4  O   UNL A   1      31.900  21.310  25.195  1.00  0.00    -0.376 OA
BRANCH   4   5
ATOM      5  C   UNL A   1      32.579  20.971  24.001  1.00  0.00     0.202 C 
BRANCH   5   6
ATOM      6  C   UNL A   1      32.443  21.810  22.719  1.00  0.00     0.261 C 
BRANCH   6   7
ATOM      7  O   UNL A   1      33.466  22.778  22.470  1.00  0.00    -0.460 OA
BRANCH   7   8
ATOM      8  C   UNL A   1      33.265  23.651  21.462  1.00  0.00     0.330 C 
ATOM      9  O   UNL A   1      33.415  23.429  20.271  1.00  0.00    -0.247 OA
BRANCH   8  10
ATOM     10  C   UNL A   1      32.635  24.893  21.969  1.00  0.00     0.094 C 
ATOM     11  C   UNL A   1      32.964  25.497  23.124  1.00  0.00     0.015 C 
BRANCH  11  12
ATOM     12  C   UNL A   1      32.276  26.686  23.656  1.00  0.00    -0.024 A 
ATOM     13  C   UNL A   1      30.747  28.587  23.391  1.00  0.00    -0.047 A 
ATOM     14  C   UNL A   1      31.366  27.429  22.887  1.00  0.00     0.011 A 
ATOM     15  C   UNL A   1      31.041  28.979  24.701  1.00  0.00     0.016 A 
ATOM     16  C   UNL A   1      31.876  28.206  25.519  1.00  0.00     0.023 A 
ATOM     17  C   UNL A   1      32.491  27.063  24.987  1.00  0.00     0.020 A 
BRANCH  13  18
ATOM     18  C   UNL A   1      29.767  29.327  22.507  1.00  0.00     0.032 C 
ATOM     19  C   UNL A   1      28.815  30.296  23.201  1.00  0.00     0.009 C 
ENDBRANCH  13  18
BRANCH  16  20
ATOM     20  C   UNL A   1      32.182  28.589  26.930  1.00  0.00     0.193 C 
ATOM     21  O   UNL A   1      31.557  28.078  27.855  1.00  0.00    -0.289 OA
BRANCH  20  22
ATOM     22  C   UNL A   1      33.275  29.533  27.268  1.00  0.00     0.022 A 
ATOM     23  C   UNL A   1      34.555  29.006  27.473  1.00  0.00     0.012 A 
ATOM     24  C   UNL A   1      33.057  30.910  27.391  1.00  0.00     0.012 A 
ATOM     25  C   UNL A   1      35.625  29.860  27.744  1.00  0.00     0.001 A 
ATOM     26  C   UNL A   1      34.132  31.762  27.653  1.00  0.00     0.001 A 
ATOM     27  C   UNL A   1      35.415  31.237  27.820  1.00  0.00     0.000 A 
ENDBRANCH  20  22
ENDBRANCH  16  20
ENDBRANCH  11  12
ENDBRANCH   8  10
ENDBRANCH   7   8
ENDBRANCH   6   7
ENDBRANCH   5   6
ENDBRANCH   4   5
ENDBRANCH   3   4
ENDBRANCH   2   3
ENDBRANCH   1   2
BRANCH   1  28
ATOM     28  C   UNL A   1      36.055  21.201  25.513  1.00  0.00     0.188 C 
BRANCH  28  29
ATOM     29  C   UNL A   1      36.500  22.110  24.341  1.00  0.00     0.188 C 
BRANCH  29  30
ATOM     30  O   UNL A   1      37.291  23.227  24.714  1.00  0.00    -0.376 OA
BRANCH  30  31
ATOM     31  C   UNL A   1      38.062  23.124  25.898  1.00  0.00     0.202 C 
BRANCH  31  32
ATOM     32  C   UNL A   1      38.834  24.379  26.325  1.00  0.00     0.261 C 
BRANCH  32  33
ATOM     33  O   UNL A   1      40.240  24.206  26.550  1.00  0.00    -0.460 OA
BRANCH  33  34
ATOM     34  C   UNL A   1      41.035  25.267  26.296  1.00  0.00     0.338 C 
ATOM     35  O   UNL A   1      41.496  25.595  25.212  1.00  0.00    -0.246 OA
BRANCH  34  36
ATOM     36  C   UNL A   1      41.115  26.079  27.525  1.00  0.00     0.060 A 
ATOM     37  C   UNL A   1      40.233  25.810  28.580  1.00  0.00     0.016 A 
ATOM     38  C   UNL A   1      42.056  27.106  27.631  1.00  0.00     0.016 A 
ATOM     39  C   UNL A   1      40.259  26.604  29.727  1.00  0.00     0.010 A 
ATOM     40  C   UNL A   1      42.068  27.910  28.773  1.00  0.00     0.010 A 
ATOM     41  C   UNL A   1      41.142  27.688  29.807  1.00  0.00    -0.014 A 
BRANCH  41  42
ATOM     42  C   UNL A   1      40.960  28.711  30.866  1.00  0.00     0.031 A 
ATOM     43  C   UNL A   1      41.832  28.627  32.092  1.00  0.00     0.074 A 
ATOM     44  C   UNL A   1      40.060  29.702  30.740  1.00  0.00     0.049 A 
ATOM     45  N   UNL A   1      41.831  29.375  33.164  1.00  0.00    -0.248 NA
ATOM     46  C   UNL A   1      42.836  27.550  32.110  1.00  0.00     0.031 C 
ATOM     47  C   UNL A   1      39.193  29.918  29.583  1.00  0.00     0.029 A 
ATOM     48  N   UNL A   1      39.727  30.715  31.605  1.00  0.00    -0.354 N 
ATOM     49  C   UNL A   1      42.822  28.854  33.987  1.00  0.00     0.074 A 
ATOM     50  C   UNL A   1      43.382  27.707  33.306  1.00  0.00     0.031 C 
ATOM     51  C   UNL A   1      38.419  30.994  29.814  1.00  0.00     0.029 A 
ATOM     52  C   UNL A   1      38.709  31.518  31.147  1.00  0.00     0.049 A 
ATOM     53  H   UNL A   1      40.173  30.852  32.472  1.00  0.00     0.167 HD
ATOM     54  C   UNL A   1      43.235  29.293  35.200  1.00  0.00     0.031 A 
ATOM     55  C   UNL A   1      38.071  32.544  31.747  1.00  0.00     0.031 A 
ATOM     56  C   UNL A   1      42.664  30.425  35.880  1.00  0.00     0.049 A 
ATOM     57  C   UNL A   1      38.493  32.967  33.133  1.00  0.00     0.074 A 
ATOM     58  C   UNL A   1      43.020  30.960  37.105  1.00  0.00     0.029 A 
ATOM     59  N   UNL A   1      41.612  31.190  35.398  1.00  0.00    -0.354 N 
ATOM     60  N   UNL A   1      39.450  32.481  33.889  1.00  0.00    -0.248 NA
ATOM     61  C   UNL A   1      37.755  34.083  33.741  1.00  0.00     0.031 C 
ATOM     62  C   UNL A   1      42.139  32.006  37.396  1.00  0.00     0.029 A 
ATOM     63  C   UNL A   1      41.285  32.173  36.316  1.00  0.00     0.049 A 
ATOM     64  H   UNL A   1      41.163  31.053  34.533  1.00  0.00     0.167 HD
ATOM     65  C   UNL A   1      39.451  33.256  35.045  1.00  0.00     0.074 A 
ATOM     66  C   UNL A   1      38.408  34.248  34.884  1.00  0.00     0.031 C 
ATOM     67  C   UNL A   1      40.246  33.158  36.141  1.00  0.00     0.031 A 
BRANCH  54  68
ATOM     68  C   UNL A   1      44.330  28.520  35.887  1.00  0.00    -0.014 A 
ATOM     69  C   UNL A   1      44.042  27.429  36.727  1.00  0.00     0.010 A 
ATOM     70  C   UNL A   1      45.675  28.870  35.660  1.00  0.00     0.010 A 
ATOM     71  C   UNL A   1      45.076  26.728  37.356  1.00  0.00     0.020 A 
ATOM     72  C   UNL A   1      46.711  28.151  36.260  1.00  0.00     0.020 A 
ATOM     73  C   UNL A   1      46.404  27.094  37.118  1.00  0.00     0.054 A 
BRANCH  73  74
ATOM     74  S   UNL A   1      47.724  26.149  37.926  1.00  0.00     0.124 S 
ATOM     75  O   UNL A   1      48.799  27.136  38.000  1.00  0.00    -0.237 OA
ATOM     76  O   UNL A   1      47.119  25.783  39.204  1.00  0.00    -0.237 OA
ATOM     77  O   UNL A   1      47.965  25.035  37.012  1.00  0.00    -0.744 OA
ENDBRANCH  73  74
ENDBRANCH  54  68
BRANCH  55  78
ATOM     78  C   UNL A   1      36.951  33.236  31.048  1.00  0.00    -0.014 A 
ATOM     79  C   UNL A   1      37.202  34.117  29.981  1.00  0.00     0.010 A 
ATOM     80  C   UNL A   1      35.621  33.022  31.454  1.00  0.00     0.010 A 
ATOM     81  C   UNL A   1      36.149  34.781  29.345  1.00  0.00     0.020 A 
ATOM     82  C   UNL A   1      34.562  33.657  30.800  1.00  0.00     0.020 A 
ATOM     83  C   UNL A   1      34.834  34.542  29.756  1.00  0.00     0.054 A 
BRANCH  83  84
ATOM     84  S   UNL A   1      33.481  35.376  28.879  1.00  0.00     0.124 S 
ATOM     85  O   UNL A   1      32.367  34.460  29.095  1.00  0.00    -0.237 OA
ATOM     86  O   UNL A   1      33.395  36.655  29.579  1.00  0.00    -0.237 OA
ATOM     87  O   UNL A   1      33.965  35.459  27.503  1.00  0.00    -0.744 OA
ENDBRANCH  83  84
ENDBRANCH  55  78
BRANCH  67  88
ATOM     88  C   UNL A   1      40.061  34.178  37.235  1.00  0.00    -0.014 A 
ATOM     89  C   UNL A   1      40.791  35.380  37.254  1.00  0.00     0.010 A 
ATOM     90  C   UNL A   1      39.088  33.956  38.228  1.00  0.00     0.010 A 
ATOM     91  C   UNL A   1      40.575  36.323  38.265  1.00  0.00     0.020 A 
ATOM     92  C   UNL A   1      38.845  34.909  39.219  1.00  0.00     0.020 A 
ATOM     93  C   UNL A   1      39.602  36.083  39.239  1.00  0.00     0.054 A 
BRANCH  93  94
ATOM     94  S   UNL A   1      39.310  37.342  40.511  1.00  0.00     0.124 S 
ATOM     95  O   UNL A   1      38.181  38.082  39.953  1.00  0.00    -0.237 OA
ATOM     96  O   UNL A   1      39.012  36.538  41.694  1.00  0.00    -0.237 OA
ATOM     97  O   UNL A   1      40.570  38.079  40.568  1.00  0.00    -0.744 OA
ENDBRANCH  93  94
ENDBRANCH  67  88
ENDBRANCH  41  42
ENDBRANCH  34  36
ENDBRANCH  33  34
ENDBRANCH  32  33
ENDBRANCH  31  32
ENDBRANCH  30  31
ENDBRANCH  29  30
ENDBRANCH  28  29
ENDBRANCH   1  28
TORSDOF 27
ENDMDL
MODEL 2
REMARK VINA RESULT:      -8.1      4.965      6.685
REMARK SMILES CCc1cc(/C=C/C(=O)OCCOCCOCCOCCOC(=O)c2ccc(-c3c4nc(c(-c5ccc(S(=O)(=O)[O-])cc5)c5ccc([nH]5)c(-c5ccc(S(=O)(=O)[O-])cc5)c5nc(c(-c6ccc(S(=O)(=O)[O-])cc6)c6ccc3[nH]6)C=C5)C=C4)cc2)cc(C(=O)c2ccccc2)c1
REMARK SMILES IDX 16 1 15 2 14 3 13 4 12 5 11 6 10 7 8 8 9 9 7 10 6 11 5 12
REMARK SMILES IDX 3 13 4 14 95 15 86 16 85 17 2 18 1 19 87 20 88 21 89 22
REMARK SMILES IDX 90 23 94 24 91 25 93 26 92 27 17 28 18 29 19 30 20 31 21 32
REMARK SMILES IDX 22 33 23 34 24 35 25 36 26 37 84 38 27 39 83 40 28 41 29 42
REMARK SMILES IDX 30 43 77 44 31 45 82 46 76 47 78 48 32 49 81 50 75 51 74 52
REMARK SMILES IDX 33 54 63 55 44 56 62 57 45 58 48 59 61 60 79 61 46 62 47 63
REMARK SMILES IDX 60 65 80 66 49 67 34 68 35 69 43 70 36 71 42 72 37 73 38 74
REMARK SMILES IDX 39 75 40 76 41 77 64 78 65 79 73 80 66 81 72 82 67 83 68 84
REMARK SMILES IDX 69 85 70 86 71 87 50 88 51 89 59 90 52 91 58 92 53 93 54 94
REMARK SMILES IDX 55 95 56 96 57 97
REMARK H PARENT 78 53 48 64
REMARK Flexibility Score: inf
ROOT
ATOM      1  O   UNL A   1      35.583  22.341  23.763  1.00  0.00    -0.377 OA
ENDROOT
BRANCH   1   2
ATOM      2  C   UNL A   1      34.622  23.353  23.517  1.00  0.00     0.188 C 
BRANCH   2   3
ATOM      3  C   UNL A   1      33.411  22.992  22.635  1.00  0.00     0.188 C 
BRANCH   3   4
ATOM      4  O   UNL A   1      32.257  22.635  23.368  1.00  0.00    -0.376 OA
BRANCH   4   5
ATOM      5  C   UNL A   1      32.251  21.479  24.185  1.00  0.00     0.202 C 
BRANCH   5   6
ATOM      6  C   UNL A   1      31.857  21.531  25.671  1.00  0.00     0.261 C 
BRANCH   6   7
ATOM      7  O   UNL A   1      30.512  21.911  25.968  1.00  0.00    -0.460 OA
BRANCH   7   8
ATOM      8  C   UNL A   1      30.330  22.972  26.781  1.00  0.00     0.330 C 
ATOM      9  O   UNL A   1      29.696  22.985  27.825  1.00  0.00    -0.247 OA
BRANCH   8  10
ATOM     10  C   UNL A   1      31.176  24.109  26.348  1.00  0.00     0.094 C 
ATOM     11  C   UNL A   1      30.701  25.276  25.879  1.00  0.00     0.015 C 
BRANCH  11  12
ATOM     12  C   UNL A   1      31.552  26.369  25.377  1.00  0.00    -0.024 A 
ATOM     13  C   UNL A   1      33.025  27.340  23.671  1.00  0.00    -0.047 A 
ATOM     14  C   UNL A   1      32.181  26.310  24.123  1.00  0.00     0.011 A 
ATOM     15  C   UNL A   1      33.211  28.454  24.498  1.00  0.00     0.016 A 
ATOM     16  C   UNL A   1      32.525  28.579  25.713  1.00  0.00     0.023 A 
ATOM     17  C   UNL A   1      31.700  27.530  26.147  1.00  0.00     0.020 A 
BRANCH  13  18
ATOM     18  C   UNL A   1      33.656  27.212  22.303  1.00  0.00     0.032 C 
ATOM     19  C   UNL A   1      32.963  26.282  21.312  1.00  0.00     0.009 C 
ENDBRANCH  13  18
BRANCH  16  20
ATOM     20  C   UNL A   1      32.687  29.771  26.599  1.00  0.00     0.193 C 
ATOM     21  O   UNL A   1      31.716  30.471  26.870  1.00  0.00    -0.289 OA
BRANCH  20  22
ATOM     22  C   UNL A   1      33.986  30.113  27.227  1.00  0.00     0.022 A 
ATOM     23  C   UNL A   1      34.146  31.406  27.738  1.00  0.00     0.012 A 
ATOM     24  C   UNL A   1      35.036  29.192  27.312  1.00  0.00     0.012 A 
ATOM     25  C   UNL A   1      35.332  31.759  28.382  1.00  0.00     0.001 A 
ATOM     26  C   UNL A   1      36.218  29.546  27.966  1.00  0.00     0.001 A 
ATOM     27  C   UNL A   1      36.361  30.825  28.507  1.00  0.00     0.000 A 
ENDBRANCH  20  22
ENDBRANCH  16  20
ENDBRANCH  11  12
ENDBRANCH   8  10
ENDBRANCH   7   8
ENDBRANCH   6   7
ENDBRANCH   5   6
ENDBRANCH   4   5
ENDBRANCH   3   4
ENDBRANCH   2   3
ENDBRANCH   1   2
BRANCH   1  28
ATOM     28  C   UNL A   1      36.483  22.459  24.867  1.00  0.00     0.188 C 
BRANCH  28  29
ATOM     29  C   UNL A   1      36.916  23.823  25.458  1.00  0.00     0.188 C 
BRANCH  29  30
ATOM     30  O   UNL A   1      37.669  23.745  26.657  1.00  0.00    -0.376 OA
BRANCH  30  31
ATOM     31  C   UNL A   1      39.032  24.128  26.608  1.00  0.00     0.202 C 
BRANCH  31  32
ATOM     32  C   UNL A   1      39.443  25.321  27.480  1.00  0.00     0.261 C 
BRANCH  32  33
ATOM     33  O   UNL A   1      40.597  26.052  27.043  1.00  0.00    -0.460 OA
BRANCH  33  34
ATOM     34  C   UNL A   1      41.691  25.996  27.832  1.00  0.00     0.338 C 
ATOM     35  O   UNL A   1      42.613  25.197  27.753  1.00  0.00    -0.246 OA
BRANCH  34  36
ATOM     36  C   UNL A   1      41.681  27.186  28.706  1.00  0.00     0.060 A 
ATOM     37  C   UNL A   1      40.882  28.282  28.358  1.00  0.00     0.016 A 
ATOM     38  C   UNL A   1      42.464  27.215  29.863  1.00  0.00     0.016 A 
ATOM     39  C   UNL A   1      40.903  29.435  29.144  1.00  0.00     0.010 A 
ATOM     40  C   UNL A   1      42.496  28.376  30.638  1.00  0.00     0.010 A 
ATOM     41  C   UNL A   1      41.748  29.505  30.258  1.00  0.00    -0.014 A 
BRANCH  41  42
ATOM     42  C   UNL A   1      42.012  30.815  30.903  1.00  0.00     0.031 A 
ATOM     43  C   UNL A   1      43.093  31.688  30.320  1.00  0.00     0.074 A 
ATOM     44  C   UNL A   1      41.303  31.233  31.966  1.00  0.00     0.049 A 
ATOM     45  N   UNL A   1      43.535  32.848  30.730  1.00  0.00    -0.248 NA
ATOM     46  C   UNL A   1      43.769  31.179  29.114  1.00  0.00     0.031 C 
ATOM     47  C   UNL A   1      40.202  30.501  32.591  1.00  0.00     0.029 A 
ATOM     48  N   UNL A   1      41.409  32.381  32.710  1.00  0.00    -0.354 N 
ATOM     49  C   UNL A   1      44.545  33.201  29.843  1.00  0.00     0.074 A 
ATOM     50  C   UNL A   1      44.674  32.119  28.892  1.00  0.00     0.031 C 
ATOM     51  C   UNL A   1      39.739  31.217  33.631  1.00  0.00     0.029 A 
ATOM     52  C   UNL A   1      40.533  32.437  33.769  1.00  0.00     0.049 A 
ATOM     53  H   UNL A   1      42.054  33.097  32.506  1.00  0.00     0.167 HD
ATOM     54  C   UNL A   1      45.295  34.328  29.818  1.00  0.00     0.031 A 
ATOM     55  C   UNL A   1      40.405  33.355  34.747  1.00  0.00     0.031 A 
ATOM     56  C   UNL A   1      45.173  35.395  30.775  1.00  0.00     0.049 A 
ATOM     57  C   UNL A   1      41.306  34.565  34.746  1.00  0.00     0.074 A 
ATOM     58  C   UNL A   1      45.876  36.585  30.830  1.00  0.00     0.029 A 
ATOM     59  N   UNL A   1      44.299  35.395  31.852  1.00  0.00    -0.354 N 
ATOM     60  N   UNL A   1      42.240  34.900  33.885  1.00  0.00    -0.248 NA
ATOM     61  C   UNL A   1      41.129  35.528  35.842  1.00  0.00     0.031 C 
ATOM     62  C   UNL A   1      45.475  37.276  31.977  1.00  0.00     0.029 A 
ATOM     63  C   UNL A   1      44.466  36.552  32.594  1.00  0.00     0.049 A 
ATOM     64  H   UNL A   1      43.655  34.680  32.058  1.00  0.00     0.167 HD
ATOM     65  C   UNL A   1      42.734  36.127  34.319  1.00  0.00     0.074 A 
ATOM     66  C   UNL A   1      41.989  36.480  35.509  1.00  0.00     0.031 C 
ATOM     67  C   UNL A   1      43.715  36.894  33.777  1.00  0.00     0.031 A 
BRANCH  54  68
ATOM     68  C   UNL A   1      46.343  34.445  28.742  1.00  0.00    -0.014 A 
ATOM     69  C   UNL A   1      46.097  35.152  27.551  1.00  0.00     0.010 A 
ATOM     70  C   UNL A   1      47.610  33.864  28.941  1.00  0.00     0.010 A 
ATOM     71  C   UNL A   1      47.084  35.244  26.565  1.00  0.00     0.020 A 
ATOM     72  C   UNL A   1      48.610  33.983  27.973  1.00  0.00     0.020 A 
ATOM     73  C   UNL A   1      48.335  34.659  26.783  1.00  0.00     0.054 A 
BRANCH  73  74
ATOM     74  S   UNL A   1      49.605  34.818  25.498  1.00  0.00     0.124 S 
ATOM     75  O   UNL A   1      50.028  33.432  25.320  1.00  0.00    -0.237 OA
ATOM     76  O   UNL A   1      48.859  35.396  24.382  1.00  0.00    -0.237 OA
ATOM     77  O   UNL A   1      50.602  35.700  26.101  1.00  0.00    -0.744 OA
ENDBRANCH  73  74
ENDBRANCH  54  68
BRANCH  55  78
ATOM     78  C   UNL A   1      39.393  33.162  35.824  1.00  0.00    -0.014 A 
ATOM     79  C   UNL A   1      39.735  32.521  37.028  1.00  0.00     0.010 A 
ATOM     80  C   UNL A   1      38.072  33.614  35.647  1.00  0.00     0.010 A 
ATOM     81  C   UNL A   1      38.775  32.321  38.024  1.00  0.00     0.020 A 
ATOM     82  C   UNL A   1      37.117  33.447  36.653  1.00  0.00     0.020 A 
ATOM     83  C   UNL A   1      37.472  32.791  37.832  1.00  0.00     0.054 A 
BRANCH  83  84
ATOM     84  S   UNL A   1      36.259  32.567  39.163  1.00  0.00     0.124 S 
ATOM     85  O   UNL A   1      36.183  31.114  39.265  1.00  0.00    -0.237 OA
ATOM     86  O   UNL A   1      36.897  33.249  40.287  1.00  0.00    -0.237 OA
ATOM     87  O   UNL A   1      35.060  33.222  38.647  1.00  0.00    -0.744 OA
ENDBRANCH  83  84
ENDBRANCH  55  78
BRANCH  67  88
ATOM     88  C   UNL A   1      44.009  38.220  34.432  1.00  0.00    -0.014 A 
ATOM     89  C   UNL A   1      43.412  39.412  33.985  1.00  0.00     0.010 A 
ATOM     90  C   UNL A   1      44.853  38.259  35.559  1.00  0.00     0.010 A 
ATOM     91  C   UNL A   1      43.680  40.622  34.632  1.00  0.00     0.020 A 
ATOM     92  C   UNL A   1      45.096  39.461  36.228  1.00  0.00     0.020 A 
ATOM     93  C   UNL A   1      44.518  40.639  35.751  1.00  0.00     0.054 A 
BRANCH  93  94
ATOM     94  S   UNL A   1      44.812  42.214  36.600  1.00  0.00     0.124 S 
ATOM     95  O   UNL A   1      43.540  42.433  37.284  1.00  0.00    -0.237 OA
ATOM     96  O   UNL A   1      45.947  41.904  37.466  1.00  0.00    -0.237 OA
ATOM     97  O   UNL A   1      45.102  43.147  35.513  1.00  0.00    -0.744 OA
ENDBRANCH  93  94
ENDBRANCH  67  88
ENDBRANCH  41  42
ENDBRANCH  34  36
ENDBRANCH  33  34
ENDBRANCH  32  33
ENDBRANCH  31  32
ENDBRANCH  30  31
ENDBRANCH  29  30
ENDBRANCH  28  29
ENDBRANCH   1  28
TORSDOF 27
ENDMDL
MODEL 3
REMARK VINA RESULT:      -7.9      4.895      6.067
REMARK SMILES CCc1cc(/C=C/C(=O)OCCOCCOCCOCCOC(=O)c2ccc(-c3c4nc(c(-c5ccc(S(=O)(=O)[O-])cc5)c5ccc([nH]5)c(-c5ccc(S(=O)(=O)[O-])cc5)c5nc(c(-c6ccc(S(=O)(=O)[O-])cc6)c6ccc3[nH]6)C=C5)C=C4)cc2)cc(C(=O)c2ccccc2)c1
REMARK SMILES IDX 16 1 15 2 14 3 13 4 12 5 11 6 10 7 8 8 9 9 7 10 6 11 5 12
REMARK SMILES IDX 3 13 4 14 95 15 86 16 85 17 2 18 1 19 87 20 88 21 89 22
REMARK SMILES IDX 90 23 94 24 91 25 93 26 92 27 17 28 18 29 19 30 20 31 21 32
REMARK SMILES IDX 22 33 23 34 24 35 25 36 26 37 84 38 27 39 83 40 28 41 29 42
REMARK SMILES IDX 30 43 77 44 31 45 82 46 76 47 78 48 32 49 81 50 75 51 74 52
REMARK SMILES IDX 33 54 63 55 44 56 62 57 45 58 48 59 61 60 79 61 46 62 47 63
REMARK SMILES IDX 60 65 80 66 49 67 34 68 35 69 43 70 36 71 42 72 37 73 38 74
REMARK SMILES IDX 39 75 40 76 41 77 64 78 65 79 73 80 66 81 72 82 67 83 68 84
REMARK SMILES IDX 69 85 70 86 71 87 50 88 51 89 59 90 52 91 58 92 53 93 54 94
REMARK SMILES IDX 55 95 56 96 57 97
REMARK H PARENT 78 53 48 64
REMARK Flexibility Score: inf
ROOT
ATOM      1  O   UNL A   1      33.215  23.473  25.442  1.00  0.00    -0.377 OA
ENDROOT
BRANCH   1   2
ATOM      2  C   UNL A   1      33.583  23.161  24.110  1.00  0.00     0.188 C 
BRANCH   2   3
ATOM      3  C   UNL A   1      34.797  23.896  23.509  1.00  0.00     0.188 C 
BRANCH   3   4
ATOM      4  O   UNL A   1      34.464  24.796  22.472  1.00  0.00    -0.376 OA
BRANCH   4   5
ATOM      5  C   UNL A   1      33.332  25.638  22.583  1.00  0.00     0.202 C 
BRANCH   5   6
ATOM      6  C   UNL A   1      32.254  25.706  21.488  1.00  0.00     0.261 C 
BRANCH   6   7
ATOM      7  O   UNL A   1      30.901  25.855  21.925  1.00  0.00    -0.460 OA
BRANCH   7   8
ATOM      8  C   UNL A   1      30.666  25.796  23.252  1.00  0.00     0.330 C 
ATOM      9  O   UNL A   1      30.762  24.807  23.961  1.00  0.00    -0.247 OA
BRANCH   8  10
ATOM     10  C   UNL A   1      30.456  27.156  23.803  1.00  0.00     0.094 C 
ATOM     11  C   UNL A   1      30.377  28.274  23.061  1.00  0.00     0.015 C 
BRANCH  11  12
ATOM     12  C   UNL A   1      30.248  29.629  23.626  1.00  0.00    -0.024 A 
ATOM     13  C   UNL A   1      29.352  31.912  23.560  1.00  0.00    -0.047 A 
ATOM     14  C   UNL A   1      29.436  30.610  23.036  1.00  0.00     0.011 A 
ATOM     15  C   UNL A   1      30.089  32.211  24.712  1.00  0.00     0.016 A 
ATOM     16  C   UNL A   1      30.837  31.227  25.371  1.00  0.00     0.023 A 
ATOM     17  C   UNL A   1      30.913  29.939  24.819  1.00  0.00     0.020 A 
BRANCH  13  18
ATOM     18  C   UNL A   1      28.444  32.912  22.878  1.00  0.00     0.032 C 
ATOM     19  C   UNL A   1      27.922  32.531  21.496  1.00  0.00     0.009 C 
ENDBRANCH  13  18
BRANCH  16  20
ATOM     20  C   UNL A   1      31.609  31.515  26.617  1.00  0.00     0.193 C 
ATOM     21  O   UNL A   1      31.203  32.361  27.408  1.00  0.00    -0.289 OA
BRANCH  20  22
ATOM     22  C   UNL A   1      32.834  30.761  26.974  1.00  0.00     0.022 A 
ATOM     23  C   UNL A   1      33.910  31.477  27.511  1.00  0.00     0.012 A 
ATOM     24  C   UNL A   1      32.939  29.379  26.783  1.00  0.00     0.012 A 
ATOM     25  C   UNL A   1      35.066  30.805  27.909  1.00  0.00     0.001 A 
ATOM     26  C   UNL A   1      34.094  28.708  27.192  1.00  0.00     0.001 A 
ATOM     27  C   UNL A   1      35.152  29.420  27.761  1.00  0.00     0.000 A 
ENDBRANCH  20  22
ENDBRANCH  16  20
ENDBRANCH  11  12
ENDBRANCH   8  10
ENDBRANCH   7   8
ENDBRANCH   6   7
ENDBRANCH   5   6
ENDBRANCH   4   5
ENDBRANCH   3   4
ENDBRANCH   2   3
ENDBRANCH   1   2
BRANCH   1  28
ATOM     28  C   UNL A   1      33.789  22.753  26.533  1.00  0.00     0.188 C 
BRANCH  28  29
ATOM     29  C   UNL A   1      34.594  21.442  26.347  1.00  0.00     0.188 C 
BRANCH  29  30
ATOM     30  O   UNL A   1      35.996  21.613  26.210  1.00  0.00    -0.376 OA
BRANCH  30  31
ATOM     31  C   UNL A   1      36.511  22.930  26.284  1.00  0.00     0.202 C 
BRANCH  31  32
ATOM     32  C   UNL A   1      38.004  23.101  25.975  1.00  0.00     0.261 C 
BRANCH  32  33
ATOM     33  O   UNL A   1      38.822  21.937  26.160  1.00  0.00    -0.460 OA
BRANCH  33  34
ATOM     34  C   UNL A   1      40.148  22.139  26.310  1.00  0.00     0.338 C 
ATOM     35  O   UNL A   1      41.049  21.390  25.957  1.00  0.00    -0.246 OA
BRANCH  34  36
ATOM     36  C   UNL A   1      40.344  23.511  26.816  1.00  0.00     0.060 A 
ATOM     37  C   UNL A   1      40.277  24.585  25.921  1.00  0.00     0.016 A 
ATOM     38  C   UNL A   1      40.598  23.731  28.172  1.00  0.00     0.016 A 
ATOM     39  C   UNL A   1      40.514  25.884  26.373  1.00  0.00     0.010 A 
ATOM     40  C   UNL A   1      40.851  25.030  28.620  1.00  0.00     0.010 A 
ATOM     41  C   UNL A   1      40.851  26.105  27.714  1.00  0.00    -0.014 A 
BRANCH  41  42
ATOM     42  C   UNL A   1      41.408  27.417  28.128  1.00  0.00     0.031 A 
ATOM     43  C   UNL A   1      42.897  27.620  28.028  1.00  0.00     0.074 A 
ATOM     44  C   UNL A   1      40.615  28.412  28.564  1.00  0.00     0.049 A 
ATOM     45  N   UNL A   1      43.618  28.656  28.368  1.00  0.00    -0.248 NA
ATOM     46  C   UNL A   1      43.676  26.500  27.473  1.00  0.00     0.031 C 
ATOM     47  C   UNL A   1      39.158  28.354  28.662  1.00  0.00     0.029 A 
ATOM     48  N   UNL A   1      40.934  29.670  29.012  1.00  0.00    -0.354 N 
ATOM     49  C   UNL A   1      44.933  28.309  28.080  1.00  0.00     0.074 A 
ATOM     50  C   UNL A   1      44.915  26.956  27.568  1.00  0.00     0.031 C 
ATOM     51  C   UNL A   1      38.708  29.525  29.148  1.00  0.00     0.029 A 
ATOM     52  C   UNL A   1      39.845  30.398  29.431  1.00  0.00     0.049 A 
ATOM     53  H   UNL A   1      41.855  30.017  29.033  1.00  0.00     0.167 HD
ATOM     54  C   UNL A   1      46.057  29.051  28.223  1.00  0.00     0.031 A 
ATOM     55  C   UNL A   1      39.780  31.620  29.998  1.00  0.00     0.031 A 
ATOM     56  C   UNL A   1      46.071  30.391  28.747  1.00  0.00     0.049 A 
ATOM     57  C   UNL A   1      41.052  32.399  30.223  1.00  0.00     0.074 A 
ATOM     58  C   UNL A   1      47.155  31.234  28.919  1.00  0.00     0.029 A 
ATOM     59  N   UNL A   1      44.953  31.079  29.192  1.00  0.00    -0.354 N 
ATOM     60  N   UNL A   1      42.287  32.069  29.922  1.00  0.00    -0.248 NA
ATOM     61  C   UNL A   1      40.921  33.720  30.854  1.00  0.00     0.031 C 
ATOM     62  C   UNL A   1      46.701  32.406  29.531  1.00  0.00     0.029 A 
ATOM     63  C   UNL A   1      45.323  32.325  29.668  1.00  0.00     0.049 A 
ATOM     64  H   UNL A   1      44.032  30.733  29.174  1.00  0.00     0.167 HD
ATOM     65  C   UNL A   1      43.072  33.156  30.295  1.00  0.00     0.074 A 
ATOM     66  C   UNL A   1      42.173  34.156  30.832  1.00  0.00     0.031 C 
ATOM     67  C   UNL A   1      44.417  33.314  30.198  1.00  0.00     0.031 A 
BRANCH  54  68
ATOM     68  C   UNL A   1      47.368  28.413  27.845  1.00  0.00    -0.014 A 
ATOM     69  C   UNL A   1      47.744  28.251  26.499  1.00  0.00     0.010 A 
ATOM     70  C   UNL A   1      48.256  27.999  28.856  1.00  0.00     0.010 A 
ATOM     71  C   UNL A   1      48.965  27.654  26.172  1.00  0.00     0.020 A 
ATOM     72  C   UNL A   1      49.491  27.432  28.533  1.00  0.00     0.020 A 
ATOM     73  C   UNL A   1      49.831  27.248  27.191  1.00  0.00     0.054 A 
BRANCH  73  74
ATOM     74  S   UNL A   1      51.419  26.501  26.737  1.00  0.00     0.124 S 
ATOM     75  O   UNL A   1      51.485  26.781  25.305  1.00  0.00    -0.237 OA
ATOM     76  O   UNL A   1      52.369  27.241  27.565  1.00  0.00    -0.237 OA
ATOM     77  O   UNL A   1      51.256  25.092  27.088  1.00  0.00    -0.744 OA
ENDBRANCH  73  74
ENDBRANCH  54  68
BRANCH  55  78
ATOM     78  C   UNL A   1      38.461  32.181  30.411  1.00  0.00    -0.014 A 
ATOM     79  C   UNL A   1      37.839  31.757  31.599  1.00  0.00     0.010 A 
ATOM     80  C   UNL A   1      37.816  33.141  29.611  1.00  0.00     0.010 A 
ATOM     81  C   UNL A   1      36.591  32.270  31.968  1.00  0.00     0.020 A 
ATOM     82  C   UNL A   1      36.585  33.681  29.992  1.00  0.00     0.020 A 
ATOM     83  C   UNL A   1      35.975  33.233  31.165  1.00  0.00     0.054 A 
BRANCH  83  84
ATOM     84  S   UNL A   1      34.382  33.922  31.695  1.00  0.00     0.124 S 
ATOM     85  O   UNL A   1      33.683  34.088  30.424  1.00  0.00    -0.237 OA
ATOM     86  O   UNL A   1      33.863  32.874  32.571  1.00  0.00    -0.237 OA
ATOM     87  O   UNL A   1      34.752  35.162  32.371  1.00  0.00    -0.744 OA
ENDBRANCH  83  84
ENDBRANCH  55  78
BRANCH  67  88
ATOM     88  C   UNL A   1      45.001  34.634  30.633  1.00  0.00    -0.014 A 
ATOM     89  C   UNL A   1      44.950  35.771  29.807  1.00  0.00     0.010 A 
ATOM     90  C   UNL A   1      45.554  34.751  31.922  1.00  0.00     0.010 A 
ATOM     91  C   UNL A   1      45.472  36.990  30.250  1.00  0.00     0.020 A 
ATOM     92  C   UNL A   1      46.045  35.975  32.381  1.00  0.00     0.020 A 
ATOM     93  C   UNL A   1      46.014  37.085  31.535  1.00  0.00     0.054 A 
BRANCH  93  94
ATOM     94  S   UNL A   1      46.642  38.690  32.102  1.00  0.00     0.124 S 
ATOM     95  O   UNL A   1      46.099  39.601  31.098  1.00  0.00    -0.237 OA
ATOM     96  O   UNL A   1      46.061  38.807  33.437  1.00  0.00    -0.237 OA
ATOM     97  O   UNL A   1      48.093  38.526  32.073  1.00  0.00    -0.744 OA
ENDBRANCH  93  94
ENDBRANCH  67  88
ENDBRANCH  41  42
ENDBRANCH  34  36
ENDBRANCH  33  34
ENDBRANCH  32  33
ENDBRANCH  31  32
ENDBRANCH  30  31
ENDBRANCH  29  30
ENDBRANCH  28  29
ENDBRANCH   1  28
TORSDOF 27
ENDMDL
