MODEL 1
REMARK VINA RESULT:      -6.2      0.000      0.000
REMARK SMILES O=C(C[NH+]1CCOCC1)Nc1nnc(SCC(=O)OCCOCCOCCOCCOC(=O)c2ccc(-c3c4nc(c(-c5ccc(S(=O)(=O)[O-])cc5)c5ccc([nH]5)c(-c5ccc(S(=O)(=O)[O-])cc5)c5nc(c(-c6ccc(S(=O)(=O)[O-])cc6)c6ccc3[nH]6)C=C5)C=C4)cc2)s1
REMARK SMILES IDX 24 1 23 2 22 3 21 4 20 5 19 6 17 7 18 8 16 9 15 10 14 11
REMARK SMILES IDX 11 12 12 13 94 14 13 15 10 16 1 17 2 18 3 20 4 21 5 22 9 23
REMARK SMILES IDX 6 25 8 26 7 27 25 28 26 29 27 30 28 31 29 32 30 33 31 34
REMARK SMILES IDX 32 35 33 36 34 37 35 38 93 39 36 40 92 41 37 42 38 43 39 44
REMARK SMILES IDX 86 45 40 46 91 47 85 48 87 49 41 50 90 51 84 52 83 53 42 55
REMARK SMILES IDX 72 56 53 57 71 58 54 59 57 60 70 61 88 62 55 63 56 64 69 66
REMARK SMILES IDX 89 67 58 68 43 69 44 70 52 71 45 72 51 73 46 74 47 75 48 76
REMARK SMILES IDX 49 77 50 78 73 79 74 80 82 81 75 82 81 83 76 84 77 85 78 86
REMARK SMILES IDX 79 87 80 88 59 89 60 90 68 91 61 92 67 93 62 94 63 95 64 96
REMARK SMILES IDX 65 97 66 98
REMARK H PARENT 10 19 4 24 87 54 57 65
REMARK Flexibility Score: inf
ROOT
ATOM      1  C   UNL A   1      41.464  27.497  25.831  1.00  0.00     0.188 C 
ENDROOT
BRANCH   1   2
ATOM      2  C   UNL A   1      40.868  27.986  27.149  1.00  0.00     0.188 C 
BRANCH   2   3
ATOM      3  O   UNL A   1      39.566  27.607  27.532  1.00  0.00    -0.376 OA
BRANCH   3   4
ATOM      4  C   UNL A   1      38.877  28.415  28.471  1.00  0.00     0.202 C 
BRANCH   4   5
ATOM      5  C   UNL A   1      38.531  29.875  28.099  1.00  0.00     0.261 C 
BRANCH   5   6
ATOM      6  O   UNL A   1      37.545  30.575  28.915  1.00  0.00    -0.463 OA
BRANCH   6   7
ATOM      7  C   UNL A   1      36.406  30.986  28.303  1.00  0.00     0.316 C 
ATOM      8  O   UNL A   1      36.260  32.128  27.864  1.00  0.00    -0.251 OA
BRANCH   7   9
ATOM      9  C   UNL A   1      35.247  29.996  28.215  1.00  0.00     0.200 C 
BRANCH   9  10
ATOM     10  S   UNL A   1      34.991  28.962  26.763  1.00  0.00    -0.082 SA
BRANCH  10  11
ATOM     11  C   UNL A   1      33.278  28.977  26.301  1.00  0.00     0.176 A 
ATOM     12  C   UNL A   1      31.222  29.142  25.080  1.00  0.00     0.213 A 
ATOM     13  N   UNL A   1      31.418  27.932  25.554  1.00  0.00    -0.119 NA
ATOM     14  S   UNL A   1      32.310  30.295  25.745  1.00  0.00    -0.068 S 
ATOM     15  N   UNL A   1      32.633  27.827  26.216  1.00  0.00    -0.130 NA
BRANCH  12  16
ATOM     16  N   UNL A   1      30.270  29.392  24.095  1.00  0.00    -0.296 N 
ATOM     17  O   UNL A   1      31.050  27.966  22.498  1.00  0.00    -0.268 OA
ATOM     18  C   UNL A   1      30.150  28.708  22.913  1.00  0.00     0.281 C 
ATOM     19  H   UNL A   1      29.630  30.122  24.260  1.00  0.00     0.172 HD
BRANCH  18  20
ATOM     20  C   UNL A   1      28.898  28.852  22.006  1.00  0.00     0.364 C 
BRANCH  20  21
ATOM     21  N   UNL A   1      27.951  29.977  21.957  1.00  0.00    -0.323 N 
ATOM     22  C   UNL A   1      28.045  31.144  21.101  1.00  0.00     0.291 C 
ATOM     23  C   UNL A   1      27.305  30.335  23.242  1.00  0.00     0.291 C 
ATOM     24  H   UNL A   1      27.395  29.399  21.326  1.00  0.00     0.348 HD
ATOM     25  C   UNL A   1      28.766  32.278  21.824  1.00  0.00     0.221 C 
ATOM     26  C   UNL A   1      27.991  31.520  23.933  1.00  0.00     0.221 C 
ATOM     27  O   UNL A   1      28.094  32.637  23.034  1.00  0.00    -0.370 OA
ENDBRANCH  20  21
ENDBRANCH  18  20
ENDBRANCH  12  16
ENDBRANCH  10  11
ENDBRANCH   9  10
ENDBRANCH   7   9
ENDBRANCH   6   7
ENDBRANCH   5   6
ENDBRANCH   4   5
ENDBRANCH   3   4
ENDBRANCH   2   3
ENDBRANCH   1   2
BRANCH   1  28
ATOM     28  O   UNL A   1      41.479  26.125  25.497  1.00  0.00    -0.377 OA
BRANCH  28  29
ATOM     29  C   UNL A   1      42.401  25.248  26.131  1.00  0.00     0.188 C 
BRANCH  29  30
ATOM     30  C   UNL A   1      41.808  23.956  26.677  1.00  0.00     0.188 C 
BRANCH  30  31
ATOM     31  O   UNL A   1      41.975  22.777  25.883  1.00  0.00    -0.376 OA
BRANCH  31  32
ATOM     32  C   UNL A   1      43.049  22.684  24.951  1.00  0.00     0.202 C 
BRANCH  32  33
ATOM     33  C   UNL A   1      44.003  21.539  25.229  1.00  0.00     0.261 C 
BRANCH  33  34
ATOM     34  O   UNL A   1      44.915  21.933  26.223  1.00  0.00    -0.460 OA
BRANCH  34  35
ATOM     35  C   UNL A   1      45.943  22.670  25.741  1.00  0.00     0.338 C 
ATOM     36  O   UNL A   1      46.607  22.534  24.729  1.00  0.00    -0.246 OA
BRANCH  35  37
ATOM     37  C   UNL A   1      45.972  23.823  26.614  1.00  0.00     0.060 A 
ATOM     38  C   UNL A   1      46.499  25.020  26.124  1.00  0.00     0.016 A 
ATOM     39  C   UNL A   1      45.412  23.693  27.887  1.00  0.00     0.016 A 
ATOM     40  C   UNL A   1      46.511  26.114  26.958  1.00  0.00     0.010 A 
ATOM     41  C   UNL A   1      45.417  24.783  28.718  1.00  0.00     0.010 A 
ATOM     42  C   UNL A   1      46.021  25.960  28.261  1.00  0.00    -0.014 A 
BRANCH  42  43
ATOM     43  C   UNL A   1      46.385  26.946  29.266  1.00  0.00     0.031 A 
ATOM     44  C   UNL A   1      47.694  26.740  29.958  1.00  0.00     0.074 A 
ATOM     45  C   UNL A   1      45.527  27.935  29.532  1.00  0.00     0.049 A 
ATOM     46  N   UNL A   1      48.207  27.409  30.947  1.00  0.00    -0.248 NA
ATOM     47  C   UNL A   1      48.532  25.616  29.485  1.00  0.00     0.031 C 
ATOM     48  C   UNL A   1      44.248  28.152  28.851  1.00  0.00     0.029 A 
ATOM     49  N   UNL A   1      45.598  28.927  30.458  1.00  0.00    -0.354 N 
ATOM     50  C   UNL A   1      49.414  26.782  31.225  1.00  0.00     0.074 A 
ATOM     51  C   UNL A   1      49.551  25.663  30.328  1.00  0.00     0.031 C 
ATOM     52  C   UNL A   1      43.645  29.219  29.400  1.00  0.00     0.029 A 
ATOM     53  C   UNL A   1      44.478  29.716  30.488  1.00  0.00     0.049 A 
ATOM     54  H   UNL A   1      46.374  29.065  31.047  1.00  0.00     0.167 HD
ATOM     55  C   UNL A   1      50.320  27.130  32.163  1.00  0.00     0.031 A 
ATOM     56  C   UNL A   1      44.171  30.707  31.340  1.00  0.00     0.031 A 
ATOM     57  C   UNL A   1      50.118  28.245  33.043  1.00  0.00     0.049 A 
ATOM     58  C   UNL A   1      45.184  31.048  32.397  1.00  0.00     0.074 A 
ATOM     59  C   UNL A   1      50.959  28.733  34.022  1.00  0.00     0.029 A 
ATOM     60  N   UNL A   1      48.979  29.040  33.047  1.00  0.00    -0.354 N 
ATOM     61  N   UNL A   1      46.349  30.486  32.634  1.00  0.00    -0.248 NA
ATOM     62  C   UNL A   1      44.855  32.160  33.292  1.00  0.00     0.031 C 
ATOM     63  C   UNL A   1      50.298  29.784  34.664  1.00  0.00     0.029 A 
ATOM     64  C   UNL A   1      49.079  30.001  34.033  1.00  0.00     0.049 A 
ATOM     65  H   UNL A   1      48.213  28.935  32.437  1.00  0.00     0.167 HD
ATOM     66  C   UNL A   1      46.908  31.195  33.688  1.00  0.00     0.074 A 
ATOM     67  C   UNL A   1      45.956  32.238  34.027  1.00  0.00     0.031 C 
ATOM     68  C   UNL A   1      48.093  31.013  34.322  1.00  0.00     0.031 A 
BRANCH  55  69
ATOM     69  C   UNL A   1      51.552  26.282  32.302  1.00  0.00    -0.014 A 
ATOM     70  C   UNL A   1      51.558  25.115  33.089  1.00  0.00     0.010 A 
ATOM     71  C   UNL A   1      52.719  26.643  31.604  1.00  0.00     0.010 A 
ATOM     72  C   UNL A   1      52.712  24.332  33.183  1.00  0.00     0.020 A 
ATOM     73  C   UNL A   1      53.864  25.848  31.673  1.00  0.00     0.020 A 
ATOM     74  C   UNL A   1      53.855  24.699  32.466  1.00  0.00     0.054 A 
BRANCH  74  75
ATOM     75  S   UNL A   1      55.314  23.624  32.548  1.00  0.00     0.124 S 
ATOM     76  O   UNL A   1      56.237  24.426  33.348  1.00  0.00    -0.237 OA
ATOM     77  O   UNL A   1      54.790  22.430  33.205  1.00  0.00    -0.237 OA
ATOM     78  O   UNL A   1      55.694  23.447  31.149  1.00  0.00    -0.744 OA
ENDBRANCH  74  75
ENDBRANCH  55  69
BRANCH  56  79
ATOM     79  C   UNL A   1      42.866  31.403  31.228  1.00  0.00    -0.014 A 
ATOM     80  C   UNL A   1      42.718  32.526  30.397  1.00  0.00     0.010 A 
ATOM     81  C   UNL A   1      41.747  30.924  31.937  1.00  0.00     0.010 A 
ATOM     82  C   UNL A   1      41.485  33.177  30.303  1.00  0.00     0.020 A 
ATOM     83  C   UNL A   1      40.505  31.552  31.821  1.00  0.00     0.020 A 
ATOM     84  C   UNL A   1      40.387  32.686  31.017  1.00  0.00     0.054 A 
BRANCH  84  85
ATOM     85  S   UNL A   1      38.794  33.538  30.863  1.00  0.00     0.124 S 
ATOM     86  O   UNL A   1      38.717  33.778  29.426  1.00  0.00    -0.237 OA
ATOM     87  O   UNL A   1      37.858  32.549  31.392  1.00  0.00    -0.237 OA
ATOM     88  O   UNL A   1      38.962  34.731  31.689  1.00  0.00    -0.744 OA
ENDBRANCH  84  85
ENDBRANCH  56  79
BRANCH  68  89
ATOM     89  C   UNL A   1      48.433  31.991  35.411  1.00  0.00    -0.014 A 
ATOM     90  C   UNL A   1      48.102  31.732  36.751  1.00  0.00     0.010 A 
ATOM     91  C   UNL A   1      49.156  33.153  35.085  1.00  0.00     0.010 A 
ATOM     92  C   UNL A   1      48.456  32.643  37.746  1.00  0.00     0.020 A 
ATOM     93  C   UNL A   1      49.545  34.046  36.083  1.00  0.00     0.020 A 
ATOM     94  C   UNL A   1      49.178  33.791  37.405  1.00  0.00     0.054 A 
BRANCH  94  95
ATOM     95  S   UNL A   1      49.665  34.934  38.723  1.00  0.00     0.124 S 
ATOM     96  O   UNL A   1      51.055  35.222  38.374  1.00  0.00    -0.237 OA
ATOM     97  O   UNL A   1      48.729  36.041  38.547  1.00  0.00    -0.237 OA
ATOM     98  O   UNL A   1      49.478  34.155  39.945  1.00  0.00    -0.744 OA
ENDBRANCH  94  95
ENDBRANCH  68  89
ENDBRANCH  42  43
ENDBRANCH  35  37
ENDBRANCH  34  35
ENDBRANCH  33  34
ENDBRANCH  32  33
ENDBRANCH  31  32
ENDBRANCH  30  31
ENDBRANCH  29  30
ENDBRANCH  28  29
ENDBRANCH   1  28
TORSDOF 28
ENDMDL
MODEL 2
REMARK VINA RESULT:      -6.1      5.757     10.962
REMARK SMILES O=C(C[NH+]1CCOCC1)Nc1nnc(SCC(=O)OCCOCCOCCOCCOC(=O)c2ccc(-c3c4nc(c(-c5ccc(S(=O)(=O)[O-])cc5)c5ccc([nH]5)c(-c5ccc(S(=O)(=O)[O-])cc5)c5nc(c(-c6ccc(S(=O)(=O)[O-])cc6)c6ccc3[nH]6)C=C5)C=C4)cc2)s1
REMARK SMILES IDX 24 1 23 2 22 3 21 4 20 5 19 6 17 7 18 8 16 9 15 10 14 11
REMARK SMILES IDX 11 12 12 13 94 14 13 15 10 16 1 17 2 18 3 20 4 21 5 22 9 23
REMARK SMILES IDX 6 25 8 26 7 27 25 28 26 29 27 30 28 31 29 32 30 33 31 34
REMARK SMILES IDX 32 35 33 36 34 37 35 38 93 39 36 40 92 41 37 42 38 43 39 44
REMARK SMILES IDX 86 45 40 46 91 47 85 48 87 49 41 50 90 51 84 52 83 53 42 55
REMARK SMILES IDX 72 56 53 57 71 58 54 59 57 60 70 61 88 62 55 63 56 64 69 66
REMARK SMILES IDX 89 67 58 68 43 69 44 70 52 71 45 72 51 73 46 74 47 75 48 76
REMARK SMILES IDX 49 77 50 78 73 79 74 80 82 81 75 82 81 83 76 84 77 85 78 86
REMARK SMILES IDX 79 87 80 88 59 89 60 90 68 91 61 92 67 93 62 94 63 95 64 96
REMARK SMILES IDX 65 97 66 98
REMARK H PARENT 10 19 4 24 87 54 57 65
REMARK Flexibility Score: inf
ROOT
ATOM      1  C   UNL A   1      39.227  28.412  28.357  1.00  0.00     0.188 C 
ENDROOT
BRANCH   1   2
ATOM      2  C   UNL A   1      40.665  28.033  28.010  1.00  0.00     0.188 C 
BRANCH   2   3
ATOM      3  O   UNL A   1      40.931  27.012  27.076  1.00  0.00    -0.376 OA
BRANCH   3   4
ATOM      4  C   UNL A   1      42.103  26.233  27.244  1.00  0.00     0.202 C 
BRANCH   4   5
ATOM      5  C   UNL A   1      42.402  25.094  26.242  1.00  0.00     0.261 C 
BRANCH   5   6
ATOM      6  O   UNL A   1      42.945  23.846  26.765  1.00  0.00    -0.463 OA
BRANCH   6   7
ATOM      7  C   UNL A   1      42.613  22.700  26.118  1.00  0.00     0.316 C 
ATOM      8  O   UNL A   1      42.698  22.576  24.895  1.00  0.00    -0.251 OA
BRANCH   7   9
ATOM      9  C   UNL A   1      42.056  21.547  26.951  1.00  0.00     0.200 C 
BRANCH   9  10
ATOM     10  S   UNL A   1      40.531  20.703  26.501  1.00  0.00    -0.082 SA
BRANCH  10  11
ATOM     11  C   UNL A   1      39.268  21.891  26.126  1.00  0.00     0.176 A 
ATOM     12  C   UNL A   1      37.222  23.139  26.068  1.00  0.00     0.213 A 
ATOM     13  N   UNL A   1      38.229  23.865  26.500  1.00  0.00    -0.119 NA
ATOM     14  S   UNL A   1      37.730  21.649  25.377  1.00  0.00    -0.068 S 
ATOM     15  N   UNL A   1      39.401  23.125  26.581  1.00  0.00    -0.130 NA
BRANCH  12  16
ATOM     16  N   UNL A   1      35.902  23.550  26.241  1.00  0.00    -0.296 N 
ATOM     17  O   UNL A   1      35.401  24.004  24.065  1.00  0.00    -0.268 OA
ATOM     18  C   UNL A   1      35.020  23.836  25.231  1.00  0.00     0.281 C 
ATOM     19  H   UNL A   1      35.576  23.644  27.165  1.00  0.00     0.172 HD
BRANCH  18  20
ATOM     20  C   UNL A   1      33.499  24.004  25.494  1.00  0.00     0.364 C 
BRANCH  20  21
ATOM     21  N   UNL A   1      32.392  23.290  24.841  1.00  0.00    -0.323 N 
ATOM     22  C   UNL A   1      31.955  21.935  25.124  1.00  0.00     0.291 C 
ATOM     23  C   UNL A   1      32.170  23.610  23.411  1.00  0.00     0.291 C 
ATOM     24  H   UNL A   1      31.778  23.763  25.504  1.00  0.00     0.348 HD
ATOM     25  C   UNL A   1      32.643  20.947  24.187  1.00  0.00     0.221 C 
ATOM     26  C   UNL A   1      32.804  22.577  22.472  1.00  0.00     0.221 C 
ATOM     27  O   UNL A   1      32.370  21.250  22.816  1.00  0.00    -0.370 OA
ENDBRANCH  20  21
ENDBRANCH  18  20
ENDBRANCH  12  16
ENDBRANCH  10  11
ENDBRANCH   9  10
ENDBRANCH   7   9
ENDBRANCH   6   7
ENDBRANCH   5   6
ENDBRANCH   4   5
ENDBRANCH   3   4
ENDBRANCH   2   3
ENDBRANCH   1   2
BRANCH   1  28
ATOM     28  O   UNL A   1      38.899  28.973  29.611  1.00  0.00    -0.377 OA
BRANCH  28  29
ATOM     29  C   UNL A   1      38.428  28.140  30.663  1.00  0.00     0.188 C 
BRANCH  29  30
ATOM     30  C   UNL A   1      37.775  28.865  31.832  1.00  0.00     0.188 C 
BRANCH  30  31
ATOM     31  O   UNL A   1      37.827  30.296  31.821  1.00  0.00    -0.376 OA
BRANCH  31  32
ATOM     32  C   UNL A   1      37.316  31.042  32.921  1.00  0.00     0.202 C 
BRANCH  32  33
ATOM     33  C   UNL A   1      36.100  31.881  32.578  1.00  0.00     0.261 C 
BRANCH  33  34
ATOM     34  O   UNL A   1      36.441  32.786  31.557  1.00  0.00    -0.460 OA
BRANCH  34  35
ATOM     35  C   UNL A   1      36.856  33.985  32.024  1.00  0.00     0.338 C 
ATOM     36  O   UNL A   1      36.306  34.778  32.769  1.00  0.00    -0.246 OA
BRANCH  35  37
ATOM     37  C   UNL A   1      38.235  34.058  31.595  1.00  0.00     0.060 A 
ATOM     38  C   UNL A   1      38.529  33.844  30.246  1.00  0.00     0.016 A 
ATOM     39  C   UNL A   1      39.199  34.401  32.547  1.00  0.00     0.016 A 
ATOM     40  C   UNL A   1      39.842  33.927  29.847  1.00  0.00     0.010 A 
ATOM     41  C   UNL A   1      40.507  34.491  32.150  1.00  0.00     0.010 A 
ATOM     42  C   UNL A   1      40.816  34.194  30.818  1.00  0.00    -0.014 A 
BRANCH  42  43
ATOM     43  C   UNL A   1      42.206  33.890  30.516  1.00  0.00     0.031 A 
ATOM     44  C   UNL A   1      42.977  34.946  29.794  1.00  0.00     0.074 A 
ATOM     45  C   UNL A   1      42.688  32.692  30.862  1.00  0.00     0.049 A 
ATOM     46  N   UNL A   1      44.190  34.894  29.326  1.00  0.00    -0.248 NA
ATOM     47  C   UNL A   1      42.286  36.230  29.547  1.00  0.00     0.031 C 
ATOM     48  C   UNL A   1      41.943  31.655  31.581  1.00  0.00     0.029 A 
ATOM     49  N   UNL A   1      43.911  32.145  30.636  1.00  0.00    -0.354 N 
ATOM     50  C   UNL A   1      44.399  36.124  28.719  1.00  0.00     0.074 A 
ATOM     51  C   UNL A   1      43.188  36.896  28.846  1.00  0.00     0.031 C 
ATOM     52  C   UNL A   1      42.735  30.581  31.727  1.00  0.00     0.029 A 
ATOM     53  C   UNL A   1      44.011  30.851  31.074  1.00  0.00     0.049 A 
ATOM     54  H   UNL A   1      44.651  32.629  30.202  1.00  0.00     0.167 HD
ATOM     55  C   UNL A   1      45.523  36.554  28.107  1.00  0.00     0.031 A 
ATOM     56  C   UNL A   1      45.027  29.987  30.918  1.00  0.00     0.031 A 
ATOM     57  C   UNL A   1      46.693  35.732  27.994  1.00  0.00     0.049 A 
ATOM     58  C   UNL A   1      46.252  30.482  30.201  1.00  0.00     0.074 A 
ATOM     59  C   UNL A   1      47.913  36.041  27.428  1.00  0.00     0.029 A 
ATOM     60  N   UNL A   1      46.776  34.424  28.458  1.00  0.00    -0.354 N 
ATOM     61  N   UNL A   1      46.471  31.663  29.665  1.00  0.00    -0.248 NA
ATOM     62  C   UNL A   1      47.368  29.543  30.077  1.00  0.00     0.031 C 
ATOM     63  C   UNL A   1      48.711  34.896  27.489  1.00  0.00     0.029 A 
ATOM     64  C   UNL A   1      48.018  33.899  28.164  1.00  0.00     0.049 A 
ATOM     65  H   UNL A   1      46.056  33.943  28.927  1.00  0.00     0.167 HD
ATOM     66  C   UNL A   1      47.765  31.619  29.164  1.00  0.00     0.074 A 
ATOM     67  C   UNL A   1      48.280  30.299  29.480  1.00  0.00     0.031 C 
ATOM     68  C   UNL A   1      48.471  32.573  28.506  1.00  0.00     0.031 A 
BRANCH  55  69
ATOM     69  C   UNL A   1      45.511  37.925  27.493  1.00  0.00    -0.014 A 
ATOM     70  C   UNL A   1      44.455  38.353  26.667  1.00  0.00     0.010 A 
ATOM     71  C   UNL A   1      46.564  38.815  27.774  1.00  0.00     0.010 A 
ATOM     72  C   UNL A   1      44.458  39.643  26.127  1.00  0.00     0.020 A 
ATOM     73  C   UNL A   1      46.556  40.112  27.259  1.00  0.00     0.020 A 
ATOM     74  C   UNL A   1      45.506  40.517  26.435  1.00  0.00     0.054 A 
BRANCH  74  75
ATOM     75  S   UNL A   1      45.446  42.207  25.779  1.00  0.00     0.124 S 
ATOM     76  O   UNL A   1      46.845  42.618  25.873  1.00  0.00    -0.237 OA
ATOM     77  O   UNL A   1      44.942  42.003  24.424  1.00  0.00    -0.237 OA
ATOM     78  O   UNL A   1      44.532  42.898  26.684  1.00  0.00    -0.744 OA
ENDBRANCH  74  75
ENDBRANCH  55  69
BRANCH  56  79
ATOM     79  C   UNL A   1      44.904  28.599  31.428  1.00  0.00    -0.014 A 
ATOM     80  C   UNL A   1      45.347  28.264  32.718  1.00  0.00     0.010 A 
ATOM     81  C   UNL A   1      44.312  27.603  30.627  1.00  0.00     0.010 A 
ATOM     82  C   UNL A   1      45.231  26.953  33.186  1.00  0.00     0.020 A 
ATOM     83  C   UNL A   1      44.165  26.298  31.103  1.00  0.00     0.020 A 
ATOM     84  C   UNL A   1      44.642  25.978  32.374  1.00  0.00     0.054 A 
BRANCH  84  85
ATOM     85  S   UNL A   1      44.487  24.288  33.013  1.00  0.00     0.124 S 
ATOM     86  O   UNL A   1      44.153  23.538  31.807  1.00  0.00    -0.237 OA
ATOM     87  O   UNL A   1      45.815  24.040  33.567  1.00  0.00    -0.237 OA
ATOM     88  O   UNL A   1      43.417  24.393  34.002  1.00  0.00    -0.744 OA
ENDBRANCH  84  85
ENDBRANCH  56  79
BRANCH  68  89
ATOM     89  C   UNL A   1      49.884  32.228  28.130  1.00  0.00    -0.014 A 
ATOM     90  C   UNL A   1      50.188  31.669  26.878  1.00  0.00     0.010 A 
ATOM     91  C   UNL A   1      50.924  32.533  29.026  1.00  0.00     0.010 A 
ATOM     92  C   UNL A   1      51.512  31.386  26.543  1.00  0.00     0.020 A 
ATOM     93  C   UNL A   1      52.251  32.287  28.679  1.00  0.00     0.020 A 
ATOM     94  C   UNL A   1      52.534  31.700  27.445  1.00  0.00     0.054 A 
BRANCH  94  95
ATOM     95  S   UNL A   1      54.248  31.365  26.965  1.00  0.00     0.124 S 
ATOM     96  O   UNL A   1      54.461  30.030  27.519  1.00  0.00    -0.237 OA
ATOM     97  O   UNL A   1      54.190  31.439  25.507  1.00  0.00    -0.237 OA
ATOM     98  O   UNL A   1      55.005  32.436  27.608  1.00  0.00    -0.744 OA
ENDBRANCH  94  95
ENDBRANCH  68  89
ENDBRANCH  42  43
ENDBRANCH  35  37
ENDBRANCH  34  35
ENDBRANCH  33  34
ENDBRANCH  32  33
ENDBRANCH  31  32
ENDBRANCH  30  31
ENDBRANCH  29  30
ENDBRANCH  28  29
ENDBRANCH   1  28
TORSDOF 28
ENDMDL
MODEL 3
REMARK VINA RESULT:      -6.1      5.937     12.918
REMARK SMILES O=C(C[NH+]1CCOCC1)Nc1nnc(SCC(=O)OCCOCCOCCOCCOC(=O)c2ccc(-c3c4nc(c(-c5ccc(S(=O)(=O)[O-])cc5)c5ccc([nH]5)c(-c5ccc(S(=O)(=O)[O-])cc5)c5nc(c(-c6ccc(S(=O)(=O)[O-])cc6)c6ccc3[nH]6)C=C5)C=C4)cc2)s1
REMARK SMILES IDX 24 1 23 2 22 3 21 4 20 5 19 6 17 7 18 8 16 9 15 10 14 11
REMARK SMILES IDX 11 12 12 13 94 14 13 15 10 16 1 17 2 18 3 20 4 21 5 22 9 23
REMARK SMILES IDX 6 25 8 26 7 27 25 28 26 29 27 30 28 31 29 32 30 33 31 34
REMARK SMILES IDX 32 35 33 36 34 37 35 38 93 39 36 40 92 41 37 42 38 43 39 44
REMARK SMILES IDX 86 45 40 46 91 47 85 48 87 49 41 50 90 51 84 52 83 53 42 55
REMARK SMILES IDX 72 56 53 57 71 58 54 59 57 60 70 61 88 62 55 63 56 64 69 66
REMARK SMILES IDX 89 67 58 68 43 69 44 70 52 71 45 72 51 73 46 74 47 75 48 76
REMARK SMILES IDX 49 77 50 78 73 79 74 80 82 81 75 82 81 83 76 84 77 85 78 86
REMARK SMILES IDX 79 87 80 88 59 89 60 90 68 91 61 92 67 93 62 94 63 95 64 96
REMARK SMILES IDX 65 97 66 98
REMARK H PARENT 10 19 4 24 87 54 57 65
REMARK Flexibility Score: inf
ROOT
ATOM      1  C   UNL A   1      55.604  32.977  30.008  1.00  0.00     0.188 C 
ENDROOT
BRANCH   1   2
ATOM      2  C   UNL A   1      55.233  33.510  31.391  1.00  0.00     0.188 C 
BRANCH   2   3
ATOM      3  O   UNL A   1      54.339  32.800  32.216  1.00  0.00    -0.376 OA
BRANCH   3   4
ATOM      4  C   UNL A   1      53.157  32.277  31.636  1.00  0.00     0.202 C 
BRANCH   4   5
ATOM      5  C   UNL A   1      52.879  30.759  31.728  1.00  0.00     0.261 C 
BRANCH   5   6
ATOM      6  O   UNL A   1      52.491  30.058  30.509  1.00  0.00    -0.463 OA
BRANCH   6   7
ATOM      7  C   UNL A   1      51.200  29.654  30.405  1.00  0.00     0.316 C 
ATOM      8  O   UNL A   1      50.883  28.513  30.068  1.00  0.00    -0.251 OA
BRANCH   7   9
ATOM      9  C   UNL A   1      50.106  30.689  30.663  1.00  0.00     0.200 C 
BRANCH   9  10
ATOM     10  S   UNL A   1      49.098  30.650  32.154  1.00  0.00    -0.082 SA
BRANCH  10  11
ATOM     11  C   UNL A   1      47.567  29.815  31.830  1.00  0.00     0.176 A 
ATOM     12  C   UNL A   1      45.625  28.417  31.987  1.00  0.00     0.213 A 
ATOM     13  N   UNL A   1      45.311  29.693  31.950  1.00  0.00    -0.119 NA
ATOM     14  S   UNL A   1      47.272  28.131  31.585  1.00  0.00    -0.068 S 
ATOM     15  N   UNL A   1      46.440  30.501  31.912  1.00  0.00    -0.130 NA
BRANCH  12  16
ATOM     16  N   UNL A   1      44.703  27.451  32.383  1.00  0.00    -0.296 N 
ATOM     17  O   UNL A   1      45.685  26.828  34.342  1.00  0.00    -0.268 OA
ATOM     18  C   UNL A   1      44.703  26.800  33.589  1.00  0.00     0.281 C 
ATOM     19  H   UNL A   1      43.993  27.216  31.743  1.00  0.00     0.172 HD
BRANCH  18  20
ATOM     20  C   UNL A   1      43.487  25.959  34.066  1.00  0.00     0.364 C 
BRANCH  20  21
ATOM     21  N   UNL A   1      43.420  24.500  34.238  1.00  0.00    -0.323 N 
ATOM     22  C   UNL A   1      43.289  23.787  35.495  1.00  0.00     0.291 C 
ATOM     23  C   UNL A   1      44.210  23.697  33.274  1.00  0.00     0.291 C 
ATOM     24  H   UNL A   1      42.424  24.585  34.036  1.00  0.00     0.348 HD
ATOM     25  C   UNL A   1      44.664  23.405  36.036  1.00  0.00     0.221 C 
ATOM     26  C   UNL A   1      45.562  23.258  33.846  1.00  0.00     0.221 C 
ATOM     27  O   UNL A   1      45.384  22.590  35.107  1.00  0.00    -0.370 OA
ENDBRANCH  20  21
ENDBRANCH  18  20
ENDBRANCH  12  16
ENDBRANCH  10  11
ENDBRANCH   9  10
ENDBRANCH   7   9
ENDBRANCH   6   7
ENDBRANCH   5   6
ENDBRANCH   4   5
ENDBRANCH   3   4
ENDBRANCH   2   3
ENDBRANCH   1   2
BRANCH   1  28
ATOM     28  O   UNL A   1      55.261  33.683  28.834  1.00  0.00    -0.377 OA
BRANCH  28  29
ATOM     29  C   UNL A   1      53.899  33.786  28.437  1.00  0.00     0.188 C 
BRANCH  29  30
ATOM     30  C   UNL A   1      53.342  35.201  28.363  1.00  0.00     0.188 C 
BRANCH  30  31
ATOM     31  O   UNL A   1      53.104  35.739  27.059  1.00  0.00    -0.376 OA
BRANCH  31  32
ATOM     32  C   UNL A   1      51.882  36.412  26.770  1.00  0.00     0.202 C 
BRANCH  32  33
ATOM     33  C   UNL A   1      50.686  35.485  26.657  1.00  0.00     0.261 C 
BRANCH  33  34
ATOM     34  O   UNL A   1      49.514  36.215  26.922  1.00  0.00    -0.460 OA
BRANCH  34  35
ATOM     35  C   UNL A   1      49.159  36.198  28.227  1.00  0.00     0.338 C 
ATOM     36  O   UNL A   1      49.320  37.032  29.102  1.00  0.00    -0.246 OA
BRANCH  35  37
ATOM     37  C   UNL A   1      48.338  35.013  28.340  1.00  0.00     0.060 A 
ATOM     38  C   UNL A   1      48.474  34.209  29.474  1.00  0.00     0.016 A 
ATOM     39  C   UNL A   1      47.402  34.768  27.331  1.00  0.00     0.016 A 
ATOM     40  C   UNL A   1      47.679  33.092  29.577  1.00  0.00     0.010 A 
ATOM     41  C   UNL A   1      46.605  33.658  27.434  1.00  0.00     0.010 A 
ATOM     42  C   UNL A   1      46.798  32.805  28.527  1.00  0.00    -0.014 A 
BRANCH  42  43
ATOM     43  C   UNL A   1      46.260  31.459  28.413  1.00  0.00     0.031 A 
ATOM     44  C   UNL A   1      47.168  30.425  27.831  1.00  0.00     0.074 A 
ATOM     45  C   UNL A   1      44.998  31.241  28.793  1.00  0.00     0.049 A 
ATOM     46  N   UNL A   1      46.910  29.185  27.535  1.00  0.00    -0.248 NA
ATOM     47  C   UNL A   1      48.552  30.847  27.521  1.00  0.00     0.031 C 
ATOM     48  C   UNL A   1      44.103  32.244  29.377  1.00  0.00     0.029 A 
ATOM     49  N   UNL A   1      44.248  30.108  28.726  1.00  0.00    -0.354 N 
ATOM     50  C   UNL A   1      48.085  28.687  26.992  1.00  0.00     0.074 A 
ATOM     51  C   UNL A   1      49.053  29.755  26.969  1.00  0.00     0.031 C 
ATOM     52  C   UNL A   1      42.909  31.674  29.605  1.00  0.00     0.029 A 
ATOM     53  C   UNL A   1      42.957  30.292  29.143  1.00  0.00     0.049 A 
ATOM     54  H   UNL A   1      44.598  29.244  28.411  1.00  0.00     0.167 HD
ATOM     55  C   UNL A   1      48.316  27.431  26.554  1.00  0.00     0.031 A 
ATOM     56  C   UNL A   1      41.931  29.427  29.109  1.00  0.00     0.031 A 
ATOM     57  C   UNL A   1      47.305  26.414  26.584  1.00  0.00     0.049 A 
ATOM     58  C   UNL A   1      42.209  28.046  28.581  1.00  0.00     0.074 A 
ATOM     59  C   UNL A   1      47.401  25.092  26.200  1.00  0.00     0.029 A 
ATOM     60  N   UNL A   1      46.003  26.620  27.023  1.00  0.00    -0.354 N 
ATOM     61  N   UNL A   1      43.335  27.557  28.109  1.00  0.00    -0.248 NA
ATOM     62  C   UNL A   1      41.093  27.099  28.590  1.00  0.00     0.031 C 
ATOM     63  C   UNL A   1      46.136  24.516  26.344  1.00  0.00     0.029 A 
ATOM     64  C   UNL A   1      45.272  25.457  26.892  1.00  0.00     0.049 A 
ATOM     65  H   UNL A   1      45.652  27.470  27.376  1.00  0.00     0.167 HD
ATOM     66  C   UNL A   1      43.070  26.231  27.792  1.00  0.00     0.074 A 
ATOM     67  C   UNL A   1      41.681  25.998  28.145  1.00  0.00     0.031 C 
ATOM     68  C   UNL A   1      43.889  25.288  27.262  1.00  0.00     0.031 A 
BRANCH  55  69
ATOM     69  C   UNL A   1      49.669  27.124  25.977  1.00  0.00    -0.014 A 
ATOM     70  C   UNL A   1      50.786  26.893  26.801  1.00  0.00     0.010 A 
ATOM     71  C   UNL A   1      49.818  27.032  24.581  1.00  0.00     0.010 A 
ATOM     72  C   UNL A   1      52.028  26.586  26.239  1.00  0.00     0.020 A 
ATOM     73  C   UNL A   1      51.050  26.698  24.017  1.00  0.00     0.020 A 
ATOM     74  C   UNL A   1      52.149  26.482  24.849  1.00  0.00     0.054 A 
BRANCH  74  75
ATOM     75  S   UNL A   1      53.755  26.010  24.151  1.00  0.00     0.124 S 
ATOM     76  O   UNL A   1      53.677  26.569  22.804  1.00  0.00    -0.237 OA
ATOM     77  O   UNL A   1      54.698  26.671  25.051  1.00  0.00    -0.237 OA
ATOM     78  O   UNL A   1      53.750  24.551  24.221  1.00  0.00    -0.744 OA
ENDBRANCH  74  75
ENDBRANCH  55  69
BRANCH  56  79
ATOM     79  C   UNL A   1      40.585  29.853  29.563  1.00  0.00    -0.014 A 
ATOM     80  C   UNL A   1      40.314  30.052  30.927  1.00  0.00     0.010 A 
ATOM     81  C   UNL A   1      39.565  30.093  28.621  1.00  0.00     0.010 A 
ATOM     82  C   UNL A   1      39.041  30.449  31.344  1.00  0.00     0.020 A 
ATOM     83  C   UNL A   1      38.301  30.522  29.030  1.00  0.00     0.020 A 
ATOM     84  C   UNL A   1      38.042  30.680  30.392  1.00  0.00     0.054 A 
BRANCH  84  85
ATOM     85  S   UNL A   1      36.404  31.213  30.958  1.00  0.00     0.124 S 
ATOM     86  O   UNL A   1      35.685  29.947  31.042  1.00  0.00    -0.237 OA
ATOM     87  O   UNL A   1      36.708  31.856  32.234  1.00  0.00    -0.237 OA
ATOM     88  O   UNL A   1      35.956  32.120  29.903  1.00  0.00    -0.744 OA
ENDBRANCH  84  85
ENDBRANCH  56  79
BRANCH  68  89
ATOM     89  C   UNL A   1      43.306  23.916  27.077  1.00  0.00    -0.014 A 
ATOM     90  C   UNL A   1      42.769  23.513  25.844  1.00  0.00     0.010 A 
ATOM     91  C   UNL A   1      43.363  23.000  28.143  1.00  0.00     0.010 A 
ATOM     92  C   UNL A   1      42.261  22.222  25.691  1.00  0.00     0.020 A 
ATOM     93  C   UNL A   1      42.893  21.698  27.982  1.00  0.00     0.020 A 
ATOM     94  C   UNL A   1      42.330  21.324  26.761  1.00  0.00     0.054 A 
BRANCH  94  95
ATOM     95  S   UNL A   1      41.707  19.640  26.520  1.00  0.00     0.124 S 
ATOM     96  O   UNL A   1      42.382  19.240  25.288  1.00  0.00    -0.237 OA
ATOM     97  O   UNL A   1      42.155  18.959  27.733  1.00  0.00    -0.237 OA
ATOM     98  O   UNL A   1      40.261  19.817  26.410  1.00  0.00    -0.744 OA
ENDBRANCH  94  95
ENDBRANCH  68  89
ENDBRANCH  42  43
ENDBRANCH  35  37
ENDBRANCH  34  35
ENDBRANCH  33  34
ENDBRANCH  32  33
ENDBRANCH  31  32
ENDBRANCH  30  31
ENDBRANCH  29  30
ENDBRANCH  28  29
ENDBRANCH   1  28
TORSDOF 28
ENDMDL
