MODEL 1
REMARK VINA RESULT:      -8.8      0.000      0.000
REMARK SMILES CCN(CC)S(=O)(=O)c1cccc(C(=O)N2C[C@H](O)C[C@H]2C(=O)OCCOCCOCCOCCOC(=O)c2ccc(-c3c4nc(c(-c5ccc(S(=O)(=O)[O-])cc5)c5ccc([nH]5)c(-c5ccc(S(=O)(=O)[O-])cc5)c5nc(c(-c6ccc(S(=O)(=O)[O-])cc6)c6ccc3[nH]6)C=C5)C=C4)cc2)c1
REMARK SMILES IDX 29 1 28 2 27 3 26 4 25 5 24 6 22 7 23 8 21 9 16 10 17 11
REMARK SMILES IDX 18 12 20 13 14 14 15 15 13 16 9 17 10 18 99 19 11 20 12 21
REMARK SMILES IDX 6 22 7 23 8 24 3 25 2 26 1 27 4 28 5 29 19 30 30 32 31 33
REMARK SMILES IDX 32 34 33 35 34 36 35 37 36 38 37 39 38 40 39 41 40 42 98 43
REMARK SMILES IDX 41 44 97 45 42 46 43 47 44 48 91 49 45 50 96 51 90 52 92 53
REMARK SMILES IDX 46 54 95 55 89 56 88 57 47 59 77 60 58 61 76 62 59 63 62 64
REMARK SMILES IDX 75 65 93 66 60 67 61 68 74 70 94 71 63 72 48 73 49 74 57 75
REMARK SMILES IDX 50 76 56 77 51 78 52 79 53 80 54 81 55 82 78 83 79 84 87 85
REMARK SMILES IDX 80 86 86 87 81 88 82 89 83 90 84 91 85 92 64 93 65 94 73 95
REMARK SMILES IDX 66 96 72 97 67 98 68 99 69 100 70 101 71 102
REMARK H PARENT 19 31 92 58 62 69
REMARK Flexibility Score: inf
ROOT
ATOM      1  C   UNL A   1      42.209  20.650  27.057  1.00  0.00     0.188 C 
ENDROOT
BRANCH   1   2
ATOM      2  C   UNL A   1      40.771  20.132  27.055  1.00  0.00     0.188 C 
BRANCH   2   3
ATOM      3  O   UNL A   1      40.029  20.253  25.857  1.00  0.00    -0.376 OA
BRANCH   3   4
ATOM      4  C   UNL A   1      39.227  21.411  25.633  1.00  0.00     0.202 C 
BRANCH   4   5
ATOM      5  C   UNL A   1      37.730  21.444  26.003  1.00  0.00     0.261 C 
BRANCH   5   6
ATOM      6  O   UNL A   1      36.798  21.217  24.911  1.00  0.00    -0.462 OA
BRANCH   6   7
ATOM      7  C   UNL A   1      35.771  22.093  24.837  1.00  0.00     0.329 C 
ATOM      8  O   UNL A   1      35.918  23.263  24.467  1.00  0.00    -0.250 OA
BRANCH   7   9
ATOM      9  C   UNL A   1      34.342  21.598  25.181  1.00  0.00     0.198 C 
ATOM     10  N   UNL A   1      32.999  21.935  24.653  1.00  0.00    -0.322 N 
ATOM     11  C   UNL A   1      32.342  20.780  24.067  1.00  0.00     0.152 C 
ATOM     12  C   UNL A   1      33.033  19.589  24.712  1.00  0.00     0.136 C 
ATOM     13  C   UNL A   1      34.456  20.078  24.867  1.00  0.00     0.071 C 
BRANCH  10  14
ATOM     14  C   UNL A   1      32.306  23.118  24.816  1.00  0.00     0.254 C 
ATOM     15  O   UNL A   1      31.533  23.263  25.760  1.00  0.00    -0.269 OA
BRANCH  14  16
ATOM     16  C   UNL A   1      32.620  24.326  23.956  1.00  0.00     0.041 A 
ATOM     17  C   UNL A   1      32.696  26.702  23.421  1.00  0.00     0.083 A 
ATOM     18  C   UNL A   1      33.218  26.435  22.154  1.00  0.00     0.022 A 
ATOM     19  C   UNL A   1      32.461  25.662  24.344  1.00  0.00     0.035 A 
ATOM     20  C   UNL A   1      33.355  25.116  21.747  1.00  0.00     0.002 A 
ATOM     21  C   UNL A   1      33.023  24.080  22.630  1.00  0.00     0.014 A 
BRANCH  17  22
ATOM     22  S   UNL A   1      32.298  28.391  23.852  1.00  0.00     0.243 S 
ATOM     23  O   UNL A   1      30.877  28.581  23.641  1.00  0.00    -0.207 OA
ATOM     24  O   UNL A   1      33.248  29.229  23.156  1.00  0.00    -0.207 OA
BRANCH  22  25
ATOM     25  N   UNL A   1      32.622  28.463  25.538  1.00  0.00    -0.198 NA
BRANCH  25  26
ATOM     26  C   UNL A   1      33.688  29.420  25.966  1.00  0.00     0.099 C 
ATOM     27  C   UNL A   1      33.138  30.602  26.744  1.00  0.00     0.022 C 
ENDBRANCH  25  26
BRANCH  25  28
ATOM     28  C   UNL A   1      31.463  28.482  26.487  1.00  0.00     0.099 C 
ATOM     29  C   UNL A   1      31.789  27.967  27.881  1.00  0.00     0.022 C 
ENDBRANCH  25  28
ENDBRANCH  22  25
ENDBRANCH  17  22
ENDBRANCH  14  16
ENDBRANCH  10  14
BRANCH  12  30
ATOM     30  O   UNL A   1      32.487  19.267  25.987  1.00  0.00    -0.391 OA
ATOM     31  H   UNL A   1      32.866  19.854  26.659  1.00  0.00     0.211 HD
ENDBRANCH  12  30
ENDBRANCH   7   9
ENDBRANCH   6   7
ENDBRANCH   5   6
ENDBRANCH   4   5
ENDBRANCH   3   4
ENDBRANCH   2   3
ENDBRANCH   1   2
BRANCH   1  32
ATOM     32  O   UNL A   1      43.024  20.246  25.976  1.00  0.00    -0.377 OA
BRANCH  32  33
ATOM     33  C   UNL A   1      44.054  21.108  25.484  1.00  0.00     0.188 C 
BRANCH  33  34
ATOM     34  C   UNL A   1      43.659  22.529  25.071  1.00  0.00     0.188 C 
BRANCH  34  35
ATOM     35  O   UNL A   1      44.443  23.608  25.594  1.00  0.00    -0.376 OA
BRANCH  35  36
ATOM     36  C   UNL A   1      44.340  23.893  26.986  1.00  0.00     0.202 C 
BRANCH  36  37
ATOM     37  C   UNL A   1      42.913  24.015  27.513  1.00  0.00     0.261 C 
BRANCH  37  38
ATOM     38  O   UNL A   1      42.369  25.323  27.284  1.00  0.00    -0.460 OA
BRANCH  38  39
ATOM     39  C   UNL A   1      41.024  25.399  27.410  1.00  0.00     0.338 C 
ATOM     40  O   UNL A   1      40.198  24.626  26.952  1.00  0.00    -0.246 OA
BRANCH  39  41
ATOM     41  C   UNL A   1      40.656  26.505  28.314  1.00  0.00     0.060 A 
ATOM     42  C   UNL A   1      41.550  27.577  28.416  1.00  0.00     0.016 A 
ATOM     43  C   UNL A   1      39.520  26.446  29.124  1.00  0.00     0.016 A 
ATOM     44  C   UNL A   1      41.356  28.556  29.384  1.00  0.00     0.010 A 
ATOM     45  C   UNL A   1      39.328  27.426  30.102  1.00  0.00     0.010 A 
ATOM     46  C   UNL A   1      40.276  28.451  30.268  1.00  0.00    -0.014 A 
BRANCH  46  47
ATOM     47  C   UNL A   1      40.264  29.295  31.485  1.00  0.00     0.031 A 
ATOM     48  C   UNL A   1      41.357  29.100  32.503  1.00  0.00     0.074 A 
ATOM     49  C   UNL A   1      39.327  30.245  31.654  1.00  0.00     0.049 A 
ATOM     50  N   UNL A   1      41.545  29.711  33.642  1.00  0.00    -0.248 NA
ATOM     51  C   UNL A   1      42.373  28.077  32.198  1.00  0.00     0.031 C 
ATOM     52  C   UNL A   1      38.249  30.547  30.713  1.00  0.00     0.029 A 
ATOM     53  N   UNL A   1      39.133  31.129  32.684  1.00  0.00    -0.354 N 
ATOM     54  C   UNL A   1      42.681  29.133  34.198  1.00  0.00     0.074 A 
ATOM     55  C   UNL A   1      43.134  28.113  33.281  1.00  0.00     0.031 C 
ATOM     56  C   UNL A   1      37.496  31.540  31.217  1.00  0.00     0.029 A 
ATOM     57  C   UNL A   1      38.019  31.919  32.527  1.00  0.00     0.049 A 
ATOM     58  H   UNL A   1      39.733  31.191  33.461  1.00  0.00     0.167 HD
ATOM     59  C   UNL A   1      43.289  29.429  35.371  1.00  0.00     0.031 A 
ATOM     60  C   UNL A   1      37.472  32.824  33.362  1.00  0.00     0.031 A 
ATOM     61  C   UNL A   1      42.834  30.454  36.270  1.00  0.00     0.049 A 
ATOM     62  C   UNL A   1      38.149  33.105  34.680  1.00  0.00     0.074 A 
ATOM     63  C   UNL A   1      43.405  30.863  37.463  1.00  0.00     0.029 A 
ATOM     64  N   UNL A   1      41.698  31.225  36.084  1.00  0.00    -0.354 N 
ATOM     65  N   UNL A   1      39.251  32.583  35.170  1.00  0.00    -0.248 NA
ATOM     66  C   UNL A   1      37.519  34.105  35.552  1.00  0.00     0.031 C 
ATOM     67  C   UNL A   1      42.575  31.834  38.031  1.00  0.00     0.029 A 
ATOM     68  C   UNL A   1      41.529  32.083  37.156  1.00  0.00     0.049 A 
ATOM     69  H   UNL A   1      41.099  31.171  35.303  1.00  0.00     0.167 HD
ATOM     70  C   UNL A   1      39.461  33.219  36.390  1.00  0.00     0.074 A 
ATOM     71  C   UNL A   1      38.385  34.174  36.553  1.00  0.00     0.031 C 
ATOM     72  C   UNL A   1      40.455  33.033  37.295  1.00  0.00     0.031 A 
BRANCH  59  73
ATOM     73  C   UNL A   1      44.485  28.610  35.778  1.00  0.00    -0.014 A 
ATOM     74  C   UNL A   1      44.349  27.414  36.504  1.00  0.00     0.010 A 
ATOM     75  C   UNL A   1      45.765  29.007  35.346  1.00  0.00     0.010 A 
ATOM     76  C   UNL A   1      45.473  26.638  36.802  1.00  0.00     0.020 A 
ATOM     77  C   UNL A   1      46.887  28.221  35.619  1.00  0.00     0.020 A 
ATOM     78  C   UNL A   1      46.734  27.043  36.351  1.00  0.00     0.054 A 
BRANCH  78  79
ATOM     79  S   UNL A   1      48.165  25.979  36.690  1.00  0.00     0.124 S 
ATOM     80  O   UNL A   1      49.217  26.960  36.946  1.00  0.00    -0.237 OA
ATOM     81  O   UNL A   1      47.724  25.213  37.852  1.00  0.00    -0.237 OA
ATOM     82  O   UNL A   1      48.322  25.206  35.460  1.00  0.00    -0.744 OA
ENDBRANCH  78  79
ENDBRANCH  59  73
BRANCH  60  83
ATOM     83  C   UNL A   1      36.195  33.504  33.004  1.00  0.00    -0.014 A 
ATOM     84  C   UNL A   1      36.159  34.525  32.039  1.00  0.00     0.010 A 
ATOM     85  C   UNL A   1      35.004  33.149  33.665  1.00  0.00     0.010 A 
ATOM     86  C   UNL A   1      34.967  35.207  31.773  1.00  0.00     0.020 A 
ATOM     87  C   UNL A   1      33.804  33.805  33.378  1.00  0.00     0.020 A 
ATOM     88  C   UNL A   1      33.798  34.844  32.447  1.00  0.00     0.054 A 
BRANCH  88  89
ATOM     89  S   UNL A   1      32.261  35.736  32.081  1.00  0.00     0.124 S 
ATOM     90  O   UNL A   1      32.254  35.742  30.622  1.00  0.00    -0.237 OA
ATOM     91  O   UNL A   1      31.250  34.895  32.717  1.00  0.00    -0.237 OA
ATOM     92  O   UNL A   1      32.464  37.039  32.712  1.00  0.00    -0.744 OA
ENDBRANCH  88  89
ENDBRANCH  60  83
BRANCH  72  93
ATOM     93  C   UNL A   1      40.458  33.916  38.515  1.00  0.00    -0.014 A 
ATOM     94  C   UNL A   1      39.801  33.538  39.699  1.00  0.00     0.010 A 
ATOM     95  C   UNL A   1      41.174  35.127  38.485  1.00  0.00     0.010 A 
ATOM     96  C   UNL A   1      39.821  34.378  40.816  1.00  0.00     0.020 A 
ATOM     97  C   UNL A   1      41.227  35.952  39.610  1.00  0.00     0.020 A 
ATOM     98  C   UNL A   1      40.533  35.581  40.763  1.00  0.00     0.054 A 
BRANCH  98  99
ATOM     99  S   UNL A   1      40.565  36.642  42.233  1.00  0.00     0.124 S 
ATOM    100  O   UNL A   1      41.972  36.581  42.620  1.00  0.00    -0.237 OA
ATOM    101  O   UNL A   1      40.112  37.928  41.710  1.00  0.00    -0.237 OA
ATOM    102  O   UNL A   1      39.637  35.988  43.154  1.00  0.00    -0.744 OA
ENDBRANCH  98  99
ENDBRANCH  72  93
ENDBRANCH  46  47
ENDBRANCH  39  41
ENDBRANCH  38  39
ENDBRANCH  37  38
ENDBRANCH  36  37
ENDBRANCH  35  36
ENDBRANCH  34  35
ENDBRANCH  33  34
ENDBRANCH  32  33
ENDBRANCH   1  32
TORSDOF 30
ENDMDL
MODEL 2
REMARK VINA RESULT:      -8.2      4.119      9.051
REMARK SMILES CCN(CC)S(=O)(=O)c1cccc(C(=O)N2C[C@H](O)C[C@H]2C(=O)OCCOCCOCCOCCOC(=O)c2ccc(-c3c4nc(c(-c5ccc(S(=O)(=O)[O-])cc5)c5ccc([nH]5)c(-c5ccc(S(=O)(=O)[O-])cc5)c5nc(c(-c6ccc(S(=O)(=O)[O-])cc6)c6ccc3[nH]6)C=C5)C=C4)cc2)c1
REMARK SMILES IDX 29 1 28 2 27 3 26 4 25 5 24 6 22 7 23 8 21 9 16 10 17 11
REMARK SMILES IDX 18 12 20 13 14 14 15 15 13 16 9 17 10 18 99 19 11 20 12 21
REMARK SMILES IDX 6 22 7 23 8 24 3 25 2 26 1 27 4 28 5 29 19 30 30 32 31 33
REMARK SMILES IDX 32 34 33 35 34 36 35 37 36 38 37 39 38 40 39 41 40 42 98 43
REMARK SMILES IDX 41 44 97 45 42 46 43 47 44 48 91 49 45 50 96 51 90 52 92 53
REMARK SMILES IDX 46 54 95 55 89 56 88 57 47 59 77 60 58 61 76 62 59 63 62 64
REMARK SMILES IDX 75 65 93 66 60 67 61 68 74 70 94 71 63 72 48 73 49 74 57 75
REMARK SMILES IDX 50 76 56 77 51 78 52 79 53 80 54 81 55 82 78 83 79 84 87 85
REMARK SMILES IDX 80 86 86 87 81 88 82 89 83 90 84 91 85 92 64 93 65 94 73 95
REMARK SMILES IDX 66 96 72 97 67 98 68 99 69 100 70 101 71 102
REMARK H PARENT 19 31 92 58 62 69
REMARK Flexibility Score: inf
ROOT
ATOM      1  C   UNL A   1      36.414  30.198  28.315  1.00  0.00     0.188 C 
ENDROOT
BRANCH   1   2
ATOM      2  C   UNL A   1      35.819  31.470  27.710  1.00  0.00     0.188 C 
BRANCH   2   3
ATOM      3  O   UNL A   1      34.494  31.812  28.067  1.00  0.00    -0.376 OA
BRANCH   3   4
ATOM      4  C   UNL A   1      33.415  30.962  27.682  1.00  0.00     0.202 C 
BRANCH   4   5
ATOM      5  C   UNL A   1      32.685  31.138  26.336  1.00  0.00     0.261 C 
BRANCH   5   6
ATOM      6  O   UNL A   1      31.456  30.378  26.173  1.00  0.00    -0.462 OA
BRANCH   6   7
ATOM      7  C   UNL A   1      31.581  29.217  25.491  1.00  0.00     0.329 C 
ATOM      8  O   UNL A   1      32.061  28.196  25.996  1.00  0.00    -0.250 OA
BRANCH   7   9
ATOM      9  C   UNL A   1      31.055  29.147  24.033  1.00  0.00     0.198 C 
ATOM     10  N   UNL A   1      30.242  28.151  23.297  1.00  0.00    -0.322 N 
ATOM     11  C   UNL A   1      28.991  28.717  22.823  1.00  0.00     0.152 C 
ATOM     12  C   UNL A   1      29.252  30.215  22.777  1.00  0.00     0.136 C 
ATOM     13  C   UNL A   1      30.170  30.424  23.961  1.00  0.00     0.071 C 
BRANCH  10  14
ATOM     14  C   UNL A   1      30.621  26.882  22.905  1.00  0.00     0.254 C 
ATOM     15  O   UNL A   1      31.011  26.674  21.759  1.00  0.00    -0.269 OA
BRANCH  14  16
ATOM     16  C   UNL A   1      30.749  25.763  23.919  1.00  0.00     0.041 A 
ATOM     17  C   UNL A   1      31.529  23.609  24.751  1.00  0.00     0.083 A 
ATOM     18  C   UNL A   1      30.787  23.756  25.924  1.00  0.00     0.022 A 
ATOM     19  C   UNL A   1      31.566  24.634  23.782  1.00  0.00     0.035 A 
ATOM     20  C   UNL A   1      29.953  24.856  26.061  1.00  0.00     0.002 A 
ATOM     21  C   UNL A   1      29.913  25.824  25.050  1.00  0.00     0.014 A 
BRANCH  17  22
ATOM     22  S   UNL A   1      32.415  22.081  24.476  1.00  0.00     0.243 S 
ATOM     23  O   UNL A   1      32.713  21.988  23.061  1.00  0.00    -0.207 OA
ATOM     24  O   UNL A   1      31.650  21.039  25.121  1.00  0.00    -0.207 OA
BRANCH  22  25
ATOM     25  N   UNL A   1      33.886  22.308  25.337  1.00  0.00    -0.198 NA
BRANCH  25  26
ATOM     26  C   UNL A   1      34.496  21.083  25.937  1.00  0.00     0.099 C 
ATOM     27  C   UNL A   1      35.142  20.181  24.902  1.00  0.00     0.022 C 
ENDBRANCH  25  26
BRANCH  25  28
ATOM     28  C   UNL A   1      34.931  23.198  24.739  1.00  0.00     0.099 C 
ATOM     29  C   UNL A   1      35.019  24.576  25.378  1.00  0.00     0.022 C 
ENDBRANCH  25  28
ENDBRANCH  22  25
ENDBRANCH  17  22
ENDBRANCH  14  16
ENDBRANCH  10  14
BRANCH  12  30
ATOM     30  O   UNL A   1      29.903  30.618  21.578  1.00  0.00    -0.391 OA
ATOM     31  H   UNL A   1      29.255  31.010  20.973  1.00  0.00     0.211 HD
ENDBRANCH  12  30
ENDBRANCH   7   9
ENDBRANCH   6   7
ENDBRANCH   5   6
ENDBRANCH   4   5
ENDBRANCH   3   4
ENDBRANCH   2   3
ENDBRANCH   1   2
BRANCH   1  32
ATOM     32  O   UNL A   1      36.504  30.156  29.724  1.00  0.00    -0.377 OA
BRANCH  32  33
ATOM     33  C   UNL A   1      37.431  30.999  30.415  1.00  0.00     0.188 C 
BRANCH  33  34
ATOM     34  C   UNL A   1      36.876  32.235  31.128  1.00  0.00     0.188 C 
BRANCH  34  35
ATOM     35  O   UNL A   1      35.463  32.282  31.361  1.00  0.00    -0.376 OA
BRANCH  35  36
ATOM     36  C   UNL A   1      34.715  33.312  30.721  1.00  0.00     0.202 C 
BRANCH  36  37
ATOM     37  C   UNL A   1      34.071  34.320  31.668  1.00  0.00     0.261 C 
BRANCH  37  38
ATOM     38  O   UNL A   1      34.306  33.987  33.044  1.00  0.00    -0.460 OA
BRANCH  38  39
ATOM     39  C   UNL A   1      34.995  34.923  33.736  1.00  0.00     0.338 C 
ATOM     40  O   UNL A   1      34.611  36.040  34.043  1.00  0.00    -0.246 OA
BRANCH  39  41
ATOM     41  C   UNL A   1      36.277  34.369  34.210  1.00  0.00     0.060 A 
ATOM     42  C   UNL A   1      36.265  33.653  35.413  1.00  0.00     0.016 A 
ATOM     43  C   UNL A   1      37.481  34.635  33.553  1.00  0.00     0.016 A 
ATOM     44  C   UNL A   1      37.461  33.269  36.007  1.00  0.00     0.010 A 
ATOM     45  C   UNL A   1      38.684  34.255  34.154  1.00  0.00     0.010 A 
ATOM     46  C   UNL A   1      38.676  33.620  35.408  1.00  0.00    -0.014 A 
BRANCH  46  47
ATOM     47  C   UNL A   1      39.923  33.505  36.199  1.00  0.00     0.031 A 
ATOM     48  C   UNL A   1      40.720  32.231  36.097  1.00  0.00     0.074 A 
ATOM     49  C   UNL A   1      40.357  34.531  36.953  1.00  0.00     0.049 A 
ATOM     50  N   UNL A   1      41.831  31.901  36.700  1.00  0.00    -0.248 NA
ATOM     51  C   UNL A   1      40.195  31.189  35.197  1.00  0.00     0.031 C 
ATOM     52  C   UNL A   1      39.685  35.823  37.091  1.00  0.00     0.029 A 
ATOM     53  N   UNL A   1      41.467  34.642  37.749  1.00  0.00    -0.354 N 
ATOM     54  C   UNL A   1      42.123  30.610  36.273  1.00  0.00     0.074 A 
ATOM     55  C   UNL A   1      41.069  30.209  35.371  1.00  0.00     0.031 C 
ATOM     56  C   UNL A   1      40.392  36.594  37.934  1.00  0.00     0.029 A 
ATOM     57  C   UNL A   1      41.545  35.839  38.419  1.00  0.00     0.049 A 
ATOM     58  H   UNL A   1      42.144  33.932  37.832  1.00  0.00     0.167 HD
ATOM     59  C   UNL A   1      43.179  29.831  36.607  1.00  0.00     0.031 A 
ATOM     60  C   UNL A   1      42.433  36.262  39.341  1.00  0.00     0.031 A 
ATOM     61  C   UNL A   1      44.228  30.245  37.498  1.00  0.00     0.049 A 
ATOM     62  C   UNL A   1      43.576  35.356  39.723  1.00  0.00     0.074 A 
ATOM     63  C   UNL A   1      45.365  29.547  37.867  1.00  0.00     0.029 A 
ATOM     64  N   UNL A   1      44.267  31.458  38.166  1.00  0.00    -0.354 N 
ATOM     65  N   UNL A   1      43.865  34.156  39.273  1.00  0.00    -0.248 NA
ATOM     66  C   UNL A   1      44.522  35.866  40.725  1.00  0.00     0.031 C 
ATOM     67  C   UNL A   1      46.056  30.312  38.812  1.00  0.00     0.029 A 
ATOM     68  C   UNL A   1      45.389  31.516  38.973  1.00  0.00     0.049 A 
ATOM     69  H   UNL A   1      43.595  32.174  38.080  1.00  0.00     0.167 HD
ATOM     70  C   UNL A   1      45.044  33.786  39.914  1.00  0.00     0.074 A 
ATOM     71  C   UNL A   1      45.422  34.894  40.765  1.00  0.00     0.031 C 
ATOM     72  C   UNL A   1      45.752  32.633  39.807  1.00  0.00     0.031 A 
BRANCH  59  73
ATOM     73  C   UNL A   1      43.236  28.434  36.047  1.00  0.00    -0.014 A 
ATOM     74  C   UNL A   1      43.930  28.143  34.859  1.00  0.00     0.010 A 
ATOM     75  C   UNL A   1      42.654  27.380  36.775  1.00  0.00     0.010 A 
ATOM     76  C   UNL A   1      44.028  26.825  34.404  1.00  0.00     0.020 A 
ATOM     77  C   UNL A   1      42.772  26.058  36.338  1.00  0.00     0.020 A 
ATOM     78  C   UNL A   1      43.455  25.790  35.150  1.00  0.00     0.054 A 
BRANCH  78  79
ATOM     79  S   UNL A   1      43.660  24.081  34.574  1.00  0.00     0.124 S 
ATOM     80  O   UNL A   1      43.987  24.275  33.164  1.00  0.00    -0.237 OA
ATOM     81  O   UNL A   1      44.752  23.592  35.411  1.00  0.00    -0.237 OA
ATOM     82  O   UNL A   1      42.359  23.470  34.833  1.00  0.00    -0.744 OA
ENDBRANCH  78  79
ENDBRANCH  59  73
BRANCH  60  83
ATOM     83  C   UNL A   1      42.260  37.587  40.000  1.00  0.00    -0.014 A 
ATOM     84  C   UNL A   1      42.890  38.739  39.498  1.00  0.00     0.010 A 
ATOM     85  C   UNL A   1      41.483  37.691  41.170  1.00  0.00     0.010 A 
ATOM     86  C   UNL A   1      42.781  39.958  40.175  1.00  0.00     0.020 A 
ATOM     87  C   UNL A   1      41.344  38.915  41.830  1.00  0.00     0.020 A 
ATOM     88  C   UNL A   1      42.012  40.037  41.339  1.00  0.00     0.054 A 
BRANCH  88  89
ATOM     89  S   UNL A   1      41.878  41.630  42.197  1.00  0.00     0.124 S 
ATOM     90  O   UNL A   1      41.144  42.436  41.227  1.00  0.00    -0.237 OA
ATOM     91  O   UNL A   1      41.146  41.274  43.410  1.00  0.00    -0.237 OA
ATOM     92  O   UNL A   1      43.270  42.020  42.411  1.00  0.00    -0.744 OA
ENDBRANCH  88  89
ENDBRANCH  60  83
BRANCH  72  93
ATOM     93  C   UNL A   1      47.037  32.533  40.587  1.00  0.00    -0.014 A 
ATOM     94  C   UNL A   1      48.263  32.956  40.043  1.00  0.00     0.010 A 
ATOM     95  C   UNL A   1      47.004  32.049  41.908  1.00  0.00     0.010 A 
ATOM     96  C   UNL A   1      49.440  32.851  40.790  1.00  0.00     0.020 A 
ATOM     97  C   UNL A   1      48.171  31.976  42.670  1.00  0.00     0.020 A 
ATOM     98  C   UNL A   1      49.386  32.360  42.099  1.00  0.00     0.054 A 
BRANCH  98  99
ATOM     99  S   UNL A   1      50.922  32.258  43.057  1.00  0.00     0.124 S 
ATOM    100  O   UNL A   1      51.284  30.852  42.900  1.00  0.00    -0.237 OA
ATOM    101  O   UNL A   1      51.791  33.211  42.371  1.00  0.00    -0.237 OA
ATOM    102  O   UNL A   1      50.517  32.651  44.405  1.00  0.00    -0.744 OA
ENDBRANCH  98  99
ENDBRANCH  72  93
ENDBRANCH  46  47
ENDBRANCH  39  41
ENDBRANCH  38  39
ENDBRANCH  37  38
ENDBRANCH  36  37
ENDBRANCH  35  36
ENDBRANCH  34  35
ENDBRANCH  33  34
ENDBRANCH  32  33
ENDBRANCH   1  32
TORSDOF 30
ENDMDL
MODEL 3
REMARK VINA RESULT:      -8.2      5.285      9.103
REMARK SMILES CCN(CC)S(=O)(=O)c1cccc(C(=O)N2C[C@H](O)C[C@H]2C(=O)OCCOCCOCCOCCOC(=O)c2ccc(-c3c4nc(c(-c5ccc(S(=O)(=O)[O-])cc5)c5ccc([nH]5)c(-c5ccc(S(=O)(=O)[O-])cc5)c5nc(c(-c6ccc(S(=O)(=O)[O-])cc6)c6ccc3[nH]6)C=C5)C=C4)cc2)c1
REMARK SMILES IDX 29 1 28 2 27 3 26 4 25 5 24 6 22 7 23 8 21 9 16 10 17 11
REMARK SMILES IDX 18 12 20 13 14 14 15 15 13 16 9 17 10 18 99 19 11 20 12 21
REMARK SMILES IDX 6 22 7 23 8 24 3 25 2 26 1 27 4 28 5 29 19 30 30 32 31 33
REMARK SMILES IDX 32 34 33 35 34 36 35 37 36 38 37 39 38 40 39 41 40 42 98 43
REMARK SMILES IDX 41 44 97 45 42 46 43 47 44 48 91 49 45 50 96 51 90 52 92 53
REMARK SMILES IDX 46 54 95 55 89 56 88 57 47 59 77 60 58 61 76 62 59 63 62 64
REMARK SMILES IDX 75 65 93 66 60 67 61 68 74 70 94 71 63 72 48 73 49 74 57 75
REMARK SMILES IDX 50 76 56 77 51 78 52 79 53 80 54 81 55 82 78 83 79 84 87 85
REMARK SMILES IDX 80 86 86 87 81 88 82 89 83 90 84 91 85 92 64 93 65 94 73 95
REMARK SMILES IDX 66 96 72 97 67 98 68 99 69 100 70 101 71 102
REMARK H PARENT 19 31 92 58 62 69
REMARK Flexibility Score: inf
ROOT
ATOM      1  C   UNL A   1      36.200  29.850  29.589  1.00  0.00     0.188 C 
ENDROOT
BRANCH   1   2
ATOM      2  C   UNL A   1      36.230  30.252  28.114  1.00  0.00     0.188 C 
BRANCH   2   3
ATOM      3  O   UNL A   1      35.389  29.545  27.223  1.00  0.00    -0.376 OA
BRANCH   3   4
ATOM      4  C   UNL A   1      33.983  29.501  27.461  1.00  0.00     0.202 C 
BRANCH   4   5
ATOM      5  C   UNL A   1      32.989  30.306  26.598  1.00  0.00     0.261 C 
BRANCH   5   6
ATOM      6  O   UNL A   1      31.971  29.531  25.908  1.00  0.00    -0.462 OA
BRANCH   6   7
ATOM      7  C   UNL A   1      32.351  29.003  24.723  1.00  0.00     0.329 C 
ATOM      8  O   UNL A   1      33.526  28.716  24.467  1.00  0.00    -0.250 OA
BRANCH   7   9
ATOM      9  C   UNL A   1      31.265  28.699  23.658  1.00  0.00     0.198 C 
ATOM     10  N   UNL A   1      30.068  27.825  23.653  1.00  0.00    -0.322 N 
ATOM     11  C   UNL A   1      28.845  28.582  23.455  1.00  0.00     0.152 C 
ATOM     12  C   UNL A   1      29.305  29.867  22.784  1.00  0.00     0.136 C 
ATOM     13  C   UNL A   1      30.652  30.110  23.428  1.00  0.00     0.071 C 
BRANCH  10  14
ATOM     14  C   UNL A   1      30.037  26.445  23.646  1.00  0.00     0.254 C 
ATOM     15  O   UNL A   1      28.968  25.844  23.714  1.00  0.00    -0.269 OA
BRANCH  14  16
ATOM     16  C   UNL A   1      31.292  25.642  23.363  1.00  0.00     0.041 A 
ATOM     17  C   UNL A   1      33.293  24.383  23.953  1.00  0.00     0.083 A 
ATOM     18  C   UNL A   1      33.638  24.236  22.609  1.00  0.00     0.022 A 
ATOM     19  C   UNL A   1      32.094  25.023  24.330  1.00  0.00     0.035 A 
ATOM     20  C   UNL A   1      32.867  24.867  21.643  1.00  0.00     0.002 A 
ATOM     21  C   UNL A   1      31.731  25.591  22.027  1.00  0.00     0.014 A 
BRANCH  17  22
ATOM     22  S   UNL A   1      34.415  23.772  25.204  1.00  0.00     0.243 S 
ATOM     23  O   UNL A   1      33.868  24.117  26.500  1.00  0.00    -0.207 OA
ATOM     24  O   UNL A   1      35.735  24.229  24.833  1.00  0.00    -0.207 OA
BRANCH  22  25
ATOM     25  N   UNL A   1      34.342  22.065  25.009  1.00  0.00    -0.198 NA
BRANCH  25  26
ATOM     26  C   UNL A   1      35.314  21.266  25.816  1.00  0.00     0.099 C 
ATOM     27  C   UNL A   1      36.538  20.852  25.021  1.00  0.00     0.022 C 
ENDBRANCH  25  26
BRANCH  25  28
ATOM     28  C   UNL A   1      32.996  21.409  24.974  1.00  0.00     0.099 C 
ATOM     29  C   UNL A   1      32.998  20.013  24.368  1.00  0.00     0.022 C 
ENDBRANCH  25  28
ENDBRANCH  22  25
ENDBRANCH  17  22
ENDBRANCH  14  16
ENDBRANCH  10  14
BRANCH  12  30
ATOM     30  O   UNL A   1      29.457  29.723  21.376  1.00  0.00    -0.391 OA
ATOM     31  H   UNL A   1      30.091  29.013  21.190  1.00  0.00     0.211 HD
ENDBRANCH  12  30
ENDBRANCH   7   9
ENDBRANCH   6   7
ENDBRANCH   5   6
ENDBRANCH   4   5
ENDBRANCH   3   4
ENDBRANCH   2   3
ENDBRANCH   1   2
BRANCH   1  32
ATOM     32  O   UNL A   1      37.219  30.384  30.407  1.00  0.00    -0.377 OA
BRANCH  32  33
ATOM     33  C   UNL A   1      38.524  30.627  29.872  1.00  0.00     0.188 C 
BRANCH  33  34
ATOM     34  C   UNL A   1      39.027  32.073  29.841  1.00  0.00     0.188 C 
BRANCH  34  35
ATOM     35  O   UNL A   1      38.179  33.076  30.413  1.00  0.00    -0.376 OA
BRANCH  35  36
ATOM     36  C   UNL A   1      37.333  33.814  29.537  1.00  0.00     0.202 C 
BRANCH  36  37
ATOM     37  C   UNL A   1      35.839  33.682  29.824  1.00  0.00     0.261 C 
BRANCH  37  38
ATOM     38  O   UNL A   1      35.510  34.122  31.149  1.00  0.00    -0.460 OA
BRANCH  38  39
ATOM     39  C   UNL A   1      34.972  33.165  31.940  1.00  0.00     0.338 C 
ATOM     40  O   UNL A   1      34.110  32.357  31.632  1.00  0.00    -0.246 OA
BRANCH  39  41
ATOM     41  C   UNL A   1      35.667  33.124  33.240  1.00  0.00     0.060 A 
ATOM     42  C   UNL A   1      35.330  34.103  34.182  1.00  0.00     0.016 A 
ATOM     43  C   UNL A   1      36.701  32.219  33.493  1.00  0.00     0.016 A 
ATOM     44  C   UNL A   1      36.076  34.235  35.347  1.00  0.00     0.010 A 
ATOM     45  C   UNL A   1      37.456  32.356  34.661  1.00  0.00     0.010 A 
ATOM     46  C   UNL A   1      37.177  33.398  35.562  1.00  0.00    -0.014 A 
BRANCH  46  47
ATOM     47  C   UNL A   1      38.150  33.756  36.621  1.00  0.00     0.031 A 
ATOM     48  C   UNL A   1      39.397  34.502  36.226  1.00  0.00     0.074 A 
ATOM     49  C   UNL A   1      37.902  33.462  37.910  1.00  0.00     0.049 A 
ATOM     50  N   UNL A   1      40.389  34.909  36.973  1.00  0.00    -0.248 NA
ATOM     51  C   UNL A   1      39.548  34.833  34.798  1.00  0.00     0.031 C 
ATOM     52  C   UNL A   1      36.708  32.779  38.408  1.00  0.00     0.029 A 
ATOM     53  N   UNL A   1      38.648  33.699  39.035  1.00  0.00    -0.354 N 
ATOM     54  C   UNL A   1      41.289  35.519  36.106  1.00  0.00     0.074 A 
ATOM     55  C   UNL A   1      40.736  35.418  34.775  1.00  0.00     0.031 C 
ATOM     56  C   UNL A   1      36.809  32.641  39.741  1.00  0.00     0.029 A 
ATOM     57  C   UNL A   1      38.087  33.194  40.183  1.00  0.00     0.049 A 
ATOM     58  H   UNL A   1      39.504  34.186  39.022  1.00  0.00     0.167 HD
ATOM     59  C   UNL A   1      42.472  36.109  36.397  1.00  0.00     0.031 A 
ATOM     60  C   UNL A   1      38.567  33.160  41.442  1.00  0.00     0.031 A 
ATOM     61  C   UNL A   1      43.007  36.211  37.728  1.00  0.00     0.049 A 
ATOM     62  C   UNL A   1      39.906  33.789  41.730  1.00  0.00     0.074 A 
ATOM     63  C   UNL A   1      44.176  36.829  38.136  1.00  0.00     0.029 A 
ATOM     64  N   UNL A   1      42.416  35.679  38.862  1.00  0.00    -0.354 N 
ATOM     65  N   UNL A   1      40.724  34.405  40.907  1.00  0.00    -0.248 NA
ATOM     66  C   UNL A   1      40.382  33.733  43.119  1.00  0.00     0.031 C 
ATOM     67  C   UNL A   1      44.327  36.609  39.508  1.00  0.00     0.029 A 
ATOM     68  C   UNL A   1      43.214  35.921  39.967  1.00  0.00     0.049 A 
ATOM     69  H   UNL A   1      41.557  35.199  38.881  1.00  0.00     0.167 HD
ATOM     70  C   UNL A   1      41.792  34.839  41.687  1.00  0.00     0.074 A 
ATOM     71  C   UNL A   1      41.507  34.431  43.047  1.00  0.00     0.031 C 
ATOM     72  C   UNL A   1      42.908  35.514  41.314  1.00  0.00     0.031 A 
BRANCH  59  73
ATOM     73  C   UNL A   1      43.295  36.651  35.259  1.00  0.00    -0.014 A 
ATOM     74  C   UNL A   1      43.328  38.025  34.961  1.00  0.00     0.010 A 
ATOM     75  C   UNL A   1      44.119  35.773  34.531  1.00  0.00     0.010 A 
ATOM     76  C   UNL A   1      44.159  38.507  33.946  1.00  0.00     0.020 A 
ATOM     77  C   UNL A   1      44.971  36.253  33.534  1.00  0.00     0.020 A 
ATOM     78  C   UNL A   1      44.982  37.619  33.243  1.00  0.00     0.054 A 
BRANCH  78  79
ATOM     79  S   UNL A   1      46.104  38.281  31.981  1.00  0.00     0.124 S 
ATOM     80  O   UNL A   1      45.172  38.700  30.937  1.00  0.00    -0.237 OA
ATOM     81  O   UNL A   1      46.779  39.363  32.692  1.00  0.00    -0.237 OA
ATOM     82  O   UNL A   1      46.951  37.141  31.637  1.00  0.00    -0.744 OA
ENDBRANCH  78  79
ENDBRANCH  59  73
BRANCH  60  83
ATOM     83  C   UNL A   1      37.803  32.471  42.521  1.00  0.00    -0.014 A 
ATOM     84  C   UNL A   1      38.023  31.115  42.818  1.00  0.00     0.010 A 
ATOM     85  C   UNL A   1      36.813  33.173  43.235  1.00  0.00     0.010 A 
ATOM     86  C   UNL A   1      37.241  30.464  43.777  1.00  0.00     0.020 A 
ATOM     87  C   UNL A   1      36.053  32.535  44.219  1.00  0.00     0.020 A 
ATOM     88  C   UNL A   1      36.259  31.178  44.469  1.00  0.00     0.054 A 
BRANCH  88  89
ATOM     89  S   UNL A   1      35.261  30.316  45.716  1.00  0.00     0.124 S 
ATOM     90  O   UNL A   1      33.961  30.232  45.060  1.00  0.00    -0.237 OA
ATOM     91  O   UNL A   1      35.976  29.052  45.873  1.00  0.00    -0.237 OA
ATOM     92  O   UNL A   1      35.322  31.205  46.875  1.00  0.00    -0.744 OA
ENDBRANCH  88  89
ENDBRANCH  60  83
BRANCH  72  93
ATOM     93  C   UNL A   1      43.878  35.905  42.398  1.00  0.00    -0.014 A 
ATOM     94  C   UNL A   1      44.962  35.081  42.748  1.00  0.00     0.010 A 
ATOM     95  C   UNL A   1      43.723  37.145  43.045  1.00  0.00     0.010 A 
ATOM     96  C   UNL A   1      45.847  35.469  43.758  1.00  0.00     0.020 A 
ATOM     97  C   UNL A   1      44.625  37.553  44.029  1.00  0.00     0.020 A 
ATOM     98  C   UNL A   1      45.671  36.703  44.394  1.00  0.00     0.054 A 
BRANCH  98  99
ATOM     99  S   UNL A   1      46.845  37.196  45.683  1.00  0.00     0.124 S 
ATOM    100  O   UNL A   1      46.736  38.652  45.652  1.00  0.00    -0.237 OA
ATOM    101  O   UNL A   1      46.303  36.550  46.876  1.00  0.00    -0.237 OA
ATOM    102  O   UNL A   1      48.121  36.657  45.216  1.00  0.00    -0.744 OA
ENDBRANCH  98  99
ENDBRANCH  72  93
ENDBRANCH  46  47
ENDBRANCH  39  41
ENDBRANCH  38  39
ENDBRANCH  37  38
ENDBRANCH  36  37
ENDBRANCH  35  36
ENDBRANCH  34  35
ENDBRANCH  33  34
ENDBRANCH  32  33
ENDBRANCH   1  32
TORSDOF 30
ENDMDL
