MODEL 1
REMARK VINA RESULT:      -9.1      0.000      0.000
REMARK SMILES O=C(COc1ccc(Br)cc1/C=C1\C(=O)Nc2ccc(Br)cc21)OCCOCCOCCOCCOC(=O)c1ccc(-c2c3nc(c(-c4ccc(S(=O)(=O)[O-])cc4)c4ccc([nH]4)c(-c4ccc(S(=O)(=O)[O-])cc4)c4nc(c(-c5ccc(S(=O)(=O)[O-])cc5)c5ccc2[nH]5)C=C4)C=C3)cc1
REMARK SMILES IDX 30 1 29 2 28 3 27 4 26 5 25 6 24 7 2 8 1 9 3 10 4 11 5 12
REMARK SMILES IDX 6 13 11 14 7 15 10 16 8 17 9 18 12 19 13 20 14 21 23 22
REMARK SMILES IDX 15 23 16 24 17 25 22 26 18 28 20 29 19 30 21 31 31 32 32 33
REMARK SMILES IDX 33 34 34 35 35 36 36 37 37 38 38 39 39 40 40 41 98 42 41 43
REMARK SMILES IDX 97 44 42 45 43 46 44 47 91 48 45 49 96 50 90 51 92 52 46 53
REMARK SMILES IDX 95 54 89 55 88 56 47 58 77 59 58 60 76 61 59 62 62 63 75 64
REMARK SMILES IDX 93 65 60 66 61 67 74 69 94 70 63 71 48 72 49 73 57 74 50 75
REMARK SMILES IDX 56 76 51 77 52 78 53 79 54 80 55 81 78 82 79 83 87 84 80 85
REMARK SMILES IDX 86 86 81 87 82 88 83 89 84 90 85 91 64 92 65 93 73 94 66 95
REMARK SMILES IDX 72 96 67 97 68 98 69 99 70 100 71 101
REMARK H PARENT 16 27 92 57 62 68
REMARK Flexibility Score: inf
ROOT
ATOM      1  O   UNL A   1      32.297  25.691  25.741  1.00  0.00    -0.377 OA
ENDROOT
BRANCH   1   2
ATOM      2  C   UNL A   1      30.950  26.076  25.467  1.00  0.00     0.188 C 
BRANCH   2   3
ATOM      3  C   UNL A   1      30.439  25.577  24.108  1.00  0.00     0.188 C 
BRANCH   3   4
ATOM      4  O   UNL A   1      30.854  26.376  23.010  1.00  0.00    -0.376 OA
BRANCH   4   5
ATOM      5  C   UNL A   1      31.772  25.927  22.030  1.00  0.00     0.202 C 
BRANCH   5   6
ATOM      6  C   UNL A   1      33.268  26.190  22.188  1.00  0.00     0.261 C 
BRANCH   6   7
ATOM      7  O   UNL A   1      34.124  25.031  22.276  1.00  0.00    -0.461 OA
BRANCH   7   8
ATOM      8  C   UNL A   1      34.280  24.215  23.342  1.00  0.00     0.344 C 
ATOM      9  O   UNL A   1      33.331  23.537  23.731  1.00  0.00    -0.248 OA
BRANCH   8  10
ATOM     10  C   UNL A   1      35.615  24.207  24.075  1.00  0.00     0.351 C 
BRANCH  10  11
ATOM     11  O   UNL A   1      35.566  24.236  25.509  1.00  0.00    -0.481 OA
BRANCH  11  12
ATOM     12  C   UNL A   1      36.661  23.535  25.974  1.00  0.00     0.127 A 
ATOM     13  C   UNL A   1      37.597  24.256  26.739  1.00  0.00     0.048 A 
ATOM     14  C   UNL A   1      36.905  22.226  25.513  1.00  0.00     0.018 A 
ATOM     15  C   UNL A   1      38.891  23.783  26.871  1.00  0.00     0.019 A 
ATOM     16  C   UNL A   1      38.233  21.805  25.641  1.00  0.00     0.027 A 
ATOM     17  C   UNL A   1      39.214  22.577  26.277  1.00  0.00     0.018 A 
ATOM     18  Br  UNL A   1      41.008  21.976  26.290  1.00  0.00    -0.051 Br
BRANCH  14  19
ATOM     19  C   UNL A   1      35.815  21.421  24.873  1.00  0.00     0.026 C 
ATOM     20  C   UNL A   1      34.605  21.035  25.334  1.00  0.00     0.050 C 
ATOM     21  C   UNL A   1      34.032  21.251  26.706  1.00  0.00     0.256 C 
ATOM     22  C   UNL A   1      33.808  19.926  24.770  1.00  0.00     0.012 A 
ATOM     23  O   UNL A   1      33.925  22.275  27.348  1.00  0.00    -0.269 OA
ATOM     24  N   UNL A   1      33.469  20.033  27.037  1.00  0.00    -0.321 N 
ATOM     25  C   UNL A   1      33.286  19.266  25.893  1.00  0.00     0.049 A 
ATOM     26  C   UNL A   1      33.410  19.533  23.504  1.00  0.00     0.026 A 
ATOM     27  H   UNL A   1      33.232  19.751  27.949  1.00  0.00     0.170 HD
ATOM     28  C   UNL A   1      32.532  18.116  25.822  1.00  0.00     0.028 A 
ATOM     29  C   UNL A   1      32.556  18.421  23.413  1.00  0.00     0.018 A 
ATOM     30  C   UNL A   1      32.165  17.686  24.550  1.00  0.00     0.018 A 
ATOM     31  Br  UNL A   1      31.820  17.935  21.736  1.00  0.00    -0.051 Br
ENDBRANCH  14  19
ENDBRANCH  11  12
ENDBRANCH  10  11
ENDBRANCH   8  10
ENDBRANCH   7   8
ENDBRANCH   6   7
ENDBRANCH   5   6
ENDBRANCH   4   5
ENDBRANCH   3   4
ENDBRANCH   2   3
ENDBRANCH   1   2
BRANCH   1  32
ATOM     32  C   UNL A   1      33.131  26.753  26.180  1.00  0.00     0.188 C 
BRANCH  32  33
ATOM     33  C   UNL A   1      32.977  28.103  25.440  1.00  0.00     0.188 C 
BRANCH  33  34
ATOM     34  O   UNL A   1      33.847  29.209  25.654  1.00  0.00    -0.376 OA
BRANCH  34  35
ATOM     35  C   UNL A   1      33.633  30.115  26.722  1.00  0.00     0.202 C 
BRANCH  35  36
ATOM     36  C   UNL A   1      34.366  29.910  28.050  1.00  0.00     0.261 C 
BRANCH  36  37
ATOM     37  O   UNL A   1      35.727  29.497  27.917  1.00  0.00    -0.460 OA
BRANCH  37  38
ATOM     38  C   UNL A   1      36.544  29.877  28.932  1.00  0.00     0.338 C 
ATOM     39  O   UNL A   1      36.223  30.385  29.983  1.00  0.00    -0.246 OA
BRANCH  38  40
ATOM     40  C   UNL A   1      37.908  29.380  28.640  1.00  0.00     0.060 A 
ATOM     41  C   UNL A   1      38.497  29.552  27.385  1.00  0.00     0.016 A 
ATOM     42  C   UNL A   1      38.588  28.695  29.657  1.00  0.00     0.016 A 
ATOM     43  C   UNL A   1      39.792  29.082  27.166  1.00  0.00     0.010 A 
ATOM     44  C   UNL A   1      39.876  28.211  29.434  1.00  0.00     0.010 A 
ATOM     45  C   UNL A   1      40.499  28.440  28.201  1.00  0.00    -0.014 A 
BRANCH  45  46
ATOM     46  C   UNL A   1      41.962  28.266  28.076  1.00  0.00     0.031 A 
ATOM     47  C   UNL A   1      42.582  27.029  27.513  1.00  0.00     0.074 A 
ATOM     48  C   UNL A   1      42.729  29.290  28.500  1.00  0.00     0.049 A 
ATOM     49  N   UNL A   1      43.836  26.820  27.207  1.00  0.00    -0.248 NA
ATOM     50  C   UNL A   1      41.700  25.880  27.265  1.00  0.00     0.031 C 
ATOM     51  C   UNL A   1      42.210  30.523  29.101  1.00  0.00     0.029 A 
ATOM     52  N   UNL A   1      44.084  29.477  28.471  1.00  0.00    -0.354 N 
ATOM     53  C   UNL A   1      43.897  25.528  26.707  1.00  0.00     0.074 A 
ATOM     54  C   UNL A   1      42.558  24.982  26.793  1.00  0.00     0.031 C 
ATOM     55  C   UNL A   1      43.230  31.359  29.336  1.00  0.00     0.029 A 
ATOM     56  C   UNL A   1      44.473  30.716  28.924  1.00  0.00     0.049 A 
ATOM     57  H   UNL A   1      44.719  28.793  28.158  1.00  0.00     0.167 HD
ATOM     58  C   UNL A   1      44.975  24.876  26.210  1.00  0.00     0.031 A 
ATOM     59  C   UNL A   1      45.689  31.292  28.972  1.00  0.00     0.031 A 
ATOM     60  C   UNL A   1      46.302  25.440  26.155  1.00  0.00     0.049 A 
ATOM     61  C   UNL A   1      46.865  30.542  28.421  1.00  0.00     0.074 A 
ATOM     62  C   UNL A   1      47.449  24.877  25.620  1.00  0.00     0.029 A 
ATOM     63  N   UNL A   1      46.666  26.681  26.656  1.00  0.00    -0.354 N 
ATOM     64  N   UNL A   1      46.891  29.357  27.860  1.00  0.00    -0.248 NA
ATOM     65  C   UNL A   1      48.171  31.210  28.484  1.00  0.00     0.031 C 
ATOM     66  C   UNL A   1      48.516  25.745  25.861  1.00  0.00     0.029 A 
ATOM     67  C   UNL A   1      48.024  26.886  26.474  1.00  0.00     0.049 A 
ATOM     68  H   UNL A   1      46.050  27.322  27.079  1.00  0.00     0.167 HD
ATOM     69  C   UNL A   1      48.210  29.148  27.478  1.00  0.00     0.074 A 
ATOM     70  C   UNL A   1      48.949  30.335  27.861  1.00  0.00     0.031 C 
ATOM     71  C   UNL A   1      48.753  28.070  26.862  1.00  0.00     0.031 A 
BRANCH  58  72
ATOM     72  C   UNL A   1      44.790  23.487  25.652  1.00  0.00    -0.014 A 
ATOM     73  C   UNL A   1      44.904  22.369  26.500  1.00  0.00     0.010 A 
ATOM     74  C   UNL A   1      44.675  23.283  24.265  1.00  0.00     0.010 A 
ATOM     75  C   UNL A   1      44.947  21.076  25.969  1.00  0.00     0.020 A 
ATOM     76  C   UNL A   1      44.692  21.991  23.733  1.00  0.00     0.020 A 
ATOM     77  C   UNL A   1      44.855  20.897  24.586  1.00  0.00     0.054 A 
BRANCH  77  78
ATOM     78  S   UNL A   1      44.966  19.217  23.912  1.00  0.00     0.124 S 
ATOM     79  O   UNL A   1      44.029  18.481  24.756  1.00  0.00    -0.237 OA
ATOM     80  O   UNL A   1      44.554  19.404  22.522  1.00  0.00    -0.237 OA
ATOM     81  O   UNL A   1      46.375  18.870  24.090  1.00  0.00    -0.744 OA
ENDBRANCH  77  78
ENDBRANCH  58  72
BRANCH  59  82
ATOM     82  C   UNL A   1      45.806  32.686  29.477  1.00  0.00    -0.014 A 
ATOM     83  C   UNL A   1      45.862  33.769  28.581  1.00  0.00     0.010 A 
ATOM     84  C   UNL A   1      45.972  32.925  30.853  1.00  0.00     0.010 A 
ATOM     85  C   UNL A   1      46.131  35.058  29.045  1.00  0.00     0.020 A 
ATOM     86  C   UNL A   1      46.211  34.219  31.324  1.00  0.00     0.020 A 
ATOM     87  C   UNL A   1      46.316  35.273  30.413  1.00  0.00     0.054 A 
BRANCH  87  88
ATOM     88  S   UNL A   1      46.709  36.948  30.988  1.00  0.00     0.124 S 
ATOM     89  O   UNL A   1      47.795  37.326  30.090  1.00  0.00    -0.237 OA
ATOM     90  O   UNL A   1      45.448  37.658  30.786  1.00  0.00    -0.237 OA
ATOM     91  O   UNL A   1      47.091  36.748  32.384  1.00  0.00    -0.744 OA
ENDBRANCH  87  88
ENDBRANCH  59  82
BRANCH  71  92
ATOM     92  C   UNL A   1      50.226  28.103  26.549  1.00  0.00    -0.014 A 
ATOM     93  C   UNL A   1      50.655  28.487  25.264  1.00  0.00     0.010 A 
ATOM     94  C   UNL A   1      51.175  27.638  27.477  1.00  0.00     0.010 A 
ATOM     95  C   UNL A   1      51.999  28.371  24.900  1.00  0.00     0.020 A 
ATOM     96  C   UNL A   1      52.525  27.550  27.126  1.00  0.00     0.020 A 
ATOM     97  C   UNL A   1      52.923  27.891  25.831  1.00  0.00     0.054 A 
BRANCH  97  98
ATOM     98  S   UNL A   1      54.659  27.717  25.331  1.00  0.00     0.124 S 
ATOM     99  O   UNL A   1      54.885  28.946  24.577  1.00  0.00    -0.237 OA
ATOM    100  O   UNL A   1      55.355  27.626  26.611  1.00  0.00    -0.237 OA
ATOM    101  O   UNL A   1      54.664  26.489  24.540  1.00  0.00    -0.744 OA
ENDBRANCH  97  98
ENDBRANCH  71  92
ENDBRANCH  45  46
ENDBRANCH  38  40
ENDBRANCH  37  38
ENDBRANCH  36  37
ENDBRANCH  35  36
ENDBRANCH  34  35
ENDBRANCH  33  34
ENDBRANCH  32  33
ENDBRANCH   1  32
TORSDOF 26
ENDMDL
MODEL 2
REMARK VINA RESULT:      -7.9      1.396      3.449
REMARK SMILES O=C(COc1ccc(Br)cc1/C=C1\C(=O)Nc2ccc(Br)cc21)OCCOCCOCCOCCOC(=O)c1ccc(-c2c3nc(c(-c4ccc(S(=O)(=O)[O-])cc4)c4ccc([nH]4)c(-c4ccc(S(=O)(=O)[O-])cc4)c4nc(c(-c5ccc(S(=O)(=O)[O-])cc5)c5ccc2[nH]5)C=C4)C=C3)cc1
REMARK SMILES IDX 30 1 29 2 28 3 27 4 26 5 25 6 24 7 2 8 1 9 3 10 4 11 5 12
REMARK SMILES IDX 6 13 11 14 7 15 10 16 8 17 9 18 12 19 13 20 14 21 23 22
REMARK SMILES IDX 15 23 16 24 17 25 22 26 18 28 20 29 19 30 21 31 31 32 32 33
REMARK SMILES IDX 33 34 34 35 35 36 36 37 37 38 38 39 39 40 40 41 98 42 41 43
REMARK SMILES IDX 97 44 42 45 43 46 44 47 91 48 45 49 96 50 90 51 92 52 46 53
REMARK SMILES IDX 95 54 89 55 88 56 47 58 77 59 58 60 76 61 59 62 62 63 75 64
REMARK SMILES IDX 93 65 60 66 61 67 74 69 94 70 63 71 48 72 49 73 57 74 50 75
REMARK SMILES IDX 56 76 51 77 52 78 53 79 54 80 55 81 78 82 79 83 87 84 80 85
REMARK SMILES IDX 86 86 81 87 82 88 83 89 84 90 85 91 64 92 65 93 73 94 66 95
REMARK SMILES IDX 72 96 67 97 68 98 69 99 70 100 71 101
REMARK H PARENT 16 27 92 57 62 68
REMARK Flexibility Score: inf
ROOT
ATOM      1  O   UNL A   1      33.507  25.918  25.979  1.00  0.00    -0.377 OA
ENDROOT
BRANCH   1   2
ATOM      2  C   UNL A   1      32.262  26.137  26.643  1.00  0.00     0.188 C 
BRANCH   2   3
ATOM      3  C   UNL A   1      31.159  25.163  26.207  1.00  0.00     0.188 C 
BRANCH   3   4
ATOM      4  O   UNL A   1      30.073  25.787  25.537  1.00  0.00    -0.376 OA
BRANCH   4   5
ATOM      5  C   UNL A   1      30.160  26.276  24.211  1.00  0.00     0.202 C 
BRANCH   5   6
ATOM      6  C   UNL A   1      31.259  27.261  23.817  1.00  0.00     0.261 C 
BRANCH   6   7
ATOM      7  O   UNL A   1      32.218  26.803  22.839  1.00  0.00    -0.461 OA
BRANCH   7   8
ATOM      8  C   UNL A   1      32.262  25.587  22.254  1.00  0.00     0.344 C 
ATOM      9  O   UNL A   1      31.468  25.316  21.355  1.00  0.00    -0.248 OA
BRANCH   8  10
ATOM     10  C   UNL A   1      33.258  24.555  22.769  1.00  0.00     0.351 C 
BRANCH  10  11
ATOM     11  O   UNL A   1      32.985  23.978  24.054  1.00  0.00    -0.481 OA
BRANCH  11  12
ATOM     12  C   UNL A   1      33.181  22.615  23.944  1.00  0.00     0.127 A 
ATOM     13  C   UNL A   1      32.275  21.909  23.128  1.00  0.00     0.048 A 
ATOM     14  C   UNL A   1      34.111  21.968  24.780  1.00  0.00     0.018 A 
ATOM     15  C   UNL A   1      32.116  20.545  23.295  1.00  0.00     0.019 A 
ATOM     16  C   UNL A   1      33.890  20.595  24.941  1.00  0.00     0.027 A 
ATOM     17  C   UNL A   1      32.895  19.902  24.239  1.00  0.00     0.018 A 
ATOM     18  Br  UNL A   1      32.592  18.073  24.617  1.00  0.00    -0.051 Br
BRANCH  14  19
ATOM     19  C   UNL A   1      35.184  22.744  25.482  1.00  0.00     0.026 C 
ATOM     20  C   UNL A   1      36.501  22.883  25.216  1.00  0.00     0.050 C 
ATOM     21  C   UNL A   1      37.299  22.202  24.139  1.00  0.00     0.256 C 
ATOM     22  C   UNL A   1      37.510  23.338  26.193  1.00  0.00     0.012 A 
ATOM     23  O   UNL A   1      37.087  22.129  22.947  1.00  0.00    -0.269 OA
ATOM     24  N   UNL A   1      38.459  21.804  24.775  1.00  0.00    -0.321 N 
ATOM     25  C   UNL A   1      38.618  22.507  25.963  1.00  0.00     0.049 A 
ATOM     26  C   UNL A   1      37.620  24.383  27.094  1.00  0.00     0.026 A 
ATOM     27  H   UNL A   1      39.082  21.122  24.436  1.00  0.00     0.170 HD
ATOM     28  C   UNL A   1      39.771  22.544  26.715  1.00  0.00     0.028 A 
ATOM     29  C   UNL A   1      38.830  24.501  27.800  1.00  0.00     0.018 A 
ATOM     30  C   UNL A   1      39.871  23.563  27.656  1.00  0.00     0.018 A 
ATOM     31  Br  UNL A   1      39.126  26.007  28.911  1.00  0.00    -0.051 Br
ENDBRANCH  14  19
ENDBRANCH  11  12
ENDBRANCH  10  11
ENDBRANCH   8  10
ENDBRANCH   7   8
ENDBRANCH   6   7
ENDBRANCH   5   6
ENDBRANCH   4   5
ENDBRANCH   3   4
ENDBRANCH   2   3
ENDBRANCH   1   2
BRANCH   1  32
ATOM     32  C   UNL A   1      34.415  27.006  26.065  1.00  0.00     0.188 C 
BRANCH  32  33
ATOM     33  C   UNL A   1      33.859  28.400  25.685  1.00  0.00     0.188 C 
BRANCH  33  34
ATOM     34  O   UNL A   1      34.544  29.613  25.975  1.00  0.00    -0.376 OA
BRANCH  34  35
ATOM     35  C   UNL A   1      34.223  30.382  27.122  1.00  0.00     0.202 C 
BRANCH  35  36
ATOM     36  C   UNL A   1      35.132  30.329  28.352  1.00  0.00     0.261 C 
BRANCH  36  37
ATOM     37  O   UNL A   1      36.497  30.018  28.064  1.00  0.00    -0.460 OA
BRANCH  37  38
ATOM     38  C   UNL A   1      37.405  30.617  28.877  1.00  0.00     0.338 C 
ATOM     39  O   UNL A   1      37.185  31.394  29.779  1.00  0.00    -0.246 OA
BRANCH  38  40
ATOM     40  C   UNL A   1      38.730  30.007  28.619  1.00  0.00     0.060 A 
ATOM     41  C   UNL A   1      39.139  29.662  27.330  1.00  0.00     0.016 A 
ATOM     42  C   UNL A   1      39.559  29.751  29.721  1.00  0.00     0.016 A 
ATOM     43  C   UNL A   1      40.404  29.107  27.138  1.00  0.00     0.010 A 
ATOM     44  C   UNL A   1      40.818  29.183  29.532  1.00  0.00     0.010 A 
ATOM     45  C   UNL A   1      41.262  28.898  28.234  1.00  0.00    -0.014 A 
BRANCH  45  46
ATOM     46  C   UNL A   1      42.699  28.647  27.991  1.00  0.00     0.031 A 
ATOM     47  C   UNL A   1      43.207  27.372  27.401  1.00  0.00     0.074 A 
ATOM     48  C   UNL A   1      43.548  29.637  28.330  1.00  0.00     0.049 A 
ATOM     49  N   UNL A   1      44.419  27.095  26.997  1.00  0.00    -0.248 NA
ATOM     50  C   UNL A   1      42.251  26.266  27.251  1.00  0.00     0.031 C 
ATOM     51  C   UNL A   1      43.143  30.904  28.949  1.00  0.00     0.029 A 
ATOM     52  N   UNL A   1      44.904  29.755  28.184  1.00  0.00    -0.354 N 
ATOM     53  C   UNL A   1      44.373  25.794  26.518  1.00  0.00     0.074 A 
ATOM     54  C   UNL A   1      43.021  25.318  26.726  1.00  0.00     0.031 C 
ATOM     55  C   UNL A   1      44.220  31.689  29.081  1.00  0.00     0.029 A 
ATOM     56  C   UNL A   1      45.391  30.979  28.579  1.00  0.00     0.049 A 
ATOM     57  H   UNL A   1      45.475  29.034  27.832  1.00  0.00     0.167 HD
ATOM     58  C   UNL A   1      45.372  25.081  25.944  1.00  0.00     0.031 A 
ATOM     59  C   UNL A   1      46.633  31.493  28.514  1.00  0.00     0.031 A 
ATOM     60  C   UNL A   1      46.716  25.576  25.768  1.00  0.00     0.049 A 
ATOM     61  C   UNL A   1      47.720  30.675  27.881  1.00  0.00     0.074 A 
ATOM     62  C   UNL A   1      47.784  24.947  25.150  1.00  0.00     0.029 A 
ATOM     63  N   UNL A   1      47.182  26.804  26.213  1.00  0.00    -0.354 N 
ATOM     64  N   UNL A   1      47.639  29.482  27.343  1.00  0.00    -0.248 NA
ATOM     65  C   UNL A   1      49.058  31.278  27.823  1.00  0.00     0.031 C 
ATOM     66  C   UNL A   1      48.909  25.763  25.284  1.00  0.00     0.029 A 
ATOM     67  C   UNL A   1      48.528  26.937  25.914  1.00  0.00     0.049 A 
ATOM     68  H   UNL A   1      46.636  27.482  26.674  1.00  0.00     0.167 HD
ATOM     69  C   UNL A   1      48.910  29.201  26.856  1.00  0.00     0.074 A 
ATOM     70  C   UNL A   1      49.736  30.354  27.153  1.00  0.00     0.031 C 
ATOM     71  C   UNL A   1      49.345  28.088  26.217  1.00  0.00     0.031 A 
BRANCH  58  72
ATOM     72  C   UNL A   1      45.072  23.695  25.431  1.00  0.00    -0.014 A 
ATOM     73  C   UNL A   1      44.600  22.706  26.313  1.00  0.00     0.010 A 
ATOM     74  C   UNL A   1      45.419  23.329  24.117  1.00  0.00     0.010 A 
ATOM     75  C   UNL A   1      44.519  21.370  25.907  1.00  0.00     0.020 A 
ATOM     76  C   UNL A   1      45.316  21.999  23.699  1.00  0.00     0.020 A 
ATOM     77  C   UNL A   1      44.892  21.024  24.605  1.00  0.00     0.054 A 
BRANCH  77  78
ATOM     78  S   UNL A   1      44.831  19.279  24.112  1.00  0.00     0.124 S 
ATOM     79  O   UNL A   1      46.201  18.840  24.355  1.00  0.00    -0.237 OA
ATOM     80  O   UNL A   1      43.820  18.729  25.013  1.00  0.00    -0.237 OA
ATOM     81  O   UNL A   1      44.431  19.336  22.707  1.00  0.00    -0.744 OA
ENDBRANCH  77  78
ENDBRANCH  58  72
BRANCH  59  82
ATOM     82  C   UNL A   1      46.861  32.886  28.981  1.00  0.00    -0.014 A 
ATOM     83  C   UNL A   1      47.149  33.149  30.333  1.00  0.00     0.010 A 
ATOM     84  C   UNL A   1      46.684  33.964  28.096  1.00  0.00     0.010 A 
ATOM     85  C   UNL A   1      47.206  34.463  30.802  1.00  0.00     0.020 A 
ATOM     86  C   UNL A   1      46.771  35.281  28.556  1.00  0.00     0.020 A 
ATOM     87  C   UNL A   1      47.005  35.520  29.912  1.00  0.00     0.054 A 
BRANCH  87  88
ATOM     88  S   UNL A   1      47.038  37.218  30.551  1.00  0.00     0.124 S 
ATOM     89  O   UNL A   1      45.693  37.685  30.231  1.00  0.00    -0.237 OA
ATOM     90  O   UNL A   1      47.313  37.017  31.972  1.00  0.00    -0.237 OA
ATOM     91  O   UNL A   1      48.117  37.847  29.794  1.00  0.00    -0.744 OA
ENDBRANCH  87  88
ENDBRANCH  59  82
BRANCH  71  92
ATOM     92  C   UNL A   1      50.786  28.041  25.781  1.00  0.00    -0.014 A 
ATOM     93  C   UNL A   1      51.116  28.311  24.439  1.00  0.00     0.010 A 
ATOM     94  C   UNL A   1      51.795  27.612  26.661  1.00  0.00     0.010 A 
ATOM     95  C   UNL A   1      52.419  28.118  23.975  1.00  0.00     0.020 A 
ATOM     96  C   UNL A   1      53.107  27.446  26.208  1.00  0.00     0.020 A 
ATOM     97  C   UNL A   1      53.404  27.674  24.861  1.00  0.00     0.054 A 
BRANCH  97  98
ATOM     98  S   UNL A   1      55.083  27.397  24.235  1.00  0.00     0.124 S 
ATOM     99  O   UNL A   1      55.776  26.906  25.422  1.00  0.00    -0.237 OA
ATOM    100  O   UNL A   1      54.875  26.414  23.175  1.00  0.00    -0.237 OA
ATOM    101  O   UNL A   1      55.498  28.720  23.773  1.00  0.00    -0.744 OA
ENDBRANCH  97  98
ENDBRANCH  71  92
ENDBRANCH  45  46
ENDBRANCH  38  40
ENDBRANCH  37  38
ENDBRANCH  36  37
ENDBRANCH  35  36
ENDBRANCH  34  35
ENDBRANCH  33  34
ENDBRANCH  32  33
ENDBRANCH   1  32
TORSDOF 26
ENDMDL
MODEL 3
REMARK VINA RESULT:      -7.5      4.437      5.527
REMARK SMILES O=C(COc1ccc(Br)cc1/C=C1\C(=O)Nc2ccc(Br)cc21)OCCOCCOCCOCCOC(=O)c1ccc(-c2c3nc(c(-c4ccc(S(=O)(=O)[O-])cc4)c4ccc([nH]4)c(-c4ccc(S(=O)(=O)[O-])cc4)c4nc(c(-c5ccc(S(=O)(=O)[O-])cc5)c5ccc2[nH]5)C=C4)C=C3)cc1
REMARK SMILES IDX 30 1 29 2 28 3 27 4 26 5 25 6 24 7 2 8 1 9 3 10 4 11 5 12
REMARK SMILES IDX 6 13 11 14 7 15 10 16 8 17 9 18 12 19 13 20 14 21 23 22
REMARK SMILES IDX 15 23 16 24 17 25 22 26 18 28 20 29 19 30 21 31 31 32 32 33
REMARK SMILES IDX 33 34 34 35 35 36 36 37 37 38 38 39 39 40 40 41 98 42 41 43
REMARK SMILES IDX 97 44 42 45 43 46 44 47 91 48 45 49 96 50 90 51 92 52 46 53
REMARK SMILES IDX 95 54 89 55 88 56 47 58 77 59 58 60 76 61 59 62 62 63 75 64
REMARK SMILES IDX 93 65 60 66 61 67 74 69 94 70 63 71 48 72 49 73 57 74 50 75
REMARK SMILES IDX 56 76 51 77 52 78 53 79 54 80 55 81 78 82 79 83 87 84 80 85
REMARK SMILES IDX 86 86 81 87 82 88 83 89 84 90 85 91 64 92 65 93 73 94 66 95
REMARK SMILES IDX 72 96 67 97 68 98 69 99 70 100 71 101
REMARK H PARENT 16 27 92 57 62 68
REMARK Flexibility Score: inf
ROOT
ATOM      1  O   UNL A   1      31.732  25.425  26.077  1.00  0.00    -0.377 OA
ENDROOT
BRANCH   1   2
ATOM      2  C   UNL A   1      30.618  25.937  25.344  1.00  0.00     0.188 C 
BRANCH   2   3
ATOM      3  C   UNL A   1      30.545  25.413  23.903  1.00  0.00     0.188 C 
BRANCH   3   4
ATOM      4  O   UNL A   1      30.722  26.420  22.917  1.00  0.00    -0.376 OA
BRANCH   4   5
ATOM      5  C   UNL A   1      31.805  26.427  22.004  1.00  0.00     0.202 C 
BRANCH   5   6
ATOM      6  C   UNL A   1      33.245  26.512  22.508  1.00  0.00     0.261 C 
BRANCH   6   7
ATOM      7  O   UNL A   1      34.074  25.349  22.296  1.00  0.00    -0.461 OA
BRANCH   7   8
ATOM      8  C   UNL A   1      34.229  24.299  23.131  1.00  0.00     0.344 C 
ATOM      9  O   UNL A   1      33.291  23.523  23.313  1.00  0.00    -0.248 OA
BRANCH   8  10
ATOM     10  C   UNL A   1      35.546  24.139  23.879  1.00  0.00     0.351 C 
BRANCH  10  11
ATOM     11  O   UNL A   1      35.535  24.442  25.282  1.00  0.00    -0.481 OA
BRANCH  11  12
ATOM     12  C   UNL A   1      36.589  23.762  25.859  1.00  0.00     0.127 A 
ATOM     13  C   UNL A   1      37.496  24.525  26.619  1.00  0.00     0.048 A 
ATOM     14  C   UNL A   1      36.834  22.418  25.513  1.00  0.00     0.018 A 
ATOM     15  C   UNL A   1      38.772  24.045  26.859  1.00  0.00     0.019 A 
ATOM     16  C   UNL A   1      38.145  21.988  25.747  1.00  0.00     0.027 A 
ATOM     17  C   UNL A   1      39.104  22.792  26.377  1.00  0.00     0.018 A 
ATOM     18  Br  UNL A   1      40.883  22.168  26.536  1.00  0.00    -0.051 Br
BRANCH  14  19
ATOM     19  C   UNL A   1      35.766  21.582  24.875  1.00  0.00     0.026 C 
ATOM     20  C   UNL A   1      34.566  21.167  25.336  1.00  0.00     0.050 C 
ATOM     21  C   UNL A   1      33.985  21.375  26.707  1.00  0.00     0.256 C 
ATOM     22  C   UNL A   1      33.799  20.036  24.776  1.00  0.00     0.012 A 
ATOM     23  O   UNL A   1      33.852  22.399  27.345  1.00  0.00    -0.269 OA
ATOM     24  N   UNL A   1      33.453  20.145  27.042  1.00  0.00    -0.321 N 
ATOM     25  C   UNL A   1      33.292  19.367  25.902  1.00  0.00     0.049 A 
ATOM     26  C   UNL A   1      33.412  19.627  23.512  1.00  0.00     0.026 A 
ATOM     27  H   UNL A   1      33.223  19.860  27.955  1.00  0.00     0.170 HD
ATOM     28  C   UNL A   1      32.567  18.198  25.835  1.00  0.00     0.028 A 
ATOM     29  C   UNL A   1      32.586  18.493  23.425  1.00  0.00     0.018 A 
ATOM     30  C   UNL A   1      32.214  17.754  24.565  1.00  0.00     0.018 A 
ATOM     31  Br  UNL A   1      31.866  17.981  21.749  1.00  0.00    -0.051 Br
ENDBRANCH  14  19
ENDBRANCH  11  12
ENDBRANCH  10  11
ENDBRANCH   8  10
ENDBRANCH   7   8
ENDBRANCH   6   7
ENDBRANCH   5   6
ENDBRANCH   4   5
ENDBRANCH   3   4
ENDBRANCH   2   3
ENDBRANCH   1   2
BRANCH   1  32
ATOM     32  C   UNL A   1      32.548  26.423  26.671  1.00  0.00     0.188 C 
BRANCH  32  33
ATOM     33  C   UNL A   1      32.586  27.798  25.962  1.00  0.00     0.188 C 
BRANCH  33  34
ATOM     34  O   UNL A   1      33.571  28.786  26.237  1.00  0.00    -0.376 OA
BRANCH  34  35
ATOM     35  C   UNL A   1      33.251  30.167  26.224  1.00  0.00     0.202 C 
BRANCH  35  36
ATOM     36  C   UNL A   1      33.391  30.992  27.505  1.00  0.00     0.261 C 
BRANCH  36  37
ATOM     37  O   UNL A   1      34.662  30.875  28.147  1.00  0.00    -0.460 OA
BRANCH  37  38
ATOM     38  C   UNL A   1      35.005  31.925  28.937  1.00  0.00     0.338 C 
ATOM     39  O   UNL A   1      34.280  32.801  29.351  1.00  0.00    -0.246 OA
BRANCH  38  40
ATOM     40  C   UNL A   1      36.399  31.724  29.396  1.00  0.00     0.060 A 
ATOM     41  C   UNL A   1      37.314  30.975  28.653  1.00  0.00     0.016 A 
ATOM     42  C   UNL A   1      36.770  32.282  30.628  1.00  0.00     0.016 A 
ATOM     43  C   UNL A   1      38.620  30.831  29.120  1.00  0.00     0.010 A 
ATOM     44  C   UNL A   1      38.071  32.125  31.103  1.00  0.00     0.010 A 
ATOM     45  C   UNL A   1      39.013  31.434  30.330  1.00  0.00    -0.014 A 
BRANCH  45  46
ATOM     46  C   UNL A   1      40.453  31.573  30.634  1.00  0.00     0.031 A 
ATOM     47  C   UNL A   1      41.248  30.489  31.286  1.00  0.00     0.074 A 
ATOM     48  C   UNL A   1      41.031  32.742  30.293  1.00  0.00     0.049 A 
ATOM     49  N   UNL A   1      42.542  30.429  31.461  1.00  0.00    -0.248 NA
ATOM     50  C   UNL A   1      40.512  29.332  31.815  1.00  0.00     0.031 C 
ATOM     51  C   UNL A   1      40.321  33.873  29.686  1.00  0.00     0.029 A 
ATOM     52  N   UNL A   1      42.330  33.167  30.375  1.00  0.00    -0.354 N 
ATOM     53  C   UNL A   1      42.786  29.220  32.097  1.00  0.00     0.074 A 
ATOM     54  C   UNL A   1      41.498  28.597  32.319  1.00  0.00     0.031 C 
ATOM     55  C   UNL A   1      41.203  34.841  29.404  1.00  0.00     0.029 A 
ATOM     56  C   UNL A   1      42.531  34.412  29.827  1.00  0.00     0.049 A 
ATOM     57  H   UNL A   1      43.048  32.634  30.786  1.00  0.00     0.167 HD
ATOM     58  C   UNL A   1      43.982  28.686  32.441  1.00  0.00     0.031 A 
ATOM     59  C   UNL A   1      43.662  35.120  29.649  1.00  0.00     0.031 A 
ATOM     60  C   UNL A   1      45.249  29.341  32.224  1.00  0.00     0.049 A 
ATOM     61  C   UNL A   1      44.970  34.504  30.048  1.00  0.00     0.074 A 
ATOM     62  C   UNL A   1      46.519  28.855  32.491  1.00  0.00     0.029 A 
ATOM     63  N   UNL A   1      45.413  30.615  31.702  1.00  0.00    -0.354 N 
ATOM     64  N   UNL A   1      45.194  33.317  30.558  1.00  0.00    -0.248 NA
ATOM     65  C   UNL A   1      46.179  35.307  29.828  1.00  0.00     0.031 C 
ATOM     66  C   UNL A   1      47.442  29.861  32.198  1.00  0.00     0.029 A 
ATOM     67  C   UNL A   1      46.758  30.946  31.672  1.00  0.00     0.049 A 
ATOM     68  H   UNL A   1      44.681  31.199  31.398  1.00  0.00     0.167 HD
ATOM     69  C   UNL A   1      46.573  33.219  30.695  1.00  0.00     0.074 A 
ATOM     70  C   UNL A   1      47.131  34.463  30.202  1.00  0.00     0.031 C 
ATOM     71  C   UNL A   1      47.306  32.188  31.182  1.00  0.00     0.031 A 
BRANCH  58  72
ATOM     72  C   UNL A   1      44.010  27.314  33.067  1.00  0.00    -0.014 A 
ATOM     73  C   UNL A   1      44.031  27.181  34.468  1.00  0.00     0.010 A 
ATOM     74  C   UNL A   1      44.189  26.168  32.270  1.00  0.00     0.010 A 
ATOM     75  C   UNL A   1      44.270  25.937  35.061  1.00  0.00     0.020 A 
ATOM     76  C   UNL A   1      44.403  24.919  32.859  1.00  0.00     0.020 A 
ATOM     77  C   UNL A   1      44.469  24.816  34.251  1.00  0.00     0.054 A 
BRANCH  77  78
ATOM     78  S   UNL A   1      44.830  23.222  35.037  1.00  0.00     0.124 S 
ATOM     79  O   UNL A   1      46.133  22.886  34.472  1.00  0.00    -0.237 OA
ATOM     80  O   UNL A   1      44.823  23.559  36.459  1.00  0.00    -0.237 OA
ATOM     81  O   UNL A   1      43.723  22.370  34.605  1.00  0.00    -0.744 OA
ENDBRANCH  77  78
ENDBRANCH  58  72
BRANCH  59  82
ATOM     82  C   UNL A   1      43.584  36.443  28.973  1.00  0.00    -0.014 A 
ATOM     83  C   UNL A   1      43.536  37.629  29.728  1.00  0.00     0.010 A 
ATOM     84  C   UNL A   1      43.448  36.514  27.576  1.00  0.00     0.010 A 
ATOM     85  C   UNL A   1      43.303  38.856  29.103  1.00  0.00     0.020 A 
ATOM     86  C   UNL A   1      43.246  37.744  26.944  1.00  0.00     0.020 A 
ATOM     87  C   UNL A   1      43.148  38.904  27.716  1.00  0.00     0.054 A 
BRANCH  87  88
ATOM     88  S   UNL A   1      42.801  40.502  26.931  1.00  0.00     0.124 S 
ATOM     89  O   UNL A   1      43.404  41.437  27.876  1.00  0.00    -0.237 OA
ATOM     90  O   UNL A   1      43.483  40.379  25.645  1.00  0.00    -0.237 OA
ATOM     91  O   UNL A   1      41.343  40.538  26.858  1.00  0.00    -0.744 OA
ENDBRANCH  87  88
ENDBRANCH  59  82
BRANCH  71  92
ATOM     92  C   UNL A   1      48.804  32.338  31.213  1.00  0.00    -0.014 A 
ATOM     93  C   UNL A   1      49.419  32.946  32.324  1.00  0.00     0.010 A 
ATOM     94  C   UNL A   1      49.589  31.994  30.099  1.00  0.00     0.010 A 
ATOM     95  C   UNL A   1      50.785  33.241  32.306  1.00  0.00     0.020 A 
ATOM     96  C   UNL A   1      50.962  32.260  30.089  1.00  0.00     0.020 A 
ATOM     97  C   UNL A   1      51.544  32.906  31.183  1.00  0.00     0.054 A 
BRANCH  97  98
ATOM     98  S   UNL A   1      53.309  33.326  31.163  1.00  0.00     0.124 S 
ATOM     99  O   UNL A   1      53.451  34.108  32.388  1.00  0.00    -0.237 OA
ATOM    100  O   UNL A   1      53.953  32.016  31.174  1.00  0.00    -0.237 OA
ATOM    101  O   UNL A   1      53.468  34.078  29.921  1.00  0.00    -0.744 OA
ENDBRANCH  97  98
ENDBRANCH  71  92
ENDBRANCH  45  46
ENDBRANCH  38  40
ENDBRANCH  37  38
ENDBRANCH  36  37
ENDBRANCH  35  36
ENDBRANCH  34  35
ENDBRANCH  33  34
ENDBRANCH  32  33
ENDBRANCH   1  32
TORSDOF 26
ENDMDL
