MODEL 1
REMARK VINA RESULT:      -6.3      0.000      0.000
REMARK SMILES COc1cc(Cl)ccc1NC(=O)COc1ccccc1C(=O)OCCOCCOCCOCCOC(=O)c1ccc(-c2c3nc(c(-c4ccc(S(=O)(=O)[O-])cc4)c4ccc([nH]4)c(-c4ccc(S(=O)(=O)[O-])cc4)c4nc(c(-c5ccc(S(=O)(=O)[O-])cc5)c5ccc2[nH]5)C=C4)C=C3)cc1
REMARK SMILES IDX 28 1 27 2 26 3 25 4 24 5 23 6 21 7 22 8 20 9 15 10 16 11
REMARK SMILES IDX 17 12 19 13 18 14 14 15 13 16 11 17 10 18 12 20 9 21 3 22
REMARK SMILES IDX 4 23 5 24 8 25 6 26 7 27 2 28 1 29 29 30 30 31 31 32 32 33
REMARK SMILES IDX 33 34 34 35 35 36 36 37 37 38 38 39 39 40 97 41 40 42 96 43
REMARK SMILES IDX 41 44 42 45 43 46 90 47 44 48 95 49 89 50 91 51 45 52 94 53
REMARK SMILES IDX 88 54 87 55 46 57 76 58 57 59 75 60 58 61 61 62 74 63 92 64
REMARK SMILES IDX 59 65 60 66 73 68 93 69 62 70 47 71 48 72 56 73 49 74 55 75
REMARK SMILES IDX 50 76 51 77 52 78 53 79 54 80 77 81 78 82 86 83 79 84 85 85
REMARK SMILES IDX 80 86 81 87 82 88 83 89 84 90 63 91 64 92 72 93 65 94 71 95
REMARK SMILES IDX 66 96 67 97 68 98 69 99 70 100
REMARK H PARENT 10 19 91 56 61 67
REMARK Flexibility Score: inf
ROOT
ATOM      1  C   UNL A   1      40.790  29.103  34.580  1.00  0.00     0.188 C 
ENDROOT
BRANCH   1   2
ATOM      2  C   UNL A   1      40.406  28.038  33.558  1.00  0.00     0.188 C 
BRANCH   2   3
ATOM      3  O   UNL A   1      39.044  27.752  33.244  1.00  0.00    -0.376 OA
BRANCH   3   4
ATOM      4  C   UNL A   1      38.636  27.564  31.897  1.00  0.00     0.202 C 
BRANCH   4   5
ATOM      5  C   UNL A   1      38.878  28.738  30.943  1.00  0.00     0.261 C 
BRANCH   5   6
ATOM      6  O   UNL A   1      38.883  30.016  31.595  1.00  0.00    -0.460 OA
BRANCH   6   7
ATOM      7  C   UNL A   1      39.686  30.945  31.059  1.00  0.00     0.342 C 
ATOM      8  O   UNL A   1      40.806  30.735  30.590  1.00  0.00    -0.246 OA
BRANCH   7   9
ATOM      9  C   UNL A   1      39.008  32.259  30.893  1.00  0.00     0.102 A 
ATOM     10  C   UNL A   1      38.506  33.142  31.860  1.00  0.00     0.134 A 
ATOM     11  C   UNL A   1      38.003  34.387  31.412  1.00  0.00     0.047 A 
ATOM     12  C   UNL A   1      37.924  34.731  30.061  1.00  0.00     0.004 A 
ATOM     13  C   UNL A   1      38.862  32.601  29.521  1.00  0.00     0.019 A 
ATOM     14  C   UNL A   1      38.318  33.813  29.107  1.00  0.00     0.001 A 
BRANCH  10  15
ATOM     15  O   UNL A   1      38.321  33.051  33.206  1.00  0.00    -0.483 OA
BRANCH  15  16
ATOM     16  C   UNL A   1      37.314  32.308  33.859  1.00  0.00     0.329 C 
BRANCH  16  17
ATOM     17  C   UNL A   1      36.116  33.087  34.413  1.00  0.00     0.262 C 
ATOM     18  N   UNL A   1      34.991  33.261  33.674  1.00  0.00    -0.320 N 
ATOM     19  H   UNL A   1      34.175  33.342  34.217  1.00  0.00     0.170 HD
ATOM     20  O   UNL A   1      36.127  33.527  35.568  1.00  0.00    -0.271 OA
BRANCH  18  21
ATOM     21  C   UNL A   1      34.755  33.348  32.296  1.00  0.00     0.084 A 
ATOM     22  C   UNL A   1      34.341  34.594  31.828  1.00  0.00     0.143 A 
ATOM     23  C   UNL A   1      34.143  34.827  30.466  1.00  0.00     0.069 A 
ATOM     24  C   UNL A   1      34.365  33.806  29.557  1.00  0.00     0.044 A 
ATOM     25  C   UNL A   1      34.979  32.331  31.378  1.00  0.00     0.031 A 
ATOM     26  Cl  UNL A   1      34.084  34.084  27.882  1.00  0.00    -0.084 Cl
ATOM     27  C   UNL A   1      34.776  32.558  30.008  1.00  0.00     0.023 A 
BRANCH  22  28
ATOM     28  O   UNL A   1      33.920  35.469  32.792  1.00  0.00    -0.495 OA
ATOM     29  C   UNL A   1      33.409  36.670  32.288  1.00  0.00     0.278 C 
ENDBRANCH  22  28
ENDBRANCH  18  21
ENDBRANCH  16  17
ENDBRANCH  15  16
ENDBRANCH  10  15
ENDBRANCH   7   9
ENDBRANCH   6   7
ENDBRANCH   5   6
ENDBRANCH   4   5
ENDBRANCH   3   4
ENDBRANCH   2   3
ENDBRANCH   1   2
BRANCH   1  30
ATOM     30  O   UNL A   1      40.908  28.655  35.920  1.00  0.00    -0.377 OA
BRANCH  30  31
ATOM     31  C   UNL A   1      41.911  27.698  36.247  1.00  0.00     0.188 C 
BRANCH  31  32
ATOM     32  C   UNL A   1      41.526  26.430  37.057  1.00  0.00     0.188 C 
BRANCH  32  33
ATOM     33  O   UNL A   1      40.799  25.488  36.263  1.00  0.00    -0.376 OA
BRANCH  33  34
ATOM     34  C   UNL A   1      41.509  24.507  35.501  1.00  0.00     0.202 C 
BRANCH  34  35
ATOM     35  C   UNL A   1      42.921  24.180  36.129  1.00  0.00     0.261 C 
BRANCH  35  36
ATOM     36  O   UNL A   1      43.537  22.968  35.451  1.00  0.00    -0.460 OA
BRANCH  36  37
ATOM     37  C   UNL A   1      44.684  22.792  34.682  1.00  0.00     0.338 C 
ATOM     38  O   UNL A   1      45.050  21.666  34.354  1.00  0.00    -0.246 OA
BRANCH  37  39
ATOM     39  C   UNL A   1      45.270  23.934  33.823  1.00  0.00     0.060 A 
ATOM     40  C   UNL A   1      46.480  24.582  34.161  1.00  0.00     0.016 A 
ATOM     41  C   UNL A   1      44.597  24.437  32.697  1.00  0.00     0.016 A 
ATOM     42  C   UNL A   1      47.079  25.561  33.323  1.00  0.00     0.010 A 
ATOM     43  C   UNL A   1      45.155  25.478  31.900  1.00  0.00     0.010 A 
ATOM     44  C   UNL A   1      46.408  26.053  32.197  1.00  0.00    -0.014 A 
BRANCH  44  45
ATOM     45  C   UNL A   1      46.790  27.391  31.611  1.00  0.00     0.031 A 
ATOM     46  C   UNL A   1      46.073  28.591  32.193  1.00  0.00     0.074 A 
ATOM     47  C   UNL A   1      47.709  27.604  30.641  1.00  0.00     0.049 A 
ATOM     48  N   UNL A   1      46.004  29.827  31.770  1.00  0.00    -0.248 NA
ATOM     49  C   UNL A   1      45.317  28.340  33.432  1.00  0.00     0.031 C 
ATOM     50  C   UNL A   1      48.602  26.602  30.061  1.00  0.00     0.029 A 
ATOM     51  N   UNL A   1      48.034  28.763  29.956  1.00  0.00    -0.354 N 
ATOM     52  C   UNL A   1      45.156  30.480  32.662  1.00  0.00     0.074 A 
ATOM     53  C   UNL A   1      44.742  29.510  33.647  1.00  0.00     0.031 C 
ATOM     54  C   UNL A   1      49.345  27.178  29.093  1.00  0.00     0.029 A 
ATOM     55  C   UNL A   1      48.943  28.577  28.934  1.00  0.00     0.049 A 
ATOM     56  H   UNL A   1      47.650  29.641  30.179  1.00  0.00     0.167 HD
ATOM     57  C   UNL A   1      44.738  31.769  32.660  1.00  0.00     0.031 A 
ATOM     58  C   UNL A   1      49.365  29.418  27.960  1.00  0.00     0.031 A 
ATOM     59  C   UNL A   1      45.139  32.736  31.678  1.00  0.00     0.049 A 
ATOM     60  C   UNL A   1      48.804  30.824  27.894  1.00  0.00     0.074 A 
ATOM     61  C   UNL A   1      44.759  34.062  31.569  1.00  0.00     0.029 A 
ATOM     62  N   UNL A   1      46.013  32.479  30.633  1.00  0.00    -0.354 N 
ATOM     63  N   UNL A   1      47.957  31.413  28.707  1.00  0.00    -0.248 NA
ATOM     64  C   UNL A   1      49.246  31.675  26.776  1.00  0.00     0.031 C 
ATOM     65  C   UNL A   1      45.359  34.591  30.421  1.00  0.00     0.029 A 
ATOM     66  C   UNL A   1      46.168  33.615  29.858  1.00  0.00     0.049 A 
ATOM     67  H   UNL A   1      46.458  31.617  30.467  1.00  0.00     0.167 HD
ATOM     68  C   UNL A   1      47.790  32.707  28.216  1.00  0.00     0.074 A 
ATOM     69  C   UNL A   1      48.629  32.821  27.042  1.00  0.00     0.031 C 
ATOM     70  C   UNL A   1      47.013  33.712  28.695  1.00  0.00     0.031 A 
BRANCH  57  71
ATOM     71  C   UNL A   1      43.738  32.172  33.715  1.00  0.00    -0.014 A 
ATOM     72  C   UNL A   1      44.135  32.481  35.030  1.00  0.00     0.010 A 
ATOM     73  C   UNL A   1      42.372  32.232  33.383  1.00  0.00     0.010 A 
ATOM     74  C   UNL A   1      43.179  32.794  36.002  1.00  0.00     0.020 A 
ATOM     75  C   UNL A   1      41.417  32.580  34.344  1.00  0.00     0.020 A 
ATOM     76  C   UNL A   1      41.826  32.838  35.653  1.00  0.00     0.054 A 
BRANCH  76  77
ATOM     77  S   UNL A   1      40.612  33.262  36.931  1.00  0.00     0.124 S 
ATOM     78  O   UNL A   1      41.353  34.225  37.744  1.00  0.00    -0.237 OA
ATOM     79  O   UNL A   1      39.509  33.818  36.152  1.00  0.00    -0.237 OA
ATOM     80  O   UNL A   1      40.331  31.985  37.582  1.00  0.00    -0.744 OA
ENDBRANCH  76  77
ENDBRANCH  57  71
BRANCH  58  81
ATOM     81  C   UNL A   1      50.331  28.952  26.912  1.00  0.00    -0.014 A 
ATOM     82  C   UNL A   1      51.712  29.193  27.037  1.00  0.00     0.010 A 
ATOM     83  C   UNL A   1      49.870  28.276  25.766  1.00  0.00     0.010 A 
ATOM     84  C   UNL A   1      52.608  28.763  26.049  1.00  0.00     0.020 A 
ATOM     85  C   UNL A   1      50.764  27.820  24.788  1.00  0.00     0.020 A 
ATOM     86  C   UNL A   1      52.130  28.070  24.935  1.00  0.00     0.054 A 
BRANCH  86  87
ATOM     87  S   UNL A   1      53.317  27.450  23.706  1.00  0.00     0.124 S 
ATOM     88  O   UNL A   1      52.905  28.157  22.497  1.00  0.00    -0.237 OA
ATOM     89  O   UNL A   1      54.599  27.860  24.273  1.00  0.00    -0.237 OA
ATOM     90  O   UNL A   1      53.080  26.008  23.698  1.00  0.00    -0.744 OA
ENDBRANCH  86  87
ENDBRANCH  58  81
BRANCH  70  91
ATOM     91  C   UNL A   1      47.062  35.043  27.988  1.00  0.00    -0.014 A 
ATOM     92  C   UNL A   1      46.211  35.332  26.908  1.00  0.00     0.010 A 
ATOM     93  C   UNL A   1      47.919  36.049  28.473  1.00  0.00     0.010 A 
ATOM     94  C   UNL A   1      46.233  36.597  26.311  1.00  0.00     0.020 A 
ATOM     95  C   UNL A   1      47.922  37.323  27.898  1.00  0.00     0.020 A 
ATOM     96  C   UNL A   1      47.086  37.585  26.812  1.00  0.00     0.054 A 
BRANCH  96  97
ATOM     97  S   UNL A   1      47.054  39.233  26.055  1.00  0.00     0.124 S 
ATOM     98  O   UNL A   1      48.224  39.867  26.655  1.00  0.00    -0.237 OA
ATOM     99  O   UNL A   1      47.163  38.932  24.629  1.00  0.00    -0.237 OA
ATOM    100  O   UNL A   1      45.766  39.782  26.473  1.00  0.00    -0.744 OA
ENDBRANCH  96  97
ENDBRANCH  70  91
ENDBRANCH  44  45
ENDBRANCH  37  39
ENDBRANCH  36  37
ENDBRANCH  35  36
ENDBRANCH  34  35
ENDBRANCH  33  34
ENDBRANCH  32  33
ENDBRANCH  31  32
ENDBRANCH  30  31
ENDBRANCH   1  30
TORSDOF 28
ENDMDL
MODEL 2
REMARK VINA RESULT:      -6.1      6.199     11.833
REMARK SMILES COc1cc(Cl)ccc1NC(=O)COc1ccccc1C(=O)OCCOCCOCCOCCOC(=O)c1ccc(-c2c3nc(c(-c4ccc(S(=O)(=O)[O-])cc4)c4ccc([nH]4)c(-c4ccc(S(=O)(=O)[O-])cc4)c4nc(c(-c5ccc(S(=O)(=O)[O-])cc5)c5ccc2[nH]5)C=C4)C=C3)cc1
REMARK SMILES IDX 28 1 27 2 26 3 25 4 24 5 23 6 21 7 22 8 20 9 15 10 16 11
REMARK SMILES IDX 17 12 19 13 18 14 14 15 13 16 11 17 10 18 12 20 9 21 3 22
REMARK SMILES IDX 4 23 5 24 8 25 6 26 7 27 2 28 1 29 29 30 30 31 31 32 32 33
REMARK SMILES IDX 33 34 34 35 35 36 36 37 37 38 38 39 39 40 97 41 40 42 96 43
REMARK SMILES IDX 41 44 42 45 43 46 90 47 44 48 95 49 89 50 91 51 45 52 94 53
REMARK SMILES IDX 88 54 87 55 46 57 76 58 57 59 75 60 58 61 61 62 74 63 92 64
REMARK SMILES IDX 59 65 60 66 73 68 93 69 62 70 47 71 48 72 56 73 49 74 55 75
REMARK SMILES IDX 50 76 51 77 52 78 53 79 54 80 77 81 78 82 86 83 79 84 85 85
REMARK SMILES IDX 80 86 81 87 82 88 83 89 84 90 63 91 64 92 72 93 65 94 71 95
REMARK SMILES IDX 66 96 67 97 68 98 69 99 70 100
REMARK H PARENT 10 19 91 56 61 67
REMARK Flexibility Score: inf
ROOT
ATOM      1  C   UNL A   1      39.496  28.703  28.300  1.00  0.00     0.188 C 
ENDROOT
BRANCH   1   2
ATOM      2  C   UNL A   1      38.079  28.828  28.848  1.00  0.00     0.188 C 
BRANCH   2   3
ATOM      3  O   UNL A   1      37.715  29.854  29.770  1.00  0.00    -0.376 OA
BRANCH   3   4
ATOM      4  C   UNL A   1      37.511  31.188  29.326  1.00  0.00     0.202 C 
BRANCH   4   5
ATOM      5  C   UNL A   1      36.607  31.366  28.101  1.00  0.00     0.261 C 
BRANCH   5   6
ATOM      6  O   UNL A   1      35.226  31.078  28.360  1.00  0.00    -0.460 OA
BRANCH   6   7
ATOM      7  C   UNL A   1      34.678  30.108  27.616  1.00  0.00     0.342 C 
ATOM      8  O   UNL A   1      35.050  28.933  27.592  1.00  0.00    -0.246 OA
BRANCH   7   9
ATOM      9  C   UNL A   1      33.420  30.539  26.951  1.00  0.00     0.102 A 
ATOM     10  C   UNL A   1      32.618  29.866  26.016  1.00  0.00     0.134 A 
ATOM     11  C   UNL A   1      31.402  30.481  25.633  1.00  0.00     0.047 A 
ATOM     12  C   UNL A   1      31.015  31.743  26.087  1.00  0.00     0.004 A 
ATOM     13  C   UNL A   1      33.039  31.847  27.353  1.00  0.00     0.019 A 
ATOM     14  C   UNL A   1      31.861  32.449  26.921  1.00  0.00     0.001 A 
BRANCH  10  15
ATOM     15  O   UNL A   1      32.776  28.717  25.302  1.00  0.00    -0.483 OA
BRANCH  15  16
ATOM     16  C   UNL A   1      32.371  27.427  25.702  1.00  0.00     0.329 C 
BRANCH  16  17
ATOM     17  C   UNL A   1      31.303  26.731  24.851  1.00  0.00     0.262 C 
ATOM     18  N   UNL A   1      31.338  25.390  24.641  1.00  0.00    -0.320 N 
ATOM     19  H   UNL A   1      30.449  24.992  24.505  1.00  0.00     0.170 HD
ATOM     20  O   UNL A   1      30.355  27.368  24.379  1.00  0.00    -0.271 OA
BRANCH  18  21
ATOM     21  C   UNL A   1      32.382  24.458  24.581  1.00  0.00     0.084 A 
ATOM     22  C   UNL A   1      32.392  23.491  25.586  1.00  0.00     0.143 A 
ATOM     23  C   UNL A   1      33.339  22.465  25.594  1.00  0.00     0.069 A 
ATOM     24  C   UNL A   1      34.286  22.399  24.586  1.00  0.00     0.044 A 
ATOM     25  C   UNL A   1      33.333  24.382  23.572  1.00  0.00     0.031 A 
ATOM     26  Cl  UNL A   1      35.475  21.155  24.620  1.00  0.00    -0.084 Cl
ATOM     27  C   UNL A   1      34.290  23.356  23.579  1.00  0.00     0.023 A 
BRANCH  22  28
ATOM     28  O   UNL A   1      31.587  23.758  26.659  1.00  0.00    -0.495 OA
ATOM     29  C   UNL A   1      30.448  22.948  26.733  1.00  0.00     0.278 C 
ENDBRANCH  22  28
ENDBRANCH  18  21
ENDBRANCH  16  17
ENDBRANCH  15  16
ENDBRANCH  10  15
ENDBRANCH   7   9
ENDBRANCH   6   7
ENDBRANCH   5   6
ENDBRANCH   4   5
ENDBRANCH   3   4
ENDBRANCH   2   3
ENDBRANCH   1   2
BRANCH   1  30
ATOM     30  O   UNL A   1      40.176  27.501  28.623  1.00  0.00    -0.377 OA
BRANCH  30  31
ATOM     31  C   UNL A   1      41.278  27.089  27.821  1.00  0.00     0.188 C 
BRANCH  31  32
ATOM     32  C   UNL A   1      42.477  26.355  28.483  1.00  0.00     0.188 C 
BRANCH  32  33
ATOM     33  O   UNL A   1      43.174  25.523  27.552  1.00  0.00    -0.376 OA
BRANCH  33  34
ATOM     34  C   UNL A   1      43.542  24.192  27.929  1.00  0.00     0.202 C 
BRANCH  34  35
ATOM     35  C   UNL A   1      45.067  24.092  28.325  1.00  0.00     0.261 C 
BRANCH  35  36
ATOM     36  O   UNL A   1      45.288  24.623  29.731  1.00  0.00    -0.460 OA
BRANCH  36  37
ATOM     37  C   UNL A   1      45.867  25.790  30.226  1.00  0.00     0.338 C 
ATOM     38  O   UNL A   1      46.895  26.239  29.724  1.00  0.00    -0.246 OA
BRANCH  37  39
ATOM     39  C   UNL A   1      45.057  26.809  31.057  1.00  0.00     0.060 A 
ATOM     40  C   UNL A   1      45.162  28.202  30.844  1.00  0.00     0.016 A 
ATOM     41  C   UNL A   1      44.223  26.410  32.115  1.00  0.00     0.016 A 
ATOM     42  C   UNL A   1      44.345  29.141  31.531  1.00  0.00     0.010 A 
ATOM     43  C   UNL A   1      43.466  27.356  32.862  1.00  0.00     0.010 A 
ATOM     44  C   UNL A   1      43.510  28.737  32.579  1.00  0.00    -0.014 A 
BRANCH  44  45
ATOM     45  C   UNL A   1      43.041  29.740  33.605  1.00  0.00     0.031 A 
ATOM     46  C   UNL A   1      43.901  29.862  34.845  1.00  0.00     0.074 A 
ATOM     47  C   UNL A   1      41.948  30.533  33.504  1.00  0.00     0.049 A 
ATOM     48  N   UNL A   1      43.664  30.451  35.989  1.00  0.00    -0.248 NA
ATOM     49  C   UNL A   1      45.219  29.209  34.771  1.00  0.00     0.031 C 
ATOM     50  C   UNL A   1      41.082  30.666  32.334  1.00  0.00     0.029 A 
ATOM     51  N   UNL A   1      41.370  31.381  34.434  1.00  0.00    -0.354 N 
ATOM     52  C   UNL A   1      44.779  30.190  36.782  1.00  0.00     0.074 A 
ATOM     53  C   UNL A   1      45.691  29.399  35.990  1.00  0.00     0.031 C 
ATOM     54  C   UNL A   1      40.072  31.513  32.625  1.00  0.00     0.029 A 
ATOM     55  C   UNL A   1      40.177  31.939  34.022  1.00  0.00     0.049 A 
ATOM     56  H   UNL A   1      41.775  31.568  35.311  1.00  0.00     0.167 HD
ATOM     57  C   UNL A   1      45.026  30.556  38.062  1.00  0.00     0.031 A 
ATOM     58  C   UNL A   1      39.257  32.666  34.701  1.00  0.00     0.031 A 
ATOM     59  C   UNL A   1      44.119  31.335  38.858  1.00  0.00     0.049 A 
ATOM     60  C   UNL A   1      39.484  32.973  36.167  1.00  0.00     0.074 A 
ATOM     61  C   UNL A   1      44.259  31.744  40.172  1.00  0.00     0.029 A 
ATOM     62  N   UNL A   1      42.901  31.823  38.411  1.00  0.00    -0.354 N 
ATOM     63  N   UNL A   1      40.515  32.670  36.923  1.00  0.00    -0.248 NA
ATOM     64  C   UNL A   1      38.423  33.709  36.874  1.00  0.00     0.031 C 
ATOM     65  C   UNL A   1      43.096  32.430  40.538  1.00  0.00     0.029 A 
ATOM     66  C   UNL A   1      42.265  32.509  39.430  1.00  0.00     0.049 A 
ATOM     67  H   UNL A   1      42.541  31.700  37.503  1.00  0.00     0.167 HD
ATOM     68  C   UNL A   1      40.238  33.204  38.181  1.00  0.00     0.074 A 
ATOM     69  C   UNL A   1      38.949  33.856  38.085  1.00  0.00     0.031 C 
ATOM     70  C   UNL A   1      40.984  33.159  39.315  1.00  0.00     0.031 A 
BRANCH  57  71
ATOM     71  C   UNL A   1      46.297  30.046  38.694  1.00  0.00    -0.014 A 
ATOM     72  C   UNL A   1      46.327  28.845  39.427  1.00  0.00     0.010 A 
ATOM     73  C   UNL A   1      47.483  30.791  38.558  1.00  0.00     0.010 A 
ATOM     74  C   UNL A   1      47.506  28.426  40.053  1.00  0.00     0.020 A 
ATOM     75  C   UNL A   1      48.672  30.358  39.152  1.00  0.00     0.020 A 
ATOM     76  C   UNL A   1      48.670  29.188  39.913  1.00  0.00     0.054 A 
BRANCH  76  77
ATOM     77  S   UNL A   1      50.188  28.613  40.722  1.00  0.00     0.124 S 
ATOM     78  O   UNL A   1      50.464  29.704  41.655  1.00  0.00    -0.237 OA
ATOM     79  O   UNL A   1      49.767  27.356  41.335  1.00  0.00    -0.237 OA
ATOM     80  O   UNL A   1      51.140  28.479  39.623  1.00  0.00    -0.744 OA
ENDBRANCH  76  77
ENDBRANCH  57  71
BRANCH  58  81
ATOM     81  C   UNL A   1      37.992  33.114  34.034  1.00  0.00    -0.014 A 
ATOM     82  C   UNL A   1      36.825  32.327  34.084  1.00  0.00     0.010 A 
ATOM     83  C   UNL A   1      37.950  34.329  33.323  1.00  0.00     0.010 A 
ATOM     84  C   UNL A   1      35.648  32.748  33.449  1.00  0.00     0.020 A 
ATOM     85  C   UNL A   1      36.769  34.767  32.710  1.00  0.00     0.020 A 
ATOM     86  C   UNL A   1      35.625  33.970  32.774  1.00  0.00     0.054 A 
BRANCH  86  87
ATOM     87  S   UNL A   1      34.066  34.535  32.028  1.00  0.00     0.124 S 
ATOM     88  O   UNL A   1      34.183  35.986  32.134  1.00  0.00    -0.237 OA
ATOM     89  O   UNL A   1      34.149  33.990  30.676  1.00  0.00    -0.237 OA
ATOM     90  O   UNL A   1      33.042  33.927  32.876  1.00  0.00    -0.744 OA
ENDBRANCH  86  87
ENDBRANCH  58  81
BRANCH  70  91
ATOM     91  C   UNL A   1      40.460  33.872  40.535  1.00  0.00    -0.014 A 
ATOM     92  C   UNL A   1      39.742  33.190  41.532  1.00  0.00     0.010 A 
ATOM     93  C   UNL A   1      40.770  35.232  40.724  1.00  0.00     0.010 A 
ATOM     94  C   UNL A   1      39.322  33.861  42.684  1.00  0.00     0.020 A 
ATOM     95  C   UNL A   1      40.378  35.899  41.888  1.00  0.00     0.020 A 
ATOM     96  C   UNL A   1      39.646  35.211  42.857  1.00  0.00     0.054 A 
BRANCH  96  97
ATOM     97  S   UNL A   1      39.138  36.043  44.386  1.00  0.00     0.124 S 
ATOM     98  O   UNL A   1      39.689  37.383  44.201  1.00  0.00    -0.237 OA
ATOM     99  O   UNL A   1      37.681  35.949  44.333  1.00  0.00    -0.237 OA
ATOM    100  O   UNL A   1      39.769  35.251  45.439  1.00  0.00    -0.744 OA
ENDBRANCH  96  97
ENDBRANCH  70  91
ENDBRANCH  44  45
ENDBRANCH  37  39
ENDBRANCH  36  37
ENDBRANCH  35  36
ENDBRANCH  34  35
ENDBRANCH  33  34
ENDBRANCH  32  33
ENDBRANCH  31  32
ENDBRANCH  30  31
ENDBRANCH   1  30
TORSDOF 28
ENDMDL
MODEL 3
REMARK VINA RESULT:      -6.0      5.458     10.570
REMARK SMILES COc1cc(Cl)ccc1NC(=O)COc1ccccc1C(=O)OCCOCCOCCOCCOC(=O)c1ccc(-c2c3nc(c(-c4ccc(S(=O)(=O)[O-])cc4)c4ccc([nH]4)c(-c4ccc(S(=O)(=O)[O-])cc4)c4nc(c(-c5ccc(S(=O)(=O)[O-])cc5)c5ccc2[nH]5)C=C4)C=C3)cc1
REMARK SMILES IDX 28 1 27 2 26 3 25 4 24 5 23 6 21 7 22 8 20 9 15 10 16 11
REMARK SMILES IDX 17 12 19 13 18 14 14 15 13 16 11 17 10 18 12 20 9 21 3 22
REMARK SMILES IDX 4 23 5 24 8 25 6 26 7 27 2 28 1 29 29 30 30 31 31 32 32 33
REMARK SMILES IDX 33 34 34 35 35 36 36 37 37 38 38 39 39 40 97 41 40 42 96 43
REMARK SMILES IDX 41 44 42 45 43 46 90 47 44 48 95 49 89 50 91 51 45 52 94 53
REMARK SMILES IDX 88 54 87 55 46 57 76 58 57 59 75 60 58 61 61 62 74 63 92 64
REMARK SMILES IDX 59 65 60 66 73 68 93 69 62 70 47 71 48 72 56 73 49 74 55 75
REMARK SMILES IDX 50 76 51 77 52 78 53 79 54 80 77 81 78 82 86 83 79 84 85 85
REMARK SMILES IDX 80 86 81 87 82 88 83 89 84 90 63 91 64 92 72 93 65 94 71 95
REMARK SMILES IDX 66 96 67 97 68 98 69 99 70 100
REMARK H PARENT 10 19 91 56 61 67
REMARK Flexibility Score: inf
ROOT
ATOM      1  C   UNL A   1      40.328  35.385  29.834  1.00  0.00     0.188 C 
ENDROOT
BRANCH   1   2
ATOM      2  C   UNL A   1      40.406  35.168  28.326  1.00  0.00     0.188 C 
BRANCH   2   3
ATOM      3  O   UNL A   1      41.579  35.485  27.579  1.00  0.00    -0.376 OA
BRANCH   3   4
ATOM      4  C   UNL A   1      42.316  36.667  27.854  1.00  0.00     0.202 C 
BRANCH   4   5
ATOM      5  C   UNL A   1      42.121  37.833  26.880  1.00  0.00     0.261 C 
BRANCH   5   6
ATOM      6  O   UNL A   1      42.139  39.120  27.514  1.00  0.00    -0.460 OA
BRANCH   6   7
ATOM      7  C   UNL A   1      42.584  40.138  26.765  1.00  0.00     0.342 C 
ATOM      8  O   UNL A   1      42.156  40.442  25.650  1.00  0.00    -0.246 OA
BRANCH   7   9
ATOM      9  C   UNL A   1      43.532  41.017  27.500  1.00  0.00     0.102 A 
ATOM     10  C   UNL A   1      44.311  42.089  27.037  1.00  0.00     0.134 A 
ATOM     11  C   UNL A   1      45.049  42.824  27.996  1.00  0.00     0.047 A 
ATOM     12  C   UNL A   1      45.086  42.482  29.349  1.00  0.00     0.004 A 
ATOM     13  C   UNL A   1      43.632  40.647  28.868  1.00  0.00     0.019 A 
ATOM     14  C   UNL A   1      44.406  41.359  29.781  1.00  0.00     0.001 A 
BRANCH  10  15
ATOM     15  O   UNL A   1      44.588  42.578  25.797  1.00  0.00    -0.483 OA
BRANCH  15  16
ATOM     16  C   UNL A   1      45.657  42.183  24.967  1.00  0.00     0.329 C 
BRANCH  16  17
ATOM     17  C   UNL A   1      46.765  43.210  24.713  1.00  0.00     0.262 C 
ATOM     18  N   UNL A   1      46.728  44.028  23.630  1.00  0.00    -0.320 N 
ATOM     19  H   UNL A   1      47.170  44.895  23.779  1.00  0.00     0.170 HD
ATOM     20  O   UNL A   1      47.692  43.354  25.519  1.00  0.00    -0.271 OA
BRANCH  18  21
ATOM     21  C   UNL A   1      46.188  43.891  22.345  1.00  0.00     0.084 A 
ATOM     22  C   UNL A   1      44.950  44.499  22.138  1.00  0.00     0.143 A 
ATOM     23  C   UNL A   1      44.343  44.493  20.881  1.00  0.00     0.069 A 
ATOM     24  C   UNL A   1      44.978  43.878  19.815  1.00  0.00     0.044 A 
ATOM     25  C   UNL A   1      46.820  43.279  21.270  1.00  0.00     0.031 A 
ATOM     26  Cl  UNL A   1      44.209  43.841  18.277  1.00  0.00    -0.084 Cl
ATOM     27  C   UNL A   1      46.210  43.267  20.006  1.00  0.00     0.023 A 
BRANCH  22  28
ATOM     28  O   UNL A   1      44.287  44.872  23.274  1.00  0.00    -0.495 OA
ATOM     29  C   UNL A   1      42.979  44.382  23.358  1.00  0.00     0.278 C 
ENDBRANCH  22  28
ENDBRANCH  18  21
ENDBRANCH  16  17
ENDBRANCH  15  16
ENDBRANCH  10  15
ENDBRANCH   7   9
ENDBRANCH   6   7
ENDBRANCH   5   6
ENDBRANCH   4   5
ENDBRANCH   3   4
ENDBRANCH   2   3
ENDBRANCH   1   2
BRANCH   1  30
ATOM     30  O   UNL A   1      40.644  34.257  30.634  1.00  0.00    -0.377 OA
BRANCH  30  31
ATOM     31  C   UNL A   1      40.216  34.227  31.992  1.00  0.00     0.188 C 
BRANCH  31  32
ATOM     32  C   UNL A   1      38.757  33.812  32.328  1.00  0.00     0.188 C 
BRANCH  32  33
ATOM     33  O   UNL A   1      38.267  32.810  31.432  1.00  0.00    -0.376 OA
BRANCH  33  34
ATOM     34  C   UNL A   1      37.228  33.137  30.504  1.00  0.00     0.202 C 
BRANCH  34  35
ATOM     35  C   UNL A   1      36.038  32.101  30.563  1.00  0.00     0.261 C 
BRANCH  35  36
ATOM     36  O   UNL A   1      35.885  31.389  29.229  1.00  0.00    -0.460 OA
BRANCH  36  37
ATOM     37  C   UNL A   1      36.056  30.064  28.835  1.00  0.00     0.338 C 
ATOM     38  O   UNL A   1      35.143  29.453  28.285  1.00  0.00    -0.246 OA
BRANCH  37  39
ATOM     39  C   UNL A   1      37.459  29.455  28.621  1.00  0.00     0.060 A 
ATOM     40  C   UNL A   1      38.079  28.640  29.595  1.00  0.00     0.016 A 
ATOM     41  C   UNL A   1      38.223  29.732  27.475  1.00  0.00     0.016 A 
ATOM     42  C   UNL A   1      39.323  27.991  29.366  1.00  0.00     0.010 A 
ATOM     43  C   UNL A   1      39.508  29.150  27.278  1.00  0.00     0.010 A 
ATOM     44  C   UNL A   1      40.077  28.265  28.218  1.00  0.00    -0.014 A 
BRANCH  44  45
ATOM     45  C   UNL A   1      41.560  27.986  28.201  1.00  0.00     0.031 A 
ATOM     46  C   UNL A   1      42.443  29.096  28.732  1.00  0.00     0.074 A 
ATOM     47  C   UNL A   1      42.153  26.847  27.772  1.00  0.00     0.049 A 
ATOM     48  N   UNL A   1      43.737  29.264  28.650  1.00  0.00    -0.248 NA
ATOM     49  C   UNL A   1      41.744  30.174  29.452  1.00  0.00     0.031 C 
ATOM     50  C   UNL A   1      41.472  25.619  27.364  1.00  0.00     0.029 A 
ATOM     51  N   UNL A   1      43.493  26.548  27.599  1.00  0.00    -0.354 N 
ATOM     52  C   UNL A   1      43.994  30.490  29.261  1.00  0.00     0.074 A 
ATOM     53  C   UNL A   1      42.728  31.016  29.711  1.00  0.00     0.031 C 
ATOM     54  C   UNL A   1      42.391  24.717  26.960  1.00  0.00     0.029 A 
ATOM     55  C   UNL A   1      43.725  25.317  27.019  1.00  0.00     0.049 A 
ATOM     56  H   UNL A   1      44.217  27.159  27.866  1.00  0.00     0.167 HD
ATOM     57  C   UNL A   1      45.173  31.137  29.423  1.00  0.00     0.031 A 
ATOM     58  C   UNL A   1      44.867  24.760  26.548  1.00  0.00     0.031 A 
ATOM     59  C   UNL A   1      46.435  30.623  28.970  1.00  0.00     0.049 A 
ATOM     60  C   UNL A   1      46.164  25.539  26.626  1.00  0.00     0.074 A 
ATOM     61  C   UNL A   1      47.686  31.205  29.062  1.00  0.00     0.029 A 
ATOM     62  N   UNL A   1      46.603  29.400  28.336  1.00  0.00    -0.354 N 
ATOM     63  N   UNL A   1      46.385  26.723  27.152  1.00  0.00    -0.248 NA
ATOM     64  C   UNL A   1      47.362  24.914  26.041  1.00  0.00     0.031 C 
ATOM     65  C   UNL A   1      48.604  30.359  28.430  1.00  0.00     0.029 A 
ATOM     66  C   UNL A   1      47.935  29.219  28.010  1.00  0.00     0.049 A 
ATOM     67  H   UNL A   1      45.882  28.757  28.148  1.00  0.00     0.167 HD
ATOM     68  C   UNL A   1      47.747  26.968  26.986  1.00  0.00     0.074 A 
ATOM     69  C   UNL A   1      48.303  25.809  26.320  1.00  0.00     0.031 C 
ATOM     70  C   UNL A   1      48.473  28.055  27.353  1.00  0.00     0.031 A 
BRANCH  57  71
ATOM     71  C   UNL A   1      45.128  32.507  30.052  1.00  0.00    -0.014 A 
ATOM     72  C   UNL A   1      45.159  32.681  31.448  1.00  0.00     0.010 A 
ATOM     73  C   UNL A   1      45.043  33.643  29.225  1.00  0.00     0.010 A 
ATOM     74  C   UNL A   1      45.055  33.961  32.005  1.00  0.00     0.020 A 
ATOM     75  C   UNL A   1      44.976  34.926  29.777  1.00  0.00     0.020 A 
ATOM     76  C   UNL A   1      44.962  35.074  31.164  1.00  0.00     0.054 A 
BRANCH  76  77
ATOM     77  S   UNL A   1      44.845  36.721  31.914  1.00  0.00     0.124 S 
ATOM     78  O   UNL A   1      46.200  37.235  31.726  1.00  0.00    -0.237 OA
ATOM     79  O   UNL A   1      43.812  37.367  31.107  1.00  0.00    -0.237 OA
ATOM     80  O   UNL A   1      44.470  36.448  33.299  1.00  0.00    -0.744 OA
ENDBRANCH  76  77
ENDBRANCH  57  71
BRANCH  58  81
ATOM     81  C   UNL A   1      44.847  23.410  25.896  1.00  0.00    -0.014 A 
ATOM     82  C   UNL A   1      45.456  23.198  24.644  1.00  0.00     0.010 A 
ATOM     83  C   UNL A   1      44.199  22.326  26.518  1.00  0.00     0.010 A 
ATOM     84  C   UNL A   1      45.425  21.935  24.036  1.00  0.00     0.020 A 
ATOM     85  C   UNL A   1      44.189  21.055  25.927  1.00  0.00     0.020 A 
ATOM     86  C   UNL A   1      44.800  20.869  24.686  1.00  0.00     0.054 A 
BRANCH  86  87
ATOM     87  S   UNL A   1      44.843  19.222  23.917  1.00  0.00     0.124 S 
ATOM     88  O   UNL A   1      46.264  18.895  23.972  1.00  0.00    -0.237 OA
ATOM     89  O   UNL A   1      43.979  18.441  24.799  1.00  0.00    -0.237 OA
ATOM     90  O   UNL A   1      44.307  19.456  22.578  1.00  0.00    -0.744 OA
ENDBRANCH  86  87
ENDBRANCH  58  81
BRANCH  70  91
ATOM     91  C   UNL A   1      49.958  28.034  27.093  1.00  0.00    -0.014 A 
ATOM     92  C   UNL A   1      50.528  28.758  26.032  1.00  0.00     0.010 A 
ATOM     93  C   UNL A   1      50.804  27.346  27.984  1.00  0.00     0.010 A 
ATOM     94  C   UNL A   1      51.915  28.772  25.851  1.00  0.00     0.020 A 
ATOM     95  C   UNL A   1      52.191  27.382  27.824  1.00  0.00     0.020 A 
ATOM     96  C   UNL A   1      52.738  28.087  26.751  1.00  0.00     0.054 A 
BRANCH  96  97
ATOM     97  S   UNL A   1      54.535  28.170  26.527  1.00  0.00     0.124 S 
ATOM     98  O   UNL A   1      54.661  28.199  25.072  1.00  0.00    -0.237 OA
ATOM     99  O   UNL A   1      54.887  29.411  27.214  1.00  0.00    -0.237 OA
ATOM    100  O   UNL A   1      55.022  26.950  27.169  1.00  0.00    -0.744 OA
ENDBRANCH  96  97
ENDBRANCH  70  91
ENDBRANCH  44  45
ENDBRANCH  37  39
ENDBRANCH  36  37
ENDBRANCH  35  36
ENDBRANCH  34  35
ENDBRANCH  33  34
ENDBRANCH  32  33
ENDBRANCH  31  32
ENDBRANCH  30  31
ENDBRANCH   1  30
TORSDOF 28
ENDMDL
