MODEL 1
REMARK VINA RESULT:      -8.3      0.000      0.000
REMARK SMILES CC(C)CCc1cc2c(cc1Cl)C=C(C(=O)OCCOCCOCCOCCOC(=O)c1ccc(-c3c4nc(c(-c5ccc(S(=O)(=O)[O-])cc5)c5ccc([nH]5)c(-c5ccc(S(=O)(=O)[O-])cc5)c5nc(c(-c6ccc(S(=O)(=O)[O-])cc6)c6ccc3[nH]6)C=C5)C=C4)cc1)[C@@H](C(F)(F)F)O2
REMARK SMILES IDX 23 1 22 2 21 3 20 4 19 5 18 6 17 7 15 8 16 9 14 10 6 11 7 12
REMARK SMILES IDX 11 13 8 14 10 15 12 16 9 17 97 18 13 19 92 20 5 21 4 22 2 23
REMARK SMILES IDX 1 24 3 25 93 26 94 27 95 28 96 29 24 30 25 31 26 32 27 33
REMARK SMILES IDX 28 34 29 35 30 36 31 37 32 38 33 39 91 40 34 41 90 42 35 43
REMARK SMILES IDX 36 44 37 45 84 46 38 47 89 48 83 49 85 50 39 51 88 52 82 53
REMARK SMILES IDX 81 54 40 56 70 57 51 58 69 59 52 60 55 61 68 62 86 63 53 64
REMARK SMILES IDX 54 65 67 67 87 68 56 69 41 70 42 71 50 72 43 73 49 74 44 75
REMARK SMILES IDX 45 76 46 77 47 78 48 79 71 80 72 81 80 82 73 83 79 84 74 85
REMARK SMILES IDX 75 86 76 87 77 88 78 89 57 90 58 91 66 92 59 93 65 94 60 95
REMARK SMILES IDX 61 96 62 97 63 98 64 99
REMARK H PARENT 85 55 55 66
REMARK Flexibility Score: inf
ROOT
ATOM      1  O   UNL A   1      38.172  28.916  29.499  1.00  0.00    -0.377 OA
ENDROOT
BRANCH   1   2
ATOM      2  C   UNL A   1      37.574  29.235  28.251  1.00  0.00     0.188 C 
BRANCH   2   3
ATOM      3  C   UNL A   1      36.575  30.400  28.372  1.00  0.00     0.188 C 
BRANCH   3   4
ATOM      4  O   UNL A   1      35.656  30.456  27.293  1.00  0.00    -0.376 OA
BRANCH   4   5
ATOM      5  C   UNL A   1      34.378  29.845  27.408  1.00  0.00     0.202 C 
BRANCH   5   6
ATOM      6  C   UNL A   1      33.187  30.195  26.493  1.00  0.00     0.261 C 
BRANCH   6   7
ATOM      7  O   UNL A   1      32.901  29.292  25.423  1.00  0.00    -0.460 OA
BRANCH   7   8
ATOM      8  C   UNL A   1      31.618  29.096  25.074  1.00  0.00     0.338 C 
ATOM      9  O   UNL A   1      30.805  29.944  24.752  1.00  0.00    -0.246 OA
BRANCH   8  10
ATOM     10  C   UNL A   1      31.421  27.633  24.952  1.00  0.00     0.087 C 
ATOM     11  C   UNL A   1      31.674  22.652  25.440  1.00  0.00    -0.026 A 
ATOM     12  C   UNL A   1      30.982  23.522  24.579  1.00  0.00     0.052 A 
ATOM     13  C   UNL A   1      32.238  23.198  26.605  1.00  0.00     0.045 A 
ATOM     14  C   UNL A   1      31.030  24.903  24.762  1.00  0.00     0.128 A 
ATOM     15  C   UNL A   1      32.256  24.582  26.808  1.00  0.00     0.032 A 
ATOM     16  Cl  UNL A   1      32.967  22.213  27.826  1.00  0.00    -0.084 Cl
ATOM     17  C   UNL A   1      31.712  25.440  25.850  1.00  0.00     0.019 A 
ATOM     18  O   UNL A   1      30.410  25.652  23.806  1.00  0.00    -0.475 OA
ATOM     19  C   UNL A   1      31.902  26.875  25.946  1.00  0.00     0.027 C 
ATOM     20  C   UNL A   1      30.620  27.092  23.791  1.00  0.00     0.316 C 
BRANCH  11  21
ATOM     21  C   UNL A   1      31.821  21.187  25.082  1.00  0.00     0.037 C 
BRANCH  21  22
ATOM     22  C   UNL A   1      33.063  20.824  24.241  1.00  0.00     0.008 C 
BRANCH  22  23
ATOM     23  C   UNL A   1      34.157  20.015  24.976  1.00  0.00    -0.017 C 
ATOM     24  C   UNL A   1      34.331  18.609  24.403  1.00  0.00     0.007 C 
ATOM     25  C   UNL A   1      35.486  20.773  24.926  1.00  0.00     0.007 C 
ENDBRANCH  22  23
ENDBRANCH  21  22
ENDBRANCH  11  21
BRANCH  20  26
ATOM     26  C   UNL A   1      31.228  27.483  22.437  1.00  0.00     0.430 C 
ATOM     27  F   UNL A   1      31.080  26.493  21.527  1.00  0.00    -0.167 F 
ATOM     28  F   UNL A   1      30.640  28.587  21.923  1.00  0.00    -0.167 F 
ATOM     29  F   UNL A   1      32.552  27.741  22.544  1.00  0.00    -0.167 F 
ENDBRANCH  20  26
ENDBRANCH   8  10
ENDBRANCH   7   8
ENDBRANCH   6   7
ENDBRANCH   5   6
ENDBRANCH   4   5
ENDBRANCH   3   4
ENDBRANCH   2   3
ENDBRANCH   1   2
BRANCH   1  30
ATOM     30  C   UNL A   1      37.974  29.853  30.560  1.00  0.00     0.188 C 
BRANCH  30  31
ATOM     31  C   UNL A   1      37.453  29.371  31.932  1.00  0.00     0.188 C 
BRANCH  31  32
ATOM     32  O   UNL A   1      36.418  30.194  32.472  1.00  0.00    -0.376 OA
BRANCH  32  33
ATOM     33  C   UNL A   1      36.009  31.314  31.701  1.00  0.00     0.202 C 
BRANCH  33  34
ATOM     34  C   UNL A   1      36.574  32.657  32.180  1.00  0.00     0.261 C 
BRANCH  34  35
ATOM     35  O   UNL A   1      37.845  32.588  32.842  1.00  0.00    -0.460 OA
BRANCH  35  36
ATOM     36  C   UNL A   1      38.667  33.658  32.749  1.00  0.00     0.338 C 
ATOM     37  O   UNL A   1      38.500  34.757  33.247  1.00  0.00    -0.246 OA
BRANCH  36  38
ATOM     38  C   UNL A   1      39.911  33.199  32.099  1.00  0.00     0.060 A 
ATOM     39  C   UNL A   1      40.896  32.548  32.847  1.00  0.00     0.016 A 
ATOM     40  C   UNL A   1      40.106  33.449  30.734  1.00  0.00     0.016 A 
ATOM     41  C   UNL A   1      42.064  32.120  32.220  1.00  0.00     0.010 A 
ATOM     42  C   UNL A   1      41.279  33.018  30.109  1.00  0.00     0.010 A 
ATOM     43  C   UNL A   1      42.255  32.328  30.843  1.00  0.00    -0.014 A 
BRANCH  43  44
ATOM     44  C   UNL A   1      43.384  31.653  30.160  1.00  0.00     0.031 A 
ATOM     45  C   UNL A   1      44.750  32.263  30.079  1.00  0.00     0.074 A 
ATOM     46  C   UNL A   1      43.151  30.437  29.628  1.00  0.00     0.049 A 
ATOM     47  N   UNL A   1      45.856  31.722  29.640  1.00  0.00    -0.248 NA
ATOM     48  C   UNL A   1      44.897  33.651  30.543  1.00  0.00     0.031 C 
ATOM     49  C   UNL A   1      41.851  29.761  29.634  1.00  0.00     0.029 A 
ATOM     50  N   UNL A   1      43.988  29.545  29.007  1.00  0.00    -0.354 N 
ATOM     51  C   UNL A   1      46.841  32.686  29.797  1.00  0.00     0.074 A 
ATOM     52  C   UNL A   1      46.190  33.868  30.324  1.00  0.00     0.031 C 
ATOM     53  C   UNL A   1      41.986  28.546  29.087  1.00  0.00     0.029 A 
ATOM     54  C   UNL A   1      43.372  28.364  28.664  1.00  0.00     0.049 A 
ATOM     55  H   UNL A   1      44.937  29.733  28.824  1.00  0.00     0.167 HD
ATOM     56  C   UNL A   1      48.168  32.581  29.541  1.00  0.00     0.031 A 
ATOM     57  C   UNL A   1      43.864  27.248  28.090  1.00  0.00     0.031 A 
ATOM     58  C   UNL A   1      48.794  31.402  28.993  1.00  0.00     0.049 A 
ATOM     59  C   UNL A   1      45.332  27.171  27.781  1.00  0.00     0.074 A 
ATOM     60  C   UNL A   1      50.138  31.191  28.734  1.00  0.00     0.029 A 
ATOM     61  N   UNL A   1      48.131  30.245  28.612  1.00  0.00    -0.354 N 
ATOM     62  N   UNL A   1      46.264  28.063  28.014  1.00  0.00    -0.248 NA
ATOM     63  C   UNL A   1      45.820  25.935  27.154  1.00  0.00     0.031 C 
ATOM     64  C   UNL A   1      50.277  29.941  28.129  1.00  0.00     0.029 A 
ATOM     65  C   UNL A   1      49.033  29.333  28.087  1.00  0.00     0.049 A 
ATOM     66  H   UNL A   1      47.163  30.092  28.702  1.00  0.00     0.167 HD
ATOM     67  C   UNL A   1      47.454  27.488  27.581  1.00  0.00     0.074 A 
ATOM     68  C   UNL A   1      47.126  26.167  27.088  1.00  0.00     0.031 C 
ATOM     69  C   UNL A   1      48.703  28.016  27.594  1.00  0.00     0.031 A 
BRANCH  56  70
ATOM     70  C   UNL A   1      49.060  33.754  29.864  1.00  0.00    -0.014 A 
ATOM     71  C   UNL A   1      49.606  33.891  31.154  1.00  0.00     0.010 A 
ATOM     72  C   UNL A   1      49.229  34.800  28.938  1.00  0.00     0.010 A 
ATOM     73  C   UNL A   1      50.270  35.064  31.526  1.00  0.00     0.020 A 
ATOM     74  C   UNL A   1      49.918  35.964  29.296  1.00  0.00     0.020 A 
ATOM     75  C   UNL A   1      50.411  36.097  30.597  1.00  0.00     0.054 A 
BRANCH  75  76
ATOM     76  S   UNL A   1      51.239  37.629  31.111  1.00  0.00     0.124 S 
ATOM     77  O   UNL A   1      52.267  37.135  32.021  1.00  0.00    -0.237 OA
ATOM     78  O   UNL A   1      51.724  38.169  29.843  1.00  0.00    -0.237 OA
ATOM     79  O   UNL A   1      50.168  38.403  31.736  1.00  0.00    -0.744 OA
ENDBRANCH  75  76
ENDBRANCH  56  70
BRANCH  57  80
ATOM     80  C   UNL A   1      42.946  26.101  27.845  1.00  0.00    -0.014 A 
ATOM     81  C   UNL A   1      42.885  25.032  28.758  1.00  0.00     0.010 A 
ATOM     82  C   UNL A   1      42.212  26.021  26.649  1.00  0.00     0.010 A 
ATOM     83  C   UNL A   1      42.157  23.879  28.454  1.00  0.00     0.020 A 
ATOM     84  C   UNL A   1      41.455  24.883  26.355  1.00  0.00     0.020 A 
ATOM     85  C   UNL A   1      41.460  23.806  27.245  1.00  0.00     0.054 A 
BRANCH  85  86
ATOM     86  S   UNL A   1      40.575  22.275  26.844  1.00  0.00     0.124 S 
ATOM     87  O   UNL A   1      39.243  22.777  26.516  1.00  0.00    -0.237 OA
ATOM     88  O   UNL A   1      41.343  21.748  25.719  1.00  0.00    -0.237 OA
ATOM     89  O   UNL A   1      40.663  21.495  28.076  1.00  0.00    -0.744 OA
ENDBRANCH  85  86
ENDBRANCH  57  80
BRANCH  69  90
ATOM     90  C   UNL A   1      49.839  27.180  27.058  1.00  0.00    -0.014 A 
ATOM     91  C   UNL A   1      50.624  26.418  27.945  1.00  0.00     0.010 A 
ATOM     92  C   UNL A   1      50.221  27.263  25.708  1.00  0.00     0.010 A 
ATOM     93  C   UNL A   1      51.794  25.797  27.505  1.00  0.00     0.020 A 
ATOM     94  C   UNL A   1      51.375  26.615  25.256  1.00  0.00     0.020 A 
ATOM     95  C   UNL A   1      52.170  25.912  26.164  1.00  0.00     0.054 A 
BRANCH  95  96
ATOM     96  S   UNL A   1      53.724  25.147  25.624  1.00  0.00     0.124 S 
ATOM     97  O   UNL A   1      53.253  23.972  24.898  1.00  0.00    -0.237 OA
ATOM     98  O   UNL A   1      54.329  26.194  24.804  1.00  0.00    -0.237 OA
ATOM     99  O   UNL A   1      54.423  24.867  26.877  1.00  0.00    -0.744 OA
ENDBRANCH  95  96
ENDBRANCH  69  90
ENDBRANCH  43  44
ENDBRANCH  36  38
ENDBRANCH  35  36
ENDBRANCH  34  35
ENDBRANCH  33  34
ENDBRANCH  32  33
ENDBRANCH  31  32
ENDBRANCH  30  31
ENDBRANCH   1  30
TORSDOF 27
ENDMDL
MODEL 2
REMARK VINA RESULT:      -8.1      6.544     11.191
REMARK SMILES CC(C)CCc1cc2c(cc1Cl)C=C(C(=O)OCCOCCOCCOCCOC(=O)c1ccc(-c3c4nc(c(-c5ccc(S(=O)(=O)[O-])cc5)c5ccc([nH]5)c(-c5ccc(S(=O)(=O)[O-])cc5)c5nc(c(-c6ccc(S(=O)(=O)[O-])cc6)c6ccc3[nH]6)C=C5)C=C4)cc1)[C@@H](C(F)(F)F)O2
REMARK SMILES IDX 23 1 22 2 21 3 20 4 19 5 18 6 17 7 15 8 16 9 14 10 6 11 7 12
REMARK SMILES IDX 11 13 8 14 10 15 12 16 9 17 97 18 13 19 92 20 5 21 4 22 2 23
REMARK SMILES IDX 1 24 3 25 93 26 94 27 95 28 96 29 24 30 25 31 26 32 27 33
REMARK SMILES IDX 28 34 29 35 30 36 31 37 32 38 33 39 91 40 34 41 90 42 35 43
REMARK SMILES IDX 36 44 37 45 84 46 38 47 89 48 83 49 85 50 39 51 88 52 82 53
REMARK SMILES IDX 81 54 40 56 70 57 51 58 69 59 52 60 55 61 68 62 86 63 53 64
REMARK SMILES IDX 54 65 67 67 87 68 56 69 41 70 42 71 50 72 43 73 49 74 44 75
REMARK SMILES IDX 45 76 46 77 47 78 48 79 71 80 72 81 80 82 73 83 79 84 74 85
REMARK SMILES IDX 75 86 76 87 77 88 78 89 57 90 58 91 66 92 59 93 65 94 60 95
REMARK SMILES IDX 61 96 62 97 63 98 64 99
REMARK H PARENT 85 55 55 66
REMARK Flexibility Score: inf
ROOT
ATOM      1  O   UNL A   1      37.172  35.011  33.658  1.00  0.00    -0.377 OA
ENDROOT
BRANCH   1   2
ATOM      2  C   UNL A   1      38.283  34.494  34.377  1.00  0.00     0.188 C 
BRANCH   2   3
ATOM      3  C   UNL A   1      39.616  34.790  33.666  1.00  0.00     0.188 C 
BRANCH   3   4
ATOM      4  O   UNL A   1      40.610  35.296  34.543  1.00  0.00    -0.376 OA
BRANCH   4   5
ATOM      5  C   UNL A   1      41.921  35.561  34.063  1.00  0.00     0.202 C 
BRANCH   5   6
ATOM      6  C   UNL A   1      42.827  34.483  33.435  1.00  0.00     0.261 C 
BRANCH   6   7
ATOM      7  O   UNL A   1      43.746  34.912  32.427  1.00  0.00    -0.460 OA
BRANCH   7   8
ATOM      8  C   UNL A   1      43.714  34.303  31.229  1.00  0.00     0.338 C 
ATOM      9  O   UNL A   1      43.871  33.117  31.003  1.00  0.00    -0.246 OA
BRANCH   8  10
ATOM     10  C   UNL A   1      43.246  35.306  30.246  1.00  0.00     0.087 C 
ATOM     11  C   UNL A   1      42.215  39.524  27.742  1.00  0.00    -0.026 A 
ATOM     12  C   UNL A   1      41.870  38.171  27.574  1.00  0.00     0.052 A 
ATOM     13  C   UNL A   1      43.274  39.825  28.615  1.00  0.00     0.045 A 
ATOM     14  C   UNL A   1      42.414  37.183  28.395  1.00  0.00     0.128 A 
ATOM     15  C   UNL A   1      43.844  38.828  29.414  1.00  0.00     0.032 A 
ATOM     16  Cl  UNL A   1      43.904  41.426  28.783  1.00  0.00    -0.084 Cl
ATOM     17  C   UNL A   1      43.365  37.518  29.353  1.00  0.00     0.019 A 
ATOM     18  O   UNL A   1      41.928  35.923  28.211  1.00  0.00    -0.475 OA
ATOM     19  C   UNL A   1      43.804  36.522  30.313  1.00  0.00     0.027 C 
ATOM     20  C   UNL A   1      42.260  34.890  29.179  1.00  0.00     0.316 C 
BRANCH  11  21
ATOM     21  C   UNL A   1      41.431  40.602  27.021  1.00  0.00     0.037 C 
BRANCH  21  22
ATOM     22  C   UNL A   1      41.720  40.744  25.512  1.00  0.00     0.008 C 
BRANCH  22  23
ATOM     23  C   UNL A   1      42.682  41.889  25.118  1.00  0.00    -0.017 C 
ATOM     24  C   UNL A   1      44.152  41.502  25.279  1.00  0.00     0.007 C 
ATOM     25  C   UNL A   1      42.407  42.326  23.678  1.00  0.00     0.007 C 
ENDBRANCH  22  23
ENDBRANCH  21  22
ENDBRANCH  11  21
BRANCH  20  26
ATOM     26  C   UNL A   1      40.956  34.344  29.779  1.00  0.00     0.430 C 
ATOM     27  F   UNL A   1      40.710  34.888  30.994  1.00  0.00    -0.167 F 
ATOM     28  F   UNL A   1      39.889  34.620  28.996  1.00  0.00    -0.167 F 
ATOM     29  F   UNL A   1      41.007  33.001  29.939  1.00  0.00    -0.167 F 
ENDBRANCH  20  26
ENDBRANCH   8  10
ENDBRANCH   7   8
ENDBRANCH   6   7
ENDBRANCH   5   6
ENDBRANCH   4   5
ENDBRANCH   3   4
ENDBRANCH   2   3
ENDBRANCH   1   2
BRANCH   1  30
ATOM     30  C   UNL A   1      35.885  34.511  34.025  1.00  0.00     0.188 C 
BRANCH  30  31
ATOM     31  C   UNL A   1      34.900  34.032  32.936  1.00  0.00     0.188 C 
BRANCH  31  32
ATOM     32  O   UNL A   1      34.619  35.022  31.944  1.00  0.00    -0.376 OA
BRANCH  32  33
ATOM     33  C   UNL A   1      34.079  34.571  30.710  1.00  0.00     0.202 C 
BRANCH  33  34
ATOM     34  C   UNL A   1      34.528  33.165  30.295  1.00  0.00     0.261 C 
BRANCH  34  35
ATOM     35  O   UNL A   1      34.841  33.004  28.904  1.00  0.00    -0.460 OA
BRANCH  35  36
ATOM     36  C   UNL A   1      34.914  31.747  28.413  1.00  0.00     0.338 C 
ATOM     37  O   UNL A   1      34.165  31.231  27.602  1.00  0.00    -0.246 OA
BRANCH  36  38
ATOM     38  C   UNL A   1      36.189  31.166  28.881  1.00  0.00     0.060 A 
ATOM     39  C   UNL A   1      37.390  31.849  28.673  1.00  0.00     0.016 A 
ATOM     40  C   UNL A   1      36.184  29.912  29.508  1.00  0.00     0.016 A 
ATOM     41  C   UNL A   1      38.585  31.289  29.121  1.00  0.00     0.010 A 
ATOM     42  C   UNL A   1      37.384  29.355  29.957  1.00  0.00     0.010 A 
ATOM     43  C   UNL A   1      38.590  30.052  29.788  1.00  0.00    -0.014 A 
BRANCH  43  44
ATOM     44  C   UNL A   1      39.829  29.600  30.464  1.00  0.00     0.031 A 
ATOM     45  C   UNL A   1      40.269  30.157  31.783  1.00  0.00     0.074 A 
ATOM     46  C   UNL A   1      40.550  28.636  29.860  1.00  0.00     0.049 A 
ATOM     47  N   UNL A   1      41.249  29.752  32.549  1.00  0.00    -0.248 NA
ATOM     48  C   UNL A   1      39.524  31.309  32.312  1.00  0.00     0.031 C 
ATOM     49  C   UNL A   1      40.222  28.040  28.562  1.00  0.00     0.029 A 
ATOM     50  N   UNL A   1      41.682  27.969  30.255  1.00  0.00    -0.354 N 
ATOM     51  C   UNL A   1      41.227  30.577  33.665  1.00  0.00     0.074 A 
ATOM     52  C   UNL A   1      40.167  31.541  33.451  1.00  0.00     0.031 C 
ATOM     53  C   UNL A   1      41.102  27.068  28.290  1.00  0.00     0.029 A 
ATOM     54  C   UNL A   1      42.076  26.988  29.375  1.00  0.00     0.049 A 
ATOM     55  H   UNL A   1      42.166  28.174  31.088  1.00  0.00     0.167 HD
ATOM     56  C   UNL A   1      42.009  30.517  34.769  1.00  0.00     0.031 A 
ATOM     57  C   UNL A   1      43.093  26.106  29.437  1.00  0.00     0.031 A 
ATOM     58  C   UNL A   1      43.076  29.562  34.953  1.00  0.00     0.049 A 
ATOM     59  C   UNL A   1      43.970  26.085  30.656  1.00  0.00     0.074 A 
ATOM     60  C   UNL A   1      43.898  29.402  36.055  1.00  0.00     0.029 A 
ATOM     61  N   UNL A   1      43.477  28.618  34.019  1.00  0.00    -0.354 N 
ATOM     62  N   UNL A   1      43.882  26.818  31.739  1.00  0.00    -0.248 NA
ATOM     63  C   UNL A   1      45.068  25.108  30.674  1.00  0.00     0.031 C 
ATOM     64  C   UNL A   1      44.842  28.417  35.760  1.00  0.00     0.029 A 
ATOM     65  C   UNL A   1      44.557  27.899  34.507  1.00  0.00     0.049 A 
ATOM     66  H   UNL A   1      43.057  28.478  33.141  1.00  0.00     0.167 HD
ATOM     67  C   UNL A   1      44.899  26.378  32.578  1.00  0.00     0.074 A 
ATOM     68  C   UNL A   1      45.579  25.304  31.884  1.00  0.00     0.031 C 
ATOM     69  C   UNL A   1      45.234  26.830  33.812  1.00  0.00     0.031 A 
BRANCH  56  70
ATOM     70  C   UNL A   1      41.746  31.487  35.894  1.00  0.00    -0.014 A 
ATOM     71  C   UNL A   1      40.480  31.528  36.508  1.00  0.00     0.010 A 
ATOM     72  C   UNL A   1      42.700  32.464  36.234  1.00  0.00     0.010 A 
ATOM     73  C   UNL A   1      40.159  32.546  37.412  1.00  0.00     0.020 A 
ATOM     74  C   UNL A   1      42.394  33.467  37.160  1.00  0.00     0.020 A 
ATOM     75  C   UNL A   1      41.116  33.516  37.722  1.00  0.00     0.054 A 
BRANCH  75  76
ATOM     76  S   UNL A   1      40.667  34.853  38.865  1.00  0.00     0.124 S 
ATOM     77  O   UNL A   1      41.713  34.759  39.878  1.00  0.00    -0.237 OA
ATOM     78  O   UNL A   1      40.721  36.035  38.007  1.00  0.00    -0.237 OA
ATOM     79  O   UNL A   1      39.326  34.483  39.314  1.00  0.00    -0.744 OA
ENDBRANCH  75  76
ENDBRANCH  56  70
BRANCH  57  80
ATOM     80  C   UNL A   1      43.272  25.136  28.321  1.00  0.00    -0.014 A 
ATOM     81  C   UNL A   1      42.783  23.821  28.438  1.00  0.00     0.010 A 
ATOM     82  C   UNL A   1      44.022  25.487  27.185  1.00  0.00     0.010 A 
ATOM     83  C   UNL A   1      43.092  22.860  27.472  1.00  0.00     0.020 A 
ATOM     84  C   UNL A   1      44.305  24.537  26.200  1.00  0.00     0.020 A 
ATOM     85  C   UNL A   1      43.866  23.222  26.367  1.00  0.00     0.054 A 
BRANCH  85  86
ATOM     86  S   UNL A   1      44.308  21.942  25.159  1.00  0.00     0.124 S 
ATOM     87  O   UNL A   1      43.777  20.738  25.793  1.00  0.00    -0.237 OA
ATOM     88  O   UNL A   1      43.606  22.381  23.957  1.00  0.00    -0.237 OA
ATOM     89  O   UNL A   1      45.764  22.023  25.093  1.00  0.00    -0.744 OA
ENDBRANCH  85  86
ENDBRANCH  57  80
BRANCH  69  90
ATOM     90  C   UNL A   1      46.395  26.178  34.522  1.00  0.00    -0.014 A 
ATOM     91  C   UNL A   1      46.164  25.084  35.379  1.00  0.00     0.010 A 
ATOM     92  C   UNL A   1      47.685  26.734  34.458  1.00  0.00     0.010 A 
ATOM     93  C   UNL A   1      47.186  24.593  36.195  1.00  0.00     0.020 A 
ATOM     94  C   UNL A   1      48.718  26.223  35.249  1.00  0.00     0.020 A 
ATOM     95  C   UNL A   1      48.453  25.176  36.135  1.00  0.00     0.054 A 
BRANCH  95  96
ATOM     96  S   UNL A   1      49.751  24.561  37.245  1.00  0.00     0.124 S 
ATOM     97  O   UNL A   1      49.681  23.120  37.032  1.00  0.00    -0.237 OA
ATOM     98  O   UNL A   1      50.951  25.217  36.730  1.00  0.00    -0.237 OA
ATOM     99  O   UNL A   1      49.319  25.019  38.565  1.00  0.00    -0.744 OA
ENDBRANCH  95  96
ENDBRANCH  69  90
ENDBRANCH  43  44
ENDBRANCH  36  38
ENDBRANCH  35  36
ENDBRANCH  34  35
ENDBRANCH  33  34
ENDBRANCH  32  33
ENDBRANCH  31  32
ENDBRANCH  30  31
ENDBRANCH   1  30
TORSDOF 27
ENDMDL
MODEL 3
REMARK VINA RESULT:      -7.8      6.164     11.205
REMARK SMILES CC(C)CCc1cc2c(cc1Cl)C=C(C(=O)OCCOCCOCCOCCOC(=O)c1ccc(-c3c4nc(c(-c5ccc(S(=O)(=O)[O-])cc5)c5ccc([nH]5)c(-c5ccc(S(=O)(=O)[O-])cc5)c5nc(c(-c6ccc(S(=O)(=O)[O-])cc6)c6ccc3[nH]6)C=C5)C=C4)cc1)[C@@H](C(F)(F)F)O2
REMARK SMILES IDX 23 1 22 2 21 3 20 4 19 5 18 6 17 7 15 8 16 9 14 10 6 11 7 12
REMARK SMILES IDX 11 13 8 14 10 15 12 16 9 17 97 18 13 19 92 20 5 21 4 22 2 23
REMARK SMILES IDX 1 24 3 25 93 26 94 27 95 28 96 29 24 30 25 31 26 32 27 33
REMARK SMILES IDX 28 34 29 35 30 36 31 37 32 38 33 39 91 40 34 41 90 42 35 43
REMARK SMILES IDX 36 44 37 45 84 46 38 47 89 48 83 49 85 50 39 51 88 52 82 53
REMARK SMILES IDX 81 54 40 56 70 57 51 58 69 59 52 60 55 61 68 62 86 63 53 64
REMARK SMILES IDX 54 65 67 67 87 68 56 69 41 70 42 71 50 72 43 73 49 74 44 75
REMARK SMILES IDX 45 76 46 77 47 78 48 79 71 80 72 81 80 82 73 83 79 84 74 85
REMARK SMILES IDX 75 86 76 87 77 88 78 89 57 90 58 91 66 92 59 93 65 94 60 95
REMARK SMILES IDX 61 96 62 97 63 98 64 99
REMARK H PARENT 85 55 55 66
REMARK Flexibility Score: inf
ROOT
ATOM      1  O   UNL A   1      43.216  22.423  25.986  1.00  0.00    -0.377 OA
ENDROOT
BRANCH   1   2
ATOM      2  C   UNL A   1      43.580  23.403  26.949  1.00  0.00     0.188 C 
BRANCH   2   3
ATOM      3  C   UNL A   1      42.362  23.913  27.740  1.00  0.00     0.188 C 
BRANCH   3   4
ATOM      4  O   UNL A   1      41.375  24.511  26.914  1.00  0.00    -0.376 OA
BRANCH   4   5
ATOM      5  C   UNL A   1      41.559  25.831  26.420  1.00  0.00     0.202 C 
BRANCH   5   6
ATOM      6  C   UNL A   1      42.080  26.994  27.288  1.00  0.00     0.261 C 
BRANCH   6   7
ATOM      7  O   UNL A   1      41.102  27.851  27.883  1.00  0.00    -0.460 OA
BRANCH   7   8
ATOM      8  C   UNL A   1      41.063  27.945  29.222  1.00  0.00     0.338 C 
ATOM      9  O   UNL A   1      41.855  27.473  30.017  1.00  0.00    -0.246 OA
BRANCH   8  10
ATOM     10  C   UNL A   1      39.989  28.909  29.557  1.00  0.00     0.087 C 
ATOM     11  C   UNL A   1      37.342  32.993  30.756  1.00  0.00    -0.026 A 
ATOM     12  C   UNL A   1      37.032  31.630  30.600  1.00  0.00     0.052 A 
ATOM     13  C   UNL A   1      38.568  33.446  30.241  1.00  0.00     0.045 A 
ATOM     14  C   UNL A   1      37.986  30.723  30.141  1.00  0.00     0.128 A 
ATOM     15  C   UNL A   1      39.514  32.541  29.749  1.00  0.00     0.032 A 
ATOM     16  Cl  UNL A   1      38.996  35.122  30.218  1.00  0.00    -0.084 Cl
ATOM     17  C   UNL A   1      39.248  31.170  29.763  1.00  0.00     0.019 A 
ATOM     18  O   UNL A   1      37.606  29.413  30.131  1.00  0.00    -0.475 OA
ATOM     19  C   UNL A   1      40.289  30.210  29.448  1.00  0.00     0.027 C 
ATOM     20  C   UNL A   1      38.612  28.388  29.901  1.00  0.00     0.316 C 
BRANCH  11  21
ATOM     21  C   UNL A   1      36.385  33.911  31.488  1.00  0.00     0.037 C 
BRANCH  21  22
ATOM     22  C   UNL A   1      34.901  33.488  31.464  1.00  0.00     0.008 C 
BRANCH  22  23
ATOM     23  C   UNL A   1      33.968  34.366  30.597  1.00  0.00    -0.017 C 
ATOM     24  C   UNL A   1      33.578  35.670  31.291  1.00  0.00     0.007 C 
ATOM     25  C   UNL A   1      34.636  34.664  29.252  1.00  0.00     0.007 C 
ENDBRANCH  22  23
ENDBRANCH  21  22
ENDBRANCH  11  21
BRANCH  20  26
ATOM     26  C   UNL A   1      38.637  27.447  31.113  1.00  0.00     0.430 C 
ATOM     27  F   UNL A   1      39.707  27.693  31.904  1.00  0.00    -0.167 F 
ATOM     28  F   UNL A   1      37.534  27.588  31.881  1.00  0.00    -0.167 F 
ATOM     29  F   UNL A   1      38.704  26.150  30.733  1.00  0.00    -0.167 F 
ENDBRANCH  20  26
ENDBRANCH   8  10
ENDBRANCH   7   8
ENDBRANCH   6   7
ENDBRANCH   5   6
ENDBRANCH   4   5
ENDBRANCH   3   4
ENDBRANCH   2   3
ENDBRANCH   1   2
BRANCH   1  30
ATOM     30  C   UNL A   1      44.286  21.807  25.268  1.00  0.00     0.188 C 
BRANCH  30  31
ATOM     31  C   UNL A   1      45.742  21.963  25.761  1.00  0.00     0.188 C 
BRANCH  31  32
ATOM     32  O   UNL A   1      46.561  22.742  24.888  1.00  0.00    -0.376 OA
BRANCH  32  33
ATOM     33  C   UNL A   1      45.949  23.844  24.233  1.00  0.00     0.202 C 
BRANCH  33  34
ATOM     34  C   UNL A   1      46.063  25.175  24.989  1.00  0.00     0.261 C 
BRANCH  34  35
ATOM     35  O   UNL A   1      47.289  25.892  24.789  1.00  0.00    -0.460 OA
BRANCH  35  36
ATOM     36  C   UNL A   1      47.210  27.185  24.402  1.00  0.00     0.338 C 
ATOM     37  O   UNL A   1      47.369  27.626  23.278  1.00  0.00    -0.246 OA
BRANCH  36  38
ATOM     38  C   UNL A   1      46.696  27.957  25.553  1.00  0.00     0.060 A 
ATOM     39  C   UNL A   1      45.322  28.169  25.699  1.00  0.00     0.016 A 
ATOM     40  C   UNL A   1      47.601  28.497  26.477  1.00  0.00     0.016 A 
ATOM     41  C   UNL A   1      44.852  28.897  26.789  1.00  0.00     0.010 A 
ATOM     42  C   UNL A   1      47.125  29.227  27.570  1.00  0.00     0.010 A 
ATOM     43  C   UNL A   1      45.746  29.410  27.746  1.00  0.00    -0.014 A 
BRANCH  43  44
ATOM     44  C   UNL A   1      45.208  29.964  29.012  1.00  0.00     0.031 A 
ATOM     45  C   UNL A   1      44.685  31.364  29.114  1.00  0.00     0.074 A 
ATOM     46  C   UNL A   1      45.176  29.147  30.083  1.00  0.00     0.049 A 
ATOM     47  N   UNL A   1      44.060  31.926  30.115  1.00  0.00    -0.248 NA
ATOM     48  C   UNL A   1      44.889  32.246  27.956  1.00  0.00     0.031 C 
ATOM     49  C   UNL A   1      45.680  27.771  30.096  1.00  0.00     0.029 A 
ATOM     50  N   UNL A   1      44.684  29.334  31.350  1.00  0.00    -0.354 N 
ATOM     51  C   UNL A   1      43.767  33.219  29.705  1.00  0.00     0.074 A 
ATOM     52  C   UNL A   1      44.332  33.375  28.380  1.00  0.00     0.031 C 
ATOM     53  C   UNL A   1      45.431  27.225  31.294  1.00  0.00     0.029 A 
ATOM     54  C   UNL A   1      44.778  28.216  32.145  1.00  0.00     0.049 A 
ATOM     55  H   UNL A   1      44.302  30.187  31.659  1.00  0.00     0.167 HD
ATOM     56  C   UNL A   1      43.074  34.174  30.371  1.00  0.00     0.031 A 
ATOM     57  C   UNL A   1      44.370  27.998  33.411  1.00  0.00     0.031 A 
ATOM     58  C   UNL A   1      42.538  34.006  31.700  1.00  0.00     0.049 A 
ATOM     59  C   UNL A   1      43.637  29.087  34.141  1.00  0.00     0.074 A 
ATOM     60  C   UNL A   1      41.791  34.906  32.440  1.00  0.00     0.029 A 
ATOM     61  N   UNL A   1      42.697  32.878  32.492  1.00  0.00    -0.354 N 
ATOM     62  N   UNL A   1      43.296  30.276  33.706  1.00  0.00    -0.248 NA
ATOM     63  C   UNL A   1      43.215  28.803  35.519  1.00  0.00     0.031 C 
ATOM     64  C   UNL A   1      41.563  34.356  33.702  1.00  0.00     0.029 A 
ATOM     65  C   UNL A   1      42.093  33.076  33.724  1.00  0.00     0.049 A 
ATOM     66  H   UNL A   1      43.168  32.058  32.220  1.00  0.00     0.167 HD
ATOM     67  C   UNL A   1      42.600  30.875  34.750  1.00  0.00     0.074 A 
ATOM     68  C   UNL A   1      42.555  29.912  35.830  1.00  0.00     0.031 C 
ATOM     69  C   UNL A   1      42.052  32.114  34.801  1.00  0.00     0.031 A 
BRANCH  56  70
ATOM     70  C   UNL A   1      42.819  35.492  29.682  1.00  0.00    -0.014 A 
ATOM     71  C   UNL A   1      41.848  35.582  28.667  1.00  0.00     0.010 A 
ATOM     72  C   UNL A   1      43.650  36.601  29.931  1.00  0.00     0.010 A 
ATOM     73  C   UNL A   1      41.736  36.738  27.889  1.00  0.00     0.020 A 
ATOM     74  C   UNL A   1      43.521  37.770  29.174  1.00  0.00     0.020 A 
ATOM     75  C   UNL A   1      42.582  37.821  28.141  1.00  0.00     0.054 A 
BRANCH  75  76
ATOM     76  S   UNL A   1      42.450  39.297  27.093  1.00  0.00     0.124 S 
ATOM     77  O   UNL A   1      41.386  38.925  26.166  1.00  0.00    -0.237 OA
ATOM     78  O   UNL A   1      42.112  40.342  28.057  1.00  0.00    -0.237 OA
ATOM     79  O   UNL A   1      43.782  39.417  26.502  1.00  0.00    -0.744 OA
ENDBRANCH  75  76
ENDBRANCH  56  70
BRANCH  57  80
ATOM     80  C   UNL A   1      44.601  26.659  34.020  1.00  0.00    -0.014 A 
ATOM     81  C   UNL A   1      45.856  26.334  34.570  1.00  0.00     0.010 A 
ATOM     82  C   UNL A   1      43.605  25.668  33.958  1.00  0.00     0.010 A 
ATOM     83  C   UNL A   1      46.132  25.031  34.989  1.00  0.00     0.020 A 
ATOM     84  C   UNL A   1      43.867  24.370  34.407  1.00  0.00     0.020 A 
ATOM     85  C   UNL A   1      45.139  24.053  34.889  1.00  0.00     0.054 A 
BRANCH  85  86
ATOM     86  S   UNL A   1      45.541  22.353  35.379  1.00  0.00     0.124 S 
ATOM     87  O   UNL A   1      45.294  22.391  36.818  1.00  0.00    -0.237 OA
ATOM     88  O   UNL A   1      44.593  21.563  34.599  1.00  0.00    -0.237 OA
ATOM     89  O   UNL A   1      46.941  22.207  34.989  1.00  0.00    -0.744 OA
ENDBRANCH  85  86
ENDBRANCH  57  80
BRANCH  69  90
ATOM     90  C   UNL A   1      41.343  32.532  36.066  1.00  0.00    -0.014 A 
ATOM     91  C   UNL A   1      42.083  33.082  37.131  1.00  0.00     0.010 A 
ATOM     92  C   UNL A   1      39.980  32.247  36.257  1.00  0.00     0.010 A 
ATOM     93  C   UNL A   1      41.487  33.292  38.376  1.00  0.00     0.020 A 
ATOM     94  C   UNL A   1      39.372  32.487  37.494  1.00  0.00     0.020 A 
ATOM     95  C   UNL A   1      40.138  32.979  38.554  1.00  0.00     0.054 A 
BRANCH  95  96
ATOM     96  S   UNL A   1      39.397  33.203  40.195  1.00  0.00     0.124 S 
ATOM     97  O   UNL A   1      38.268  32.280  40.152  1.00  0.00    -0.237 OA
ATOM     98  O   UNL A   1      40.486  32.827  41.093  1.00  0.00    -0.237 OA
ATOM     99  O   UNL A   1      39.042  34.622  40.220  1.00  0.00    -0.744 OA
ENDBRANCH  95  96
ENDBRANCH  69  90
ENDBRANCH  43  44
ENDBRANCH  36  38
ENDBRANCH  35  36
ENDBRANCH  34  35
ENDBRANCH  33  34
ENDBRANCH  32  33
ENDBRANCH  31  32
ENDBRANCH  30  31
ENDBRANCH   1  30
TORSDOF 27
ENDMDL
