MODEL 1
REMARK VINA RESULT:      -8.4      0.000      0.000
REMARK SMILES C[C@H]([NH2+]C1C(C)(C)C1(C)C)[C@H](C)C(=O)OCCOCCOCCOCCOC(=O)c1ccc(-c2c3nc(c(-c4ccc(S(=O)(=O)[O-])cc4)c4ccc([nH]4)c(-c4ccc(S(=O)(=O)[O-])cc4)c4nc(c(-c5ccc(S(=O)(=O)[O-])cc5)c5ccc2[nH]5)C=C4)C=C3)cc1
REMARK SMILES IDX 21 1 20 2 19 3 18 4 17 5 16 6 15 7 13 8 14 9 11 10 12 11
REMARK SMILES IDX 2 12 1 13 3 14 4 17 5 18 8 19 6 20 7 21 9 22 10 23 22 24
REMARK SMILES IDX 23 25 24 26 25 27 26 28 27 29 28 30 29 31 30 32 31 33 89 34
REMARK SMILES IDX 32 35 88 36 33 37 34 38 35 39 82 40 36 41 87 42 81 43 83 44
REMARK SMILES IDX 37 45 86 46 80 47 79 48 38 50 68 51 49 52 67 53 50 54 53 55
REMARK SMILES IDX 66 56 84 57 51 58 52 59 65 61 85 62 54 63 39 64 40 65 48 66
REMARK SMILES IDX 41 67 47 68 42 69 43 70 44 71 45 72 46 73 69 74 70 75 78 76
REMARK SMILES IDX 71 77 77 78 72 79 73 80 74 81 75 82 76 83 55 84 56 85 64 86
REMARK SMILES IDX 57 87 63 88 58 89 59 90 60 91 61 92 62 93
REMARK H PARENT 3 15 3 16 83 49 53 60
REMARK Flexibility Score: inf
ROOT
ATOM      1  O   UNL A   1      40.819  21.148  27.346  1.00  0.00    -0.377 OA
ENDROOT
BRANCH   1   2
ATOM      2  C   UNL A   1      39.903  21.889  26.536  1.00  0.00     0.188 C 
BRANCH   2   3
ATOM      3  C   UNL A   1      39.739  23.383  26.839  1.00  0.00     0.188 C 
BRANCH   3   4
ATOM      4  O   UNL A   1      38.423  23.931  26.748  1.00  0.00    -0.376 OA
BRANCH   4   5
ATOM      5  C   UNL A   1      37.408  23.137  26.136  1.00  0.00     0.202 C 
BRANCH   5   6
ATOM      6  C   UNL A   1      36.532  23.904  25.155  1.00  0.00     0.261 C 
BRANCH   6   7
ATOM      7  O   UNL A   1      35.682  23.016  24.411  1.00  0.00    -0.463 OA
BRANCH   7   8
ATOM      8  C   UNL A   1      34.428  22.841  24.881  1.00  0.00     0.314 C 
ATOM      9  O   UNL A   1      34.069  23.062  26.034  1.00  0.00    -0.252 OA
BRANCH   8  10
ATOM     10  C   UNL A   1      33.464  22.359  23.817  1.00  0.00     0.154 C 
ATOM     11  C   UNL A   1      32.880  21.002  24.187  1.00  0.00     0.026 C 
BRANCH  10  12
ATOM     12  C   UNL A   1      32.478  23.438  23.284  1.00  0.00     0.193 C 
ATOM     13  C   UNL A   1      33.153  24.189  22.116  1.00  0.00     0.076 C 
BRANCH  12  14
ATOM     14  N   UNL A   1      31.923  24.492  24.141  1.00  0.00    -0.340 N 
ATOM     15  H   UNL A   1      32.339  24.369  25.064  1.00  0.00     0.346 HD
ATOM     16  H   UNL A   1      30.916  24.355  24.057  1.00  0.00     0.346 HD
BRANCH  14  17
ATOM     17  C   UNL A   1      32.101  25.897  23.782  1.00  0.00     0.195 C 
ATOM     18  C   UNL A   1      31.356  26.917  24.645  1.00  0.00     0.028 C 
ATOM     19  C   UNL A   1      32.885  26.908  24.610  1.00  0.00     0.028 C 
ATOM     20  C   UNL A   1      30.608  28.030  23.955  1.00  0.00     0.018 C 
ATOM     21  C   UNL A   1      30.666  26.484  25.928  1.00  0.00     0.018 C 
ATOM     22  C   UNL A   1      33.652  26.497  25.845  1.00  0.00     0.018 C 
ATOM     23  C   UNL A   1      33.576  28.036  23.864  1.00  0.00     0.018 C 
ENDBRANCH  14  17
ENDBRANCH  12  14
ENDBRANCH  10  12
ENDBRANCH   8  10
ENDBRANCH   7   8
ENDBRANCH   6   7
ENDBRANCH   5   6
ENDBRANCH   4   5
ENDBRANCH   3   4
ENDBRANCH   2   3
ENDBRANCH   1   2
BRANCH   1  24
ATOM     24  C   UNL A   1      42.033  21.796  27.700  1.00  0.00     0.188 C 
BRANCH  24  25
ATOM     25  C   UNL A   1      42.920  22.187  26.522  1.00  0.00     0.188 C 
BRANCH  25  26
ATOM     26  O   UNL A   1      44.084  22.894  26.943  1.00  0.00    -0.376 OA
BRANCH  26  27
ATOM     27  C   UNL A   1      44.273  24.121  26.242  1.00  0.00     0.202 C 
BRANCH  27  28
ATOM     28  C   UNL A   1      43.196  24.482  25.199  1.00  0.00     0.261 C 
BRANCH  28  29
ATOM     29  O   UNL A   1      42.195  25.437  25.596  1.00  0.00    -0.460 OA
BRANCH  29  30
ATOM     30  C   UNL A   1      42.552  26.736  25.620  1.00  0.00     0.338 C 
ATOM     31  O   UNL A   1      42.923  27.409  24.666  1.00  0.00    -0.246 OA
BRANCH  30  32
ATOM     32  C   UNL A   1      42.432  27.250  26.999  1.00  0.00     0.060 A 
ATOM     33  C   UNL A   1      41.620  26.594  27.931  1.00  0.00     0.016 A 
ATOM     34  C   UNL A   1      43.057  28.453  27.340  1.00  0.00     0.016 A 
ATOM     35  C   UNL A   1      41.417  27.153  29.200  1.00  0.00     0.010 A 
ATOM     36  C   UNL A   1      42.846  29.014  28.606  1.00  0.00     0.010 A 
ATOM     37  C   UNL A   1      42.003  28.381  29.538  1.00  0.00    -0.014 A 
BRANCH  37  38
ATOM     38  C   UNL A   1      41.645  29.075  30.803  1.00  0.00     0.031 A 
ATOM     39  C   UNL A   1      40.459  30.006  30.824  1.00  0.00     0.074 A 
ATOM     40  C   UNL A   1      42.370  28.897  31.924  1.00  0.00     0.049 A 
ATOM     41  N   UNL A   1      40.006  30.750  31.800  1.00  0.00    -0.248 NA
ATOM     42  C   UNL A   1      39.684  30.108  29.578  1.00  0.00     0.031 C 
ATOM     43  C   UNL A   1      43.516  28.001  32.058  1.00  0.00     0.029 A 
ATOM     44  N   UNL A   1      42.249  29.477  33.164  1.00  0.00    -0.354 N 
ATOM     45  C   UNL A   1      38.893  31.410  31.289  1.00  0.00     0.074 A 
ATOM     46  C   UNL A   1      38.754  30.993  29.910  1.00  0.00     0.031 C 
ATOM     47  C   UNL A   1      44.005  28.102  33.306  1.00  0.00     0.029 A 
ATOM     48  C   UNL A   1      43.228  29.094  34.051  1.00  0.00     0.049 A 
ATOM     49  H   UNL A   1      41.531  30.109  33.397  1.00  0.00     0.167 HD
ATOM     50  C   UNL A   1      38.061  32.282  31.909  1.00  0.00     0.031 A 
ATOM     51  C   UNL A   1      43.487  29.512  35.307  1.00  0.00     0.031 A 
ATOM     52  C   UNL A   1      38.212  32.723  33.270  1.00  0.00     0.049 A 
ATOM     53  C   UNL A   1      42.607  30.559  35.942  1.00  0.00     0.074 A 
ATOM     54  C   UNL A   1      37.406  33.591  33.988  1.00  0.00     0.029 A 
ATOM     55  N   UNL A   1      39.246  32.350  34.115  1.00  0.00    -0.354 N 
ATOM     56  N   UNL A   1      41.538  31.144  35.459  1.00  0.00    -0.248 NA
ATOM     57  C   UNL A   1      42.974  31.003  37.297  1.00  0.00     0.031 C 
ATOM     58  C   UNL A   1      37.985  33.788  35.246  1.00  0.00     0.029 A 
ATOM     59  C   UNL A   1      39.122  32.999  35.332  1.00  0.00     0.049 A 
ATOM     60  H   UNL A   1      39.963  31.716  33.884  1.00  0.00     0.167 HD
ATOM     61  C   UNL A   1      41.097  32.013  36.452  1.00  0.00     0.074 A 
ATOM     62  C   UNL A   1      42.003  31.864  37.572  1.00  0.00     0.031 C 
ATOM     63  C   UNL A   1      40.036  32.857  36.437  1.00  0.00     0.031 A 
BRANCH  50  64
ATOM     64  C   UNL A   1      36.926  32.850  31.100  1.00  0.00    -0.014 A 
ATOM     65  C   UNL A   1      37.150  33.852  30.138  1.00  0.00     0.010 A 
ATOM     66  C   UNL A   1      35.623  32.349  31.277  1.00  0.00     0.010 A 
ATOM     67  C   UNL A   1      36.084  34.368  29.396  1.00  0.00     0.020 A 
ATOM     68  C   UNL A   1      34.560  32.846  30.520  1.00  0.00     0.020 A 
ATOM     69  C   UNL A   1      34.794  33.865  29.594  1.00  0.00     0.054 A 
BRANCH  69  70
ATOM     70  S   UNL A   1      33.432  34.543  28.607  1.00  0.00     0.124 S 
ATOM     71  O   UNL A   1      34.076  35.673  27.942  1.00  0.00    -0.237 OA
ATOM     72  O   UNL A   1      33.077  33.424  27.738  1.00  0.00    -0.237 OA
ATOM     73  O   UNL A   1      32.425  34.898  29.604  1.00  0.00    -0.744 OA
ENDBRANCH  69  70
ENDBRANCH  50  64
BRANCH  51  74
ATOM     74  C   UNL A   1      44.661  28.967  36.042  1.00  0.00    -0.014 A 
ATOM     75  C   UNL A   1      44.536  27.824  36.851  1.00  0.00     0.010 A 
ATOM     76  C   UNL A   1      45.915  29.599  35.941  1.00  0.00     0.010 A 
ATOM     77  C   UNL A   1      45.641  27.326  37.550  1.00  0.00     0.020 A 
ATOM     78  C   UNL A   1      47.026  29.091  36.618  1.00  0.00     0.020 A 
ATOM     79  C   UNL A   1      46.880  27.961  37.427  1.00  0.00     0.054 A 
BRANCH  79  80
ATOM     80  S   UNL A   1      48.314  27.266  38.294  1.00  0.00     0.124 S 
ATOM     81  O   UNL A   1      47.680  26.515  39.374  1.00  0.00    -0.237 OA
ATOM     82  O   UNL A   1      48.953  26.462  37.255  1.00  0.00    -0.237 OA
ATOM     83  O   UNL A   1      49.068  28.446  38.709  1.00  0.00    -0.744 OA
ENDBRANCH  79  80
ENDBRANCH  51  74
BRANCH  63  84
ATOM     84  C   UNL A   1      39.786  33.686  37.670  1.00  0.00    -0.014 A 
ATOM     85  C   UNL A   1      39.051  33.172  38.753  1.00  0.00     0.010 A 
ATOM     86  C   UNL A   1      40.343  34.975  37.771  1.00  0.00     0.010 A 
ATOM     87  C   UNL A   1      38.858  33.941  39.905  1.00  0.00     0.020 A 
ATOM     88  C   UNL A   1      40.172  35.737  38.930  1.00  0.00     0.020 A 
ATOM     89  C   UNL A   1      39.419  35.219  39.986  1.00  0.00     0.054 A 
BRANCH  89  90
ATOM     90  S   UNL A   1      39.194  36.179  41.510  1.00  0.00     0.124 S 
ATOM     91  O   UNL A   1      37.941  35.638  42.028  1.00  0.00    -0.237 OA
ATOM     92  O   UNL A   1      40.389  35.842  42.282  1.00  0.00    -0.237 OA
ATOM     93  O   UNL A   1      39.131  37.561  41.044  1.00  0.00    -0.744 OA
ENDBRANCH  89  90
ENDBRANCH  63  84
ENDBRANCH  37  38
ENDBRANCH  30  32
ENDBRANCH  29  30
ENDBRANCH  28  29
ENDBRANCH  27  28
ENDBRANCH  26  27
ENDBRANCH  25  26
ENDBRANCH  24  25
ENDBRANCH   1  24
TORSDOF 26
ENDMDL
MODEL 2
REMARK VINA RESULT:      -7.0      4.584      6.934
REMARK SMILES C[C@H]([NH2+]C1C(C)(C)C1(C)C)[C@H](C)C(=O)OCCOCCOCCOCCOC(=O)c1ccc(-c2c3nc(c(-c4ccc(S(=O)(=O)[O-])cc4)c4ccc([nH]4)c(-c4ccc(S(=O)(=O)[O-])cc4)c4nc(c(-c5ccc(S(=O)(=O)[O-])cc5)c5ccc2[nH]5)C=C4)C=C3)cc1
REMARK SMILES IDX 21 1 20 2 19 3 18 4 17 5 16 6 15 7 13 8 14 9 11 10 12 11
REMARK SMILES IDX 2 12 1 13 3 14 4 17 5 18 8 19 6 20 7 21 9 22 10 23 22 24
REMARK SMILES IDX 23 25 24 26 25 27 26 28 27 29 28 30 29 31 30 32 31 33 89 34
REMARK SMILES IDX 32 35 88 36 33 37 34 38 35 39 82 40 36 41 87 42 81 43 83 44
REMARK SMILES IDX 37 45 86 46 80 47 79 48 38 50 68 51 49 52 67 53 50 54 53 55
REMARK SMILES IDX 66 56 84 57 51 58 52 59 65 61 85 62 54 63 39 64 40 65 48 66
REMARK SMILES IDX 41 67 47 68 42 69 43 70 44 71 45 72 46 73 69 74 70 75 78 76
REMARK SMILES IDX 71 77 77 78 72 79 73 80 74 81 75 82 76 83 55 84 56 85 64 86
REMARK SMILES IDX 57 87 63 88 58 89 59 90 60 91 61 92 62 93
REMARK H PARENT 3 15 3 16 83 49 53 60
REMARK Flexibility Score: inf
ROOT
ATOM      1  O   UNL A   1      42.139  23.111  27.610  1.00  0.00    -0.377 OA
ENDROOT
BRANCH   1   2
ATOM      2  C   UNL A   1      40.846  23.161  27.000  1.00  0.00     0.188 C 
BRANCH   2   3
ATOM      3  C   UNL A   1      40.041  24.457  27.155  1.00  0.00     0.188 C 
BRANCH   3   4
ATOM      4  O   UNL A   1      40.240  25.213  28.351  1.00  0.00    -0.376 OA
BRANCH   4   5
ATOM      5  C   UNL A   1      39.321  26.265  28.639  1.00  0.00     0.202 C 
BRANCH   5   6
ATOM      6  C   UNL A   1      39.988  27.578  29.025  1.00  0.00     0.261 C 
BRANCH   6   7
ATOM      7  O   UNL A   1      39.281  28.703  28.477  1.00  0.00    -0.463 OA
BRANCH   7   8
ATOM      8  C   UNL A   1      38.787  29.597  29.361  1.00  0.00     0.314 C 
ATOM      9  O   UNL A   1      37.723  30.196  29.240  1.00  0.00    -0.252 OA
BRANCH   8  10
ATOM     10  C   UNL A   1      39.679  29.779  30.571  1.00  0.00     0.154 C 
ATOM     11  C   UNL A   1      40.753  30.826  30.304  1.00  0.00     0.026 C 
BRANCH  10  12
ATOM     12  C   UNL A   1      38.933  29.856  31.934  1.00  0.00     0.193 C 
ATOM     13  C   UNL A   1      38.223  28.509  32.186  1.00  0.00     0.076 C 
BRANCH  12  14
ATOM     14  N   UNL A   1      37.919  30.878  32.221  1.00  0.00    -0.340 N 
ATOM     15  H   UNL A   1      37.638  30.748  33.193  1.00  0.00     0.346 HD
ATOM     16  H   UNL A   1      37.214  30.715  31.502  1.00  0.00     0.346 HD
BRANCH  14  17
ATOM     17  C   UNL A   1      38.240  32.294  32.061  1.00  0.00     0.195 C 
ATOM     18  C   UNL A   1      37.693  33.239  33.133  1.00  0.00     0.028 C 
ATOM     19  C   UNL A   1      39.202  33.068  32.954  1.00  0.00     0.028 C 
ATOM     20  C   UNL A   1      37.036  34.523  32.689  1.00  0.00     0.018 C 
ATOM     21  C   UNL A   1      37.053  32.685  34.395  1.00  0.00     0.018 C 
ATOM     22  C   UNL A   1      40.003  32.385  34.036  1.00  0.00     0.018 C 
ATOM     23  C   UNL A   1      39.968  34.219  32.323  1.00  0.00     0.018 C 
ENDBRANCH  14  17
ENDBRANCH  12  14
ENDBRANCH  10  12
ENDBRANCH   8  10
ENDBRANCH   7   8
ENDBRANCH   6   7
ENDBRANCH   5   6
ENDBRANCH   4   5
ENDBRANCH   3   4
ENDBRANCH   2   3
ENDBRANCH   1   2
BRANCH   1  24
ATOM     24  C   UNL A   1      43.234  22.778  26.770  1.00  0.00     0.188 C 
BRANCH  24  25
ATOM     25  C   UNL A   1      42.863  22.471  25.322  1.00  0.00     0.188 C 
BRANCH  25  26
ATOM     26  O   UNL A   1      43.946  21.881  24.608  1.00  0.00    -0.376 OA
BRANCH  26  27
ATOM     27  C   UNL A   1      44.748  22.840  23.921  1.00  0.00     0.202 C 
BRANCH  27  28
ATOM     28  C   UNL A   1      46.251  22.841  24.263  1.00  0.00     0.261 C 
BRANCH  28  29
ATOM     29  O   UNL A   1      46.678  23.707  25.331  1.00  0.00    -0.460 OA
BRANCH  29  30
ATOM     30  C   UNL A   1      46.935  24.992  25.021  1.00  0.00     0.338 C 
ATOM     31  O   UNL A   1      47.425  25.409  23.978  1.00  0.00    -0.246 OA
BRANCH  30  32
ATOM     32  C   UNL A   1      46.536  25.857  26.150  1.00  0.00     0.060 A 
ATOM     33  C   UNL A   1      47.507  26.507  26.920  1.00  0.00     0.016 A 
ATOM     34  C   UNL A   1      45.188  25.942  26.508  1.00  0.00     0.016 A 
ATOM     35  C   UNL A   1      47.129  27.230  28.061  1.00  0.00     0.010 A 
ATOM     36  C   UNL A   1      44.814  26.656  27.653  1.00  0.00     0.010 A 
ATOM     37  C   UNL A   1      45.785  27.284  28.454  1.00  0.00    -0.014 A 
BRANCH  37  38
ATOM     38  C   UNL A   1      45.395  27.881  29.759  1.00  0.00     0.031 A 
ATOM     39  C   UNL A   1      45.013  29.338  29.819  1.00  0.00     0.074 A 
ATOM     40  C   UNL A   1      45.395  27.147  30.888  1.00  0.00     0.049 A 
ATOM     41  N   UNL A   1      44.695  30.070  30.856  1.00  0.00    -0.248 NA
ATOM     42  C   UNL A   1      44.984  30.062  28.538  1.00  0.00     0.031 C 
ATOM     43  C   UNL A   1      45.707  25.721  30.971  1.00  0.00     0.029 A 
ATOM     44  N   UNL A   1      45.131  27.510  32.187  1.00  0.00    -0.354 N 
ATOM     45  C   UNL A   1      44.429  31.340  30.357  1.00  0.00     0.074 A 
ATOM     46  C   UNL A   1      44.644  31.284  28.926  1.00  0.00     0.031 C 
ATOM     47  C   UNL A   1      45.631  25.333  32.256  1.00  0.00     0.029 A 
ATOM     48  C   UNL A   1      45.299  26.488  33.091  1.00  0.00     0.049 A 
ATOM     49  H   UNL A   1      44.849  28.417  32.446  1.00  0.00     0.167 HD
ATOM     50  C   UNL A   1      44.040  32.454  31.025  1.00  0.00     0.031 A 
ATOM     51  C   UNL A   1      45.223  26.486  34.438  1.00  0.00     0.031 A 
ATOM     52  C   UNL A   1      43.855  32.525  32.450  1.00  0.00     0.049 A 
ATOM     53  C   UNL A   1      44.888  27.762  35.169  1.00  0.00     0.074 A 
ATOM     54  C   UNL A   1      43.444  33.607  33.211  1.00  0.00     0.029 A 
ATOM     55  N   UNL A   1      44.086  31.482  33.332  1.00  0.00    -0.354 N 
ATOM     56  N   UNL A   1      44.603  28.945  34.679  1.00  0.00    -0.248 NA
ATOM     57  C   UNL A   1      44.867  27.701  36.639  1.00  0.00     0.031 C 
ATOM     58  C   UNL A   1      43.485  33.234  34.560  1.00  0.00     0.029 A 
ATOM     59  C   UNL A   1      43.866  31.903  34.633  1.00  0.00     0.049 A 
ATOM     60  H   UNL A   1      44.366  30.574  33.073  1.00  0.00     0.167 HD
ATOM     61  C   UNL A   1      44.355  29.762  35.777  1.00  0.00     0.074 A 
ATOM     62  C   UNL A   1      44.505  28.937  36.957  1.00  0.00     0.031 C 
ATOM     63  C   UNL A   1      44.031  31.079  35.804  1.00  0.00     0.031 A 
BRANCH  50  64
ATOM     64  C   UNL A   1      43.825  33.706  30.217  1.00  0.00    -0.014 A 
ATOM     65  C   UNL A   1      42.615  33.932  29.536  1.00  0.00     0.010 A 
ATOM     66  C   UNL A   1      44.832  34.688  30.170  1.00  0.00     0.010 A 
ATOM     67  C   UNL A   1      42.432  35.101  28.791  1.00  0.00     0.020 A 
ATOM     68  C   UNL A   1      44.642  35.868  29.446  1.00  0.00     0.020 A 
ATOM     69  C   UNL A   1      43.449  36.059  28.747  1.00  0.00     0.054 A 
BRANCH  69  70
ATOM     70  S   UNL A   1      43.179  37.572  27.785  1.00  0.00     0.124 S 
ATOM     71  O   UNL A   1      44.308  37.544  26.857  1.00  0.00    -0.237 OA
ATOM     72  O   UNL A   1      41.868  37.342  27.183  1.00  0.00    -0.237 OA
ATOM     73  O   UNL A   1      43.223  38.634  28.787  1.00  0.00    -0.744 OA
ENDBRANCH  69  70
ENDBRANCH  50  64
BRANCH  51  74
ATOM     74  C   UNL A   1      45.509  25.237  35.195  1.00  0.00    -0.014 A 
ATOM     75  C   UNL A   1      46.806  24.958  35.658  1.00  0.00     0.010 A 
ATOM     76  C   UNL A   1      44.478  24.314  35.452  1.00  0.00     0.010 A 
ATOM     77  C   UNL A   1      47.070  23.775  36.358  1.00  0.00     0.020 A 
ATOM     78  C   UNL A   1      44.732  23.144  36.171  1.00  0.00     0.020 A 
ATOM     79  C   UNL A   1      46.029  22.877  36.612  1.00  0.00     0.054 A 
BRANCH  79  80
ATOM     80  S   UNL A   1      46.379  21.377  37.572  1.00  0.00     0.124 S 
ATOM     81  O   UNL A   1      45.731  20.345  36.769  1.00  0.00    -0.237 OA
ATOM     82  O   UNL A   1      47.839  21.344  37.587  1.00  0.00    -0.237 OA
ATOM     83  O   UNL A   1      45.757  21.647  38.866  1.00  0.00    -0.744 OA
ENDBRANCH  79  80
ENDBRANCH  51  74
BRANCH  63  84
ATOM     84  C   UNL A   1      43.809  31.716  37.151  1.00  0.00    -0.014 A 
ATOM     85  C   UNL A   1      42.538  31.720  37.751  1.00  0.00     0.010 A 
ATOM     86  C   UNL A   1      44.899  32.265  37.853  1.00  0.00     0.010 A 
ATOM     87  C   UNL A   1      42.355  32.283  39.018  1.00  0.00     0.020 A 
ATOM     88  C   UNL A   1      44.724  32.808  39.130  1.00  0.00     0.020 A 
ATOM     89  C   UNL A   1      43.449  32.825  39.699  1.00  0.00     0.054 A 
BRANCH  89  90
ATOM     90  S   UNL A   1      43.195  33.507  41.362  1.00  0.00     0.124 S 
ATOM     91  O   UNL A   1      44.563  33.783  41.789  1.00  0.00    -0.237 OA
ATOM     92  O   UNL A   1      42.368  34.684  41.104  1.00  0.00    -0.237 OA
ATOM     93  O   UNL A   1      42.524  32.428  42.080  1.00  0.00    -0.744 OA
ENDBRANCH  89  90
ENDBRANCH  63  84
ENDBRANCH  37  38
ENDBRANCH  30  32
ENDBRANCH  29  30
ENDBRANCH  28  29
ENDBRANCH  27  28
ENDBRANCH  26  27
ENDBRANCH  25  26
ENDBRANCH  24  25
ENDBRANCH   1  24
TORSDOF 26
ENDMDL
MODEL 3
REMARK VINA RESULT:      -6.8      5.786     10.096
REMARK SMILES C[C@H]([NH2+]C1C(C)(C)C1(C)C)[C@H](C)C(=O)OCCOCCOCCOCCOC(=O)c1ccc(-c2c3nc(c(-c4ccc(S(=O)(=O)[O-])cc4)c4ccc([nH]4)c(-c4ccc(S(=O)(=O)[O-])cc4)c4nc(c(-c5ccc(S(=O)(=O)[O-])cc5)c5ccc2[nH]5)C=C4)C=C3)cc1
REMARK SMILES IDX 21 1 20 2 19 3 18 4 17 5 16 6 15 7 13 8 14 9 11 10 12 11
REMARK SMILES IDX 2 12 1 13 3 14 4 17 5 18 8 19 6 20 7 21 9 22 10 23 22 24
REMARK SMILES IDX 23 25 24 26 25 27 26 28 27 29 28 30 29 31 30 32 31 33 89 34
REMARK SMILES IDX 32 35 88 36 33 37 34 38 35 39 82 40 36 41 87 42 81 43 83 44
REMARK SMILES IDX 37 45 86 46 80 47 79 48 38 50 68 51 49 52 67 53 50 54 53 55
REMARK SMILES IDX 66 56 84 57 51 58 52 59 65 61 85 62 54 63 39 64 40 65 48 66
REMARK SMILES IDX 41 67 47 68 42 69 43 70 44 71 45 72 46 73 69 74 70 75 78 76
REMARK SMILES IDX 71 77 77 78 72 79 73 80 74 81 75 82 76 83 55 84 56 85 64 86
REMARK SMILES IDX 57 87 63 88 58 89 59 90 60 91 61 92 62 93
REMARK H PARENT 3 15 3 16 83 49 53 60
REMARK Flexibility Score: inf
ROOT
ATOM      1  O   UNL A   1      46.559  25.259  33.265  1.00  0.00    -0.377 OA
ENDROOT
BRANCH   1   2
ATOM      2  C   UNL A   1      45.700  25.403  32.131  1.00  0.00     0.188 C 
BRANCH   2   3
ATOM      3  C   UNL A   1      46.361  25.644  30.769  1.00  0.00     0.188 C 
BRANCH   3   4
ATOM      4  O   UNL A   1      45.769  25.014  29.632  1.00  0.00    -0.376 OA
BRANCH   4   5
ATOM      5  C   UNL A   1      46.472  25.071  28.392  1.00  0.00     0.202 C 
BRANCH   5   6
ATOM      6  C   UNL A   1      46.097  23.963  27.418  1.00  0.00     0.261 C 
BRANCH   6   7
ATOM      7  O   UNL A   1      45.277  24.463  26.349  1.00  0.00    -0.463 OA
BRANCH   7   8
ATOM      8  C   UNL A   1      45.336  23.795  25.177  1.00  0.00     0.314 C 
ATOM      9  O   UNL A   1      46.264  23.855  24.376  1.00  0.00    -0.252 OA
BRANCH   8  10
ATOM     10  C   UNL A   1      44.128  22.912  24.943  1.00  0.00     0.154 C 
ATOM     11  C   UNL A   1      44.549  21.470  24.692  1.00  0.00     0.026 C 
BRANCH  10  12
ATOM     12  C   UNL A   1      42.940  23.147  25.920  1.00  0.00     0.193 C 
ATOM     13  C   UNL A   1      42.128  21.839  26.033  1.00  0.00     0.076 C 
BRANCH  12  14
ATOM     14  N   UNL A   1      41.938  24.198  25.703  1.00  0.00    -0.340 N 
ATOM     15  H   UNL A   1      41.073  23.871  26.135  1.00  0.00     0.346 HD
ATOM     16  H   UNL A   1      41.941  24.319  24.690  1.00  0.00     0.346 HD
BRANCH  14  17
ATOM     17  C   UNL A   1      42.174  25.550  26.203  1.00  0.00     0.195 C 
ATOM     18  C   UNL A   1      41.020  26.203  26.965  1.00  0.00     0.028 C 
ATOM     19  C   UNL A   1      42.343  25.911  27.673  1.00  0.00     0.028 C 
ATOM     20  C   UNL A   1      40.658  27.629  26.633  1.00  0.00     0.018 C 
ATOM     21  C   UNL A   1      39.799  25.389  27.361  1.00  0.00     0.018 C 
ATOM     22  C   UNL A   1      42.389  24.852  28.749  1.00  0.00     0.018 C 
ATOM     23  C   UNL A   1      43.237  27.094  28.004  1.00  0.00     0.018 C 
ENDBRANCH  14  17
ENDBRANCH  12  14
ENDBRANCH  10  12
ENDBRANCH   8  10
ENDBRANCH   7   8
ENDBRANCH   6   7
ENDBRANCH   5   6
ENDBRANCH   4   5
ENDBRANCH   3   4
ENDBRANCH   2   3
ENDBRANCH   1   2
BRANCH   1  24
ATOM     24  C   UNL A   1      46.399  24.085  34.049  1.00  0.00     0.188 C 
BRANCH  24  25
ATOM     25  C   UNL A   1      45.713  24.301  35.394  1.00  0.00     0.188 C 
BRANCH  25  26
ATOM     26  O   UNL A   1      44.888  23.197  35.756  1.00  0.00    -0.376 OA
BRANCH  26  27
ATOM     27  C   UNL A   1      43.809  22.988  34.847  1.00  0.00     0.202 C 
BRANCH  27  28
ATOM     28  C   UNL A   1      42.505  23.753  35.152  1.00  0.00     0.261 C 
BRANCH  28  29
ATOM     29  O   UNL A   1      42.297  24.173  36.513  1.00  0.00    -0.460 OA
BRANCH  29  30
ATOM     30  C   UNL A   1      41.444  25.194  36.723  1.00  0.00     0.338 C 
ATOM     31  O   UNL A   1      40.458  25.185  37.450  1.00  0.00    -0.246 OA
BRANCH  30  32
ATOM     32  C   UNL A   1      41.874  26.362  35.927  1.00  0.00     0.060 A 
ATOM     33  C   UNL A   1      42.974  27.126  36.331  1.00  0.00     0.016 A 
ATOM     34  C   UNL A   1      41.114  26.758  34.822  1.00  0.00     0.016 A 
ATOM     35  C   UNL A   1      43.304  28.300  35.639  1.00  0.00     0.010 A 
ATOM     36  C   UNL A   1      41.440  27.936  34.139  1.00  0.00     0.010 A 
ATOM     37  C   UNL A   1      42.522  28.730  34.557  1.00  0.00    -0.014 A 
BRANCH  37  38
ATOM     38  C   UNL A   1      42.745  30.064  33.939  1.00  0.00     0.031 A 
ATOM     39  C   UNL A   1      43.444  30.153  32.606  1.00  0.00     0.074 A 
ATOM     40  C   UNL A   1      42.347  31.193  34.557  1.00  0.00     0.049 A 
ATOM     41  N   UNL A   1      43.787  31.212  31.919  1.00  0.00    -0.248 NA
ATOM     42  C   UNL A   1      43.801  28.877  31.967  1.00  0.00     0.031 C 
ATOM     43  C   UNL A   1      41.629  31.254  35.828  1.00  0.00     0.029 A 
ATOM     44  N   UNL A   1      42.505  32.510  34.196  1.00  0.00    -0.354 N 
ATOM     45  C   UNL A   1      44.400  30.734  30.766  1.00  0.00     0.074 A 
ATOM     46  C   UNL A   1      44.401  29.289  30.859  1.00  0.00     0.031 C 
ATOM     47  C   UNL A   1      41.421  32.543  36.150  1.00  0.00     0.029 A 
ATOM     48  C   UNL A   1      42.020  33.399  35.125  1.00  0.00     0.049 A 
ATOM     49  H   UNL A   1      42.926  32.790  33.352  1.00  0.00     0.167 HD
ATOM     50  C   UNL A   1      44.916  31.430  29.723  1.00  0.00     0.031 A 
ATOM     51  C   UNL A   1      42.075  34.746  35.164  1.00  0.00     0.031 A 
ATOM     52  C   UNL A   1      44.946  32.867  29.640  1.00  0.00     0.049 A 
ATOM     53  C   UNL A   1      42.744  35.499  34.040  1.00  0.00     0.074 A 
ATOM     54  C   UNL A   1      45.431  33.658  28.612  1.00  0.00     0.029 A 
ATOM     55  N   UNL A   1      44.491  33.728  30.625  1.00  0.00    -0.354 N 
ATOM     56  N   UNL A   1      43.285  35.032  32.941  1.00  0.00    -0.248 NA
ATOM     57  C   UNL A   1      42.810  36.963  34.167  1.00  0.00     0.031 C 
ATOM     58  C   UNL A   1      45.324  34.998  29.004  1.00  0.00     0.029 A 
ATOM     59  C   UNL A   1      44.720  35.042  30.250  1.00  0.00     0.049 A 
ATOM     60  H   UNL A   1      44.067  33.448  31.469  1.00  0.00     0.167 HD
ATOM     61  C   UNL A   1      43.742  36.144  32.240  1.00  0.00     0.074 A 
ATOM     62  C   UNL A   1      43.398  37.308  33.029  1.00  0.00     0.031 C 
ATOM     63  C   UNL A   1      44.388  36.195  31.048  1.00  0.00     0.031 A 
BRANCH  50  64
ATOM     64  C   UNL A   1      45.528  30.640  28.598  1.00  0.00    -0.014 A 
ATOM     65  C   UNL A   1      44.813  30.392  27.412  1.00  0.00     0.010 A 
ATOM     66  C   UNL A   1      46.850  30.173  28.712  1.00  0.00     0.010 A 
ATOM     67  C   UNL A   1      45.397  29.656  26.377  1.00  0.00     0.020 A 
ATOM     68  C   UNL A   1      47.445  29.458  27.669  1.00  0.00     0.020 A 
ATOM     69  C   UNL A   1      46.709  29.190  26.513  1.00  0.00     0.054 A 
BRANCH  69  70
ATOM     70  S   UNL A   1      47.447  28.251  25.149  1.00  0.00     0.124 S 
ATOM     71  O   UNL A   1      48.863  28.584  25.286  1.00  0.00    -0.237 OA
ATOM     72  O   UNL A   1      47.093  26.873  25.478  1.00  0.00    -0.237 OA
ATOM     73  O   UNL A   1      46.793  28.793  23.960  1.00  0.00    -0.744 OA
ENDBRANCH  69  70
ENDBRANCH  50  64
BRANCH  51  74
ATOM     74  C   UNL A   1      41.512  35.479  36.330  1.00  0.00    -0.014 A 
ATOM     75  C   UNL A   1      40.139  35.770  36.403  1.00  0.00     0.010 A 
ATOM     76  C   UNL A   1      42.355  35.898  37.377  1.00  0.00     0.010 A 
ATOM     77  C   UNL A   1      39.619  36.471  37.496  1.00  0.00     0.020 A 
ATOM     78  C   UNL A   1      41.836  36.577  38.482  1.00  0.00     0.020 A 
ATOM     79  C   UNL A   1      40.471  36.868  38.531  1.00  0.00     0.054 A 
BRANCH  79  80
ATOM     80  S   UNL A   1      39.769  37.725  39.968  1.00  0.00     0.124 S 
ATOM     81  O   UNL A   1      40.781  38.740  40.240  1.00  0.00    -0.237 OA
ATOM     82  O   UNL A   1      38.497  38.221  39.449  1.00  0.00    -0.237 OA
ATOM     83  O   UNL A   1      39.654  36.669  40.971  1.00  0.00    -0.744 OA
ENDBRANCH  79  80
ENDBRANCH  51  74
BRANCH  63  84
ATOM     84  C   UNL A   1      44.764  37.553  30.515  1.00  0.00    -0.014 A 
ATOM     85  C   UNL A   1      43.872  38.291  29.718  1.00  0.00     0.010 A 
ATOM     86  C   UNL A   1      46.002  38.123  30.866  1.00  0.00     0.010 A 
ATOM     87  C   UNL A   1      44.221  39.565  29.260  1.00  0.00     0.020 A 
ATOM     88  C   UNL A   1      46.344  39.407  30.429  1.00  0.00     0.020 A 
ATOM     89  C   UNL A   1      45.456  40.115  29.618  1.00  0.00     0.054 A 
BRANCH  89  90
ATOM     90  S   UNL A   1      45.866  41.790  29.051  1.00  0.00     0.124 S 
ATOM     91  O   UNL A   1      44.661  42.534  29.404  1.00  0.00    -0.237 OA
ATOM     92  O   UNL A   1      47.057  42.113  29.834  1.00  0.00    -0.237 OA
ATOM     93  O   UNL A   1      46.098  41.623  27.618  1.00  0.00    -0.744 OA
ENDBRANCH  89  90
ENDBRANCH  63  84
ENDBRANCH  37  38
ENDBRANCH  30  32
ENDBRANCH  29  30
ENDBRANCH  28  29
ENDBRANCH  27  28
ENDBRANCH  26  27
ENDBRANCH  25  26
ENDBRANCH  24  25
ENDBRANCH   1  24
TORSDOF 26
ENDMDL
