MODEL 1
REMARK VINA RESULT:      -6.9      0.000      0.000
REMARK SMILES Cc1cc(Br)cc2c1O[C@H](C(F)(F)F)C(C(=O)OCCOCCOCCOCCOC(=O)c1ccc(-c3c4nc(c(-c5ccc(S(=O)(=O)[O-])cc5)c5ccc([nH]5)c(-c5ccc(S(=O)(=O)[O-])cc5)c5nc(c(-c6ccc(S(=O)(=O)[O-])cc6)c6ccc3[nH]6)C=C5)C=C4)cc1)=C2
REMARK SMILES IDX 25 1 24 2 23 3 22 4 21 5 20 6 19 7 18 8 16 9 17 10 15 11
REMARK SMILES IDX 1 12 2 13 3 14 8 15 4 16 7 17 9 18 5 19 6 20 93 21 10 22
REMARK SMILES IDX 11 23 12 24 13 25 14 26 26 27 27 28 28 29 29 30 30 31 31 32
REMARK SMILES IDX 32 33 33 34 34 35 92 36 35 37 91 38 36 39 37 40 38 41 85 42
REMARK SMILES IDX 39 43 90 44 84 45 86 46 40 47 89 48 83 49 82 50 41 52 71 53
REMARK SMILES IDX 52 54 70 55 53 56 56 57 69 58 87 59 54 60 55 61 68 63 88 64
REMARK SMILES IDX 57 65 42 66 43 67 51 68 44 69 50 70 45 71 46 72 47 73 48 74
REMARK SMILES IDX 49 75 72 76 73 77 81 78 74 79 80 80 75 81 76 82 77 83 78 84
REMARK SMILES IDX 79 85 58 86 59 87 67 88 60 89 66 90 61 91 62 92 63 93 64 94
REMARK SMILES IDX 65 95
REMARK H PARENT 86 51 56 62
REMARK Flexibility Score: inf
ROOT
ATOM      1  C   UNL A   1      35.413  33.218  33.112  1.00  0.00     0.188 C 
ENDROOT
BRANCH   1   2
ATOM      2  O   UNL A   1      36.088  32.765  34.284  1.00  0.00    -0.377 OA
BRANCH   2   3
ATOM      3  C   UNL A   1      36.661  33.751  35.122  1.00  0.00     0.188 C 
BRANCH   3   4
ATOM      4  C   UNL A   1      38.158  33.989  34.850  1.00  0.00     0.188 C 
BRANCH   4   5
ATOM      5  O   UNL A   1      38.680  33.614  33.591  1.00  0.00    -0.376 OA
BRANCH   5   6
ATOM      6  C   UNL A   1      39.823  32.789  33.424  1.00  0.00     0.202 C 
BRANCH   6   7
ATOM      7  C   UNL A   1      39.991  31.603  32.454  1.00  0.00     0.261 C 
BRANCH   7   8
ATOM      8  O   UNL A   1      39.807  30.289  32.964  1.00  0.00    -0.460 OA
BRANCH   8   9
ATOM      9  C   UNL A   1      40.683  29.879  33.898  1.00  0.00     0.338 C 
ATOM     10  O   UNL A   1      40.446  29.600  35.060  1.00  0.00    -0.246 OA
BRANCH   9  11
ATOM     11  C   UNL A   1      41.976  29.638  33.221  1.00  0.00     0.087 C 
ATOM     12  C   UNL A   1      46.818  29.784  31.586  1.00  0.00     0.048 C 
ATOM     13  C   UNL A   1      45.691  28.791  31.527  1.00  0.00    -0.007 A 
ATOM     14  C   UNL A   1      45.912  27.518  30.977  1.00  0.00     0.023 A 
ATOM     15  C   UNL A   1      44.412  29.116  32.007  1.00  0.00     0.130 A 
ATOM     16  C   UNL A   1      44.873  26.591  30.915  1.00  0.00     0.019 A 
ATOM     17  C   UNL A   1      43.391  28.160  31.991  1.00  0.00     0.019 A 
ATOM     18  O   UNL A   1      44.237  30.384  32.484  1.00  0.00    -0.475 OA
ATOM     19  Br  UNL A   1      45.187  24.874  30.188  1.00  0.00    -0.051 Br
ATOM     20  C   UNL A   1      43.614  26.905  31.417  1.00  0.00     0.027 A 
ATOM     21  C   UNL A   1      42.125  28.442  32.639  1.00  0.00     0.027 C 
ATOM     22  C   UNL A   1      43.002  30.738  33.162  1.00  0.00     0.316 C 
BRANCH  22  23
ATOM     23  C   UNL A   1      43.358  31.271  34.556  1.00  0.00     0.430 C 
ATOM     24  F   UNL A   1      44.698  31.374  34.715  1.00  0.00    -0.167 F 
ATOM     25  F   UNL A   1      42.837  32.498  34.779  1.00  0.00    -0.167 F 
ATOM     26  F   UNL A   1      42.897  30.451  35.530  1.00  0.00    -0.167 F 
ENDBRANCH  22  23
ENDBRANCH   9  11
ENDBRANCH   8   9
ENDBRANCH   7   8
ENDBRANCH   6   7
ENDBRANCH   5   6
ENDBRANCH   4   5
ENDBRANCH   3   4
ENDBRANCH   2   3
ENDBRANCH   1   2
BRANCH   1  27
ATOM     27  C   UNL A   1      35.185  32.252  31.926  1.00  0.00     0.188 C 
BRANCH  27  28
ATOM     28  O   UNL A   1      34.692  32.880  30.749  1.00  0.00    -0.376 OA
BRANCH  28  29
ATOM     29  C   UNL A   1      34.955  32.282  29.491  1.00  0.00     0.202 C 
BRANCH  29  30
ATOM     30  C   UNL A   1      36.411  31.897  29.200  1.00  0.00     0.261 C 
BRANCH  30  31
ATOM     31  O   UNL A   1      36.614  30.580  28.670  1.00  0.00    -0.460 OA
BRANCH  31  32
ATOM     32  C   UNL A   1      37.001  29.621  29.536  1.00  0.00     0.338 C 
ATOM     33  O   UNL A   1      36.331  29.120  30.425  1.00  0.00    -0.246 OA
BRANCH  32  34
ATOM     34  C   UNL A   1      38.327  29.138  29.106  1.00  0.00     0.060 A 
ATOM     35  C   UNL A   1      39.120  28.423  30.013  1.00  0.00     0.016 A 
ATOM     36  C   UNL A   1      38.779  29.393  27.809  1.00  0.00     0.016 A 
ATOM     37  C   UNL A   1      40.395  27.997  29.637  1.00  0.00     0.010 A 
ATOM     38  C   UNL A   1      40.063  28.988  27.444  1.00  0.00     0.010 A 
ATOM     39  C   UNL A   1      40.888  28.323  28.368  1.00  0.00    -0.014 A 
BRANCH  39  40
ATOM     40  C   UNL A   1      42.328  28.163  28.065  1.00  0.00     0.031 A 
ATOM     41  C   UNL A   1      43.236  29.338  28.308  1.00  0.00     0.074 A 
ATOM     42  C   UNL A   1      42.820  27.008  27.586  1.00  0.00     0.049 A 
ATOM     43  N   UNL A   1      44.502  29.481  28.019  1.00  0.00    -0.248 NA
ATOM     44  C   UNL A   1      42.630  30.509  28.966  1.00  0.00     0.031 C 
ATOM     45  C   UNL A   1      42.054  25.779  27.383  1.00  0.00     0.029 A 
ATOM     46  N   UNL A   1      44.089  26.688  27.177  1.00  0.00    -0.354 N 
ATOM     47  C   UNL A   1      44.842  30.757  28.452  1.00  0.00     0.074 A 
ATOM     48  C   UNL A   1      43.646  31.357  28.998  1.00  0.00     0.031 C 
ATOM     49  C   UNL A   1      42.870  24.839  26.875  1.00  0.00     0.029 A 
ATOM     50  C   UNL A   1      44.200  25.413  26.675  1.00  0.00     0.049 A 
ATOM     51  H   UNL A   1      44.849  27.311  27.236  1.00  0.00     0.167 HD
ATOM     52  C   UNL A   1      46.047  31.373  28.402  1.00  0.00     0.031 A 
ATOM     53  C   UNL A   1      45.248  24.794  26.096  1.00  0.00     0.031 A 
ATOM     54  C   UNL A   1      47.226  30.778  27.832  1.00  0.00     0.049 A 
ATOM     55  C   UNL A   1      46.551  25.538  25.949  1.00  0.00     0.074 A 
ATOM     56  C   UNL A   1      48.493  31.322  27.714  1.00  0.00     0.029 A 
ATOM     57  N   UNL A   1      47.284  29.505  27.283  1.00  0.00    -0.354 N 
ATOM     58  N   UNL A   1      46.857  26.753  26.339  1.00  0.00    -0.248 NA
ATOM     59  C   UNL A   1      47.652  24.822  25.289  1.00  0.00     0.031 C 
ATOM     60  C   UNL A   1      49.301  30.402  27.038  1.00  0.00     0.029 A 
ATOM     61  C   UNL A   1      48.560  29.255  26.805  1.00  0.00     0.049 A 
ATOM     62  H   UNL A   1      46.531  28.873  27.240  1.00  0.00     0.167 HD
ATOM     63  C   UNL A   1      48.196  26.935  26.002  1.00  0.00     0.074 A 
ATOM     64  C   UNL A   1      48.640  25.701  25.388  1.00  0.00     0.031 C 
ATOM     65  C   UNL A   1      48.986  28.022  26.191  1.00  0.00     0.031 A 
BRANCH  52  66
ATOM     66  C   UNL A   1      46.141  32.774  28.944  1.00  0.00    -0.014 A 
ATOM     67  C   UNL A   1      45.659  33.873  28.211  1.00  0.00     0.010 A 
ATOM     68  C   UNL A   1      46.670  32.989  30.230  1.00  0.00     0.010 A 
ATOM     69  C   UNL A   1      45.728  35.164  28.743  1.00  0.00     0.020 A 
ATOM     70  C   UNL A   1      46.712  34.273  30.779  1.00  0.00     0.020 A 
ATOM     71  C   UNL A   1      46.249  35.354  30.026  1.00  0.00     0.054 A 
BRANCH  71  72
ATOM     72  S   UNL A   1      46.283  37.036  30.706  1.00  0.00     0.124 S 
ATOM     73  O   UNL A   1      46.987  37.771  29.659  1.00  0.00    -0.237 OA
ATOM     74  O   UNL A   1      44.864  37.349  30.848  1.00  0.00    -0.237 OA
ATOM     75  O   UNL A   1      47.016  36.890  31.961  1.00  0.00    -0.744 OA
ENDBRANCH  71  72
ENDBRANCH  52  66
BRANCH  53  76
ATOM     76  C   UNL A   1      45.105  23.396  25.603  1.00  0.00    -0.014 A 
ATOM     77  C   UNL A   1      45.665  22.325  26.322  1.00  0.00     0.010 A 
ATOM     78  C   UNL A   1      44.395  23.124  24.418  1.00  0.00     0.010 A 
ATOM     79  C   UNL A   1      45.522  21.012  25.865  1.00  0.00     0.020 A 
ATOM     80  C   UNL A   1      44.223  21.810  23.974  1.00  0.00     0.020 A 
ATOM     81  C   UNL A   1      44.794  20.762  24.698  1.00  0.00     0.054 A 
BRANCH  81  82
ATOM     82  S   UNL A   1      44.569  19.042  24.165  1.00  0.00     0.124 S 
ATOM     83  O   UNL A   1      44.907  19.115  22.747  1.00  0.00    -0.237 OA
ATOM     84  O   UNL A   1      45.524  18.328  25.008  1.00  0.00    -0.237 OA
ATOM     85  O   UNL A   1      43.163  18.773  24.460  1.00  0.00    -0.744 OA
ENDBRANCH  81  82
ENDBRANCH  53  76
BRANCH  65  86
ATOM     86  C   UNL A   1      50.429  27.915  25.769  1.00  0.00    -0.014 A 
ATOM     87  C   UNL A   1      50.828  28.149  24.441  1.00  0.00     0.010 A 
ATOM     88  C   UNL A   1      51.410  27.624  26.736  1.00  0.00     0.010 A 
ATOM     89  C   UNL A   1      52.175  28.049  24.080  1.00  0.00     0.020 A 
ATOM     90  C   UNL A   1      52.761  27.558  26.386  1.00  0.00     0.020 A 
ATOM     91  C   UNL A   1      53.132  27.751  25.055  1.00  0.00     0.054 A 
BRANCH  91  92
ATOM     92  S   UNL A   1      54.874  27.644  24.560  1.00  0.00     0.124 S 
ATOM     93  O   UNL A   1      54.809  26.749  23.408  1.00  0.00    -0.237 OA
ATOM     94  O   UNL A   1      55.205  29.034  24.257  1.00  0.00    -0.237 OA
ATOM     95  O   UNL A   1      55.538  27.093  25.740  1.00  0.00    -0.744 OA
ENDBRANCH  91  92
ENDBRANCH  65  86
ENDBRANCH  39  40
ENDBRANCH  32  34
ENDBRANCH  31  32
ENDBRANCH  30  31
ENDBRANCH  29  30
ENDBRANCH  28  29
ENDBRANCH  27  28
ENDBRANCH   1  27
TORSDOF 24
ENDMDL
MODEL 2
REMARK VINA RESULT:      -6.6      8.445     14.087
REMARK SMILES Cc1cc(Br)cc2c1O[C@H](C(F)(F)F)C(C(=O)OCCOCCOCCOCCOC(=O)c1ccc(-c3c4nc(c(-c5ccc(S(=O)(=O)[O-])cc5)c5ccc([nH]5)c(-c5ccc(S(=O)(=O)[O-])cc5)c5nc(c(-c6ccc(S(=O)(=O)[O-])cc6)c6ccc3[nH]6)C=C5)C=C4)cc1)=C2
REMARK SMILES IDX 25 1 24 2 23 3 22 4 21 5 20 6 19 7 18 8 16 9 17 10 15 11
REMARK SMILES IDX 1 12 2 13 3 14 8 15 4 16 7 17 9 18 5 19 6 20 93 21 10 22
REMARK SMILES IDX 11 23 12 24 13 25 14 26 26 27 27 28 28 29 29 30 30 31 31 32
REMARK SMILES IDX 32 33 33 34 34 35 92 36 35 37 91 38 36 39 37 40 38 41 85 42
REMARK SMILES IDX 39 43 90 44 84 45 86 46 40 47 89 48 83 49 82 50 41 52 71 53
REMARK SMILES IDX 52 54 70 55 53 56 56 57 69 58 87 59 54 60 55 61 68 63 88 64
REMARK SMILES IDX 57 65 42 66 43 67 51 68 44 69 50 70 45 71 46 72 47 73 48 74
REMARK SMILES IDX 49 75 72 76 73 77 81 78 74 79 80 80 75 81 76 82 77 83 78 84
REMARK SMILES IDX 79 85 58 86 59 87 67 88 60 89 66 90 61 91 62 92 63 93 64 94
REMARK SMILES IDX 65 95
REMARK H PARENT 86 51 56 62
REMARK Flexibility Score: inf
ROOT
ATOM      1  C   UNL A   1      44.890  42.397  27.286  1.00  0.00     0.188 C 
ENDROOT
BRANCH   1   2
ATOM      2  O   UNL A   1      45.796  41.314  27.488  1.00  0.00    -0.377 OA
BRANCH   2   3
ATOM      3  C   UNL A   1      46.743  41.063  26.467  1.00  0.00     0.188 C 
BRANCH   3   4
ATOM      4  C   UNL A   1      46.227  40.101  25.381  1.00  0.00     0.188 C 
BRANCH   4   5
ATOM      5  O   UNL A   1      46.780  40.196  24.082  1.00  0.00    -0.376 OA
BRANCH   5   6
ATOM      6  C   UNL A   1      46.855  41.406  23.343  1.00  0.00     0.202 C 
BRANCH   6   7
ATOM      7  C   UNL A   1      45.801  42.528  23.273  1.00  0.00     0.261 C 
BRANCH   7   8
ATOM      8  O   UNL A   1      45.742  43.318  22.092  1.00  0.00    -0.460 OA
BRANCH   8   9
ATOM      9  C   UNL A   1      45.103  44.497  22.189  1.00  0.00     0.338 C 
ATOM     10  O   UNL A   1      45.055  45.233  23.159  1.00  0.00    -0.246 OA
BRANCH   9  11
ATOM     11  C   UNL A   1      44.613  44.851  20.839  1.00  0.00     0.087 C 
ATOM     12  C   UNL A   1      42.157  45.084  16.361  1.00  0.00     0.048 C 
ATOM     13  C   UNL A   1      43.037  46.008  17.156  1.00  0.00    -0.007 A 
ATOM     14  C   UNL A   1      43.260  47.317  16.703  1.00  0.00     0.023 A 
ATOM     15  C   UNL A   1      43.649  45.581  18.345  1.00  0.00     0.130 A 
ATOM     16  C   UNL A   1      44.077  48.182  17.431  1.00  0.00     0.019 A 
ATOM     17  C   UNL A   1      44.421  46.473  19.097  1.00  0.00     0.019 A 
ATOM     18  O   UNL A   1      43.440  44.282  18.714  1.00  0.00    -0.475 OA
ATOM     19  Br  UNL A   1      44.358  49.949  16.819  1.00  0.00    -0.051 Br
ATOM     20  C   UNL A   1      44.660  47.766  18.624  1.00  0.00     0.027 A 
ATOM     21  C   UNL A   1      44.911  46.081  20.404  1.00  0.00     0.027 C 
ATOM     22  C   UNL A   1      43.886  43.820  20.017  1.00  0.00     0.316 C 
BRANCH  22  23
ATOM     23  C   UNL A   1      42.674  43.241  20.758  1.00  0.00     0.430 C 
ATOM     24  F   UNL A   1      42.928  41.993  21.217  1.00  0.00    -0.167 F 
ATOM     25  F   UNL A   1      42.325  43.992  21.827  1.00  0.00    -0.167 F 
ATOM     26  F   UNL A   1      41.592  43.162  19.948  1.00  0.00    -0.167 F 
ENDBRANCH  22  23
ENDBRANCH   9  11
ENDBRANCH   8   9
ENDBRANCH   7   8
ENDBRANCH   6   7
ENDBRANCH   5   6
ENDBRANCH   4   5
ENDBRANCH   3   4
ENDBRANCH   2   3
ENDBRANCH   1   2
BRANCH   1  27
ATOM     27  C   UNL A   1      45.359  43.853  27.512  1.00  0.00     0.188 C 
BRANCH  27  28
ATOM     28  O   UNL A   1      45.571  44.193  28.877  1.00  0.00    -0.376 OA
BRANCH  28  29
ATOM     29  C   UNL A   1      44.610  44.996  29.540  1.00  0.00     0.202 C 
BRANCH  29  30
ATOM     30  C   UNL A   1      43.786  44.318  30.643  1.00  0.00     0.261 C 
BRANCH  30  31
ATOM     31  O   UNL A   1      44.124  42.954  30.926  1.00  0.00    -0.460 OA
BRANCH  31  32
ATOM     32  C   UNL A   1      43.211  42.220  31.595  1.00  0.00     0.338 C 
ATOM     33  O   UNL A   1      42.326  42.636  32.325  1.00  0.00    -0.246 OA
BRANCH  32  34
ATOM     34  C   UNL A   1      43.342  40.822  31.143  1.00  0.00     0.060 A 
ATOM     35  C   UNL A   1      43.949  39.885  31.989  1.00  0.00     0.016 A 
ATOM     36  C   UNL A   1      42.866  40.444  29.885  1.00  0.00     0.016 A 
ATOM     37  C   UNL A   1      44.120  38.568  31.560  1.00  0.00     0.010 A 
ATOM     38  C   UNL A   1      43.061  39.134  29.448  1.00  0.00     0.010 A 
ATOM     39  C   UNL A   1      43.722  38.202  30.269  1.00  0.00    -0.014 A 
BRANCH  39  40
ATOM     40  C   UNL A   1      44.175  36.920  29.686  1.00  0.00     0.031 A 
ATOM     41  C   UNL A   1      43.323  35.701  29.910  1.00  0.00     0.074 A 
ATOM     42  C   UNL A   1      45.313  36.836  28.976  1.00  0.00     0.049 A 
ATOM     43  N   UNL A   1      43.560  34.454  29.599  1.00  0.00    -0.248 NA
ATOM     44  C   UNL A   1      42.026  35.921  30.576  1.00  0.00     0.031 C 
ATOM     45  C   UNL A   1      46.181  37.960  28.628  1.00  0.00     0.029 A 
ATOM     46  N   UNL A   1      45.936  35.745  28.427  1.00  0.00    -0.354 N 
ATOM     47  C   UNL A   1      42.450  33.741  30.036  1.00  0.00     0.074 A 
ATOM     48  C   UNL A   1      41.551  34.687  30.657  1.00  0.00     0.031 C 
ATOM     49  C   UNL A   1      47.233  37.497  27.932  1.00  0.00     0.029 A 
ATOM     50  C   UNL A   1      47.136  36.041  27.825  1.00  0.00     0.049 A 
ATOM     51  H   UNL A   1      45.561  34.835  28.460  1.00  0.00     0.167 HD
ATOM     52  C   UNL A   1      42.202  32.415  29.926  1.00  0.00     0.031 A 
ATOM     53  C   UNL A   1      48.060  35.226  27.278  1.00  0.00     0.031 A 
ATOM     54  C   UNL A   1      43.114  31.476  29.330  1.00  0.00     0.049 A 
ATOM     55  C   UNL A   1      47.813  33.739  27.266  1.00  0.00     0.074 A 
ATOM     56  C   UNL A   1      42.968  30.108  29.185  1.00  0.00     0.029 A 
ATOM     57  N   UNL A   1      44.344  31.808  28.782  1.00  0.00    -0.354 N 
ATOM     58  N   UNL A   1      46.772  33.071  27.704  1.00  0.00    -0.248 NA
ATOM     59  C   UNL A   1      48.865  32.897  26.679  1.00  0.00     0.031 C 
ATOM     60  C   UNL A   1      44.136  29.604  28.604  1.00  0.00     0.029 A 
ATOM     61  C   UNL A   1      44.977  30.667  28.317  1.00  0.00     0.049 A 
ATOM     62  H   UNL A   1      44.713  32.719  28.730  1.00  0.00     0.167 HD
ATOM     63  C   UNL A   1      47.027  31.734  27.414  1.00  0.00     0.074 A 
ATOM     64  C   UNL A   1      48.316  31.692  26.754  1.00  0.00     0.031 C 
ATOM     65  C   UNL A   1      46.263  30.641  27.665  1.00  0.00     0.031 A 
BRANCH  52  66
ATOM     66  C   UNL A   1      40.907  31.896  30.495  1.00  0.00    -0.014 A 
ATOM     67  C   UNL A   1      39.738  31.846  29.715  1.00  0.00     0.010 A 
ATOM     68  C   UNL A   1      40.874  31.401  31.811  1.00  0.00     0.010 A 
ATOM     69  C   UNL A   1      38.552  31.333  30.250  1.00  0.00     0.020 A 
ATOM     70  C   UNL A   1      39.700  30.859  32.340  1.00  0.00     0.020 A 
ATOM     71  C   UNL A   1      38.543  30.838  31.558  1.00  0.00     0.054 A 
BRANCH  71  72
ATOM     72  S   UNL A   1      37.001  30.138  32.207  1.00  0.00     0.124 S 
ATOM     73  O   UNL A   1      36.340  29.680  30.988  1.00  0.00    -0.237 OA
ATOM     74  O   UNL A   1      37.480  29.084  33.096  1.00  0.00    -0.237 OA
ATOM     75  O   UNL A   1      36.358  31.269  32.873  1.00  0.00    -0.744 OA
ENDBRANCH  71  72
ENDBRANCH  52  66
BRANCH  53  76
ATOM     76  C   UNL A   1      49.309  35.799  26.705  1.00  0.00    -0.014 A 
ATOM     77  C   UNL A   1      50.458  35.947  27.502  1.00  0.00     0.010 A 
ATOM     78  C   UNL A   1      49.364  36.186  25.353  1.00  0.00     0.010 A 
ATOM     79  C   UNL A   1      51.634  36.475  26.962  1.00  0.00     0.020 A 
ATOM     80  C   UNL A   1      50.547  36.686  24.800  1.00  0.00     0.020 A 
ATOM     81  C   UNL A   1      51.674  36.833  25.611  1.00  0.00     0.054 A 
BRANCH  81  82
ATOM     82  S   UNL A   1      53.233  37.453  24.921  1.00  0.00     0.124 S 
ATOM     83  O   UNL A   1      54.225  36.748  25.726  1.00  0.00    -0.237 OA
ATOM     84  O   UNL A   1      53.140  37.039  23.523  1.00  0.00    -0.237 OA
ATOM     85  O   UNL A   1      53.156  38.896  25.144  1.00  0.00    -0.744 OA
ENDBRANCH  81  82
ENDBRANCH  53  76
BRANCH  65  86
ATOM     86  C   UNL A   1      46.775  29.307  27.186  1.00  0.00    -0.014 A 
ATOM     87  C   UNL A   1      47.465  28.432  28.044  1.00  0.00     0.010 A 
ATOM     88  C   UNL A   1      46.516  28.904  25.862  1.00  0.00     0.010 A 
ATOM     89  C   UNL A   1      47.924  27.197  27.573  1.00  0.00     0.020 A 
ATOM     90  C   UNL A   1      46.941  27.657  25.398  1.00  0.00     0.020 A 
ATOM     91  C   UNL A   1      47.660  26.819  26.252  1.00  0.00     0.054 A 
BRANCH  91  92
ATOM     92  S   UNL A   1      48.253  25.205  25.675  1.00  0.00     0.124 S 
ATOM     93  O   UNL A   1      47.897  24.333  26.790  1.00  0.00    -0.237 OA
ATOM     94  O   UNL A   1      47.486  25.004  24.448  1.00  0.00    -0.237 OA
ATOM     95  O   UNL A   1      49.688  25.411  25.480  1.00  0.00    -0.744 OA
ENDBRANCH  91  92
ENDBRANCH  65  86
ENDBRANCH  39  40
ENDBRANCH  32  34
ENDBRANCH  31  32
ENDBRANCH  30  31
ENDBRANCH  29  30
ENDBRANCH  28  29
ENDBRANCH  27  28
ENDBRANCH   1  27
TORSDOF 24
ENDMDL
MODEL 3
REMARK VINA RESULT:      -6.5      7.233     14.889
REMARK SMILES Cc1cc(Br)cc2c1O[C@H](C(F)(F)F)C(C(=O)OCCOCCOCCOCCOC(=O)c1ccc(-c3c4nc(c(-c5ccc(S(=O)(=O)[O-])cc5)c5ccc([nH]5)c(-c5ccc(S(=O)(=O)[O-])cc5)c5nc(c(-c6ccc(S(=O)(=O)[O-])cc6)c6ccc3[nH]6)C=C5)C=C4)cc1)=C2
REMARK SMILES IDX 25 1 24 2 23 3 22 4 21 5 20 6 19 7 18 8 16 9 17 10 15 11
REMARK SMILES IDX 1 12 2 13 3 14 8 15 4 16 7 17 9 18 5 19 6 20 93 21 10 22
REMARK SMILES IDX 11 23 12 24 13 25 14 26 26 27 27 28 28 29 29 30 30 31 31 32
REMARK SMILES IDX 32 33 33 34 34 35 92 36 35 37 91 38 36 39 37 40 38 41 85 42
REMARK SMILES IDX 39 43 90 44 84 45 86 46 40 47 89 48 83 49 82 50 41 52 71 53
REMARK SMILES IDX 52 54 70 55 53 56 56 57 69 58 87 59 54 60 55 61 68 63 88 64
REMARK SMILES IDX 57 65 42 66 43 67 51 68 44 69 50 70 45 71 46 72 47 73 48 74
REMARK SMILES IDX 49 75 72 76 73 77 81 78 74 79 80 80 75 81 76 82 77 83 78 84
REMARK SMILES IDX 79 85 58 86 59 87 67 88 60 89 66 90 61 91 62 92 63 93 64 94
REMARK SMILES IDX 65 95
REMARK H PARENT 86 51 56 62
REMARK Flexibility Score: inf
ROOT
ATOM      1  C   UNL A   1      37.649  29.746  28.859  1.00  0.00     0.188 C 
ENDROOT
BRANCH   1   2
ATOM      2  O   UNL A   1      36.907  30.683  28.082  1.00  0.00    -0.377 OA
BRANCH   2   3
ATOM      3  C   UNL A   1      35.515  30.760  28.319  1.00  0.00     0.188 C 
BRANCH   3   4
ATOM      4  C   UNL A   1      34.714  29.646  27.620  1.00  0.00     0.188 C 
BRANCH   4   5
ATOM      5  O   UNL A   1      33.619  30.016  26.805  1.00  0.00    -0.376 OA
BRANCH   5   6
ATOM      6  C   UNL A   1      33.310  29.393  25.566  1.00  0.00     0.202 C 
BRANCH   6   7
ATOM      7  C   UNL A   1      34.042  28.208  24.906  1.00  0.00     0.261 C 
BRANCH   7   8
ATOM      8  O   UNL A   1      33.666  27.841  23.584  1.00  0.00    -0.460 OA
BRANCH   8   9
ATOM      9  C   UNL A   1      32.889  26.750  23.462  1.00  0.00     0.338 C 
ATOM     10  O   UNL A   1      33.223  25.587  23.602  1.00  0.00    -0.246 OA
BRANCH   9  11
ATOM     11  C   UNL A   1      31.492  27.212  23.309  1.00  0.00     0.087 C 
ATOM     12  C   UNL A   1      26.464  28.026  23.752  1.00  0.00     0.048 C 
ATOM     13  C   UNL A   1      27.610  28.717  23.067  1.00  0.00    -0.007 A 
ATOM     14  C   UNL A   1      27.396  29.939  22.411  1.00  0.00     0.023 A 
ATOM     15  C   UNL A   1      28.898  28.155  23.063  1.00  0.00     0.130 A 
ATOM     16  C   UNL A   1      28.452  30.586  21.771  1.00  0.00     0.019 A 
ATOM     17  C   UNL A   1      29.962  28.839  22.466  1.00  0.00     0.019 A 
ATOM     18  O   UNL A   1      29.041  26.940  23.671  1.00  0.00    -0.475 OA
ATOM     19  Br  UNL A   1      28.154  32.241  20.905  1.00  0.00    -0.051 Br
ATOM     20  C   UNL A   1      29.732  30.043  21.793  1.00  0.00     0.027 A 
ATOM     21  C   UNL A   1      31.315  28.340  22.611  1.00  0.00     0.027 C 
ATOM     22  C   UNL A   1      30.368  26.382  23.869  1.00  0.00     0.316 C 
BRANCH  22  23
ATOM     23  C   UNL A   1      30.549  26.100  25.366  1.00  0.00     0.430 C 
ATOM     24  F   UNL A   1      29.385  25.713  25.938  1.00  0.00    -0.167 F 
ATOM     25  F   UNL A   1      31.448  25.116  25.593  1.00  0.00    -0.167 F 
ATOM     26  F   UNL A   1      30.978  27.201  26.027  1.00  0.00    -0.167 F 
ENDBRANCH  22  23
ENDBRANCH   9  11
ENDBRANCH   8   9
ENDBRANCH   7   8
ENDBRANCH   6   7
ENDBRANCH   5   6
ENDBRANCH   4   5
ENDBRANCH   3   4
ENDBRANCH   2   3
ENDBRANCH   1   2
BRANCH   1  27
ATOM     27  C   UNL A   1      39.187  29.656  28.709  1.00  0.00     0.188 C 
BRANCH  27  28
ATOM     28  O   UNL A   1      39.694  28.328  28.684  1.00  0.00    -0.376 OA
BRANCH  28  29
ATOM     29  C   UNL A   1      39.933  27.709  27.432  1.00  0.00     0.202 C 
BRANCH  29  30
ATOM     30  C   UNL A   1      41.124  28.232  26.618  1.00  0.00     0.261 C 
BRANCH  30  31
ATOM     31  O   UNL A   1      42.417  28.033  27.205  1.00  0.00    -0.460 OA
BRANCH  31  32
ATOM     32  C   UNL A   1      43.217  29.113  27.310  1.00  0.00     0.338 C 
ATOM     33  O   UNL A   1      43.822  29.671  26.408  1.00  0.00    -0.246 OA
BRANCH  32  34
ATOM     34  C   UNL A   1      43.091  29.632  28.685  1.00  0.00     0.060 A 
ATOM     35  C   UNL A   1      42.763  28.747  29.721  1.00  0.00     0.016 A 
ATOM     36  C   UNL A   1      43.297  30.989  28.945  1.00  0.00     0.016 A 
ATOM     37  C   UNL A   1      42.597  29.228  31.020  1.00  0.00     0.010 A 
ATOM     38  C   UNL A   1      43.106  31.472  30.239  1.00  0.00     0.010 A 
ATOM     39  C   UNL A   1      42.719  30.600  31.273  1.00  0.00    -0.014 A 
BRANCH  39  40
ATOM     40  C   UNL A   1      42.242  31.166  32.554  1.00  0.00     0.031 A 
ATOM     41  C   UNL A   1      43.124  31.020  33.764  1.00  0.00     0.074 A 
ATOM     42  C   UNL A   1      41.056  31.793  32.645  1.00  0.00     0.049 A 
ATOM     43  N   UNL A   1      42.881  31.331  35.009  1.00  0.00    -0.248 NA
ATOM     44  C   UNL A   1      44.462  30.447  33.534  1.00  0.00     0.031 C 
ATOM     45  C   UNL A   1      40.151  32.061  31.529  1.00  0.00     0.029 A 
ATOM     46  N   UNL A   1      40.409  32.310  33.738  1.00  0.00    -0.354 N 
ATOM     47  C   UNL A   1      44.029  30.984  35.712  1.00  0.00     0.074 A 
ATOM     48  C   UNL A   1      44.958  30.417  34.761  1.00  0.00     0.031 C 
ATOM     49  C   UNL A   1      39.057  32.686  31.999  1.00  0.00     0.029 A 
ATOM     50  C   UNL A   1      39.165  32.819  33.451  1.00  0.00     0.049 A 
ATOM     51  H   UNL A   1      40.798  32.316  34.643  1.00  0.00     0.167 HD
ATOM     52  C   UNL A   1      44.287  31.130  37.033  1.00  0.00     0.031 A 
ATOM     53  C   UNL A   1      38.215  33.309  34.273  1.00  0.00     0.031 A 
ATOM     54  C   UNL A   1      43.346  31.671  37.977  1.00  0.00     0.049 A 
ATOM     55  C   UNL A   1      38.480  33.359  35.756  1.00  0.00     0.074 A 
ATOM     56  C   UNL A   1      43.499  31.845  39.341  1.00  0.00     0.029 A 
ATOM     57  N   UNL A   1      42.075  32.124  37.656  1.00  0.00    -0.354 N 
ATOM     58  N   UNL A   1      39.559  33.006  36.414  1.00  0.00    -0.248 NA
ATOM     59  C   UNL A   1      37.400  33.880  36.605  1.00  0.00     0.031 C 
ATOM     60  C   UNL A   1      42.299  32.346  39.854  1.00  0.00     0.029 A 
ATOM     61  C   UNL A   1      41.425  32.557  38.800  1.00  0.00     0.049 A 
ATOM     62  H   UNL A   1      41.691  32.137  36.750  1.00  0.00     0.167 HD
ATOM     63  C   UNL A   1      39.301  33.295  37.751  1.00  0.00     0.074 A 
ATOM     64  C   UNL A   1      37.968  33.861  37.803  1.00  0.00     0.031 C 
ATOM     65  C   UNL A   1      40.096  33.115  38.836  1.00  0.00     0.031 A 
BRANCH  52  66
ATOM     66  C   UNL A   1      45.625  30.664  37.541  1.00  0.00    -0.014 A 
ATOM     67  C   UNL A   1      46.823  31.209  37.044  1.00  0.00     0.010 A 
ATOM     68  C   UNL A   1      45.685  29.704  38.568  1.00  0.00     0.010 A 
ATOM     69  C   UNL A   1      48.056  30.785  37.549  1.00  0.00     0.020 A 
ATOM     70  C   UNL A   1      46.914  29.301  39.097  1.00  0.00     0.020 A 
ATOM     71  C   UNL A   1      48.093  29.838  38.576  1.00  0.00     0.054 A 
BRANCH  71  72
ATOM     72  S   UNL A   1      49.706  29.342  39.239  1.00  0.00     0.124 S 
ATOM     73  O   UNL A   1      50.081  28.254  38.340  1.00  0.00    -0.237 OA
ATOM     74  O   UNL A   1      50.493  30.565  39.107  1.00  0.00    -0.237 OA
ATOM     75  O   UNL A   1      49.410  28.938  40.612  1.00  0.00    -0.744 OA
ENDBRANCH  71  72
ENDBRANCH  52  66
BRANCH  53  76
ATOM     76  C   UNL A   1      36.920  33.782  33.710  1.00  0.00    -0.014 A 
ATOM     77  C   UNL A   1      36.811  35.069  33.153  1.00  0.00     0.010 A 
ATOM     78  C   UNL A   1      35.789  32.944  33.714  1.00  0.00     0.010 A 
ATOM     79  C   UNL A   1      35.598  35.510  32.616  1.00  0.00     0.020 A 
ATOM     80  C   UNL A   1      34.582  33.369  33.151  1.00  0.00     0.020 A 
ATOM     81  C   UNL A   1      34.493  34.653  32.610  1.00  0.00     0.054 A 
BRANCH  81  82
ATOM     82  S   UNL A   1      32.951  35.228  31.847  1.00  0.00     0.124 S 
ATOM     83  O   UNL A   1      33.136  36.676  31.838  1.00  0.00    -0.237 OA
ATOM     84  O   UNL A   1      32.989  34.576  30.540  1.00  0.00    -0.237 OA
ATOM     85  O   UNL A   1      31.916  34.735  32.752  1.00  0.00    -0.744 OA
ENDBRANCH  81  82
ENDBRANCH  53  76
BRANCH  65  86
ATOM     86  C   UNL A   1      39.568  33.573  40.171  1.00  0.00    -0.014 A 
ATOM     87  C   UNL A   1      39.613  34.925  40.556  1.00  0.00     0.010 A 
ATOM     88  C   UNL A   1      38.969  32.636  41.035  1.00  0.00     0.010 A 
ATOM     89  C   UNL A   1      39.110  35.322  41.799  1.00  0.00     0.020 A 
ATOM     90  C   UNL A   1      38.434  33.034  42.262  1.00  0.00     0.020 A 
ATOM     91  C   UNL A   1      38.526  34.373  42.645  1.00  0.00     0.054 A 
BRANCH  91  92
ATOM     92  S   UNL A   1      37.867  34.921  44.244  1.00  0.00     0.124 S 
ATOM     93  O   UNL A   1      36.433  34.977  43.979  1.00  0.00    -0.237 OA
ATOM     94  O   UNL A   1      38.299  33.858  45.147  1.00  0.00    -0.237 OA
ATOM     95  O   UNL A   1      38.511  36.216  44.459  1.00  0.00    -0.744 OA
ENDBRANCH  91  92
ENDBRANCH  65  86
ENDBRANCH  39  40
ENDBRANCH  32  34
ENDBRANCH  31  32
ENDBRANCH  30  31
ENDBRANCH  29  30
ENDBRANCH  28  29
ENDBRANCH  27  28
ENDBRANCH   1  27
TORSDOF 24
ENDMDL
