MODEL 1
REMARK VINA RESULT:     -10.4      0.000      0.000
REMARK SMILES Cc1cccc(C(=O)OCCOCCOCCOCCOC(=O)c2ccc(-c3c4nc(c(-c5ccc(S(=O)(=O)[O-])cc5)c5ccc([nH]5)c(-c5ccc(S(=O)(=O)[O-])cc5)c5nc(c(-c6ccc(S(=O)(=O)[O-])cc6)c6ccc3[nH]6)C=C5)C=C4)cc2)c1OC[C@@H]1C[C@H]2CC[C@@H]1C2
REMARK SMILES IDX 15 1 14 2 13 3 12 4 11 5 10 6 9 7 7 8 8 9 6 10 1 11 2 12
REMARK SMILES IDX 3 13 84 14 4 15 5 16 85 17 86 18 87 19 88 20 92 21 89 22
REMARK SMILES IDX 91 23 93 24 90 25 16 26 17 27 18 28 19 29 20 30 21 31 22 32
REMARK SMILES IDX 23 33 24 34 25 35 83 36 26 37 82 38 27 39 28 40 29 41 76 42
REMARK SMILES IDX 30 43 81 44 75 45 77 46 31 47 80 48 74 49 73 50 32 52 62 53
REMARK SMILES IDX 43 54 61 55 44 56 47 57 60 58 78 59 45 60 46 61 59 63 79 64
REMARK SMILES IDX 48 65 33 66 34 67 42 68 35 69 41 70 36 71 37 72 38 73 39 74
REMARK SMILES IDX 40 75 63 76 64 77 72 78 65 79 71 80 66 81 67 82 68 83 69 84
REMARK SMILES IDX 70 85 49 86 50 87 58 88 51 89 57 90 52 91 53 92 54 93 55 94
REMARK SMILES IDX 56 95
REMARK H PARENT 77 51 47 62
REMARK Flexibility Score: inf
ROOT
ATOM      1  O   UNL A   1      31.726  26.627  22.058  1.00  0.00    -0.377 OA
ENDROOT
BRANCH   1   2
ATOM      2  C   UNL A   1      30.651  27.468  22.425  1.00  0.00     0.188 C 
BRANCH   2   3
ATOM      3  C   UNL A   1      29.747  27.024  23.595  1.00  0.00     0.188 C 
BRANCH   3   4
ATOM      4  O   UNL A   1      30.296  26.744  24.874  1.00  0.00    -0.376 OA
BRANCH   4   5
ATOM      5  C   UNL A   1      30.279  25.367  25.255  1.00  0.00     0.202 C 
BRANCH   5   6
ATOM      6  C   UNL A   1      31.558  24.577  25.019  1.00  0.00     0.261 C 
BRANCH   6   7
ATOM      7  O   UNL A   1      31.243  23.505  24.126  1.00  0.00    -0.460 OA
BRANCH   7   8
ATOM      8  C   UNL A   1      32.240  23.120  23.308  1.00  0.00     0.342 C 
ATOM      9  O   UNL A   1      33.219  23.744  22.962  1.00  0.00    -0.246 OA
BRANCH   8  10
ATOM     10  C   UNL A   1      32.245  21.651  23.373  1.00  0.00     0.102 A 
ATOM     11  C   UNL A   1      33.142  18.439  25.265  1.00  0.00     0.048 C 
ATOM     12  C   UNL A   1      32.658  19.491  24.314  1.00  0.00    -0.008 A 
ATOM     13  C   UNL A   1      32.313  18.945  23.043  1.00  0.00     0.007 A 
ATOM     14  C   UNL A   1      32.596  20.882  24.510  1.00  0.00     0.136 A 
ATOM     15  C   UNL A   1      32.015  19.730  21.941  1.00  0.00     0.001 A 
ATOM     16  C   UNL A   1      31.991  21.092  22.106  1.00  0.00     0.019 A 
BRANCH  14  17
ATOM     17  O   UNL A   1      32.929  21.626  25.600  1.00  0.00    -0.492 OA
BRANCH  17  18
ATOM     18  C   UNL A   1      33.895  21.352  26.620  1.00  0.00     0.233 C 
BRANCH  18  19
ATOM     19  C   UNL A   1      35.187  22.118  26.360  1.00  0.00     0.030 C 
ATOM     20  C   UNL A   1      35.069  23.572  25.850  1.00  0.00     0.011 C 
ATOM     21  C   UNL A   1      36.104  21.495  25.277  1.00  0.00    -0.004 C 
ATOM     22  C   UNL A   1      36.242  23.663  24.849  1.00  0.00    -0.010 C 
ATOM     23  C   UNL A   1      37.535  21.796  25.713  1.00  0.00     0.004 C 
ATOM     24  C   UNL A   1      35.972  22.400  24.047  1.00  0.00     0.007 C 
ATOM     25  C   UNL A   1      37.592  23.321  25.533  1.00  0.00     0.004 C 
ENDBRANCH  18  19
ENDBRANCH  17  18
ENDBRANCH  14  17
ENDBRANCH   8  10
ENDBRANCH   7   8
ENDBRANCH   6   7
ENDBRANCH   5   6
ENDBRANCH   4   5
ENDBRANCH   3   4
ENDBRANCH   2   3
ENDBRANCH   1   2
BRANCH   1  26
ATOM     26  C   UNL A   1      33.060  27.134  22.172  1.00  0.00     0.188 C 
BRANCH  26  27
ATOM     27  C   UNL A   1      33.709  27.262  23.528  1.00  0.00     0.188 C 
BRANCH  27  28
ATOM     28  O   UNL A   1      33.724  28.658  23.814  1.00  0.00    -0.376 OA
BRANCH  28  29
ATOM     29  C   UNL A   1      32.905  29.082  24.881  1.00  0.00     0.202 C 
BRANCH  29  30
ATOM     30  C   UNL A   1      33.162  28.290  26.159  1.00  0.00     0.261 C 
BRANCH  30  31
ATOM     31  O   UNL A   1      34.450  28.628  26.733  1.00  0.00    -0.460 OA
BRANCH  31  32
ATOM     32  C   UNL A   1      34.536  29.777  27.472  1.00  0.00     0.338 C 
ATOM     33  O   UNL A   1      33.585  30.517  27.659  1.00  0.00    -0.246 OA
BRANCH  32  34
ATOM     34  C   UNL A   1      35.869  29.920  28.137  1.00  0.00     0.060 A 
ATOM     35  C   UNL A   1      37.062  30.087  27.418  1.00  0.00     0.016 A 
ATOM     36  C   UNL A   1      35.951  29.758  29.505  1.00  0.00     0.016 A 
ATOM     37  C   UNL A   1      38.322  29.854  28.026  1.00  0.00     0.010 A 
ATOM     38  C   UNL A   1      37.180  29.466  30.071  1.00  0.00     0.010 A 
ATOM     39  C   UNL A   1      38.390  29.440  29.349  1.00  0.00    -0.014 A 
BRANCH  39  40
ATOM     40  C   UNL A   1      39.572  28.909  30.101  1.00  0.00     0.031 A 
ATOM     41  C   UNL A   1      40.135  27.588  29.617  1.00  0.00     0.074 A 
ATOM     42  C   UNL A   1      40.356  29.718  30.880  1.00  0.00     0.049 A 
ATOM     43  N   UNL A   1      41.303  27.128  29.900  1.00  0.00    -0.248 NA
ATOM     44  C   UNL A   1      39.448  26.698  28.670  1.00  0.00     0.031 C 
ATOM     45  C   UNL A   1      41.794  29.569  31.131  1.00  0.00     0.029 A 
ATOM     46  N   UNL A   1      40.082  30.887  31.595  1.00  0.00    -0.354 N 
ATOM     47  C   UNL A   1      41.658  26.176  28.967  1.00  0.00     0.074 A 
ATOM     48  C   UNL A   1      40.445  25.911  28.240  1.00  0.00     0.031 C 
ATOM     49  C   UNL A   1      42.269  30.514  31.956  1.00  0.00     0.029 A 
ATOM     50  C   UNL A   1      41.101  31.098  32.550  1.00  0.00     0.049 A 
ATOM     51  H   UNL A   1      39.303  31.472  31.455  1.00  0.00     0.167 HD
ATOM     52  C   UNL A   1      42.974  25.825  28.863  1.00  0.00     0.031 A 
ATOM     53  C   UNL A   1      40.820  30.993  33.882  1.00  0.00     0.031 A 
ATOM     54  C   UNL A   1      43.752  26.345  30.002  1.00  0.00     0.049 A 
ATOM     55  C   UNL A   1      41.529  29.752  34.418  1.00  0.00     0.074 A 
ATOM     56  C   UNL A   1      44.881  27.130  30.125  1.00  0.00     0.029 A 
ATOM     57  N   UNL A   1      43.239  26.215  31.297  1.00  0.00    -0.354 N 
ATOM     58  N   UNL A   1      41.716  28.655  33.714  1.00  0.00    -0.248 NA
ATOM     59  C   UNL A   1      42.351  29.777  35.629  1.00  0.00     0.031 C 
ATOM     60  C   UNL A   1      44.915  27.634  31.460  1.00  0.00     0.029 A 
ATOM     61  C   UNL A   1      43.859  27.082  32.176  1.00  0.00     0.049 A 
ATOM     62  H   UNL A   1      42.527  25.585  31.551  1.00  0.00     0.167 HD
ATOM     63  C   UNL A   1      42.794  27.974  34.225  1.00  0.00     0.074 A 
ATOM     64  C   UNL A   1      43.099  28.670  35.471  1.00  0.00     0.031 C 
ATOM     65  C   UNL A   1      43.564  27.028  33.601  1.00  0.00     0.031 A 
BRANCH  52  66
ATOM     66  C   UNL A   1      43.638  25.145  27.665  1.00  0.00    -0.014 A 
ATOM     67  C   UNL A   1      44.527  24.068  27.896  1.00  0.00     0.010 A 
ATOM     68  C   UNL A   1      43.528  25.558  26.319  1.00  0.00     0.010 A 
ATOM     69  C   UNL A   1      45.253  23.441  26.868  1.00  0.00     0.020 A 
ATOM     70  C   UNL A   1      44.228  24.914  25.270  1.00  0.00     0.020 A 
ATOM     71  C   UNL A   1      45.092  23.860  25.552  1.00  0.00     0.054 A 
BRANCH  71  72
ATOM     72  S   UNL A   1      46.005  22.992  24.240  1.00  0.00     0.124 S 
ATOM     73  O   UNL A   1      44.967  22.741  23.243  1.00  0.00    -0.237 OA
ATOM     74  O   UNL A   1      47.018  23.972  23.856  1.00  0.00    -0.237 OA
ATOM     75  O   UNL A   1      46.524  21.800  24.905  1.00  0.00    -0.744 OA
ENDBRANCH  71  72
ENDBRANCH  52  66
BRANCH  53  76
ATOM     76  C   UNL A   1      39.500  31.655  34.169  1.00  0.00    -0.014 A 
ATOM     77  C   UNL A   1      39.443  33.019  33.764  1.00  0.00     0.010 A 
ATOM     78  C   UNL A   1      38.308  30.905  34.100  1.00  0.00     0.010 A 
ATOM     79  C   UNL A   1      38.341  33.517  33.050  1.00  0.00     0.020 A 
ATOM     80  C   UNL A   1      37.188  31.419  33.405  1.00  0.00     0.020 A 
ATOM     81  C   UNL A   1      37.247  32.686  32.816  1.00  0.00     0.054 A 
BRANCH  81  82
ATOM     82  S   UNL A   1      36.038  33.206  31.552  1.00  0.00     0.124 S 
ATOM     83  O   UNL A   1      34.949  32.255  31.749  1.00  0.00    -0.237 OA
ATOM     84  O   UNL A   1      35.744  34.585  31.946  1.00  0.00    -0.237 OA
ATOM     85  O   UNL A   1      36.768  33.064  30.299  1.00  0.00    -0.744 OA
ENDBRANCH  81  82
ENDBRANCH  53  76
BRANCH  65  86
ATOM     86  C   UNL A   1      44.162  25.875  34.365  1.00  0.00    -0.014 A 
ATOM     87  C   UNL A   1      43.399  24.770  34.760  1.00  0.00     0.010 A 
ATOM     88  C   UNL A   1      45.571  25.777  34.494  1.00  0.00     0.010 A 
ATOM     89  C   UNL A   1      44.004  23.640  35.306  1.00  0.00     0.020 A 
ATOM     90  C   UNL A   1      46.189  24.631  34.988  1.00  0.00     0.020 A 
ATOM     91  C   UNL A   1      45.393  23.577  35.412  1.00  0.00     0.054 A 
BRANCH  91  92
ATOM     92  S   UNL A   1      46.134  22.072  36.070  1.00  0.00     0.124 S 
ATOM     93  O   UNL A   1      46.112  22.336  37.506  1.00  0.00    -0.237 OA
ATOM     94  O   UNL A   1      45.211  21.036  35.608  1.00  0.00    -0.237 OA
ATOM     95  O   UNL A   1      47.459  22.036  35.457  1.00  0.00    -0.744 OA
ENDBRANCH  91  92
ENDBRANCH  65  86
ENDBRANCH  39  40
ENDBRANCH  32  34
ENDBRANCH  31  32
ENDBRANCH  30  31
ENDBRANCH  29  30
ENDBRANCH  28  29
ENDBRANCH  27  28
ENDBRANCH  26  27
ENDBRANCH   1  26
TORSDOF 26
ENDMDL
MODEL 2
REMARK VINA RESULT:      -9.4      1.818      3.157
REMARK SMILES Cc1cccc(C(=O)OCCOCCOCCOCCOC(=O)c2ccc(-c3c4nc(c(-c5ccc(S(=O)(=O)[O-])cc5)c5ccc([nH]5)c(-c5ccc(S(=O)(=O)[O-])cc5)c5nc(c(-c6ccc(S(=O)(=O)[O-])cc6)c6ccc3[nH]6)C=C5)C=C4)cc2)c1OC[C@@H]1C[C@H]2CC[C@@H]1C2
REMARK SMILES IDX 15 1 14 2 13 3 12 4 11 5 10 6 9 7 7 8 8 9 6 10 1 11 2 12
REMARK SMILES IDX 3 13 84 14 4 15 5 16 85 17 86 18 87 19 88 20 92 21 89 22
REMARK SMILES IDX 91 23 93 24 90 25 16 26 17 27 18 28 19 29 20 30 21 31 22 32
REMARK SMILES IDX 23 33 24 34 25 35 83 36 26 37 82 38 27 39 28 40 29 41 76 42
REMARK SMILES IDX 30 43 81 44 75 45 77 46 31 47 80 48 74 49 73 50 32 52 62 53
REMARK SMILES IDX 43 54 61 55 44 56 47 57 60 58 78 59 45 60 46 61 59 63 79 64
REMARK SMILES IDX 48 65 33 66 34 67 42 68 35 69 41 70 36 71 37 72 38 73 39 74
REMARK SMILES IDX 40 75 63 76 64 77 72 78 65 79 71 80 66 81 67 82 68 83 69 84
REMARK SMILES IDX 70 85 49 86 50 87 58 88 51 89 57 90 52 91 53 92 54 93 55 94
REMARK SMILES IDX 56 95
REMARK H PARENT 77 51 47 62
REMARK Flexibility Score: inf
ROOT
ATOM      1  O   UNL A   1      33.561  27.163  22.635  1.00  0.00    -0.377 OA
ENDROOT
BRANCH   1   2
ATOM      2  C   UNL A   1      32.343  26.694  22.090  1.00  0.00     0.188 C 
BRANCH   2   3
ATOM      3  C   UNL A   1      31.579  25.595  22.858  1.00  0.00     0.188 C 
BRANCH   3   4
ATOM      4  O   UNL A   1      30.713  25.927  23.934  1.00  0.00    -0.376 OA
BRANCH   4   5
ATOM      5  C   UNL A   1      31.171  25.528  25.228  1.00  0.00     0.202 C 
BRANCH   5   6
ATOM      6  C   UNL A   1      31.813  24.153  25.331  1.00  0.00     0.261 C 
BRANCH   6   7
ATOM      7  O   UNL A   1      33.172  24.342  25.734  1.00  0.00    -0.460 OA
BRANCH   7   8
ATOM      8  C   UNL A   1      33.665  23.408  26.569  1.00  0.00     0.342 C 
ATOM      9  O   UNL A   1      33.067  22.690  27.339  1.00  0.00    -0.246 OA
BRANCH   8  10
ATOM     10  C   UNL A   1      34.950  23.005  25.978  1.00  0.00     0.102 A 
ATOM     11  C   UNL A   1      37.377  20.220  24.952  1.00  0.00     0.048 C 
ATOM     12  C   UNL A   1      36.648  21.502  25.219  1.00  0.00    -0.008 A 
ATOM     13  C   UNL A   1      37.497  22.639  25.074  1.00  0.00     0.007 A 
ATOM     14  C   UNL A   1      35.323  21.678  25.652  1.00  0.00     0.136 A 
ATOM     15  C   UNL A   1      37.112  23.919  25.443  1.00  0.00     0.001 A 
ATOM     16  C   UNL A   1      35.833  24.099  25.907  1.00  0.00     0.019 A 
BRANCH  14  17
ATOM     17  O   UNL A   1      34.360  20.753  25.917  1.00  0.00    -0.492 OA
BRANCH  17  18
ATOM     18  C   UNL A   1      33.494  20.065  25.009  1.00  0.00     0.233 C 
BRANCH  18  19
ATOM     19  C   UNL A   1      33.696  18.557  25.107  1.00  0.00     0.030 C 
ATOM     20  C   UNL A   1      34.848  17.933  24.288  1.00  0.00     0.011 C 
ATOM     21  C   UNL A   1      32.493  17.708  24.626  1.00  0.00    -0.004 C 
ATOM     22  C   UNL A   1      34.231  16.596  23.823  1.00  0.00    -0.010 C 
ATOM     23  C   UNL A   1      32.482  16.459  25.504  1.00  0.00     0.004 C 
ATOM     24  C   UNL A   1      32.912  17.116  23.276  1.00  0.00     0.007 C 
ATOM     25  C   UNL A   1      33.758  15.745  25.032  1.00  0.00     0.004 C 
ENDBRANCH  18  19
ENDBRANCH  17  18
ENDBRANCH  14  17
ENDBRANCH   8  10
ENDBRANCH   7   8
ENDBRANCH   6   7
ENDBRANCH   5   6
ENDBRANCH   4   5
ENDBRANCH   3   4
ENDBRANCH   2   3
ENDBRANCH   1   2
BRANCH   1  26
ATOM     26  C   UNL A   1      33.644  28.533  23.040  1.00  0.00     0.188 C 
BRANCH  26  27
ATOM     27  C   UNL A   1      33.985  28.882  24.467  1.00  0.00     0.188 C 
BRANCH  27  28
ATOM     28  O   UNL A   1      32.774  28.714  25.201  1.00  0.00    -0.376 OA
BRANCH  28  29
ATOM     29  C   UNL A   1      32.818  29.078  26.562  1.00  0.00     0.202 C 
BRANCH  29  30
ATOM     30  C   UNL A   1      33.487  30.431  26.780  1.00  0.00     0.261 C 
BRANCH  30  31
ATOM     31  O   UNL A   1      34.291  30.428  27.986  1.00  0.00    -0.460 OA
BRANCH  31  32
ATOM     32  C   UNL A   1      35.139  31.483  28.189  1.00  0.00     0.338 C 
ATOM     33  O   UNL A   1      34.749  32.630  28.327  1.00  0.00    -0.246 OA
BRANCH  32  34
ATOM     34  C   UNL A   1      36.556  31.039  28.378  1.00  0.00     0.060 A 
ATOM     35  C   UNL A   1      37.115  29.965  27.670  1.00  0.00     0.016 A 
ATOM     36  C   UNL A   1      37.310  31.623  29.376  1.00  0.00     0.016 A 
ATOM     37  C   UNL A   1      38.307  29.336  28.113  1.00  0.00     0.010 A 
ATOM     38  C   UNL A   1      38.432  30.961  29.841  1.00  0.00     0.010 A 
ATOM     39  C   UNL A   1      38.932  29.770  29.274  1.00  0.00    -0.014 A 
BRANCH  39  40
ATOM     40  C   UNL A   1      40.032  29.108  30.044  1.00  0.00     0.031 A 
ATOM     41  C   UNL A   1      40.492  27.759  29.531  1.00  0.00     0.074 A 
ATOM     42  C   UNL A   1      40.856  29.816  30.880  1.00  0.00     0.049 A 
ATOM     43  N   UNL A   1      41.603  27.185  29.835  1.00  0.00    -0.248 NA
ATOM     44  C   UNL A   1      39.764  26.969  28.527  1.00  0.00     0.031 C 
ATOM     45  C   UNL A   1      42.265  29.528  31.174  1.00  0.00     0.029 A 
ATOM     46  N   UNL A   1      40.662  30.978  31.629  1.00  0.00    -0.354 N 
ATOM     47  C   UNL A   1      41.907  26.239  28.878  1.00  0.00     0.074 A 
ATOM     48  C   UNL A   1      40.702  26.110  28.102  1.00  0.00     0.031 C 
ATOM     49  C   UNL A   1      42.791  30.396  32.050  1.00  0.00     0.029 A 
ATOM     50  C   UNL A   1      41.660  31.062  32.626  1.00  0.00     0.049 A 
ATOM     51  H   UNL A   1      39.944  31.636  31.486  1.00  0.00     0.167 HD
ATOM     52  C   UNL A   1      43.188  25.773  28.806  1.00  0.00     0.031 A 
ATOM     53  C   UNL A   1      41.321  30.937  33.942  1.00  0.00     0.031 A 
ATOM     54  C   UNL A   1      43.967  26.180  29.989  1.00  0.00     0.049 A 
ATOM     55  C   UNL A   1      41.896  29.619  34.454  1.00  0.00     0.074 A 
ATOM     56  C   UNL A   1      45.157  26.854  30.180  1.00  0.00     0.029 A 
ATOM     57  N   UNL A   1      43.397  26.052  31.261  1.00  0.00    -0.354 N 
ATOM     58  N   UNL A   1      42.010  28.534  33.716  1.00  0.00    -0.248 NA
ATOM     59  C   UNL A   1      42.671  29.527  35.693  1.00  0.00     0.031 C 
ATOM     60  C   UNL A   1      45.185  27.306  31.535  1.00  0.00     0.029 A 
ATOM     61  C   UNL A   1      44.058  26.828  32.193  1.00  0.00     0.049 A 
ATOM     62  H   UNL A   1      42.622  25.481  31.466  1.00  0.00     0.167 HD
ATOM     63  C   UNL A   1      43.002  27.741  34.237  1.00  0.00     0.074 A 
ATOM     64  C   UNL A   1      43.322  28.362  35.518  1.00  0.00     0.031 C 
ATOM     65  C   UNL A   1      43.707  26.751  33.603  1.00  0.00     0.031 A 
BRANCH  52  66
ATOM     66  C   UNL A   1      43.833  25.077  27.606  1.00  0.00    -0.014 A 
ATOM     67  C   UNL A   1      43.817  23.664  27.545  1.00  0.00     0.010 A 
ATOM     68  C   UNL A   1      44.550  25.718  26.572  1.00  0.00     0.010 A 
ATOM     69  C   UNL A   1      44.462  22.934  26.531  1.00  0.00     0.020 A 
ATOM     70  C   UNL A   1      45.176  24.997  25.526  1.00  0.00     0.020 A 
ATOM     71  C   UNL A   1      45.132  23.605  25.515  1.00  0.00     0.054 A 
BRANCH  71  72
ATOM     72  S   UNL A   1      45.910  22.634  24.189  1.00  0.00     0.124 S 
ATOM     73  O   UNL A   1      46.460  21.490  24.913  1.00  0.00    -0.237 OA
ATOM     74  O   UNL A   1      44.784  22.336  23.308  1.00  0.00    -0.237 OA
ATOM     75  O   UNL A   1      46.905  23.545  23.626  1.00  0.00    -0.744 OA
ENDBRANCH  71  72
ENDBRANCH  52  66
BRANCH  53  76
ATOM     76  C   UNL A   1      40.055  31.706  34.210  1.00  0.00    -0.014 A 
ATOM     77  C   UNL A   1      38.949  30.883  34.560  1.00  0.00     0.010 A 
ATOM     78  C   UNL A   1      40.122  32.989  34.791  1.00  0.00     0.010 A 
ATOM     79  C   UNL A   1      38.125  31.202  35.651  1.00  0.00     0.020 A 
ATOM     80  C   UNL A   1      39.273  33.320  35.872  1.00  0.00     0.020 A 
ATOM     81  C   UNL A   1      38.340  32.391  36.345  1.00  0.00     0.054 A 
BRANCH  81  82
ATOM     82  S   UNL A   1      37.554  32.579  37.980  1.00  0.00     0.124 S 
ATOM     83  O   UNL A   1      38.577  33.285  38.743  1.00  0.00    -0.237 OA
ATOM     84  O   UNL A   1      36.356  33.359  37.665  1.00  0.00    -0.237 OA
ATOM     85  O   UNL A   1      37.303  31.206  38.401  1.00  0.00    -0.744 OA
ENDBRANCH  81  82
ENDBRANCH  53  76
BRANCH  65  86
ATOM     86  C   UNL A   1      44.170  25.522  34.343  1.00  0.00    -0.014 A 
ATOM     87  C   UNL A   1      43.550  24.278  34.179  1.00  0.00     0.010 A 
ATOM     88  C   UNL A   1      45.401  25.553  35.047  1.00  0.00     0.010 A 
ATOM     89  C   UNL A   1      44.102  23.125  34.733  1.00  0.00     0.020 A 
ATOM     90  C   UNL A   1      45.989  24.397  35.556  1.00  0.00     0.020 A 
ATOM     91  C   UNL A   1      45.318  23.192  35.413  1.00  0.00     0.054 A 
BRANCH  91  92
ATOM     92  S   UNL A   1      46.022  21.664  36.060  1.00  0.00     0.124 S 
ATOM     93  O   UNL A   1      45.202  20.657  35.391  1.00  0.00    -0.237 OA
ATOM     94  O   UNL A   1      47.411  21.741  35.612  1.00  0.00    -0.237 OA
ATOM     95  O   UNL A   1      45.831  21.773  37.503  1.00  0.00    -0.744 OA
ENDBRANCH  91  92
ENDBRANCH  65  86
ENDBRANCH  39  40
ENDBRANCH  32  34
ENDBRANCH  31  32
ENDBRANCH  30  31
ENDBRANCH  29  30
ENDBRANCH  28  29
ENDBRANCH  27  28
ENDBRANCH  26  27
ENDBRANCH   1  26
TORSDOF 26
ENDMDL
MODEL 3
REMARK VINA RESULT:      -9.3      2.663      4.346
REMARK SMILES Cc1cccc(C(=O)OCCOCCOCCOCCOC(=O)c2ccc(-c3c4nc(c(-c5ccc(S(=O)(=O)[O-])cc5)c5ccc([nH]5)c(-c5ccc(S(=O)(=O)[O-])cc5)c5nc(c(-c6ccc(S(=O)(=O)[O-])cc6)c6ccc3[nH]6)C=C5)C=C4)cc2)c1OC[C@@H]1C[C@H]2CC[C@@H]1C2
REMARK SMILES IDX 15 1 14 2 13 3 12 4 11 5 10 6 9 7 7 8 8 9 6 10 1 11 2 12
REMARK SMILES IDX 3 13 84 14 4 15 5 16 85 17 86 18 87 19 88 20 92 21 89 22
REMARK SMILES IDX 91 23 93 24 90 25 16 26 17 27 18 28 19 29 20 30 21 31 22 32
REMARK SMILES IDX 23 33 24 34 25 35 83 36 26 37 82 38 27 39 28 40 29 41 76 42
REMARK SMILES IDX 30 43 81 44 75 45 77 46 31 47 80 48 74 49 73 50 32 52 62 53
REMARK SMILES IDX 43 54 61 55 44 56 47 57 60 58 78 59 45 60 46 61 59 63 79 64
REMARK SMILES IDX 48 65 33 66 34 67 42 68 35 69 41 70 36 71 37 72 38 73 39 74
REMARK SMILES IDX 40 75 63 76 64 77 72 78 65 79 71 80 66 81 67 82 68 83 69 84
REMARK SMILES IDX 70 85 49 86 50 87 58 88 51 89 57 90 52 91 53 92 54 93 55 94
REMARK SMILES IDX 56 95
REMARK H PARENT 77 51 47 62
REMARK Flexibility Score: inf
ROOT
ATOM      1  O   UNL A   1      33.394  25.057  23.537  1.00  0.00    -0.377 OA
ENDROOT
BRANCH   1   2
ATOM      2  C   UNL A   1      32.278  24.800  22.708  1.00  0.00     0.188 C 
BRANCH   2   3
ATOM      3  C   UNL A   1      31.048  24.112  23.338  1.00  0.00     0.188 C 
BRANCH   3   4
ATOM      4  O   UNL A   1      30.289  24.761  24.348  1.00  0.00    -0.376 OA
BRANCH   4   5
ATOM      5  C   UNL A   1      30.700  24.483  25.689  1.00  0.00     0.202 C 
BRANCH   5   6
ATOM      6  C   UNL A   1      31.551  23.239  25.899  1.00  0.00     0.261 C 
BRANCH   6   7
ATOM      7  O   UNL A   1      32.878  23.674  26.209  1.00  0.00    -0.460 OA
BRANCH   7   8
ATOM      8  C   UNL A   1      33.569  22.875  27.043  1.00  0.00     0.342 C 
ATOM      9  O   UNL A   1      33.151  22.159  27.926  1.00  0.00    -0.246 OA
BRANCH   8  10
ATOM     10  C   UNL A   1      34.823  22.575  26.335  1.00  0.00     0.102 A 
ATOM     11  C   UNL A   1      37.108  20.021  24.614  1.00  0.00     0.048 C 
ATOM     12  C   UNL A   1      36.440  21.231  25.195  1.00  0.00    -0.008 A 
ATOM     13  C   UNL A   1      37.332  22.340  25.292  1.00  0.00     0.007 A 
ATOM     14  C   UNL A   1      35.133  21.349  25.698  1.00  0.00     0.136 A 
ATOM     15  C   UNL A   1      37.010  23.510  25.960  1.00  0.00     0.001 A 
ATOM     16  C   UNL A   1      35.750  23.623  26.493  1.00  0.00     0.019 A 
BRANCH  14  17
ATOM     17  O   UNL A   1      34.138  20.422  25.770  1.00  0.00    -0.492 OA
BRANCH  17  18
ATOM     18  C   UNL A   1      33.119  20.115  24.813  1.00  0.00     0.233 C 
BRANCH  18  19
ATOM     19  C   UNL A   1      33.018  18.609  24.598  1.00  0.00     0.030 C 
ATOM     20  C   UNL A   1      32.695  17.729  25.826  1.00  0.00     0.011 C 
ATOM     21  C   UNL A   1      34.316  17.938  24.082  1.00  0.00    -0.004 C 
ATOM     22  C   UNL A   1      33.568  16.480  25.572  1.00  0.00    -0.010 C 
ATOM     23  C   UNL A   1      33.867  16.791  23.181  1.00  0.00     0.004 C 
ATOM     24  C   UNL A   1      34.891  17.168  25.276  1.00  0.00     0.007 C 
ATOM     25  C   UNL A   1      33.235  15.831  24.202  1.00  0.00     0.004 C 
ENDBRANCH  18  19
ENDBRANCH  17  18
ENDBRANCH  14  17
ENDBRANCH   8  10
ENDBRANCH   7   8
ENDBRANCH   6   7
ENDBRANCH   5   6
ENDBRANCH   4   5
ENDBRANCH   3   4
ENDBRANCH   2   3
ENDBRANCH   1   2
BRANCH   1  26
ATOM     26  C   UNL A   1      33.875  26.401  23.637  1.00  0.00     0.188 C 
BRANCH  26  27
ATOM     27  C   UNL A   1      33.672  27.187  24.909  1.00  0.00     0.188 C 
BRANCH  27  28
ATOM     28  O   UNL A   1      32.265  27.381  25.018  1.00  0.00    -0.376 OA
BRANCH  28  29
ATOM     29  C   UNL A   1      31.814  28.015  26.194  1.00  0.00     0.202 C 
BRANCH  29  30
ATOM     30  C   UNL A   1      31.892  29.536  26.100  1.00  0.00     0.261 C 
BRANCH  30  31
ATOM     31  O   UNL A   1      32.419  30.108  27.323  1.00  0.00    -0.460 OA
BRANCH  31  32
ATOM     32  C   UNL A   1      32.749  31.436  27.314  1.00  0.00     0.338 C 
ATOM     33  O   UNL A   1      31.958  32.313  27.011  1.00  0.00    -0.246 OA
BRANCH  32  34
ATOM     34  C   UNL A   1      34.118  31.681  27.867  1.00  0.00     0.060 A 
ATOM     35  C   UNL A   1      35.277  31.144  27.287  1.00  0.00     0.016 A 
ATOM     36  C   UNL A   1      34.242  32.354  29.065  1.00  0.00     0.016 A 
ATOM     37  C   UNL A   1      36.495  31.076  28.012  1.00  0.00     0.010 A 
ATOM     38  C   UNL A   1      35.414  32.222  29.789  1.00  0.00     0.010 A 
ATOM     39  C   UNL A   1      36.550  31.531  29.322  1.00  0.00    -0.014 A 
BRANCH  39  40
ATOM     40  C   UNL A   1      37.638  31.333  30.333  1.00  0.00     0.031 A 
ATOM     41  C   UNL A   1      38.684  30.290  29.995  1.00  0.00     0.074 A 
ATOM     42  C   UNL A   1      37.927  32.281  31.278  1.00  0.00     0.049 A 
ATOM     43  N   UNL A   1      39.842  30.191  30.547  1.00  0.00    -0.248 NA
ATOM     44  C   UNL A   1      38.547  29.308  28.909  1.00  0.00     0.031 C 
ATOM     45  C   UNL A   1      39.243  32.562  31.865  1.00  0.00     0.029 A 
ATOM     46  N   UNL A   1      37.144  33.250  31.909  1.00  0.00    -0.354 N 
ATOM     47  C   UNL A   1      40.682  29.470  29.724  1.00  0.00     0.074 A 
ATOM     48  C   UNL A   1      39.812  28.902  28.728  1.00  0.00     0.031 C 
ATOM     49  C   UNL A   1      39.195  33.540  32.781  1.00  0.00     0.029 A 
ATOM     50  C   UNL A   1      37.800  33.689  33.081  1.00  0.00     0.049 A 
ATOM     51  H   UNL A   1      36.272  33.576  31.590  1.00  0.00     0.167 HD
ATOM     52  C   UNL A   1      42.028  29.549  29.936  1.00  0.00     0.031 A 
ATOM     53  C   UNL A   1      37.274  33.400  34.307  1.00  0.00     0.031 A 
ATOM     54  C   UNL A   1      42.323  30.193  31.228  1.00  0.00     0.049 A 
ATOM     55  C   UNL A   1      38.200  32.399  34.994  1.00  0.00     0.074 A 
ATOM     56  C   UNL A   1      43.087  31.275  31.619  1.00  0.00     0.029 A 
ATOM     57  N   UNL A   1      41.600  29.812  32.364  1.00  0.00    -0.354 N 
ATOM     58  N   UNL A   1      38.879  31.470  34.353  1.00  0.00    -0.248 NA
ATOM     59  C   UNL A   1      38.676  32.582  36.366  1.00  0.00     0.031 C 
ATOM     60  C   UNL A   1      42.657  31.660  32.925  1.00  0.00     0.029 A 
ATOM     61  C   UNL A   1      41.697  30.756  33.367  1.00  0.00     0.049 A 
ATOM     62  H   UNL A   1      41.086  28.976  32.439  1.00  0.00     0.167 HD
ATOM     63  C   UNL A   1      39.971  31.117  35.105  1.00  0.00     0.074 A 
ATOM     64  C   UNL A   1      39.751  31.774  36.389  1.00  0.00     0.031 C 
ATOM     65  C   UNL A   1      41.122  30.504  34.680  1.00  0.00     0.031 A 
BRANCH  52  66
ATOM     66  C   UNL A   1      43.126  29.200  28.930  1.00  0.00    -0.014 A 
ATOM     67  C   UNL A   1      43.464  30.144  27.931  1.00  0.00     0.010 A 
ATOM     68  C   UNL A   1      43.787  27.956  28.833  1.00  0.00     0.010 A 
ATOM     69  C   UNL A   1      44.393  29.878  26.909  1.00  0.00     0.020 A 
ATOM     70  C   UNL A   1      44.750  27.687  27.830  1.00  0.00     0.020 A 
ATOM     71  C   UNL A   1      45.044  28.651  26.869  1.00  0.00     0.054 A 
BRANCH  71  72
ATOM     72  S   UNL A   1      46.279  28.358  25.566  1.00  0.00     0.124 S 
ATOM     73  O   UNL A   1      46.470  29.692  25.003  1.00  0.00    -0.237 OA
ATOM     74  O   UNL A   1      47.414  27.826  26.317  1.00  0.00    -0.237 OA
ATOM     75  O   UNL A   1      45.628  27.399  24.676  1.00  0.00    -0.744 OA
ENDBRANCH  71  72
ENDBRANCH  52  66
BRANCH  53  76
ATOM     76  C   UNL A   1      35.783  33.600  34.272  1.00  0.00    -0.014 A 
ATOM     77  C   UNL A   1      35.372  34.909  34.651  1.00  0.00     0.010 A 
ATOM     78  C   UNL A   1      35.006  32.928  33.306  1.00  0.00     0.010 A 
ATOM     79  C   UNL A   1      34.425  35.618  33.895  1.00  0.00     0.020 A 
ATOM     80  C   UNL A   1      34.033  33.636  32.564  1.00  0.00     0.020 A 
ATOM     81  C   UNL A   1      33.812  34.996  32.810  1.00  0.00     0.054 A 
BRANCH  81  82
ATOM     82  S   UNL A   1      32.923  36.048  31.614  1.00  0.00     0.124 S 
ATOM     83  O   UNL A   1      31.529  35.856  32.001  1.00  0.00    -0.237 OA
ATOM     84  O   UNL A   1      33.473  37.375  31.892  1.00  0.00    -0.237 OA
ATOM     85  O   UNL A   1      33.291  35.485  30.321  1.00  0.00    -0.744 OA
ENDBRANCH  81  82
ENDBRANCH  53  76
BRANCH  65  86
ATOM     86  C   UNL A   1      41.865  29.535  35.562  1.00  0.00    -0.014 A 
ATOM     87  C   UNL A   1      41.650  28.153  35.496  1.00  0.00     0.010 A 
ATOM     88  C   UNL A   1      42.977  29.989  36.318  1.00  0.00     0.010 A 
ATOM     89  C   UNL A   1      42.470  27.267  36.191  1.00  0.00     0.020 A 
ATOM     90  C   UNL A   1      43.835  29.107  36.970  1.00  0.00     0.020 A 
ATOM     91  C   UNL A   1      43.558  27.749  36.918  1.00  0.00     0.054 A 
BRANCH  91  92
ATOM     92  S   UNL A   1      44.625  26.559  37.750  1.00  0.00     0.124 S 
ATOM     93  O   UNL A   1      44.092  26.587  39.110  1.00  0.00    -0.237 OA
ATOM     94  O   UNL A   1      44.373  25.329  37.002  1.00  0.00    -0.237 OA
ATOM     95  O   UNL A   1      45.965  27.116  37.589  1.00  0.00    -0.744 OA
ENDBRANCH  91  92
ENDBRANCH  65  86
ENDBRANCH  39  40
ENDBRANCH  32  34
ENDBRANCH  31  32
ENDBRANCH  30  31
ENDBRANCH  29  30
ENDBRANCH  28  29
ENDBRANCH  27  28
ENDBRANCH  26  27
ENDBRANCH   1  26
TORSDOF 26
ENDMDL
