MODEL 1
REMARK VINA RESULT:      -9.4      0.000      0.000
REMARK SMILES O=C(OCCOCCOCCOCCOC(=O)c1cccnc1Nc1cccc(C(F)(F)F)c1)c1ccc(-c2c3nc(c(-c4ccc(S(=O)(=O)[O-])cc4)c4ccc([nH]4)c(-c4ccc(S(=O)(=O)[O-])cc4)c4nc(c(-c5ccc(S(=O)(=O)[O-])cc5)c5ccc2[nH]5)C=C4)C=C3)cc1
REMARK SMILES IDX 9 1 8 2 7 3 6 4 5 5 4 6 3 7 2 8 1 9 35 10 36 11 94 12 37 13
REMARK SMILES IDX 93 14 38 15 39 16 40 17 87 18 41 19 92 20 86 21 88 22 42 23
REMARK SMILES IDX 91 24 85 25 84 26 43 28 73 29 54 30 72 31 55 32 58 33 71 34
REMARK SMILES IDX 89 35 56 36 57 37 70 39 90 40 59 41 44 42 45 43 53 44 46 45
REMARK SMILES IDX 52 46 47 47 48 48 49 49 50 50 51 51 74 52 75 53 83 54 76 55
REMARK SMILES IDX 82 56 77 57 78 58 79 59 80 60 81 61 60 62 61 63 69 64 62 65
REMARK SMILES IDX 68 66 63 67 64 68 65 69 66 70 67 71 10 72 11 73 12 74 13 75
REMARK SMILES IDX 14 76 15 77 16 78 17 79 18 80 19 81 23 82 20 83 22 84 21 85
REMARK SMILES IDX 24 86 25 88 26 89 34 90 27 91 29 92 28 93 30 94 31 95 32 96
REMARK SMILES IDX 33 97
REMARK H PARENT 88 27 58 38 24 87
REMARK Flexibility Score: inf
ROOT
ATOM      1  O   UNL A   1      31.772  29.786  24.637  1.00  0.00    -0.377 OA
ENDROOT
BRANCH   1   2
ATOM      2  C   UNL A   1      31.627  29.670  26.048  1.00  0.00     0.188 C 
BRANCH   2   3
ATOM      3  C   UNL A   1      32.077  30.899  26.834  1.00  0.00     0.188 C 
BRANCH   3   4
ATOM      4  O   UNL A   1      33.437  30.764  27.237  1.00  0.00    -0.376 OA
BRANCH   4   5
ATOM      5  C   UNL A   1      34.195  29.731  26.611  1.00  0.00     0.202 C 
BRANCH   5   6
ATOM      6  C   UNL A   1      35.106  28.957  27.557  1.00  0.00     0.261 C 
BRANCH   6   7
ATOM      7  O   UNL A   1      35.901  29.815  28.383  1.00  0.00    -0.460 OA
BRANCH   7   8
ATOM      8  C   UNL A   1      36.827  29.453  29.304  1.00  0.00     0.338 C 
ATOM      9  O   UNL A   1      36.472  29.398  30.482  1.00  0.00    -0.246 OA
BRANCH   8  10
ATOM     10  C   UNL A   1      38.251  29.107  28.995  1.00  0.00     0.060 A 
ATOM     11  C   UNL A   1      39.142  28.443  29.842  1.00  0.00     0.016 A 
ATOM     12  C   UNL A   1      38.695  29.412  27.698  1.00  0.00     0.016 A 
ATOM     13  C   UNL A   1      40.429  28.119  29.449  1.00  0.00     0.010 A 
ATOM     14  C   UNL A   1      39.990  29.088  27.284  1.00  0.00     0.010 A 
ATOM     15  C   UNL A   1      40.863  28.459  28.177  1.00  0.00    -0.014 A 
BRANCH  15  16
ATOM     16  C   UNL A   1      42.300  28.342  27.908  1.00  0.00     0.031 A 
ATOM     17  C   UNL A   1      43.162  29.496  28.318  1.00  0.00     0.074 A 
ATOM     18  C   UNL A   1      42.812  27.180  27.470  1.00  0.00     0.049 A 
ATOM     19  N   UNL A   1      44.432  29.692  28.112  1.00  0.00    -0.248 NA
ATOM     20  C   UNL A   1      42.498  30.573  29.079  1.00  0.00     0.031 C 
ATOM     21  C   UNL A   1      42.045  25.952  27.233  1.00  0.00     0.029 A 
ATOM     22  N   UNL A   1      44.100  26.829  27.175  1.00  0.00    -0.354 N 
ATOM     23  C   UNL A   1      44.708  30.935  28.670  1.00  0.00     0.074 A 
ATOM     24  C   UNL A   1      43.481  31.446  29.232  1.00  0.00     0.031 C 
ATOM     25  C   UNL A   1      42.883  24.981  26.837  1.00  0.00     0.029 A 
ATOM     26  C   UNL A   1      44.223  25.542  26.710  1.00  0.00     0.049 A 
ATOM     27  H   UNL A   1      44.865  27.439  27.287  1.00  0.00     0.167 HD
ATOM     28  C   UNL A   1      45.890  31.589  28.687  1.00  0.00     0.031 A 
ATOM     29  C   UNL A   1      45.295  24.920  26.187  1.00  0.00     0.031 A 
ATOM     30  C   UNL A   1      47.079  31.037  28.102  1.00  0.00     0.049 A 
ATOM     31  C   UNL A   1      46.571  25.717  26.094  1.00  0.00     0.074 A 
ATOM     32  C   UNL A   1      48.327  31.610  27.970  1.00  0.00     0.029 A 
ATOM     33  N   UNL A   1      47.153  29.764  27.549  1.00  0.00    -0.354 N 
ATOM     34  N   UNL A   1      46.813  26.933  26.530  1.00  0.00    -0.248 NA
ATOM     35  C   UNL A   1      47.708  25.075  25.427  1.00  0.00     0.031 C 
ATOM     36  C   UNL A   1      49.140  30.702  27.282  1.00  0.00     0.029 A 
ATOM     37  C   UNL A   1      48.419  29.537  27.051  1.00  0.00     0.049 A 
ATOM     38  H   UNL A   1      46.412  29.117  27.518  1.00  0.00     0.167 HD
ATOM     39  C   UNL A   1      48.136  27.199  26.206  1.00  0.00     0.074 A 
ATOM     40  C   UNL A   1      48.646  26.005  25.555  1.00  0.00     0.031 C 
ATOM     41  C   UNL A   1      48.869  28.320  26.417  1.00  0.00     0.031 A 
BRANCH  28  42
ATOM     42  C   UNL A   1      45.897  32.983  29.251  1.00  0.00    -0.014 A 
ATOM     43  C   UNL A   1      45.806  34.120  28.427  1.00  0.00     0.010 A 
ATOM     44  C   UNL A   1      46.043  33.155  30.639  1.00  0.00     0.010 A 
ATOM     45  C   UNL A   1      45.904  35.401  28.978  1.00  0.00     0.020 A 
ATOM     46  C   UNL A   1      46.113  34.435  31.198  1.00  0.00     0.020 A 
ATOM     47  C   UNL A   1      46.059  35.550  30.360  1.00  0.00     0.054 A 
BRANCH  47  48
ATOM     48  S   UNL A   1      46.175  37.224  31.050  1.00  0.00     0.124 S 
ATOM     49  O   UNL A   1      47.355  37.751  30.369  1.00  0.00    -0.237 OA
ATOM     50  O   UNL A   1      44.902  37.820  30.651  1.00  0.00    -0.237 OA
ATOM     51  O   UNL A   1      46.333  36.999  32.484  1.00  0.00    -0.744 OA
ENDBRANCH  47  48
ENDBRANCH  28  42
BRANCH  29  52
ATOM     52  C   UNL A   1      45.183  23.538  25.642  1.00  0.00    -0.014 A 
ATOM     53  C   UNL A   1      45.532  22.418  26.416  1.00  0.00     0.010 A 
ATOM     54  C   UNL A   1      44.716  23.332  24.328  1.00  0.00     0.010 A 
ATOM     55  C   UNL A   1      45.435  21.127  25.881  1.00  0.00     0.020 A 
ATOM     56  C   UNL A   1      44.587  22.044  23.802  1.00  0.00     0.020 A 
ATOM     57  C   UNL A   1      44.962  20.948  24.578  1.00  0.00     0.054 A 
BRANCH  57  58
ATOM     58  S   UNL A   1      44.816  19.263  23.918  1.00  0.00     0.124 S 
ATOM     59  O   UNL A   1      44.354  19.509  22.556  1.00  0.00    -0.237 OA
ATOM     60  O   UNL A   1      46.181  18.757  24.043  1.00  0.00    -0.237 OA
ATOM     61  O   UNL A   1      43.842  18.631  24.806  1.00  0.00    -0.744 OA
ENDBRANCH  57  58
ENDBRANCH  29  52
BRANCH  41  62
ATOM     62  C   UNL A   1      50.304  28.284  25.979  1.00  0.00    -0.014 A 
ATOM     63  C   UNL A   1      50.664  28.554  24.650  1.00  0.00     0.010 A 
ATOM     64  C   UNL A   1      51.306  28.064  26.942  1.00  0.00     0.010 A 
ATOM     65  C   UNL A   1      52.010  28.582  24.283  1.00  0.00     0.020 A 
ATOM     66  C   UNL A   1      52.652  28.125  26.585  1.00  0.00     0.020 A 
ATOM     67  C   UNL A   1      52.995  28.373  25.255  1.00  0.00     0.054 A 
BRANCH  67  68
ATOM     68  S   UNL A   1      54.735  28.487  24.766  1.00  0.00     0.124 S 
ATOM     69  O   UNL A   1      54.641  28.497  23.310  1.00  0.00    -0.237 OA
ATOM     70  O   UNL A   1      55.157  29.743  25.380  1.00  0.00    -0.237 OA
ATOM     71  O   UNL A   1      55.336  27.286  25.344  1.00  0.00    -0.744 OA
ENDBRANCH  67  68
ENDBRANCH  41  62
ENDBRANCH  15  16
ENDBRANCH   8  10
ENDBRANCH   7   8
ENDBRANCH   6   7
ENDBRANCH   5   6
ENDBRANCH   4   5
ENDBRANCH   3   4
ENDBRANCH   2   3
ENDBRANCH   1   2
BRANCH   1  72
ATOM     72  C   UNL A   1      31.391  28.651  23.865  1.00  0.00     0.188 C 
BRANCH  72  73
ATOM     73  C   UNL A   1      30.675  27.474  24.569  1.00  0.00     0.188 C 
BRANCH  73  74
ATOM     74  O   UNL A   1      31.552  26.531  25.159  1.00  0.00    -0.376 OA
BRANCH  74  75
ATOM     75  C   UNL A   1      32.799  26.369  24.497  1.00  0.00     0.202 C 
BRANCH  75  76
ATOM     76  C   UNL A   1      33.650  25.193  24.996  1.00  0.00     0.261 C 
BRANCH  76  77
ATOM     77  O   UNL A   1      34.617  24.619  24.085  1.00  0.00    -0.460 OA
BRANCH  77  78
ATOM     78  C   UNL A   1      34.286  23.651  23.200  1.00  0.00     0.341 C 
ATOM     79  O   UNL A   1      34.050  23.780  22.011  1.00  0.00    -0.246 OA
BRANCH  78  80
ATOM     80  C   UNL A   1      34.411  22.343  23.886  1.00  0.00     0.102 A 
ATOM     81  C   UNL A   1      33.237  21.636  24.183  1.00  0.00     0.021 A 
ATOM     82  C   UNL A   1      35.649  21.839  24.333  1.00  0.00     0.144 A 
ATOM     83  C   UNL A   1      33.313  20.443  24.887  1.00  0.00     0.021 A 
ATOM     84  N   UNL A   1      35.708  20.659  25.005  1.00  0.00    -0.238 NA
ATOM     85  C   UNL A   1      34.564  19.992  25.260  1.00  0.00     0.113 A 
BRANCH  82  86
ATOM     86  N   UNL A   1      36.835  22.609  24.285  1.00  0.00    -0.340 N 
ATOM     87  H   UNL A   1      37.009  23.117  23.460  1.00  0.00     0.168 HD
BRANCH  86  88
ATOM     88  C   UNL A   1      37.790  22.710  25.319  1.00  0.00     0.040 A 
ATOM     89  C   UNL A   1      37.882  23.856  26.116  1.00  0.00     0.026 A 
ATOM     90  C   UNL A   1      38.737  21.698  25.493  1.00  0.00     0.039 A 
ATOM     91  C   UNL A   1      38.895  23.986  27.074  1.00  0.00     0.003 A 
ATOM     92  C   UNL A   1      39.762  21.811  26.447  1.00  0.00     0.058 A 
ATOM     93  C   UNL A   1      39.837  22.969  27.234  1.00  0.00     0.013 A 
BRANCH  92  94
ATOM     94  C   UNL A   1      40.775  20.709  26.615  1.00  0.00     0.416 C 
ATOM     95  F   UNL A   1      42.044  21.119  26.338  1.00  0.00    -0.166 F 
ATOM     96  F   UNL A   1      40.810  20.220  27.886  1.00  0.00    -0.166 F 
ATOM     97  F   UNL A   1      40.550  19.631  25.812  1.00  0.00    -0.166 F 
ENDBRANCH  92  94
ENDBRANCH  86  88
ENDBRANCH  82  86
ENDBRANCH  78  80
ENDBRANCH  77  78
ENDBRANCH  76  77
ENDBRANCH  75  76
ENDBRANCH  74  75
ENDBRANCH  73  74
ENDBRANCH  72  73
ENDBRANCH   1  72
TORSDOF 26
ENDMDL
MODEL 2
REMARK VINA RESULT:      -9.0      2.092      8.051
REMARK SMILES O=C(OCCOCCOCCOCCOC(=O)c1cccnc1Nc1cccc(C(F)(F)F)c1)c1ccc(-c2c3nc(c(-c4ccc(S(=O)(=O)[O-])cc4)c4ccc([nH]4)c(-c4ccc(S(=O)(=O)[O-])cc4)c4nc(c(-c5ccc(S(=O)(=O)[O-])cc5)c5ccc2[nH]5)C=C4)C=C3)cc1
REMARK SMILES IDX 9 1 8 2 7 3 6 4 5 5 4 6 3 7 2 8 1 9 35 10 36 11 94 12 37 13
REMARK SMILES IDX 93 14 38 15 39 16 40 17 87 18 41 19 92 20 86 21 88 22 42 23
REMARK SMILES IDX 91 24 85 25 84 26 43 28 73 29 54 30 72 31 55 32 58 33 71 34
REMARK SMILES IDX 89 35 56 36 57 37 70 39 90 40 59 41 44 42 45 43 53 44 46 45
REMARK SMILES IDX 52 46 47 47 48 48 49 49 50 50 51 51 74 52 75 53 83 54 76 55
REMARK SMILES IDX 82 56 77 57 78 58 79 59 80 60 81 61 60 62 61 63 69 64 62 65
REMARK SMILES IDX 68 66 63 67 64 68 65 69 66 70 67 71 10 72 11 73 12 74 13 75
REMARK SMILES IDX 14 76 15 77 16 78 17 79 18 80 19 81 23 82 20 83 22 84 21 85
REMARK SMILES IDX 24 86 25 88 26 89 34 90 27 91 29 92 28 93 30 94 31 95 32 96
REMARK SMILES IDX 33 97
REMARK H PARENT 88 27 58 38 24 87
REMARK Flexibility Score: inf
ROOT
ATOM      1  O   UNL A   1      31.989  30.441  25.852  1.00  0.00    -0.377 OA
ENDROOT
BRANCH   1   2
ATOM      2  C   UNL A   1      32.218  29.901  27.149  1.00  0.00     0.188 C 
BRANCH   2   3
ATOM      3  C   UNL A   1      33.460  29.021  27.258  1.00  0.00     0.188 C 
BRANCH   3   4
ATOM      4  O   UNL A   1      34.643  29.812  27.185  1.00  0.00    -0.376 OA
BRANCH   4   5
ATOM      5  C   UNL A   1      34.924  30.654  28.301  1.00  0.00     0.202 C 
BRANCH   5   6
ATOM      6  C   UNL A   1      36.068  30.169  29.183  1.00  0.00     0.261 C 
BRANCH   6   7
ATOM      7  O   UNL A   1      36.380  31.085  30.238  1.00  0.00    -0.460 OA
BRANCH   7   8
ATOM      8  C   UNL A   1      37.572  31.259  30.860  1.00  0.00     0.338 C 
ATOM      9  O   UNL A   1      37.584  31.918  31.901  1.00  0.00    -0.246 OA
BRANCH   8  10
ATOM     10  C   UNL A   1      38.876  30.700  30.381  1.00  0.00     0.060 A 
ATOM     11  C   UNL A   1      39.935  30.270  31.185  1.00  0.00     0.016 A 
ATOM     12  C   UNL A   1      39.001  30.521  28.994  1.00  0.00     0.016 A 
ATOM     13  C   UNL A   1      41.086  29.717  30.651  1.00  0.00     0.010 A 
ATOM     14  C   UNL A   1      40.155  29.962  28.440  1.00  0.00     0.010 A 
ATOM     15  C   UNL A   1      41.208  29.581  29.277  1.00  0.00    -0.014 A 
BRANCH  15  16
ATOM     16  C   UNL A   1      42.538  29.251  28.753  1.00  0.00     0.031 A 
ATOM     17  C   UNL A   1      42.737  27.858  28.241  1.00  0.00     0.074 A 
ATOM     18  C   UNL A   1      43.461  30.215  28.599  1.00  0.00     0.049 A 
ATOM     19  N   UNL A   1      43.825  27.281  27.819  1.00  0.00    -0.248 NA
ATOM     20  C   UNL A   1      41.536  27.002  28.182  1.00  0.00     0.031 C 
ATOM     21  C   UNL A   1      43.260  31.636  28.905  1.00  0.00     0.029 A 
ATOM     22  N   UNL A   1      44.739  30.155  28.119  1.00  0.00    -0.354 N 
ATOM     23  C   UNL A   1      43.451  25.982  27.496  1.00  0.00     0.074 A 
ATOM     24  C   UNL A   1      42.039  25.854  27.759  1.00  0.00     0.031 C 
ATOM     25  C   UNL A   1      44.377  32.313  28.594  1.00  0.00     0.029 A 
ATOM     26  C   UNL A   1      45.393  31.364  28.155  1.00  0.00     0.049 A 
ATOM     27  H   UNL A   1      45.150  29.328  27.781  1.00  0.00     0.167 HD
ATOM     28  C   UNL A   1      44.240  24.986  27.037  1.00  0.00     0.031 A 
ATOM     29  C   UNL A   1      46.687  31.643  27.913  1.00  0.00     0.031 A 
ATOM     30  C   UNL A   1      45.644  25.167  26.803  1.00  0.00     0.049 A 
ATOM     31  C   UNL A   1      47.577  30.489  27.530  1.00  0.00     0.074 A 
ATOM     32  C   UNL A   1      46.587  24.236  26.417  1.00  0.00     0.029 A 
ATOM     33  N   UNL A   1      46.304  26.383  26.939  1.00  0.00    -0.354 N 
ATOM     34  N   UNL A   1      47.249  29.234  27.320  1.00  0.00    -0.248 NA
ATOM     35  C   UNL A   1      49.006  30.777  27.371  1.00  0.00     0.031 C 
ATOM     36  C   UNL A   1      47.829  24.879  26.377  1.00  0.00     0.029 A 
ATOM     37  C   UNL A   1      47.647  26.226  26.668  1.00  0.00     0.049 A 
ATOM     38  H   UNL A   1      45.876  27.233  27.191  1.00  0.00     0.167 HD
ATOM     39  C   UNL A   1      48.428  28.582  26.986  1.00  0.00     0.074 A 
ATOM     40  C   UNL A   1      49.472  29.590  27.003  1.00  0.00     0.031 C 
ATOM     41  C   UNL A   1      48.640  27.274  26.695  1.00  0.00     0.031 A 
BRANCH  28  42
ATOM     42  C   UNL A   1      43.611  23.629  26.878  1.00  0.00    -0.014 A 
ATOM     43  C   UNL A   1      43.501  22.729  27.954  1.00  0.00     0.010 A 
ATOM     44  C   UNL A   1      43.161  23.231  25.606  1.00  0.00     0.010 A 
ATOM     45  C   UNL A   1      42.991  21.443  27.750  1.00  0.00     0.020 A 
ATOM     46  C   UNL A   1      42.625  21.957  25.403  1.00  0.00     0.020 A 
ATOM     47  C   UNL A   1      42.559  21.065  26.475  1.00  0.00     0.054 A 
BRANCH  47  48
ATOM     48  S   UNL A   1      41.893  19.393  26.240  1.00  0.00     0.124 S 
ATOM     49  O   UNL A   1      42.679  18.912  25.106  1.00  0.00    -0.237 OA
ATOM     50  O   UNL A   1      42.182  18.753  27.521  1.00  0.00    -0.237 OA
ATOM     51  O   UNL A   1      40.476  19.619  25.964  1.00  0.00    -0.744 OA
ENDBRANCH  47  48
ENDBRANCH  28  42
BRANCH  29  52
ATOM     52  C   UNL A   1      47.217  33.021  28.111  1.00  0.00    -0.014 A 
ATOM     53  C   UNL A   1      47.695  33.447  29.363  1.00  0.00     0.010 A 
ATOM     54  C   UNL A   1      47.250  33.928  27.032  1.00  0.00     0.010 A 
ATOM     55  C   UNL A   1      48.175  34.751  29.535  1.00  0.00     0.020 A 
ATOM     56  C   UNL A   1      47.758  35.220  27.191  1.00  0.00     0.020 A 
ATOM     57  C   UNL A   1      48.204  35.630  28.447  1.00  0.00     0.054 A 
BRANCH  57  58
ATOM     58  S   UNL A   1      48.859  37.305  28.688  1.00  0.00     0.124 S 
ATOM     59  O   UNL A   1      50.235  37.038  29.096  1.00  0.00    -0.237 OA
ATOM     60  O   UNL A   1      48.694  37.901  27.365  1.00  0.00    -0.237 OA
ATOM     61  O   UNL A   1      47.995  37.865  29.726  1.00  0.00    -0.744 OA
ENDBRANCH  57  58
ENDBRANCH  29  52
BRANCH  41  62
ATOM     62  C   UNL A   1      50.041  26.879  26.333  1.00  0.00    -0.014 A 
ATOM     63  C   UNL A   1      50.922  26.362  27.295  1.00  0.00     0.010 A 
ATOM     64  C   UNL A   1      50.442  26.948  24.986  1.00  0.00     0.010 A 
ATOM     65  C   UNL A   1      52.197  25.938  26.919  1.00  0.00     0.020 A 
ATOM     66  C   UNL A   1      51.703  26.494  24.602  1.00  0.00     0.020 A 
ATOM     67  C   UNL A   1      52.576  26.001  25.573  1.00  0.00     0.054 A 
BRANCH  67  68
ATOM     68  S   UNL A   1      54.209  25.377  25.101  1.00  0.00     0.124 S 
ATOM     69  O   UNL A   1      53.933  23.967  24.846  1.00  0.00    -0.237 OA
ATOM     70  O   UNL A   1      54.529  26.180  23.923  1.00  0.00    -0.237 OA
ATOM     71  O   UNL A   1      55.036  25.648  26.276  1.00  0.00    -0.744 OA
ENDBRANCH  67  68
ENDBRANCH  41  62
ENDBRANCH  15  16
ENDBRANCH   8  10
ENDBRANCH   7   8
ENDBRANCH   6   7
ENDBRANCH   5   6
ENDBRANCH   4   5
ENDBRANCH   3   4
ENDBRANCH   2   3
ENDBRANCH   1   2
BRANCH   1  72
ATOM     72  C   UNL A   1      31.958  29.511  24.774  1.00  0.00     0.188 C 
BRANCH  72  73
ATOM     73  C   UNL A   1      30.587  29.066  24.209  1.00  0.00     0.188 C 
BRANCH  73  74
ATOM     74  O   UNL A   1      30.435  27.662  24.097  1.00  0.00    -0.376 OA
BRANCH  74  75
ATOM     75  C   UNL A   1      30.362  27.167  22.766  1.00  0.00     0.202 C 
BRANCH  75  76
ATOM     76  C   UNL A   1      31.664  26.561  22.228  1.00  0.00     0.261 C 
BRANCH  76  77
ATOM     77  O   UNL A   1      32.424  25.695  23.105  1.00  0.00    -0.460 OA
BRANCH  77  78
ATOM     78  C   UNL A   1      32.271  24.352  23.100  1.00  0.00     0.341 C 
ATOM     79  O   UNL A   1      32.346  23.598  22.145  1.00  0.00    -0.246 OA
BRANCH  78  80
ATOM     80  C   UNL A   1      32.145  23.901  24.507  1.00  0.00     0.102 A 
ATOM     81  C   UNL A   1      30.861  23.649  25.009  1.00  0.00     0.021 A 
ATOM     82  C   UNL A   1      33.253  23.815  25.374  1.00  0.00     0.144 A 
ATOM     83  C   UNL A   1      30.702  23.295  26.341  1.00  0.00     0.021 A 
ATOM     84  N   UNL A   1      33.082  23.449  26.672  1.00  0.00    -0.238 NA
ATOM     85  C   UNL A   1      31.836  23.194  27.123  1.00  0.00     0.113 A 
BRANCH  82  86
ATOM     86  N   UNL A   1      34.534  24.287  25.005  1.00  0.00    -0.340 N 
ATOM     87  H   UNL A   1      34.596  25.214  24.680  1.00  0.00     0.168 HD
BRANCH  86  88
ATOM     88  C   UNL A   1      35.731  23.541  25.063  1.00  0.00     0.040 A 
ATOM     89  C   UNL A   1      35.827  22.272  24.481  1.00  0.00     0.026 A 
ATOM     90  C   UNL A   1      36.814  24.018  25.805  1.00  0.00     0.039 A 
ATOM     91  C   UNL A   1      36.986  21.499  24.628  1.00  0.00     0.003 A 
ATOM     92  C   UNL A   1      37.984  23.257  25.967  1.00  0.00     0.058 A 
ATOM     93  C   UNL A   1      38.058  21.988  25.375  1.00  0.00     0.013 A 
BRANCH  92  94
ATOM     94  C   UNL A   1      39.138  23.791  26.774  1.00  0.00     0.416 C 
ATOM     95  F   UNL A   1      39.863  24.723  26.097  1.00  0.00    -0.166 F 
ATOM     96  F   UNL A   1      38.734  24.396  27.926  1.00  0.00    -0.166 F 
ATOM     97  F   UNL A   1      40.029  22.832  27.154  1.00  0.00    -0.166 F 
ENDBRANCH  92  94
ENDBRANCH  86  88
ENDBRANCH  82  86
ENDBRANCH  78  80
ENDBRANCH  77  78
ENDBRANCH  76  77
ENDBRANCH  75  76
ENDBRANCH  74  75
ENDBRANCH  73  74
ENDBRANCH  72  73
ENDBRANCH   1  72
TORSDOF 26
ENDMDL
MODEL 3
REMARK VINA RESULT:      -7.8      7.109      9.344
REMARK SMILES O=C(OCCOCCOCCOCCOC(=O)c1cccnc1Nc1cccc(C(F)(F)F)c1)c1ccc(-c2c3nc(c(-c4ccc(S(=O)(=O)[O-])cc4)c4ccc([nH]4)c(-c4ccc(S(=O)(=O)[O-])cc4)c4nc(c(-c5ccc(S(=O)(=O)[O-])cc5)c5ccc2[nH]5)C=C4)C=C3)cc1
REMARK SMILES IDX 9 1 8 2 7 3 6 4 5 5 4 6 3 7 2 8 1 9 35 10 36 11 94 12 37 13
REMARK SMILES IDX 93 14 38 15 39 16 40 17 87 18 41 19 92 20 86 21 88 22 42 23
REMARK SMILES IDX 91 24 85 25 84 26 43 28 73 29 54 30 72 31 55 32 58 33 71 34
REMARK SMILES IDX 89 35 56 36 57 37 70 39 90 40 59 41 44 42 45 43 53 44 46 45
REMARK SMILES IDX 52 46 47 47 48 48 49 49 50 50 51 51 74 52 75 53 83 54 76 55
REMARK SMILES IDX 82 56 77 57 78 58 79 59 80 60 81 61 60 62 61 63 69 64 62 65
REMARK SMILES IDX 68 66 63 67 64 68 65 69 66 70 67 71 10 72 11 73 12 74 13 75
REMARK SMILES IDX 14 76 15 77 16 78 17 79 18 80 19 81 23 82 20 83 22 84 21 85
REMARK SMILES IDX 24 86 25 88 26 89 34 90 27 91 29 92 28 93 30 94 31 95 32 96
REMARK SMILES IDX 33 97
REMARK H PARENT 88 27 58 38 24 87
REMARK Flexibility Score: inf
ROOT
ATOM      1  O   UNL A   1      32.155  30.464  25.872  1.00  0.00    -0.377 OA
ENDROOT
BRANCH   1   2
ATOM      2  C   UNL A   1      32.618  30.535  27.216  1.00  0.00     0.188 C 
BRANCH   2   3
ATOM      3  C   UNL A   1      34.122  30.759  27.357  1.00  0.00     0.188 C 
BRANCH   3   4
ATOM      4  O   UNL A   1      34.431  32.147  27.273  1.00  0.00    -0.376 OA
BRANCH   4   5
ATOM      5  C   UNL A   1      33.749  33.014  28.177  1.00  0.00     0.202 C 
BRANCH   5   6
ATOM      6  C   UNL A   1      34.366  33.083  29.569  1.00  0.00     0.261 C 
BRANCH   6   7
ATOM      7  O   UNL A   1      33.701  34.020  30.423  1.00  0.00    -0.460 OA
BRANCH   7   8
ATOM      8  C   UNL A   1      34.042  34.379  31.685  1.00  0.00     0.338 C 
ATOM      9  O   UNL A   1      33.246  35.074  32.318  1.00  0.00    -0.246 OA
BRANCH   8  10
ATOM     10  C   UNL A   1      35.313  33.985  32.371  1.00  0.00     0.060 A 
ATOM     11  C   UNL A   1      36.447  34.785  32.532  1.00  0.00     0.016 A 
ATOM     12  C   UNL A   1      35.323  32.717  32.977  1.00  0.00     0.016 A 
ATOM     13  C   UNL A   1      37.562  34.351  33.229  1.00  0.00     0.010 A 
ATOM     14  C   UNL A   1      36.439  32.266  33.686  1.00  0.00     0.010 A 
ATOM     15  C   UNL A   1      37.569  33.084  33.789  1.00  0.00    -0.014 A 
BRANCH  15  16
ATOM     16  C   UNL A   1      38.857  32.574  34.273  1.00  0.00     0.031 A 
ATOM     17  C   UNL A   1      39.155  32.759  35.728  1.00  0.00     0.074 A 
ATOM     18  C   UNL A   1      39.636  31.834  33.465  1.00  0.00     0.049 A 
ATOM     19  N   UNL A   1      40.245  32.494  36.388  1.00  0.00    -0.248 NA
ATOM     20  C   UNL A   1      38.064  33.308  36.558  1.00  0.00     0.031 C 
ATOM     21  C   UNL A   1      39.307  31.456  32.086  1.00  0.00     0.029 A 
ATOM     22  N   UNL A   1      40.846  31.242  33.694  1.00  0.00    -0.354 N 
ATOM     23  C   UNL A   1      39.991  32.891  37.695  1.00  0.00     0.074 A 
ATOM     24  C   UNL A   1      38.644  33.406  37.743  1.00  0.00     0.031 C 
ATOM     25  C   UNL A   1      40.293  30.687  31.597  1.00  0.00     0.029 A 
ATOM     26  C   UNL A   1      41.354  30.594  32.593  1.00  0.00     0.049 A 
ATOM     27  H   UNL A   1      41.308  31.276  34.562  1.00  0.00     0.167 HD
ATOM     28  C   UNL A   1      40.830  32.841  38.752  1.00  0.00     0.031 A 
ATOM     29  C   UNL A   1      42.567  30.044  32.409  1.00  0.00     0.031 A 
ATOM     30  C   UNL A   1      42.166  32.327  38.646  1.00  0.00     0.049 A 
ATOM     31  C   UNL A   1      43.535  30.118  33.562  1.00  0.00     0.074 A 
ATOM     32  C   UNL A   1      43.159  32.283  39.604  1.00  0.00     0.029 A 
ATOM     33  N   UNL A   1      42.690  31.761  37.488  1.00  0.00    -0.354 N 
ATOM     34  N   UNL A   1      43.334  30.585  34.774  1.00  0.00    -0.248 NA
ATOM     35  C   UNL A   1      44.891  29.614  33.324  1.00  0.00     0.031 C 
ATOM     36  C   UNL A   1      44.303  31.743  39.005  1.00  0.00     0.029 A 
ATOM     37  C   UNL A   1      44.001  31.386  37.697  1.00  0.00     0.049 A 
ATOM     38  H   UNL A   1      42.198  31.644  36.644  1.00  0.00     0.167 HD
ATOM     39  C   UNL A   1      44.532  30.416  35.452  1.00  0.00     0.074 A 
ATOM     40  C   UNL A   1      45.446  29.784  34.517  1.00  0.00     0.031 C 
ATOM     41  C   UNL A   1      44.860  30.752  36.725  1.00  0.00     0.031 A 
BRANCH  28  42
ATOM     42  C   UNL A   1      40.351  33.448  40.041  1.00  0.00    -0.014 A 
ATOM     43  C   UNL A   1      39.700  32.685  41.027  1.00  0.00     0.010 A 
ATOM     44  C   UNL A   1      40.518  34.830  40.247  1.00  0.00     0.010 A 
ATOM     45  C   UNL A   1      39.190  33.301  42.175  1.00  0.00     0.020 A 
ATOM     46  C   UNL A   1      40.035  35.445  41.405  1.00  0.00     0.020 A 
ATOM     47  C   UNL A   1      39.358  34.677  42.355  1.00  0.00     0.054 A 
BRANCH  47  48
ATOM     48  S   UNL A   1      38.695  35.449  43.856  1.00  0.00     0.124 S 
ATOM     49  O   UNL A   1      39.277  36.788  43.790  1.00  0.00    -0.237 OA
ATOM     50  O   UNL A   1      37.252  35.382  43.637  1.00  0.00    -0.237 OA
ATOM     51  O   UNL A   1      39.199  34.604  44.935  1.00  0.00    -0.744 OA
ENDBRANCH  47  48
ENDBRANCH  28  42
BRANCH  29  52
ATOM     52  C   UNL A   1      42.952  29.476  31.087  1.00  0.00    -0.014 A 
ATOM     53  C   UNL A   1      42.862  28.097  30.830  1.00  0.00     0.010 A 
ATOM     54  C   UNL A   1      43.415  30.325  30.061  1.00  0.00     0.010 A 
ATOM     55  C   UNL A   1      43.243  27.579  29.586  1.00  0.00     0.020 A 
ATOM     56  C   UNL A   1      43.767  29.816  28.807  1.00  0.00     0.020 A 
ATOM     57  C   UNL A   1      43.693  28.442  28.582  1.00  0.00     0.054 A 
BRANCH  57  58
ATOM     58  S   UNL A   1      44.153  27.750  26.968  1.00  0.00     0.124 S 
ATOM     59  O   UNL A   1      43.318  26.554  26.901  1.00  0.00    -0.237 OA
ATOM     60  O   UNL A   1      43.793  28.827  26.049  1.00  0.00    -0.237 OA
ATOM     61  O   UNL A   1      45.588  27.505  27.097  1.00  0.00    -0.744 OA
ENDBRANCH  57  58
ENDBRANCH  29  52
BRANCH  41  62
ATOM     62  C   UNL A   1      46.245  30.400  37.183  1.00  0.00    -0.014 A 
ATOM     63  C   UNL A   1      47.321  31.280  36.986  1.00  0.00     0.010 A 
ATOM     64  C   UNL A   1      46.444  29.207  37.901  1.00  0.00     0.010 A 
ATOM     65  C   UNL A   1      48.584  30.961  37.482  1.00  0.00     0.020 A 
ATOM     66  C   UNL A   1      47.698  28.901  38.427  1.00  0.00     0.020 A 
ATOM     67  C   UNL A   1      48.763  29.776  38.205  1.00  0.00     0.054 A 
BRANCH  67  68
ATOM     68  S   UNL A   1      50.397  29.420  38.900  1.00  0.00     0.124 S 
ATOM     69  O   UNL A   1      51.104  30.676  38.670  1.00  0.00    -0.237 OA
ATOM     70  O   UNL A   1      50.090  29.115  40.295  1.00  0.00    -0.237 OA
ATOM     71  O   UNL A   1      50.870  28.285  38.110  1.00  0.00    -0.744 OA
ENDBRANCH  67  68
ENDBRANCH  41  62
ENDBRANCH  15  16
ENDBRANCH   8  10
ENDBRANCH   7   8
ENDBRANCH   6   7
ENDBRANCH   5   6
ENDBRANCH   4   5
ENDBRANCH   3   4
ENDBRANCH   2   3
ENDBRANCH   1   2
BRANCH   1  72
ATOM     72  C   UNL A   1      32.674  29.402  25.077  1.00  0.00     0.188 C 
BRANCH  72  73
ATOM     73  C   UNL A   1      31.738  28.700  24.064  1.00  0.00     0.188 C 
BRANCH  73  74
ATOM     74  O   UNL A   1      31.933  27.300  23.970  1.00  0.00    -0.376 OA
BRANCH  74  75
ATOM     75  C   UNL A   1      32.698  26.871  22.851  1.00  0.00     0.202 C 
BRANCH  75  76
ATOM     76  C   UNL A   1      33.972  26.090  23.200  1.00  0.00     0.261 C 
BRANCH  76  77
ATOM     77  O   UNL A   1      33.873  24.652  23.329  1.00  0.00    -0.460 OA
BRANCH  77  78
ATOM     78  C   UNL A   1      32.695  23.998  23.213  1.00  0.00     0.341 C 
ATOM     79  O   UNL A   1      32.139  23.644  22.187  1.00  0.00    -0.246 OA
BRANCH  78  80
ATOM     80  C   UNL A   1      32.242  23.626  24.575  1.00  0.00     0.102 A 
ATOM     81  C   UNL A   1      31.103  24.261  25.089  1.00  0.00     0.021 A 
ATOM     82  C   UNL A   1      32.968  22.741  25.396  1.00  0.00     0.144 A 
ATOM     83  C   UNL A   1      30.693  23.989  26.387  1.00  0.00     0.021 A 
ATOM     84  N   UNL A   1      32.542  22.471  26.659  1.00  0.00    -0.238 NA
ATOM     85  C   UNL A   1      31.432  23.082  27.121  1.00  0.00     0.113 A 
BRANCH  82  86
ATOM     86  N   UNL A   1      34.247  22.258  25.035  1.00  0.00    -0.340 N 
ATOM     87  H   UNL A   1      34.945  22.926  24.849  1.00  0.00     0.168 HD
BRANCH  86  88
ATOM     88  C   UNL A   1      34.607  20.898  24.918  1.00  0.00     0.040 A 
ATOM     89  C   UNL A   1      35.939  20.484  25.033  1.00  0.00     0.026 A 
ATOM     90  C   UNL A   1      33.641  19.949  24.575  1.00  0.00     0.039 A 
ATOM     91  C   UNL A   1      36.298  19.148  24.818  1.00  0.00     0.003 A 
ATOM     92  C   UNL A   1      33.982  18.604  24.353  1.00  0.00     0.058 A 
ATOM     93  C   UNL A   1      35.323  18.212  24.473  1.00  0.00     0.013 A 
BRANCH  92  94
ATOM     94  C   UNL A   1      32.925  17.598  23.980  1.00  0.00     0.416 C 
ATOM     95  F   UNL A   1      31.958  17.479  24.931  1.00  0.00    -0.166 F 
ATOM     96  F   UNL A   1      32.276  17.925  22.827  1.00  0.00    -0.166 F 
ATOM     97  F   UNL A   1      33.410  16.340  23.785  1.00  0.00    -0.166 F 
ENDBRANCH  92  94
ENDBRANCH  86  88
ENDBRANCH  82  86
ENDBRANCH  78  80
ENDBRANCH  77  78
ENDBRANCH  76  77
ENDBRANCH  75  76
ENDBRANCH  74  75
ENDBRANCH  73  74
ENDBRANCH  72  73
ENDBRANCH   1  72
TORSDOF 26
ENDMDL
