MODEL 1
REMARK VINA RESULT:     -11.1      0.000      0.000
REMARK SMILES Cc1nn(-c2ccccc2)c(C)c1CNC(=O)[C@@H]1[C@@H](C(=O)OCCOCCOCCOCCOC(=O)c2ccc(-c3c4nc(c(-c5ccc(S(=O)(=O)[O-])cc5)c5ccc([nH]5)c(-c5ccc(S(=O)(=O)[O-])cc5)c5nc(c(-c6ccc(S(=O)(=O)[O-])cc6)c6ccc3[nH]6)C=C5)C=C4)cc2)[C@@H]2C=C[C@H]1C2
REMARK SMILES IDX 27 1 26 2 25 3 24 4 23 5 22 6 20 7 21 8 19 9 18 10 100 11
REMARK SMILES IDX 97 12 99 13 101 14 98 15 16 16 15 17 17 19 14 20 13 21 1 22
REMARK SMILES IDX 2 23 3 24 4 25 11 26 12 27 5 28 6 29 10 30 7 31 9 32 8 33
REMARK SMILES IDX 28 34 29 35 30 36 31 37 32 38 33 39 34 40 35 41 36 42 37 43
REMARK SMILES IDX 38 44 96 45 39 46 95 47 40 48 41 49 42 50 89 51 43 52 94 53
REMARK SMILES IDX 88 54 90 55 44 56 93 57 87 58 86 59 45 61 75 62 56 63 74 64
REMARK SMILES IDX 57 65 60 66 73 67 91 68 58 69 59 70 72 72 92 73 61 74 46 75
REMARK SMILES IDX 47 76 55 77 48 78 54 79 49 80 50 81 51 82 52 83 53 84 76 85
REMARK SMILES IDX 77 86 85 87 78 88 84 89 79 90 80 91 81 92 82 93 83 94 62 95
REMARK SMILES IDX 63 96 71 97 64 98 70 99 65 100 66 101 67 102 68 103 69 104
REMARK H PARENT 15 18 90 60 60 71
REMARK Flexibility Score: inf
ROOT
ATOM      1  C   UNL A   1      40.013  21.692  25.861  1.00  0.00     0.188 C 
ENDROOT
BRANCH   1   2
ATOM      2  C   UNL A   1      38.726  22.232  26.466  1.00  0.00     0.188 C 
BRANCH   2   3
ATOM      3  O   UNL A   1      37.621  22.312  25.571  1.00  0.00    -0.376 OA
BRANCH   3   4
ATOM      4  C   UNL A   1      36.469  23.029  26.015  1.00  0.00     0.202 C 
BRANCH   4   5
ATOM      5  C   UNL A   1      35.829  24.001  25.012  1.00  0.00     0.261 C 
BRANCH   5   6
ATOM      6  O   UNL A   1      34.446  24.365  25.266  1.00  0.00    -0.463 OA
BRANCH   6   7
ATOM      7  C   UNL A   1      33.975  25.467  24.631  1.00  0.00     0.310 C 
ATOM      8  O   UNL A   1      34.126  25.679  23.431  1.00  0.00    -0.252 OA
BRANCH   7   9
ATOM      9  C   UNL A   1      33.264  26.477  25.511  1.00  0.00     0.119 C 
ATOM     10  C   UNL A   1      31.854  26.984  25.071  1.00  0.00     0.100 C 
ATOM     11  C   UNL A   1      31.933  28.494  25.431  1.00  0.00     0.025 C 
ATOM     12  C   UNL A   1      34.045  27.798  25.734  1.00  0.00     0.027 C 
ATOM     13  C   UNL A   1      32.286  28.714  26.891  1.00  0.00    -0.027 C 
ATOM     14  C   UNL A   1      33.311  28.812  24.845  1.00  0.00     0.017 C 
ATOM     15  C   UNL A   1      33.560  28.327  27.066  1.00  0.00    -0.027 C 
BRANCH  10  16
ATOM     16  C   UNL A   1      30.717  26.275  25.797  1.00  0.00     0.224 C 
ATOM     17  N   UNL A   1      30.231  25.093  25.318  1.00  0.00    -0.352 N 
ATOM     18  H   UNL A   1      29.524  24.686  25.869  1.00  0.00     0.163 HD
ATOM     19  O   UNL A   1      30.234  26.699  26.847  1.00  0.00    -0.275 OA
BRANCH  17  20
ATOM     20  C   UNL A   1      30.583  24.340  24.136  1.00  0.00     0.155 C 
BRANCH  20  21
ATOM     21  C   UNL A   1      31.223  23.025  24.472  1.00  0.00     0.016 A 
ATOM     22  C   UNL A   1      30.223  22.694  26.865  1.00  0.00     0.069 C 
ATOM     23  C   UNL A   1      30.965  22.267  25.649  1.00  0.00     0.065 A 
ATOM     24  N   UNL A   1      31.471  21.033  25.574  1.00  0.00    -0.173 NA
ATOM     25  N   UNL A   1      32.204  21.020  24.438  1.00  0.00    -0.237 N 
ATOM     26  C   UNL A   1      32.129  22.238  23.770  1.00  0.00     0.046 A 
ATOM     27  C   UNL A   1      32.837  22.493  22.493  1.00  0.00     0.067 C 
BRANCH  25  28
ATOM     28  C   UNL A   1      32.824  19.819  23.990  1.00  0.00     0.065 A 
ATOM     29  C   UNL A   1      33.962  19.349  24.657  1.00  0.00     0.028 A 
ATOM     30  C   UNL A   1      32.251  19.047  22.970  1.00  0.00     0.028 A 
ATOM     31  C   UNL A   1      34.448  18.069  24.375  1.00  0.00     0.002 A 
ATOM     32  C   UNL A   1      32.745  17.775  22.688  1.00  0.00     0.002 A 
ATOM     33  C   UNL A   1      33.830  17.278  23.406  1.00  0.00     0.000 A 
ENDBRANCH  25  28
ENDBRANCH  20  21
ENDBRANCH  17  20
ENDBRANCH  10  16
ENDBRANCH   7   9
ENDBRANCH   6   7
ENDBRANCH   5   6
ENDBRANCH   4   5
ENDBRANCH   3   4
ENDBRANCH   2   3
ENDBRANCH   1   2
BRANCH   1  34
ATOM     34  O   UNL A   1      40.216  20.319  26.179  1.00  0.00    -0.377 OA
BRANCH  34  35
ATOM     35  C   UNL A   1      41.377  19.938  26.918  1.00  0.00     0.188 C 
BRANCH  35  36
ATOM     36  C   UNL A   1      42.638  19.639  26.113  1.00  0.00     0.188 C 
BRANCH  36  37
ATOM     37  O   UNL A   1      43.093  20.667  25.218  1.00  0.00    -0.376 OA
BRANCH  37  38
ATOM     38  C   UNL A   1      44.179  21.521  25.590  1.00  0.00     0.202 C 
BRANCH  38  39
ATOM     39  C   UNL A   1      44.255  22.819  24.808  1.00  0.00     0.261 C 
BRANCH  39  40
ATOM     40  O   UNL A   1      42.955  23.382  24.796  1.00  0.00    -0.460 OA
BRANCH  40  41
ATOM     41  C   UNL A   1      42.887  24.617  25.344  1.00  0.00     0.338 C 
ATOM     42  O   UNL A   1      43.646  25.549  25.159  1.00  0.00    -0.246 OA
BRANCH  41  43
ATOM     43  C   UNL A   1      41.729  24.649  26.268  1.00  0.00     0.060 A 
ATOM     44  C   UNL A   1      40.827  25.636  25.887  1.00  0.00     0.016 A 
ATOM     45  C   UNL A   1      42.010  24.368  27.614  1.00  0.00     0.016 A 
ATOM     46  C   UNL A   1      40.695  26.681  26.760  1.00  0.00     0.010 A 
ATOM     47  C   UNL A   1      41.899  25.418  28.484  1.00  0.00     0.010 A 
ATOM     48  C   UNL A   1      41.363  26.601  27.988  1.00  0.00    -0.014 A 
BRANCH  48  49
ATOM     49  C   UNL A   1      41.430  27.807  28.765  1.00  0.00     0.031 A 
ATOM     50  C   UNL A   1      42.588  28.624  28.394  1.00  0.00     0.074 A 
ATOM     51  C   UNL A   1      40.510  28.161  29.675  1.00  0.00     0.049 A 
ATOM     52  N   UNL A   1      43.713  28.719  29.017  1.00  0.00    -0.248 NA
ATOM     53  C   UNL A   1      42.573  29.197  27.041  1.00  0.00     0.031 C 
ATOM     54  C   UNL A   1      39.180  27.596  29.909  1.00  0.00     0.029 A 
ATOM     55  N   UNL A   1      40.560  29.215  30.523  1.00  0.00    -0.354 N 
ATOM     56  C   UNL A   1      44.474  29.564  28.228  1.00  0.00     0.074 A 
ATOM     57  C   UNL A   1      43.836  29.601  26.936  1.00  0.00     0.031 C 
ATOM     58  C   UNL A   1      38.468  28.464  30.668  1.00  0.00     0.029 A 
ATOM     59  C   UNL A   1      39.337  29.561  31.070  1.00  0.00     0.049 A 
ATOM     60  H   UNL A   1      41.394  29.695  30.733  1.00  0.00     0.167 HD
ATOM     61  C   UNL A   1      45.376  30.420  28.776  1.00  0.00     0.031 A 
ATOM     62  C   UNL A   1      39.064  30.727  31.705  1.00  0.00     0.031 A 
ATOM     63  C   UNL A   1      45.694  30.076  30.138  1.00  0.00     0.049 A 
ATOM     64  C   UNL A   1      40.363  31.312  32.139  1.00  0.00     0.074 A 
ATOM     65  C   UNL A   1      46.230  28.965  30.760  1.00  0.00     0.029 A 
ATOM     66  N   UNL A   1      45.077  30.808  31.128  1.00  0.00    -0.354 N 
ATOM     67  N   UNL A   1      41.137  30.760  33.033  1.00  0.00    -0.248 NA
ATOM     68  C   UNL A   1      41.025  32.271  31.266  1.00  0.00     0.031 C 
ATOM     69  C   UNL A   1      45.544  28.864  32.006  1.00  0.00     0.029 A 
ATOM     70  C   UNL A   1      44.651  29.935  32.097  1.00  0.00     0.049 A 
ATOM     71  H   UNL A   1      44.962  31.785  31.139  1.00  0.00     0.167 HD
ATOM     72  C   UNL A   1      42.433  30.978  32.582  1.00  0.00     0.074 A 
ATOM     73  C   UNL A   1      42.304  32.008  31.556  1.00  0.00     0.031 C 
ATOM     74  C   UNL A   1      43.443  30.107  32.883  1.00  0.00     0.031 A 
BRANCH  61  75
ATOM     75  C   UNL A   1      45.598  31.799  28.211  1.00  0.00    -0.014 A 
ATOM     76  C   UNL A   1      46.846  32.109  27.646  1.00  0.00     0.010 A 
ATOM     77  C   UNL A   1      44.721  32.879  28.460  1.00  0.00     0.010 A 
ATOM     78  C   UNL A   1      47.220  33.439  27.412  1.00  0.00     0.020 A 
ATOM     79  C   UNL A   1      45.059  34.198  28.183  1.00  0.00     0.020 A 
ATOM     80  C   UNL A   1      46.327  34.473  27.701  1.00  0.00     0.054 A 
BRANCH  80  81
ATOM     81  S   UNL A   1      46.863  36.190  27.537  1.00  0.00     0.124 S 
ATOM     82  O   UNL A   1      45.809  36.898  28.257  1.00  0.00    -0.237 OA
ATOM     83  O   UNL A   1      48.172  36.167  28.181  1.00  0.00    -0.237 OA
ATOM     84  O   UNL A   1      46.886  36.403  26.091  1.00  0.00    -0.744 OA
ENDBRANCH  80  81
ENDBRANCH  61  75
BRANCH  62  85
ATOM     85  C   UNL A   1      37.807  31.506  31.610  1.00  0.00    -0.014 A 
ATOM     86  C   UNL A   1      36.590  30.992  32.091  1.00  0.00     0.010 A 
ATOM     87  C   UNL A   1      37.851  32.876  31.273  1.00  0.00     0.010 A 
ATOM     88  C   UNL A   1      35.474  31.829  32.271  1.00  0.00     0.020 A 
ATOM     89  C   UNL A   1      36.743  33.713  31.439  1.00  0.00     0.020 A 
ATOM     90  C   UNL A   1      35.564  33.188  31.957  1.00  0.00     0.054 A 
BRANCH  90  91
ATOM     91  S   UNL A   1      34.174  34.293  32.337  1.00  0.00     0.124 S 
ATOM     92  O   UNL A   1      33.628  34.571  31.012  1.00  0.00    -0.237 OA
ATOM     93  O   UNL A   1      33.339  33.468  33.205  1.00  0.00    -0.237 OA
ATOM     94  O   UNL A   1      34.810  35.433  32.997  1.00  0.00    -0.744 OA
ENDBRANCH  90  91
ENDBRANCH  62  85
BRANCH  74  95
ATOM     95  C   UNL A   1      43.183  29.061  33.947  1.00  0.00    -0.014 A 
ATOM     96  C   UNL A   1      42.726  27.761  33.652  1.00  0.00     0.010 A 
ATOM     97  C   UNL A   1      43.564  29.352  35.268  1.00  0.00     0.010 A 
ATOM     98  C   UNL A   1      42.637  26.784  34.655  1.00  0.00     0.020 A 
ATOM     99  C   UNL A   1      43.493  28.378  36.271  1.00  0.00     0.020 A 
ATOM    100  C   UNL A   1      43.025  27.101  35.960  1.00  0.00     0.054 A 
BRANCH 100 101
ATOM    101  S   UNL A   1      42.974  25.813  37.240  1.00  0.00     0.124 S 
ATOM    102  O   UNL A   1      43.994  24.873  36.786  1.00  0.00    -0.237 OA
ATOM    103  O   UNL A   1      43.299  26.553  38.458  1.00  0.00    -0.237 OA
ATOM    104  O   UNL A   1      41.601  25.314  37.178  1.00  0.00    -0.744 OA
ENDBRANCH 100 101
ENDBRANCH  74  95
ENDBRANCH  48  49
ENDBRANCH  41  43
ENDBRANCH  40  41
ENDBRANCH  39  40
ENDBRANCH  38  39
ENDBRANCH  37  38
ENDBRANCH  36  37
ENDBRANCH  35  36
ENDBRANCH  34  35
ENDBRANCH   1  34
TORSDOF 27
ENDMDL
MODEL 2
REMARK VINA RESULT:     -10.0      3.809      8.025
REMARK SMILES Cc1nn(-c2ccccc2)c(C)c1CNC(=O)[C@@H]1[C@@H](C(=O)OCCOCCOCCOCCOC(=O)c2ccc(-c3c4nc(c(-c5ccc(S(=O)(=O)[O-])cc5)c5ccc([nH]5)c(-c5ccc(S(=O)(=O)[O-])cc5)c5nc(c(-c6ccc(S(=O)(=O)[O-])cc6)c6ccc3[nH]6)C=C5)C=C4)cc2)[C@@H]2C=C[C@H]1C2
REMARK SMILES IDX 27 1 26 2 25 3 24 4 23 5 22 6 20 7 21 8 19 9 18 10 100 11
REMARK SMILES IDX 97 12 99 13 101 14 98 15 16 16 15 17 17 19 14 20 13 21 1 22
REMARK SMILES IDX 2 23 3 24 4 25 11 26 12 27 5 28 6 29 10 30 7 31 9 32 8 33
REMARK SMILES IDX 28 34 29 35 30 36 31 37 32 38 33 39 34 40 35 41 36 42 37 43
REMARK SMILES IDX 38 44 96 45 39 46 95 47 40 48 41 49 42 50 89 51 43 52 94 53
REMARK SMILES IDX 88 54 90 55 44 56 93 57 87 58 86 59 45 61 75 62 56 63 74 64
REMARK SMILES IDX 57 65 60 66 73 67 91 68 58 69 59 70 72 72 92 73 61 74 46 75
REMARK SMILES IDX 47 76 55 77 48 78 54 79 49 80 50 81 51 82 52 83 53 84 76 85
REMARK SMILES IDX 77 86 85 87 78 88 84 89 79 90 80 91 81 92 82 93 83 94 62 95
REMARK SMILES IDX 63 96 71 97 64 98 70 99 65 100 66 101 67 102 68 103 69 104
REMARK H PARENT 15 18 90 60 60 71
REMARK Flexibility Score: inf
ROOT
ATOM      1  C   UNL A   1      31.768  28.842  22.816  1.00  0.00     0.188 C 
ENDROOT
BRANCH   1   2
ATOM      2  C   UNL A   1      33.286  28.924  22.767  1.00  0.00     0.188 C 
BRANCH   2   3
ATOM      3  O   UNL A   1      33.924  27.917  21.987  1.00  0.00    -0.376 OA
BRANCH   3   4
ATOM      4  C   UNL A   1      33.265  26.655  21.880  1.00  0.00     0.202 C 
BRANCH   4   5
ATOM      5  C   UNL A   1      33.568  25.621  22.975  1.00  0.00     0.261 C 
BRANCH   5   6
ATOM      6  O   UNL A   1      34.288  24.433  22.551  1.00  0.00    -0.463 OA
BRANCH   6   7
ATOM      7  C   UNL A   1      33.640  23.247  22.671  1.00  0.00     0.310 C 
ATOM      8  O   UNL A   1      33.020  22.714  21.754  1.00  0.00    -0.252 OA
BRANCH   7   9
ATOM      9  C   UNL A   1      33.688  22.610  24.046  1.00  0.00     0.119 C 
ATOM     10  C   UNL A   1      35.070  22.138  24.599  1.00  0.00     0.100 C 
ATOM     11  C   UNL A   1      34.695  20.796  25.288  1.00  0.00     0.025 C 
ATOM     12  C   UNL A   1      32.811  21.340  24.196  1.00  0.00     0.027 C 
ATOM     13  C   UNL A   1      33.598  20.975  26.323  1.00  0.00    -0.027 C 
ATOM     14  C   UNL A   1      33.828  20.189  24.183  1.00  0.00     0.017 C 
ATOM     15  C   UNL A   1      32.462  21.269  25.667  1.00  0.00    -0.027 C 
BRANCH  10  16
ATOM     16  C   UNL A   1      35.690  23.134  25.571  1.00  0.00     0.224 C 
ATOM     17  N   UNL A   1      36.952  22.930  26.049  1.00  0.00    -0.352 N 
ATOM     18  H   UNL A   1      37.288  23.641  26.641  1.00  0.00     0.163 HD
ATOM     19  O   UNL A   1      35.116  24.166  25.920  1.00  0.00    -0.275 OA
BRANCH  17  20
ATOM     20  C   UNL A   1      37.878  21.842  25.829  1.00  0.00     0.155 C 
BRANCH  20  21
ATOM     21  C   UNL A   1      39.276  22.196  26.238  1.00  0.00     0.016 A 
ATOM     22  C   UNL A   1      40.331  19.804  26.164  1.00  0.00     0.069 C 
ATOM     23  C   UNL A   1      40.371  21.287  26.280  1.00  0.00     0.065 A 
ATOM     24  N   UNL A   1      41.541  21.913  26.434  1.00  0.00    -0.173 NA
ATOM     25  N   UNL A   1      41.221  23.206  26.663  1.00  0.00    -0.237 N 
ATOM     26  C   UNL A   1      39.846  23.408  26.615  1.00  0.00     0.046 A 
ATOM     27  C   UNL A   1      39.225  24.736  26.828  1.00  0.00     0.067 C 
BRANCH  25  28
ATOM     28  C   UNL A   1      42.241  24.193  26.786  1.00  0.00     0.065 A 
ATOM     29  C   UNL A   1      42.664  24.582  28.063  1.00  0.00     0.028 A 
ATOM     30  C   UNL A   1      42.901  24.694  25.656  1.00  0.00     0.028 A 
ATOM     31  C   UNL A   1      43.805  25.377  28.200  1.00  0.00     0.002 A 
ATOM     32  C   UNL A   1      44.034  25.493  25.799  1.00  0.00     0.002 A 
ATOM     33  C   UNL A   1      44.498  25.816  27.071  1.00  0.00     0.000 A 
ENDBRANCH  25  28
ENDBRANCH  20  21
ENDBRANCH  17  20
ENDBRANCH  10  16
ENDBRANCH   7   9
ENDBRANCH   6   7
ENDBRANCH   5   6
ENDBRANCH   4   5
ENDBRANCH   3   4
ENDBRANCH   2   3
ENDBRANCH   1   2
BRANCH   1  34
ATOM     34  O   UNL A   1      31.286  28.696  24.148  1.00  0.00    -0.377 OA
BRANCH  34  35
ATOM     35  C   UNL A   1      32.207  28.381  25.193  1.00  0.00     0.188 C 
BRANCH  35  36
ATOM     36  C   UNL A   1      32.184  29.281  26.425  1.00  0.00     0.188 C 
BRANCH  36  37
ATOM     37  O   UNL A   1      31.979  30.685  26.197  1.00  0.00    -0.376 OA
BRANCH  37  38
ATOM     38  C   UNL A   1      32.320  31.638  27.209  1.00  0.00     0.202 C 
BRANCH  38  39
ATOM     39  C   UNL A   1      33.780  31.625  27.619  1.00  0.00     0.261 C 
BRANCH  39  40
ATOM     40  O   UNL A   1      33.873  32.283  28.870  1.00  0.00    -0.460 OA
BRANCH  40  41
ATOM     41  C   UNL A   1      35.142  32.446  29.311  1.00  0.00     0.338 C 
ATOM     42  O   UNL A   1      36.116  32.760  28.655  1.00  0.00    -0.246 OA
BRANCH  41  43
ATOM     43  C   UNL A   1      35.171  32.132  30.760  1.00  0.00     0.060 A 
ATOM     44  C   UNL A   1      35.184  33.301  31.512  1.00  0.00     0.016 A 
ATOM     45  C   UNL A   1      35.906  30.995  31.126  1.00  0.00     0.016 A 
ATOM     46  C   UNL A   1      36.330  33.528  32.224  1.00  0.00     0.010 A 
ATOM     47  C   UNL A   1      37.062  31.223  31.819  1.00  0.00     0.010 A 
ATOM     48  C   UNL A   1      37.307  32.527  32.235  1.00  0.00    -0.014 A 
BRANCH  48  49
ATOM     49  C   UNL A   1      38.596  32.888  32.757  1.00  0.00     0.031 A 
ATOM     50  C   UNL A   1      39.513  33.299  31.691  1.00  0.00     0.074 A 
ATOM     51  C   UNL A   1      38.895  32.901  34.064  1.00  0.00     0.049 A 
ATOM     52  N   UNL A   1      40.452  32.599  31.151  1.00  0.00    -0.248 NA
ATOM     53  C   UNL A   1      39.171  34.539  30.981  1.00  0.00     0.031 C 
ATOM     54  C   UNL A   1      37.996  32.814  35.217  1.00  0.00     0.029 A 
ATOM     55  N   UNL A   1      40.108  33.118  34.625  1.00  0.00    -0.354 N 
ATOM     56  C   UNL A   1      40.974  33.421  30.168  1.00  0.00     0.074 A 
ATOM     57  C   UNL A   1      39.996  34.457  29.940  1.00  0.00     0.031 C 
ATOM     58  C   UNL A   1      38.670  33.214  36.323  1.00  0.00     0.029 A 
ATOM     59  C   UNL A   1      40.062  33.452  35.967  1.00  0.00     0.049 A 
ATOM     60  H   UNL A   1      40.952  33.045  34.122  1.00  0.00     0.167 HD
ATOM     61  C   UNL A   1      42.294  33.387  29.845  1.00  0.00     0.031 A 
ATOM     62  C   UNL A   1      41.083  33.989  36.677  1.00  0.00     0.031 A 
ATOM     63  C   UNL A   1      42.942  32.200  30.339  1.00  0.00     0.049 A 
ATOM     64  C   UNL A   1      42.342  33.694  35.939  1.00  0.00     0.074 A 
ATOM     65  C   UNL A   1      42.764  30.843  30.149  1.00  0.00     0.029 A 
ATOM     66  N   UNL A   1      43.692  32.329  31.488  1.00  0.00    -0.354 N 
ATOM     67  N   UNL A   1      42.812  32.488  35.772  1.00  0.00    -0.248 NA
ATOM     68  C   UNL A   1      42.850  34.683  34.999  1.00  0.00     0.031 C 
ATOM     69  C   UNL A   1      43.041  30.247  31.413  1.00  0.00     0.029 A 
ATOM     70  C   UNL A   1      43.408  31.261  32.301  1.00  0.00     0.049 A 
ATOM     71  H   UNL A   1      44.321  33.059  31.689  1.00  0.00     0.167 HD
ATOM     72  C   UNL A   1      43.336  32.472  34.486  1.00  0.00     0.074 A 
ATOM     73  C   UNL A   1      43.434  33.878  34.105  1.00  0.00     0.031 C 
ATOM     74  C   UNL A   1      43.377  31.320  33.751  1.00  0.00     0.031 A 
BRANCH  61  75
ATOM     75  C   UNL A   1      43.050  34.639  29.483  1.00  0.00    -0.014 A 
ATOM     76  C   UNL A   1      43.353  35.565  30.494  1.00  0.00     0.010 A 
ATOM     77  C   UNL A   1      43.233  35.064  28.148  1.00  0.00     0.010 A 
ATOM     78  C   UNL A   1      43.748  36.872  30.178  1.00  0.00     0.020 A 
ATOM     79  C   UNL A   1      43.676  36.340  27.822  1.00  0.00     0.020 A 
ATOM     80  C   UNL A   1      43.889  37.252  28.841  1.00  0.00     0.054 A 
BRANCH  80  81
ATOM     81  S   UNL A   1      44.255  38.972  28.434  1.00  0.00     0.124 S 
ATOM     82  O   UNL A   1      45.604  39.122  28.970  1.00  0.00    -0.237 OA
ATOM     83  O   UNL A   1      44.142  38.976  26.979  1.00  0.00    -0.237 OA
ATOM     84  O   UNL A   1      43.214  39.718  29.138  1.00  0.00    -0.744 OA
ENDBRANCH  80  81
ENDBRANCH  61  75
BRANCH  62  85
ATOM     85  C   UNL A   1      40.973  35.036  37.722  1.00  0.00    -0.014 A 
ATOM     86  C   UNL A   1      40.047  36.087  37.608  1.00  0.00     0.010 A 
ATOM     87  C   UNL A   1      41.611  34.857  38.968  1.00  0.00     0.010 A 
ATOM     88  C   UNL A   1      39.737  36.898  38.714  1.00  0.00     0.020 A 
ATOM     89  C   UNL A   1      41.316  35.666  40.070  1.00  0.00     0.020 A 
ATOM     90  C   UNL A   1      40.364  36.672  39.942  1.00  0.00     0.054 A 
BRANCH  90  91
ATOM     91  S   UNL A   1      39.847  37.617  41.404  1.00  0.00     0.124 S 
ATOM     92  O   UNL A   1      39.098  38.721  40.810  1.00  0.00    -0.237 OA
ATOM     93  O   UNL A   1      39.056  36.643  42.149  1.00  0.00    -0.237 OA
ATOM     94  O   UNL A   1      41.112  37.996  42.034  1.00  0.00    -0.744 OA
ENDBRANCH  90  91
ENDBRANCH  62  85
BRANCH  74  95
ATOM     95  C   UNL A   1      43.103  30.014  34.467  1.00  0.00    -0.014 A 
ATOM     96  C   UNL A   1      44.126  29.175  34.954  1.00  0.00     0.010 A 
ATOM     97  C   UNL A   1      41.772  29.707  34.797  1.00  0.00     0.010 A 
ATOM     98  C   UNL A   1      43.822  28.050  35.736  1.00  0.00     0.020 A 
ATOM     99  C   UNL A   1      41.463  28.595  35.590  1.00  0.00     0.020 A 
ATOM    100  C   UNL A   1      42.490  27.770  36.050  1.00  0.00     0.054 A 
BRANCH 100 101
ATOM    101  S   UNL A   1      42.108  26.352  37.120  1.00  0.00     0.124 S 
ATOM    102  O   UNL A   1      43.130  26.453  38.158  1.00  0.00    -0.237 OA
ATOM    103  O   UNL A   1      40.740  26.632  37.555  1.00  0.00    -0.237 OA
ATOM    104  O   UNL A   1      42.240  25.199  36.231  1.00  0.00    -0.744 OA
ENDBRANCH 100 101
ENDBRANCH  74  95
ENDBRANCH  48  49
ENDBRANCH  41  43
ENDBRANCH  40  41
ENDBRANCH  39  40
ENDBRANCH  38  39
ENDBRANCH  37  38
ENDBRANCH  36  37
ENDBRANCH  35  36
ENDBRANCH  34  35
ENDBRANCH   1  34
TORSDOF 27
ENDMDL
MODEL 3
REMARK VINA RESULT:      -9.7      3.697     10.244
REMARK SMILES Cc1nn(-c2ccccc2)c(C)c1CNC(=O)[C@@H]1[C@@H](C(=O)OCCOCCOCCOCCOC(=O)c2ccc(-c3c4nc(c(-c5ccc(S(=O)(=O)[O-])cc5)c5ccc([nH]5)c(-c5ccc(S(=O)(=O)[O-])cc5)c5nc(c(-c6ccc(S(=O)(=O)[O-])cc6)c6ccc3[nH]6)C=C5)C=C4)cc2)[C@@H]2C=C[C@H]1C2
REMARK SMILES IDX 27 1 26 2 25 3 24 4 23 5 22 6 20 7 21 8 19 9 18 10 100 11
REMARK SMILES IDX 97 12 99 13 101 14 98 15 16 16 15 17 17 19 14 20 13 21 1 22
REMARK SMILES IDX 2 23 3 24 4 25 11 26 12 27 5 28 6 29 10 30 7 31 9 32 8 33
REMARK SMILES IDX 28 34 29 35 30 36 31 37 32 38 33 39 34 40 35 41 36 42 37 43
REMARK SMILES IDX 38 44 96 45 39 46 95 47 40 48 41 49 42 50 89 51 43 52 94 53
REMARK SMILES IDX 88 54 90 55 44 56 93 57 87 58 86 59 45 61 75 62 56 63 74 64
REMARK SMILES IDX 57 65 60 66 73 67 91 68 58 69 59 70 72 72 92 73 61 74 46 75
REMARK SMILES IDX 47 76 55 77 48 78 54 79 49 80 50 81 51 82 52 83 53 84 76 85
REMARK SMILES IDX 77 86 85 87 78 88 84 89 79 90 80 91 81 92 82 93 83 94 62 95
REMARK SMILES IDX 63 96 71 97 64 98 70 99 65 100 66 101 67 102 68 103 69 104
REMARK H PARENT 15 18 90 60 60 71
REMARK Flexibility Score: inf
ROOT
ATOM      1  C   UNL A   1      31.936  28.897  23.005  1.00  0.00     0.188 C 
ENDROOT
BRANCH   1   2
ATOM      2  C   UNL A   1      33.455  28.851  22.937  1.00  0.00     0.188 C 
BRANCH   2   3
ATOM      3  O   UNL A   1      33.994  27.868  22.057  1.00  0.00    -0.376 OA
BRANCH   3   4
ATOM      4  C   UNL A   1      33.342  26.599  22.014  1.00  0.00     0.202 C 
BRANCH   4   5
ATOM      5  C   UNL A   1      33.735  25.582  23.096  1.00  0.00     0.261 C 
BRANCH   5   6
ATOM      6  O   UNL A   1      34.421  24.388  22.634  1.00  0.00    -0.463 OA
BRANCH   6   7
ATOM      7  C   UNL A   1      33.735  23.220  22.706  1.00  0.00     0.310 C 
ATOM      8  O   UNL A   1      33.153  22.712  21.751  1.00  0.00    -0.252 OA
BRANCH   7   9
ATOM      9  C   UNL A   1      33.688  22.570  24.075  1.00  0.00     0.119 C 
ATOM     10  C   UNL A   1      35.013  21.999  24.673  1.00  0.00     0.100 C 
ATOM     11  C   UNL A   1      34.520  20.682  25.335  1.00  0.00     0.025 C 
ATOM     12  C   UNL A   1      32.721  21.363  24.181  1.00  0.00     0.027 C 
ATOM     13  C   UNL A   1      33.401  20.929  26.331  1.00  0.00    -0.027 C 
ATOM     14  C   UNL A   1      33.655  20.145  24.193  1.00  0.00     0.017 C 
ATOM     15  C   UNL A   1      32.314  21.306  25.638  1.00  0.00    -0.027 C 
BRANCH  10  16
ATOM     16  C   UNL A   1      35.664  22.943  25.677  1.00  0.00     0.224 C 
ATOM     17  N   UNL A   1      37.000  22.847  25.940  1.00  0.00    -0.352 N 
ATOM     18  H   UNL A   1      37.343  23.520  26.572  1.00  0.00     0.163 HD
ATOM     19  O   UNL A   1      35.041  23.843  26.243  1.00  0.00    -0.275 OA
BRANCH  17  20
ATOM     20  C   UNL A   1      37.993  21.923  25.443  1.00  0.00     0.155 C 
BRANCH  20  21
ATOM     21  C   UNL A   1      39.265  21.977  26.237  1.00  0.00     0.016 A 
ATOM     22  C   UNL A   1      40.075  19.520  25.859  1.00  0.00     0.069 C 
ATOM     23  C   UNL A   1      40.222  20.926  26.320  1.00  0.00     0.065 A 
ATOM     24  N   UNL A   1      41.364  21.329  26.882  1.00  0.00    -0.173 NA
ATOM     25  N   UNL A   1      41.119  22.583  27.323  1.00  0.00    -0.237 N 
ATOM     26  C   UNL A   1      39.828  22.991  27.005  1.00  0.00     0.046 A 
ATOM     27  C   UNL A   1      39.300  24.327  27.369  1.00  0.00     0.067 C 
BRANCH  25  28
ATOM     28  C   UNL A   1      42.159  23.363  27.904  1.00  0.00     0.065 A 
ATOM     29  C   UNL A   1      42.624  24.494  27.224  1.00  0.00     0.028 A 
ATOM     30  C   UNL A   1      42.643  23.080  29.189  1.00  0.00     0.028 A 
ATOM     31  C   UNL A   1      43.480  25.388  27.875  1.00  0.00     0.002 A 
ATOM     32  C   UNL A   1      43.502  23.971  29.830  1.00  0.00     0.002 A 
ATOM     33  C   UNL A   1      43.903  25.135  29.180  1.00  0.00     0.000 A 
ENDBRANCH  25  28
ENDBRANCH  20  21
ENDBRANCH  17  20
ENDBRANCH  10  16
ENDBRANCH   7   9
ENDBRANCH   6   7
ENDBRANCH   5   6
ENDBRANCH   4   5
ENDBRANCH   3   4
ENDBRANCH   2   3
ENDBRANCH   1   2
BRANCH   1  34
ATOM     34  O   UNL A   1      31.445  28.423  24.255  1.00  0.00    -0.377 OA
BRANCH  34  35
ATOM     35  C   UNL A   1      32.365  28.185  25.322  1.00  0.00     0.188 C 
BRANCH  35  36
ATOM     36  C   UNL A   1      32.263  29.102  26.536  1.00  0.00     0.188 C 
BRANCH  36  37
ATOM     37  O   UNL A   1      32.119  30.508  26.274  1.00  0.00    -0.376 OA
BRANCH  37  38
ATOM     38  C   UNL A   1      32.583  31.471  27.225  1.00  0.00     0.202 C 
BRANCH  38  39
ATOM     39  C   UNL A   1      34.010  31.257  27.692  1.00  0.00     0.261 C 
BRANCH  39  40
ATOM     40  O   UNL A   1      34.340  32.335  28.549  1.00  0.00    -0.460 OA
BRANCH  40  41
ATOM     41  C   UNL A   1      35.540  32.202  29.160  1.00  0.00     0.338 C 
ATOM     42  O   UNL A   1      36.526  31.633  28.735  1.00  0.00    -0.246 OA
BRANCH  41  43
ATOM     43  C   UNL A   1      35.452  32.845  30.494  1.00  0.00     0.060 A 
ATOM     44  C   UNL A   1      36.332  33.918  30.578  1.00  0.00     0.016 A 
ATOM     45  C   UNL A   1      35.213  31.984  31.575  1.00  0.00     0.016 A 
ATOM     46  C   UNL A   1      37.362  33.765  31.465  1.00  0.00     0.010 A 
ATOM     47  C   UNL A   1      36.251  31.814  32.450  1.00  0.00     0.010 A 
ATOM     48  C   UNL A   1      37.364  32.629  32.282  1.00  0.00    -0.014 A 
BRANCH  48  49
ATOM     49  C   UNL A   1      38.575  32.354  33.003  1.00  0.00     0.031 A 
ATOM     50  C   UNL A   1      38.587  33.019  34.309  1.00  0.00     0.074 A 
ATOM     51  C   UNL A   1      39.544  31.542  32.555  1.00  0.00     0.049 A 
ATOM     52  N   UNL A   1      39.199  34.106  34.630  1.00  0.00    -0.248 NA
ATOM     53  C   UNL A   1      37.598  32.546  35.288  1.00  0.00     0.031 C 
ATOM     54  C   UNL A   1      39.512  30.600  31.434  1.00  0.00     0.029 A 
ATOM     55  N   UNL A   1      40.756  31.323  33.118  1.00  0.00    -0.354 N 
ATOM     56  C   UNL A   1      38.841  34.328  35.949  1.00  0.00     0.074 A 
ATOM     57  C   UNL A   1      37.679  33.513  36.199  1.00  0.00     0.031 C 
ATOM     58  C   UNL A   1      40.561  29.750  31.554  1.00  0.00     0.029 A 
ATOM     59  C   UNL A   1      41.390  30.177  32.672  1.00  0.00     0.049 A 
ATOM     60  H   UNL A   1      41.152  31.927  33.788  1.00  0.00     0.167 HD
ATOM     61  C   UNL A   1      39.703  34.905  36.828  1.00  0.00     0.031 A 
ATOM     62  C   UNL A   1      42.453  29.586  33.270  1.00  0.00     0.031 A 
ATOM     63  C   UNL A   1      40.798  35.563  36.162  1.00  0.00     0.049 A 
ATOM     64  C   UNL A   1      43.099  30.608  34.139  1.00  0.00     0.074 A 
ATOM     65  C   UNL A   1      40.901  36.589  35.243  1.00  0.00     0.029 A 
ATOM     66  N   UNL A   1      41.999  34.892  36.122  1.00  0.00    -0.354 N 
ATOM     67  N   UNL A   1      43.685  31.678  33.676  1.00  0.00    -0.248 NA
ATOM     68  C   UNL A   1      42.712  30.680  35.541  1.00  0.00     0.031 C 
ATOM     69  C   UNL A   1      41.986  36.224  34.393  1.00  0.00     0.029 A 
ATOM     70  C   UNL A   1      42.512  35.015  34.855  1.00  0.00     0.049 A 
ATOM     71  H   UNL A   1      42.418  34.409  36.871  1.00  0.00     0.167 HD
ATOM     72  C   UNL A   1      43.375  32.687  34.580  1.00  0.00     0.074 A 
ATOM     73  C   UNL A   1      42.873  31.990  35.760  1.00  0.00     0.031 C 
ATOM     74  C   UNL A   1      43.290  33.992  34.182  1.00  0.00     0.031 A 
BRANCH  61  75
ATOM     75  C   UNL A   1      39.768  34.470  38.269  1.00  0.00    -0.014 A 
ATOM     76  C   UNL A   1      40.556  33.357  38.607  1.00  0.00     0.010 A 
ATOM     77  C   UNL A   1      38.873  34.946  39.254  1.00  0.00     0.010 A 
ATOM     78  C   UNL A   1      40.399  32.714  39.842  1.00  0.00     0.020 A 
ATOM     79  C   UNL A   1      38.747  34.348  40.502  1.00  0.00     0.020 A 
ATOM     80  C   UNL A   1      39.481  33.207  40.772  1.00  0.00     0.054 A 
BRANCH  80  81
ATOM     81  S   UNL A   1      39.175  32.293  42.299  1.00  0.00     0.124 S 
ATOM     82  O   UNL A   1      37.732  32.446  42.451  1.00  0.00    -0.237 OA
ATOM     83  O   UNL A   1      39.644  30.955  41.957  1.00  0.00    -0.237 OA
ATOM     84  O   UNL A   1      39.987  33.001  43.287  1.00  0.00    -0.744 OA
ENDBRANCH  80  81
ENDBRANCH  61  75
BRANCH  62  85
ATOM     85  C   UNL A   1      42.685  28.128  33.409  1.00  0.00    -0.014 A 
ATOM     86  C   UNL A   1      43.644  27.463  32.626  1.00  0.00     0.010 A 
ATOM     87  C   UNL A   1      42.135  27.429  34.505  1.00  0.00     0.010 A 
ATOM     88  C   UNL A   1      44.070  26.164  32.956  1.00  0.00     0.020 A 
ATOM     89  C   UNL A   1      42.545  26.133  34.834  1.00  0.00     0.020 A 
ATOM     90  C   UNL A   1      43.527  25.514  34.067  1.00  0.00     0.054 A 
BRANCH  90  91
ATOM     91  S   UNL A   1      44.190  23.903  34.580  1.00  0.00     0.124 S 
ATOM     92  O   UNL A   1      43.168  23.429  35.509  1.00  0.00    -0.237 OA
ATOM     93  O   UNL A   1      44.282  23.179  33.316  1.00  0.00    -0.237 OA
ATOM     94  O   UNL A   1      45.476  24.238  35.193  1.00  0.00    -0.744 OA
ENDBRANCH  90  91
ENDBRANCH  62  85
BRANCH  74  95
ATOM     95  C   UNL A   1      43.817  34.349  32.808  1.00  0.00    -0.014 A 
ATOM     96  C   UNL A   1      42.990  34.465  31.673  1.00  0.00     0.010 A 
ATOM     97  C   UNL A   1      45.164  34.735  32.696  1.00  0.00     0.010 A 
ATOM     98  C   UNL A   1      43.501  34.938  30.455  1.00  0.00     0.020 A 
ATOM     99  C   UNL A   1      45.677  35.222  31.488  1.00  0.00     0.020 A 
ATOM    100  C   UNL A   1      44.844  35.316  30.372  1.00  0.00     0.054 A 
BRANCH 100 101
ATOM    101  S   UNL A   1      45.483  35.993  28.812  1.00  0.00     0.124 S 
ATOM    102  O   UNL A   1      45.157  37.411  28.924  1.00  0.00    -0.237 OA
ATOM    103  O   UNL A   1      46.907  35.667  28.877  1.00  0.00    -0.237 OA
ATOM    104  O   UNL A   1      44.738  35.265  27.786  1.00  0.00    -0.744 OA
ENDBRANCH 100 101
ENDBRANCH  74  95
ENDBRANCH  48  49
ENDBRANCH  41  43
ENDBRANCH  40  41
ENDBRANCH  39  40
ENDBRANCH  38  39
ENDBRANCH  37  38
ENDBRANCH  36  37
ENDBRANCH  35  36
ENDBRANCH  34  35
ENDBRANCH   1  34
TORSDOF 27
ENDMDL
