MODEL 1
REMARK VINA RESULT:     -10.2      0.000      0.000
REMARK SMILES Cc1ccc(-c2cc(Cl)cc3c2O[C@H](C(F)(F)F)C(C(=O)OCCOCCOCCOCCOC(=O)c2ccc(-c4c5nc(c(-c6ccc(S(=O)(=O)[O-])cc6)c6ccc([nH]6)c(-c6ccc(S(=O)(=O)[O-])cc6)c6nc(c(-c7ccc(S(=O)(=O)[O-])cc7)c7ccc4[nH]7)C=C6)C=C5)cc2)=C3)cc1F
REMARK SMILES IDX 29 1 28 2 27 3 26 4 25 5 24 6 23 7 22 8 20 9 21 10 19 11
REMARK SMILES IDX 6 12 7 13 12 14 8 15 11 16 13 17 9 18 10 19 97 20 14 21 5 22
REMARK SMILES IDX 1 23 2 24 3 25 99 26 4 27 98 28 100 29 15 30 16 31 17 32
REMARK SMILES IDX 18 33 30 34 31 35 32 36 33 37 34 38 35 39 36 40 37 41 38 42
REMARK SMILES IDX 96 43 39 44 95 45 40 46 41 47 42 48 89 49 43 50 94 51 88 52
REMARK SMILES IDX 90 53 44 54 93 55 87 56 86 57 45 59 75 60 56 61 74 62 57 63
REMARK SMILES IDX 60 64 73 65 91 66 58 67 59 68 72 70 92 71 61 72 46 73 47 74
REMARK SMILES IDX 55 75 48 76 54 77 49 78 50 79 51 80 52 81 53 82 76 83 77 84
REMARK SMILES IDX 85 85 78 86 84 87 79 88 80 89 81 90 82 91 83 92 62 93 63 94
REMARK SMILES IDX 71 95 64 96 70 97 65 98 66 99 67 100 68 101 69 102
REMARK H PARENT 90 58 60 69
REMARK Flexibility Score: inf
ROOT
ATOM      1  C   UNL A   1      32.700  31.362  26.819  1.00  0.00     0.188 C 
ENDROOT
BRANCH   1   2
ATOM      2  O   UNL A   1      32.646  29.991  27.218  1.00  0.00    -0.377 OA
BRANCH   2   3
ATOM      3  C   UNL A   1      31.758  29.141  26.512  1.00  0.00     0.188 C 
BRANCH   3   4
ATOM      4  C   UNL A   1      31.615  29.537  25.031  1.00  0.00     0.188 C 
BRANCH   4   5
ATOM      5  O   UNL A   1      31.070  28.497  24.226  1.00  0.00    -0.376 OA
BRANCH   5   6
ATOM      6  C   UNL A   1      31.473  28.427  22.863  1.00  0.00     0.202 C 
BRANCH   6   7
ATOM      7  C   UNL A   1      31.033  27.219  22.019  1.00  0.00     0.261 C 
BRANCH   7   8
ATOM      8  O   UNL A   1      31.708  25.984  22.302  1.00  0.00    -0.460 OA
BRANCH   8   9
ATOM      9  C   UNL A   1      31.241  25.216  23.302  1.00  0.00     0.338 C 
ATOM     10  O   UNL A   1      30.102  25.181  23.732  1.00  0.00    -0.246 OA
BRANCH   9  11
ATOM     11  C   UNL A   1      32.315  24.266  23.675  1.00  0.00     0.087 C 
ATOM     12  C   UNL A   1      35.305  21.586  24.892  1.00  0.00     0.026 A 
ATOM     13  C   UNL A   1      34.991  20.217  24.943  1.00  0.00     0.033 A 
ATOM     14  C   UNL A   1      34.322  22.475  24.396  1.00  0.00     0.135 A 
ATOM     15  C   UNL A   1      33.743  19.755  24.528  1.00  0.00     0.042 A 
ATOM     16  C   UNL A   1      33.048  22.014  24.043  1.00  0.00     0.019 A 
ATOM     17  O   UNL A   1      34.686  23.788  24.266  1.00  0.00    -0.475 OA
ATOM     18  Cl  UNL A   1      33.387  18.072  24.602  1.00  0.00    -0.084 Cl
ATOM     19  C   UNL A   1      32.769  20.646  24.087  1.00  0.00     0.032 A 
ATOM     20  C   UNL A   1      32.004  22.964  23.689  1.00  0.00     0.027 C 
ATOM     21  C   UNL A   1      33.701  24.797  23.930  1.00  0.00     0.316 C 
BRANCH  12  22
ATOM     22  C   UNL A   1      36.600  22.065  25.418  1.00  0.00    -0.012 A 
ATOM     23  C   UNL A   1      40.430  23.386  26.958  1.00  0.00     0.047 C 
ATOM     24  C   UNL A   1      39.103  22.956  26.413  1.00  0.00    -0.015 A 
ATOM     25  C   UNL A   1      38.001  23.816  26.393  1.00  0.00     0.007 A 
ATOM     26  C   UNL A   1      38.944  21.661  25.925  1.00  0.00     0.126 A 
ATOM     27  C   UNL A   1      36.765  23.375  25.901  1.00  0.00     0.009 A 
ATOM     28  C   UNL A   1      37.722  21.220  25.430  1.00  0.00     0.048 A 
ATOM     29  F   UNL A   1      39.985  20.818  25.922  1.00  0.00    -0.207 F 
ENDBRANCH  12  22
BRANCH  21  30
ATOM     30  C   UNL A   1      33.728  25.865  25.033  1.00  0.00     0.430 C 
ATOM     31  F   UNL A   1      32.594  25.833  25.770  1.00  0.00    -0.167 F 
ATOM     32  F   UNL A   1      34.762  25.694  25.884  1.00  0.00    -0.167 F 
ATOM     33  F   UNL A   1      33.836  27.108  24.506  1.00  0.00    -0.167 F 
ENDBRANCH  21  30
ENDBRANCH   9  11
ENDBRANCH   8   9
ENDBRANCH   7   8
ENDBRANCH   6   7
ENDBRANCH   5   6
ENDBRANCH   4   5
ENDBRANCH   3   4
ENDBRANCH   2   3
ENDBRANCH   1   2
BRANCH   1  34
ATOM     34  C   UNL A   1      31.556  32.345  27.154  1.00  0.00     0.188 C 
BRANCH  34  35
ATOM     35  O   UNL A   1      31.976  33.704  27.269  1.00  0.00    -0.376 OA
BRANCH  35  36
ATOM     36  C   UNL A   1      33.077  33.963  28.130  1.00  0.00     0.202 C 
BRANCH  36  37
ATOM     37  C   UNL A   1      32.930  35.240  28.964  1.00  0.00     0.261 C 
BRANCH  37  38
ATOM     38  O   UNL A   1      32.259  35.075  30.223  1.00  0.00    -0.460 OA
BRANCH  38  39
ATOM     39  C   UNL A   1      32.847  35.592  31.324  1.00  0.00     0.338 C 
ATOM     40  O   UNL A   1      32.390  36.438  32.072  1.00  0.00    -0.246 OA
BRANCH  39  41
ATOM     41  C   UNL A   1      34.067  34.798  31.587  1.00  0.00     0.060 A 
ATOM     42  C   UNL A   1      35.330  35.359  31.380  1.00  0.00     0.016 A 
ATOM     43  C   UNL A   1      33.941  33.469  32.008  1.00  0.00     0.016 A 
ATOM     44  C   UNL A   1      36.470  34.595  31.627  1.00  0.00     0.010 A 
ATOM     45  C   UNL A   1      35.085  32.704  32.249  1.00  0.00     0.010 A 
ATOM     46  C   UNL A   1      36.357  33.270  32.086  1.00  0.00    -0.014 A 
BRANCH  46  47
ATOM     47  C   UNL A   1      37.564  32.565  32.578  1.00  0.00     0.031 A 
ATOM     48  C   UNL A   1      38.361  31.641  31.708  1.00  0.00     0.074 A 
ATOM     49  C   UNL A   1      37.948  32.804  33.848  1.00  0.00     0.049 A 
ATOM     50  N   UNL A   1      39.492  31.042  31.982  1.00  0.00    -0.248 NA
ATOM     51  C   UNL A   1      37.833  31.349  30.366  1.00  0.00     0.031 C 
ATOM     52  C   UNL A   1      37.244  33.691  34.779  1.00  0.00     0.029 A 
ATOM     53  N   UNL A   1      39.025  32.353  34.568  1.00  0.00    -0.354 N 
ATOM     54  C   UNL A   1      39.832  30.328  30.840  1.00  0.00     0.074 A 
ATOM     55  C   UNL A   1      38.762  30.529  29.885  1.00  0.00     0.031 C 
ATOM     56  C   UNL A   1      37.930  33.753  35.929  1.00  0.00     0.029 A 
ATOM     57  C   UNL A   1      39.102  32.888  35.833  1.00  0.00     0.049 A 
ATOM     58  H   UNL A   1      39.680  31.710  34.214  1.00  0.00     0.167 HD
ATOM     59  C   UNL A   1      40.949  29.595  30.611  1.00  0.00     0.031 A 
ATOM     60  C   UNL A   1      40.018  32.717  36.807  1.00  0.00     0.031 A 
ATOM     61  C   UNL A   1      41.998  29.391  31.579  1.00  0.00     0.049 A 
ATOM     62  C   UNL A   1      41.208  31.837  36.545  1.00  0.00     0.074 A 
ATOM     63  C   UNL A   1      43.176  28.678  31.424  1.00  0.00     0.029 A 
ATOM     64  N   UNL A   1      42.006  29.890  32.873  1.00  0.00    -0.354 N 
ATOM     65  N   UNL A   1      41.540  31.217  35.439  1.00  0.00    -0.248 NA
ATOM     66  C   UNL A   1      42.152  31.644  37.654  1.00  0.00     0.031 C 
ATOM     67  C   UNL A   1      43.860  28.687  32.640  1.00  0.00     0.029 A 
ATOM     68  C   UNL A   1      43.150  29.473  33.534  1.00  0.00     0.049 A 
ATOM     69  H   UNL A   1      41.303  30.457  33.264  1.00  0.00     0.167 HD
ATOM     70  C   UNL A   1      42.748  30.583  35.710  1.00  0.00     0.074 A 
ATOM     71  C   UNL A   1      43.094  30.907  37.078  1.00  0.00     0.031 C 
ATOM     72  C   UNL A   1      43.497  29.803  34.895  1.00  0.00     0.031 A 
BRANCH  59  73
ATOM     73  C   UNL A   1      41.146  28.972  29.252  1.00  0.00    -0.014 A 
ATOM     74  C   UNL A   1      40.795  27.626  29.037  1.00  0.00     0.010 A 
ATOM     75  C   UNL A   1      41.864  29.658  28.257  1.00  0.00     0.010 A 
ATOM     76  C   UNL A   1      41.208  26.961  27.878  1.00  0.00     0.020 A 
ATOM     77  C   UNL A   1      42.257  29.003  27.085  1.00  0.00     0.020 A 
ATOM     78  C   UNL A   1      41.953  27.650  26.918  1.00  0.00     0.054 A 
BRANCH  78  79
ATOM     79  S   UNL A   1      42.556  26.745  25.465  1.00  0.00     0.124 S 
ATOM     80  O   UNL A   1      42.903  27.827  24.549  1.00  0.00    -0.237 OA
ATOM     81  O   UNL A   1      43.684  25.991  26.009  1.00  0.00    -0.237 OA
ATOM     82  O   UNL A   1      41.409  25.932  25.067  1.00  0.00    -0.744 OA
ENDBRANCH  78  79
ENDBRANCH  59  73
BRANCH  60  83
ATOM     83  C   UNL A   1      39.864  33.445  38.096  1.00  0.00    -0.014 A 
ATOM     84  C   UNL A   1      38.854  33.084  39.007  1.00  0.00     0.010 A 
ATOM     85  C   UNL A   1      40.695  34.539  38.395  1.00  0.00     0.010 A 
ATOM     86  C   UNL A   1      38.651  33.826  40.173  1.00  0.00     0.020 A 
ATOM     87  C   UNL A   1      40.517  35.264  39.578  1.00  0.00     0.020 A 
ATOM     88  C   UNL A   1      39.481  34.916  40.447  1.00  0.00     0.054 A 
BRANCH  88  89
ATOM     89  S   UNL A   1      39.193  35.872  41.962  1.00  0.00     0.124 S 
ATOM     90  O   UNL A   1      37.898  35.355  42.400  1.00  0.00    -0.237 OA
ATOM     91  O   UNL A   1      40.333  35.500  42.795  1.00  0.00    -0.237 OA
ATOM     92  O   UNL A   1      39.189  37.256  41.496  1.00  0.00    -0.744 OA
ENDBRANCH  88  89
ENDBRANCH  60  83
BRANCH  72  93
ATOM     93  C   UNL A   1      44.784  29.233  35.436  1.00  0.00    -0.014 A 
ATOM     94  C   UNL A   1      45.994  29.922  35.229  1.00  0.00     0.010 A 
ATOM     95  C   UNL A   1      44.817  27.958  36.027  1.00  0.00     0.010 A 
ATOM     96  C   UNL A   1      47.215  29.330  35.563  1.00  0.00     0.020 A 
ATOM     97  C   UNL A   1      46.034  27.375  36.391  1.00  0.00     0.020 A 
ATOM     98  C   UNL A   1      47.227  28.054  36.131  1.00  0.00     0.054 A 
BRANCH  98  99
ATOM     99  S   UNL A   1      48.823  27.281  36.514  1.00  0.00     0.124 S 
ATOM    100  O   UNL A   1      48.994  26.357  35.398  1.00  0.00    -0.237 OA
ATOM    101  O   UNL A   1      49.736  28.422  36.532  1.00  0.00    -0.237 OA
ATOM    102  O   UNL A   1      48.597  26.654  37.814  1.00  0.00    -0.744 OA
ENDBRANCH  98  99
ENDBRANCH  72  93
ENDBRANCH  46  47
ENDBRANCH  39  41
ENDBRANCH  38  39
ENDBRANCH  37  38
ENDBRANCH  36  37
ENDBRANCH  35  36
ENDBRANCH  34  35
ENDBRANCH   1  34
TORSDOF 25
ENDMDL
MODEL 2
REMARK VINA RESULT:     -10.1      1.736      2.772
REMARK SMILES Cc1ccc(-c2cc(Cl)cc3c2O[C@H](C(F)(F)F)C(C(=O)OCCOCCOCCOCCOC(=O)c2ccc(-c4c5nc(c(-c6ccc(S(=O)(=O)[O-])cc6)c6ccc([nH]6)c(-c6ccc(S(=O)(=O)[O-])cc6)c6nc(c(-c7ccc(S(=O)(=O)[O-])cc7)c7ccc4[nH]7)C=C6)C=C5)cc2)=C3)cc1F
REMARK SMILES IDX 29 1 28 2 27 3 26 4 25 5 24 6 23 7 22 8 20 9 21 10 19 11
REMARK SMILES IDX 6 12 7 13 12 14 8 15 11 16 13 17 9 18 10 19 97 20 14 21 5 22
REMARK SMILES IDX 1 23 2 24 3 25 99 26 4 27 98 28 100 29 15 30 16 31 17 32
REMARK SMILES IDX 18 33 30 34 31 35 32 36 33 37 34 38 35 39 36 40 37 41 38 42
REMARK SMILES IDX 96 43 39 44 95 45 40 46 41 47 42 48 89 49 43 50 94 51 88 52
REMARK SMILES IDX 90 53 44 54 93 55 87 56 86 57 45 59 75 60 56 61 74 62 57 63
REMARK SMILES IDX 60 64 73 65 91 66 58 67 59 68 72 70 92 71 61 72 46 73 47 74
REMARK SMILES IDX 55 75 48 76 54 77 49 78 50 79 51 80 52 81 53 82 76 83 77 84
REMARK SMILES IDX 85 85 78 86 84 87 79 88 80 89 81 90 82 91 83 92 62 93 63 94
REMARK SMILES IDX 71 95 64 96 70 97 65 98 66 99 67 100 68 101 69 102
REMARK H PARENT 90 58 60 69
REMARK Flexibility Score: inf
ROOT
ATOM      1  C   UNL A   1      33.836  32.253  27.815  1.00  0.00     0.188 C 
ENDROOT
BRANCH   1   2
ATOM      2  O   UNL A   1      33.916  30.845  28.040  1.00  0.00    -0.377 OA
BRANCH   2   3
ATOM      3  C   UNL A   1      33.038  30.015  27.298  1.00  0.00     0.188 C 
BRANCH   3   4
ATOM      4  C   UNL A   1      33.555  29.734  25.875  1.00  0.00     0.188 C 
BRANCH   4   5
ATOM      5  O   UNL A   1      32.509  29.495  24.939  1.00  0.00    -0.376 OA
BRANCH   5   6
ATOM      6  C   UNL A   1      32.870  29.201  23.594  1.00  0.00     0.202 C 
BRANCH   6   7
ATOM      7  C   UNL A   1      32.218  27.997  22.895  1.00  0.00     0.261 C 
BRANCH   7   8
ATOM      8  O   UNL A   1      32.739  26.710  23.259  1.00  0.00    -0.460 OA
BRANCH   8   9
ATOM      9  C   UNL A   1      32.208  26.085  24.324  1.00  0.00     0.338 C 
ATOM     10  O   UNL A   1      31.151  26.339  24.875  1.00  0.00    -0.246 OA
BRANCH   9  11
ATOM     11  C   UNL A   1      33.045  24.895  24.608  1.00  0.00     0.087 C 
ATOM     12  C   UNL A   1      35.468  21.532  25.252  1.00  0.00     0.026 A 
ATOM     13  C   UNL A   1      36.804  21.738  25.639  1.00  0.00     0.033 A 
ATOM     14  C   UNL A   1      34.632  22.666  25.123  1.00  0.00     0.135 A 
ATOM     15  C   UNL A   1      37.287  23.024  25.877  1.00  0.00     0.042 A 
ATOM     16  C   UNL A   1      35.140  23.958  25.298  1.00  0.00     0.019 A 
ATOM     17  O   UNL A   1      33.313  22.431  24.839  1.00  0.00    -0.475 OA
ATOM     18  Cl  UNL A   1      38.928  23.244  26.351  1.00  0.00    -0.084 Cl
ATOM     19  C   UNL A   1      36.466  24.133  25.700  1.00  0.00     0.032 A 
ATOM     20  C   UNL A   1      34.305  25.113  25.005  1.00  0.00     0.027 C 
ATOM     21  C   UNL A   1      32.420  23.527  24.522  1.00  0.00     0.316 C 
BRANCH  12  22
ATOM     22  C   UNL A   1      34.999  20.170  24.920  1.00  0.00    -0.012 A 
ATOM     23  C   UNL A   1      33.537  16.205  23.956  1.00  0.00     0.047 C 
ATOM     24  C   UNL A   1      34.066  17.570  24.272  1.00  0.00    -0.015 A 
ATOM     25  C   UNL A   1      35.425  17.797  24.511  1.00  0.00     0.007 A 
ATOM     26  C   UNL A   1      33.188  18.649  24.350  1.00  0.00     0.126 A 
ATOM     27  C   UNL A   1      35.885  19.082  24.831  1.00  0.00     0.009 A 
ATOM     28  C   UNL A   1      33.640  19.927  24.660  1.00  0.00     0.048 A 
ATOM     29  F   UNL A   1      31.882  18.464  24.116  1.00  0.00    -0.207 F 
ENDBRANCH  12  22
BRANCH  21  30
ATOM     30  C   UNL A   1      31.804  23.248  23.144  1.00  0.00     0.430 C 
ATOM     31  F   UNL A   1      31.919  21.940  22.814  1.00  0.00    -0.167 F 
ATOM     32  F   UNL A   1      30.490  23.556  23.099  1.00  0.00    -0.167 F 
ATOM     33  F   UNL A   1      32.424  23.966  22.177  1.00  0.00    -0.167 F 
ENDBRANCH  21  30
ENDBRANCH   9  11
ENDBRANCH   8   9
ENDBRANCH   7   8
ENDBRANCH   6   7
ENDBRANCH   5   6
ENDBRANCH   4   5
ENDBRANCH   3   4
ENDBRANCH   2   3
ENDBRANCH   1   2
BRANCH   1  34
ATOM     34  C   UNL A   1      32.478  32.959  27.596  1.00  0.00     0.188 C 
BRANCH  34  35
ATOM     35  O   UNL A   1      32.457  34.319  28.027  1.00  0.00    -0.376 OA
BRANCH  35  36
ATOM     36  C   UNL A   1      33.382  34.683  29.043  1.00  0.00     0.202 C 
BRANCH  36  37
ATOM     37  C   UNL A   1      32.875  35.780  29.985  1.00  0.00     0.261 C 
BRANCH  37  38
ATOM     38  O   UNL A   1      32.349  35.317  31.237  1.00  0.00    -0.460 OA
BRANCH  38  39
ATOM     39  C   UNL A   1      32.950  35.741  32.371  1.00  0.00     0.338 C 
ATOM     40  O   UNL A   1      32.501  36.519  33.194  1.00  0.00    -0.246 OA
BRANCH  39  41
ATOM     41  C   UNL A   1      34.175  34.932  32.549  1.00  0.00     0.060 A 
ATOM     42  C   UNL A   1      35.427  35.475  32.248  1.00  0.00     0.016 A 
ATOM     43  C   UNL A   1      34.063  33.606  32.984  1.00  0.00     0.016 A 
ATOM     44  C   UNL A   1      36.573  34.698  32.416  1.00  0.00     0.010 A 
ATOM     45  C   UNL A   1      35.212  32.827  33.147  1.00  0.00     0.010 A 
ATOM     46  C   UNL A   1      36.476  33.377  32.889  1.00  0.00    -0.014 A 
BRANCH  46  47
ATOM     47  C   UNL A   1      37.707  32.657  33.296  1.00  0.00     0.031 A 
ATOM     48  C   UNL A   1      38.422  31.713  32.379  1.00  0.00     0.074 A 
ATOM     49  C   UNL A   1      38.188  32.903  34.532  1.00  0.00     0.049 A 
ATOM     50  N   UNL A   1      39.561  31.100  32.573  1.00  0.00    -0.248 NA
ATOM     51  C   UNL A   1      37.791  31.418  31.083  1.00  0.00     0.031 C 
ATOM     52  C   UNL A   1      37.569  33.809  35.503  1.00  0.00     0.029 A 
ATOM     53  N   UNL A   1      39.309  32.442  35.173  1.00  0.00    -0.354 N 
ATOM     54  C   UNL A   1      39.805  30.371  31.416  1.00  0.00     0.074 A 
ATOM     55  C   UNL A   1      38.669  30.579  30.542  1.00  0.00     0.031 C 
ATOM     56  C   UNL A   1      38.340  33.871  36.597  1.00  0.00     0.029 A 
ATOM     57  C   UNL A   1      39.489  32.987  36.423  1.00  0.00     0.049 A 
ATOM     58  H   UNL A   1      39.927  31.786  34.777  1.00  0.00     0.167 HD
ATOM     59  C   UNL A   1      40.890  29.619  31.111  1.00  0.00     0.031 A 
ATOM     60  C   UNL A   1      40.473  32.811  37.328  1.00  0.00     0.031 A 
ATOM     61  C   UNL A   1      42.007  29.408  32.000  1.00  0.00     0.049 A 
ATOM     62  C   UNL A   1      41.627  31.911  36.986  1.00  0.00     0.074 A 
ATOM     63  C   UNL A   1      43.159  28.675  31.764  1.00  0.00     0.029 A 
ATOM     64  N   UNL A   1      42.119  29.918  33.284  1.00  0.00    -0.354 N 
ATOM     65  N   UNL A   1      41.867  31.276  35.864  1.00  0.00    -0.248 NA
ATOM     66  C   UNL A   1      42.650  31.714  38.022  1.00  0.00     0.031 C 
ATOM     67  C   UNL A   1      43.932  28.686  32.926  1.00  0.00     0.029 A 
ATOM     68  C   UNL A   1      43.304  29.490  33.862  1.00  0.00     0.049 A 
ATOM     69  H   UNL A   1      41.456  30.500  33.721  1.00  0.00     0.167 HD
ATOM     70  C   UNL A   1      43.082  30.626  36.051  1.00  0.00     0.074 A 
ATOM     71  C   UNL A   1      43.535  30.958  37.385  1.00  0.00     0.031 C 
ATOM     72  C   UNL A   1      43.756  29.827  35.190  1.00  0.00     0.031 A 
BRANCH  59  73
ATOM     73  C   UNL A   1      40.975  28.980  29.748  1.00  0.00    -0.014 A 
ATOM     74  C   UNL A   1      40.912  27.580  29.621  1.00  0.00     0.010 A 
ATOM     75  C   UNL A   1      41.322  29.753  28.625  1.00  0.00     0.010 A 
ATOM     76  C   UNL A   1      41.249  26.960  28.413  1.00  0.00     0.020 A 
ATOM     77  C   UNL A   1      41.636  29.138  27.409  1.00  0.00     0.020 A 
ATOM     78  C   UNL A   1      41.628  27.744  27.320  1.00  0.00     0.054 A 
BRANCH  78  79
ATOM     79  S   UNL A   1      42.149  26.917  25.791  1.00  0.00     0.124 S 
ATOM     80  O   UNL A   1      42.384  28.045  24.895  1.00  0.00    -0.237 OA
ATOM     81  O   UNL A   1      43.342  26.189  26.218  1.00  0.00    -0.237 OA
ATOM     82  O   UNL A   1      41.005  26.075  25.449  1.00  0.00    -0.744 OA
ENDBRANCH  78  79
ENDBRANCH  59  73
BRANCH  60  83
ATOM     83  C   UNL A   1      40.427  33.553  38.616  1.00  0.00    -0.014 A 
ATOM     84  C   UNL A   1      41.222  34.698  38.814  1.00  0.00     0.010 A 
ATOM     85  C   UNL A   1      39.626  33.088  39.674  1.00  0.00     0.010 A 
ATOM     86  C   UNL A   1      41.247  35.339  40.054  1.00  0.00     0.020 A 
ATOM     87  C   UNL A   1      39.623  33.747  40.907  1.00  0.00     0.020 A 
ATOM     88  C   UNL A   1      40.451  34.855  41.096  1.00  0.00     0.054 A 
BRANCH  88  89
ATOM     89  S   UNL A   1      40.509  35.698  42.701  1.00  0.00     0.124 S 
ATOM     90  O   UNL A   1      41.420  36.806  42.424  1.00  0.00    -0.237 OA
ATOM     91  O   UNL A   1      39.113  36.069  42.916  1.00  0.00    -0.237 OA
ATOM     92  O   UNL A   1      41.025  34.673  43.605  1.00  0.00    -0.744 OA
ENDBRANCH  88  89
ENDBRANCH  60  83
BRANCH  72  93
ATOM     93  C   UNL A   1      45.072  29.243  35.638  1.00  0.00    -0.014 A 
ATOM     94  C   UNL A   1      45.102  27.975  36.248  1.00  0.00     0.010 A 
ATOM     95  C   UNL A   1      46.255  30.000  35.579  1.00  0.00     0.010 A 
ATOM     96  C   UNL A   1      46.277  27.492  36.829  1.00  0.00     0.020 A 
ATOM     97  C   UNL A   1      47.441  29.508  36.132  1.00  0.00     0.020 A 
ATOM     98  C   UNL A   1      47.437  28.270  36.778  1.00  0.00     0.054 A 
BRANCH  98  99
ATOM     99  S   UNL A   1      48.942  27.649  37.578  1.00  0.00     0.124 S 
ATOM    100  O   UNL A   1      49.103  26.338  36.959  1.00  0.00    -0.237 OA
ATOM    101  O   UNL A   1      49.941  28.649  37.204  1.00  0.00    -0.237 OA
ATOM    102  O   UNL A   1      48.593  27.631  38.997  1.00  0.00    -0.744 OA
ENDBRANCH  98  99
ENDBRANCH  72  93
ENDBRANCH  46  47
ENDBRANCH  39  41
ENDBRANCH  38  39
ENDBRANCH  37  38
ENDBRANCH  36  37
ENDBRANCH  35  36
ENDBRANCH  34  35
ENDBRANCH   1  34
TORSDOF 25
ENDMDL
MODEL 3
REMARK VINA RESULT:      -9.3      5.754      8.388
REMARK SMILES Cc1ccc(-c2cc(Cl)cc3c2O[C@H](C(F)(F)F)C(C(=O)OCCOCCOCCOCCOC(=O)c2ccc(-c4c5nc(c(-c6ccc(S(=O)(=O)[O-])cc6)c6ccc([nH]6)c(-c6ccc(S(=O)(=O)[O-])cc6)c6nc(c(-c7ccc(S(=O)(=O)[O-])cc7)c7ccc4[nH]7)C=C6)C=C5)cc2)=C3)cc1F
REMARK SMILES IDX 29 1 28 2 27 3 26 4 25 5 24 6 23 7 22 8 20 9 21 10 19 11
REMARK SMILES IDX 6 12 7 13 12 14 8 15 11 16 13 17 9 18 10 19 97 20 14 21 5 22
REMARK SMILES IDX 1 23 2 24 3 25 99 26 4 27 98 28 100 29 15 30 16 31 17 32
REMARK SMILES IDX 18 33 30 34 31 35 32 36 33 37 34 38 35 39 36 40 37 41 38 42
REMARK SMILES IDX 96 43 39 44 95 45 40 46 41 47 42 48 89 49 43 50 94 51 88 52
REMARK SMILES IDX 90 53 44 54 93 55 87 56 86 57 45 59 75 60 56 61 74 62 57 63
REMARK SMILES IDX 60 64 73 65 91 66 58 67 59 68 72 70 92 71 61 72 46 73 47 74
REMARK SMILES IDX 55 75 48 76 54 77 49 78 50 79 51 80 52 81 53 82 76 83 77 84
REMARK SMILES IDX 85 85 78 86 84 87 79 88 80 89 81 90 82 91 83 92 62 93 63 94
REMARK SMILES IDX 71 95 64 96 70 97 65 98 66 99 67 100 68 101 69 102
REMARK H PARENT 90 58 60 69
REMARK Flexibility Score: inf
ROOT
ATOM      1  C   UNL A   1      33.206  30.073  27.291  1.00  0.00     0.188 C 
ENDROOT
BRANCH   1   2
ATOM      2  O   UNL A   1      33.506  29.418  26.058  1.00  0.00    -0.377 OA
BRANCH   2   3
ATOM      3  C   UNL A   1      32.447  28.735  25.407  1.00  0.00     0.188 C 
BRANCH   3   4
ATOM      4  C   UNL A   1      32.188  29.268  23.986  1.00  0.00     0.188 C 
BRANCH   4   5
ATOM      5  O   UNL A   1      32.118  28.235  23.008  1.00  0.00    -0.376 OA
BRANCH   5   6
ATOM      6  C   UNL A   1      30.832  27.741  22.650  1.00  0.00     0.202 C 
BRANCH   6   7
ATOM      7  C   UNL A   1      30.645  26.227  22.457  1.00  0.00     0.261 C 
BRANCH   7   8
ATOM      8  O   UNL A   1      31.646  25.394  23.061  1.00  0.00    -0.460 OA
BRANCH   8   9
ATOM      9  C   UNL A   1      31.287  24.614  24.095  1.00  0.00     0.338 C 
ATOM     10  O   UNL A   1      30.247  24.663  24.727  1.00  0.00    -0.246 OA
BRANCH   9  11
ATOM     11  C   UNL A   1      32.304  23.544  24.221  1.00  0.00     0.087 C 
ATOM     12  C   UNL A   1      35.152  20.507  24.742  1.00  0.00     0.026 A 
ATOM     13  C   UNL A   1      34.719  19.171  24.680  1.00  0.00     0.033 A 
ATOM     14  C   UNL A   1      34.205  21.525  24.478  1.00  0.00     0.135 A 
ATOM     15  C   UNL A   1      33.393  18.864  24.378  1.00  0.00     0.042 A 
ATOM     16  C   UNL A   1      32.861  21.213  24.240  1.00  0.00     0.019 A 
ATOM     17  O   UNL A   1      34.672  22.811  24.449  1.00  0.00    -0.475 OA
ATOM     18  Cl  UNL A   1      32.893  17.218  24.309  1.00  0.00    -0.084 Cl
ATOM     19  C   UNL A   1      32.462  19.876  24.167  1.00  0.00     0.032 A 
ATOM     20  C   UNL A   1      31.876  22.278  24.130  1.00  0.00     0.027 C 
ATOM     21  C   UNL A   1      33.754  23.929  24.356  1.00  0.00     0.316 C 
BRANCH  12  22
ATOM     22  C   UNL A   1      36.539  20.815  25.149  1.00  0.00    -0.012 A 
ATOM     23  C   UNL A   1      40.626  21.628  26.341  1.00  0.00     0.047 C 
ATOM     24  C   UNL A   1      39.213  21.374  25.915  1.00  0.00    -0.015 A 
ATOM     25  C   UNL A   1      38.240  22.377  25.953  1.00  0.00     0.007 A 
ATOM     26  C   UNL A   1      38.840  20.102  25.486  1.00  0.00     0.126 A 
ATOM     27  C   UNL A   1      36.919  22.100  25.573  1.00  0.00     0.009 A 
ATOM     28  C   UNL A   1      37.533  19.823  25.102  1.00  0.00     0.048 A 
ATOM     29  F   UNL A   1      39.753  19.122  25.430  1.00  0.00    -0.207 F 
ENDBRANCH  12  22
BRANCH  21  30
ATOM     30  C   UNL A   1      34.010  24.848  25.557  1.00  0.00     0.430 C 
ATOM     31  F   UNL A   1      34.769  24.230  26.492  1.00  0.00    -0.167 F 
ATOM     32  F   UNL A   1      34.655  25.982  25.206  1.00  0.00    -0.167 F 
ATOM     33  F   UNL A   1      32.848  25.209  26.152  1.00  0.00    -0.167 F 
ENDBRANCH  21  30
ENDBRANCH   9  11
ENDBRANCH   8   9
ENDBRANCH   7   8
ENDBRANCH   6   7
ENDBRANCH   5   6
ENDBRANCH   4   5
ENDBRANCH   3   4
ENDBRANCH   2   3
ENDBRANCH   1   2
BRANCH   1  34
ATOM     34  C   UNL A   1      33.435  31.591  27.474  1.00  0.00     0.188 C 
BRANCH  34  35
ATOM     35  O   UNL A   1      34.757  31.930  27.890  1.00  0.00    -0.376 OA
BRANCH  35  36
ATOM     36  C   UNL A   1      35.541  30.883  28.446  1.00  0.00     0.202 C 
BRANCH  36  37
ATOM     37  C   UNL A   1      35.862  31.066  29.934  1.00  0.00     0.261 C 
BRANCH  37  38
ATOM     38  O   UNL A   1      37.238  30.871  30.291  1.00  0.00    -0.460 OA
BRANCH  38  39
ATOM     39  C   UNL A   1      37.666  29.605  30.491  1.00  0.00     0.338 C 
ATOM     40  O   UNL A   1      36.990  28.643  30.811  1.00  0.00    -0.246 OA
BRANCH  39  41
ATOM     41  C   UNL A   1      39.077  29.541  30.052  1.00  0.00     0.060 A 
ATOM     42  C   UNL A   1      40.103  29.422  30.993  1.00  0.00     0.016 A 
ATOM     43  C   UNL A   1      39.374  29.642  28.687  1.00  0.00     0.016 A 
ATOM     44  C   UNL A   1      41.428  29.368  30.562  1.00  0.00     0.010 A 
ATOM     45  C   UNL A   1      40.703  29.594  28.259  1.00  0.00     0.010 A 
ATOM     46  C   UNL A   1      41.737  29.431  29.191  1.00  0.00    -0.014 A 
BRANCH  46  47
ATOM     47  C   UNL A   1      43.116  29.124  28.741  1.00  0.00     0.031 A 
ATOM     48  C   UNL A   1      43.475  27.816  28.103  1.00  0.00     0.074 A 
ATOM     49  C   UNL A   1      44.049  30.083  28.902  1.00  0.00     0.049 A 
ATOM     50  N   UNL A   1      44.616  27.459  27.572  1.00  0.00    -0.248 NA
ATOM     51  C   UNL A   1      42.432  26.780  28.046  1.00  0.00     0.031 C 
ATOM     52  C   UNL A   1      43.802  31.394  29.509  1.00  0.00     0.029 A 
ATOM     53  N   UNL A   1      45.374  30.123  28.551  1.00  0.00    -0.354 N 
ATOM     54  C   UNL A   1      44.426  26.171  27.088  1.00  0.00     0.074 A 
ATOM     55  C   UNL A   1      43.072  25.789  27.433  1.00  0.00     0.031 C 
ATOM     56  C   UNL A   1      44.925  32.123  29.448  1.00  0.00     0.029 A 
ATOM     57  C   UNL A   1      45.981  31.325  28.831  1.00  0.00     0.049 A 
ATOM     58  H   UNL A   1      45.847  29.364  28.138  1.00  0.00     0.167 HD
ATOM     59  C   UNL A   1      45.299  25.396  26.401  1.00  0.00     0.031 A 
ATOM     60  C   UNL A   1      47.239  31.751  28.605  1.00  0.00     0.031 A 
ATOM     61  C   UNL A   1      46.652  25.785  26.081  1.00  0.00     0.049 A 
ATOM     62  C   UNL A   1      48.206  30.836  27.906  1.00  0.00     0.074 A 
ATOM     63  C   UNL A   1      47.600  25.068  25.370  1.00  0.00     0.029 A 
ATOM     64  N   UNL A   1      47.251  26.981  26.443  1.00  0.00    -0.354 N 
ATOM     65  N   UNL A   1      47.989  29.644  27.405  1.00  0.00    -0.248 NA
ATOM     66  C   UNL A   1      49.579  31.327  27.727  1.00  0.00     0.031 C 
ATOM     67  C   UNL A   1      48.789  25.798  25.362  1.00  0.00     0.029 A 
ATOM     68  C   UNL A   1      48.563  27.007  25.999  1.00  0.00     0.049 A 
ATOM     69  H   UNL A   1      46.809  27.706  26.942  1.00  0.00     0.167 HD
ATOM     70  C   UNL A   1      49.192  29.254  26.828  1.00  0.00     0.074 A 
ATOM     71  C   UNL A   1      50.126  30.342  27.026  1.00  0.00     0.031 C 
ATOM     72  C   UNL A   1      49.490  28.096  26.192  1.00  0.00     0.031 A 
BRANCH  59  73
ATOM     73  C   UNL A   1      44.841  24.050  25.898  1.00  0.00    -0.014 A 
ATOM     74  C   UNL A   1      44.526  23.027  26.812  1.00  0.00     0.010 A 
ATOM     75  C   UNL A   1      44.921  23.743  24.528  1.00  0.00     0.010 A 
ATOM     76  C   UNL A   1      44.357  21.710  26.371  1.00  0.00     0.020 A 
ATOM     77  C   UNL A   1      44.727  22.432  24.081  1.00  0.00     0.020 A 
ATOM     78  C   UNL A   1      44.477  21.419  25.010  1.00  0.00     0.054 A 
BRANCH  78  79
ATOM     79  S   UNL A   1      44.344  19.690  24.471  1.00  0.00     0.124 S 
ATOM     80  O   UNL A   1      43.037  19.304  24.993  1.00  0.00    -0.237 OA
ATOM     81  O   UNL A   1      44.436  19.805  23.018  1.00  0.00    -0.237 OA
ATOM     82  O   UNL A   1      45.489  19.043  25.110  1.00  0.00    -0.744 OA
ENDBRANCH  78  79
ENDBRANCH  59  73
BRANCH  60  83
ATOM     83  C   UNL A   1      47.629  33.132  29.000  1.00  0.00    -0.014 A 
ATOM     84  C   UNL A   1      47.514  34.198  28.088  1.00  0.00     0.010 A 
ATOM     85  C   UNL A   1      48.168  33.379  30.275  1.00  0.00     0.010 A 
ATOM     86  C   UNL A   1      47.966  35.474  28.428  1.00  0.00     0.020 A 
ATOM     87  C   UNL A   1      48.591  34.663  30.630  1.00  0.00     0.020 A 
ATOM     88  C   UNL A   1      48.509  35.697  29.696  1.00  0.00     0.054 A 
BRANCH  88  89
ATOM     89  S   UNL A   1      49.099  37.361  30.112  1.00  0.00     0.124 S 
ATOM     90  O   UNL A   1      49.636  37.161  31.455  1.00  0.00    -0.237 OA
ATOM     91  O   UNL A   1      50.089  37.618  29.069  1.00  0.00    -0.237 OA
ATOM     92  O   UNL A   1      47.891  38.180  30.036  1.00  0.00    -0.744 OA
ENDBRANCH  88  89
ENDBRANCH  60  83
BRANCH  72  93
ATOM     93  C   UNL A   1      50.883  27.919  25.644  1.00  0.00    -0.014 A 
ATOM     94  C   UNL A   1      51.130  28.144  24.276  1.00  0.00     0.010 A 
ATOM     95  C   UNL A   1      51.915  27.404  26.447  1.00  0.00     0.010 A 
ATOM     96  C   UNL A   1      52.366  27.817  23.712  1.00  0.00     0.020 A 
ATOM     97  C   UNL A   1      53.164  27.104  25.894  1.00  0.00     0.020 A 
ATOM     98  C   UNL A   1      53.371  27.287  24.525  1.00  0.00     0.054 A 
BRANCH  98  99
ATOM     99  S   UNL A   1      54.954  26.824  23.769  1.00  0.00     0.124 S 
ATOM    100  O   UNL A   1      55.330  25.642  24.539  1.00  0.00    -0.237 OA
ATOM    101  O   UNL A   1      54.584  26.576  22.376  1.00  0.00    -0.237 OA
ATOM    102  O   UNL A   1      55.794  28.000  23.982  1.00  0.00    -0.744 OA
ENDBRANCH  98  99
ENDBRANCH  72  93
ENDBRANCH  46  47
ENDBRANCH  39  41
ENDBRANCH  38  39
ENDBRANCH  37  38
ENDBRANCH  36  37
ENDBRANCH  35  36
ENDBRANCH  34  35
ENDBRANCH   1  34
TORSDOF 25
ENDMDL
