MODEL 1
REMARK VINA RESULT:      -9.5      0.000      0.000
REMARK SMILES Cc1nn(C)c(=O)c(C(=O)N2CCCC[C@H]2C(=O)OCCOCCOCCOCCOC(=O)c2ccc(-c3c4nc(c(-c5ccc(S(=O)(=O)[O-])cc5)c5ccc([nH]5)c(-c5ccc(S(=O)(=O)[O-])cc5)c5nc(c(-c6ccc(S(=O)(=O)[O-])cc6)c6ccc3[nH]6)C=C5)C=C4)cc2)c1C
REMARK SMILES IDX 26 1 25 2 24 3 23 4 22 5 21 6 20 7 19 8 17 9 18 10 16 11
REMARK SMILES IDX 11 12 12 13 13 14 15 15 14 16 9 17 10 18 8 19 1 20 2 21 3 22
REMARK SMILES IDX 94 23 4 24 95 25 5 26 6 27 7 28 27 29 28 30 29 31 30 32
REMARK SMILES IDX 31 33 32 34 33 35 34 36 35 37 93 38 36 39 92 40 37 41 38 42
REMARK SMILES IDX 39 43 86 44 40 45 91 46 85 47 87 48 41 49 90 50 84 51 83 52
REMARK SMILES IDX 42 54 72 55 53 56 71 57 54 58 57 59 70 60 88 61 55 62 56 63
REMARK SMILES IDX 69 65 89 66 58 67 43 68 44 69 52 70 45 71 51 72 46 73 47 74
REMARK SMILES IDX 48 75 49 76 50 77 73 78 74 79 82 80 75 81 81 82 76 83 77 84
REMARK SMILES IDX 78 85 79 86 80 87 59 88 60 89 68 90 61 91 67 92 62 93 63 94
REMARK SMILES IDX 64 95 65 96 66 97
REMARK H PARENT 87 53 57 64
REMARK Flexibility Score: inf
ROOT
ATOM      1  C   UNL A   1      33.653  32.420  27.925  1.00  0.00     0.188 C 
ENDROOT
BRANCH   1   2
ATOM      2  O   UNL A   1      34.799  31.768  27.414  1.00  0.00    -0.377 OA
BRANCH   2   3
ATOM      3  C   UNL A   1      35.064  30.440  27.794  1.00  0.00     0.188 C 
BRANCH   3   4
ATOM      4  C   UNL A   1      34.443  29.361  26.898  1.00  0.00     0.188 C 
BRANCH   4   5
ATOM      5  O   UNL A   1      33.445  28.469  27.389  1.00  0.00    -0.376 OA
BRANCH   5   6
ATOM      6  C   UNL A   1      32.051  28.719  27.263  1.00  0.00     0.202 C 
BRANCH   6   7
ATOM      7  C   UNL A   1      31.133  27.539  26.943  1.00  0.00     0.261 C 
BRANCH   7   8
ATOM      8  O   UNL A   1      31.839  26.342  26.580  1.00  0.00    -0.462 OA
BRANCH   8   9
ATOM      9  C   UNL A   1      31.624  25.895  25.319  1.00  0.00     0.328 C 
ATOM     10  O   UNL A   1      30.577  26.078  24.706  1.00  0.00    -0.250 OA
BRANCH   9  11
ATOM     11  C   UNL A   1      32.895  25.258  24.683  1.00  0.00     0.195 C 
ATOM     12  N   UNL A   1      32.750  24.743  23.306  1.00  0.00    -0.325 N 
ATOM     13  C   UNL A   1      32.374  25.776  22.339  1.00  0.00     0.121 C 
ATOM     14  C   UNL A   1      33.342  26.964  22.349  1.00  0.00     0.022 C 
ATOM     15  C   UNL A   1      33.990  26.343  24.704  1.00  0.00     0.037 C 
ATOM     16  C   UNL A   1      33.624  27.489  23.755  1.00  0.00     0.005 C 
BRANCH  12  17
ATOM     17  C   UNL A   1      33.503  23.675  22.800  1.00  0.00     0.260 C 
ATOM     18  O   UNL A   1      33.723  23.613  21.588  1.00  0.00    -0.269 OA
BRANCH  17  19
ATOM     19  C   UNL A   1      33.939  22.528  23.691  1.00  0.00     0.111 A 
ATOM     20  C   UNL A   1      32.996  19.249  25.293  1.00  0.00     0.069 C 
ATOM     21  C   UNL A   1      33.863  20.315  24.669  1.00  0.00     0.062 A 
ATOM     22  N   UNL A   1      35.110  20.274  25.003  1.00  0.00    -0.175 NA
ATOM     23  C   UNL A   1      33.257  21.367  23.802  1.00  0.00    -0.010 A 
ATOM     24  N   UNL A   1      35.887  21.322  24.627  1.00  0.00    -0.232 N 
ATOM     25  C   UNL A   1      32.036  20.966  23.046  1.00  0.00     0.047 C 
ATOM     26  C   UNL A   1      37.308  21.136  24.870  1.00  0.00     0.178 C 
ATOM     27  C   UNL A   1      35.361  22.548  24.222  1.00  0.00     0.279 A 
ATOM     28  O   UNL A   1      36.022  23.585  24.258  1.00  0.00    -0.267 OA
ENDBRANCH  17  19
ENDBRANCH  12  17
ENDBRANCH   9  11
ENDBRANCH   8   9
ENDBRANCH   7   8
ENDBRANCH   6   7
ENDBRANCH   5   6
ENDBRANCH   4   5
ENDBRANCH   3   4
ENDBRANCH   2   3
ENDBRANCH   1   2
BRANCH   1  29
ATOM     29  C   UNL A   1      33.582  33.946  27.995  1.00  0.00     0.188 C 
BRANCH  29  30
ATOM     30  O   UNL A   1      32.602  34.420  28.917  1.00  0.00    -0.376 OA
BRANCH  30  31
ATOM     31  C   UNL A   1      33.003  35.466  29.794  1.00  0.00     0.202 C 
BRANCH  31  32
ATOM     32  C   UNL A   1      33.613  34.999  31.124  1.00  0.00     0.261 C 
BRANCH  32  33
ATOM     33  O   UNL A   1      33.837  33.589  31.287  1.00  0.00    -0.460 OA
BRANCH  33  34
ATOM     34  C   UNL A   1      34.526  33.160  32.375  1.00  0.00     0.338 C 
ATOM     35  O   UNL A   1      34.127  33.076  33.508  1.00  0.00    -0.246 OA
BRANCH  34  36
ATOM     36  C   UNL A   1      35.824  32.627  31.881  1.00  0.00     0.060 A 
ATOM     37  C   UNL A   1      36.618  31.856  32.742  1.00  0.00     0.016 A 
ATOM     38  C   UNL A   1      36.224  32.844  30.561  1.00  0.00     0.016 A 
ATOM     39  C   UNL A   1      37.818  31.306  32.282  1.00  0.00     0.010 A 
ATOM     40  C   UNL A   1      37.434  32.307  30.109  1.00  0.00     0.010 A 
ATOM     41  C   UNL A   1      38.252  31.558  30.973  1.00  0.00    -0.014 A 
BRANCH  41  42
ATOM     42  C   UNL A   1      39.659  31.268  30.589  1.00  0.00     0.031 A 
ATOM     43  C   UNL A   1      40.673  32.365  30.781  1.00  0.00     0.074 A 
ATOM     44  C   UNL A   1      40.051  30.076  30.101  1.00  0.00     0.049 A 
ATOM     45  N   UNL A   1      41.955  32.369  30.522  1.00  0.00    -0.248 NA
ATOM     46  C   UNL A   1      40.167  33.631  31.341  1.00  0.00     0.031 C 
ATOM     47  C   UNL A   1      39.189  28.914  29.895  1.00  0.00     0.029 A 
ATOM     48  N   UNL A   1      41.292  29.650  29.689  1.00  0.00    -0.354 N 
ATOM     49  C   UNL A   1      42.405  33.634  30.882  1.00  0.00     0.074 A 
ATOM     50  C   UNL A   1      41.256  34.383  31.338  1.00  0.00     0.031 C 
ATOM     51  C   UNL A   1      39.929  27.906  29.397  1.00  0.00     0.029 A 
ATOM     52  C   UNL A   1      41.312  28.355  29.224  1.00  0.00     0.049 A 
ATOM     53  H   UNL A   1      42.094  30.220  29.726  1.00  0.00     0.167 HD
ATOM     54  C   UNL A   1      43.663  34.129  30.854  1.00  0.00     0.031 A 
ATOM     55  C   UNL A   1      42.323  27.622  28.711  1.00  0.00     0.031 A 
ATOM     56  C   UNL A   1      44.808  33.401  30.386  1.00  0.00     0.049 A 
ATOM     57  C   UNL A   1      43.706  28.220  28.611  1.00  0.00     0.074 A 
ATOM     58  C   UNL A   1      46.126  33.817  30.334  1.00  0.00     0.029 A 
ATOM     59  N   UNL A   1      44.772  32.112  29.877  1.00  0.00    -0.354 N 
ATOM     60  N   UNL A   1      44.122  29.405  28.991  1.00  0.00    -0.248 NA
ATOM     61  C   UNL A   1      44.756  27.379  28.015  1.00  0.00     0.031 C 
ATOM     62  C   UNL A   1      46.878  32.802  29.735  1.00  0.00     0.029 A 
ATOM     63  C   UNL A   1      46.040  31.728  29.477  1.00  0.00     0.049 A 
ATOM     64  H   UNL A   1      43.964  31.553  29.811  1.00  0.00     0.167 HD
ATOM     65  C   UNL A   1      45.483  29.442  28.701  1.00  0.00     0.074 A 
ATOM     66  C   UNL A   1      45.825  28.158  28.125  1.00  0.00     0.031 C 
ATOM     67  C   UNL A   1      46.370  30.451  28.897  1.00  0.00     0.031 A 
BRANCH  54  68
ATOM     68  C   UNL A   1      43.851  35.548  31.319  1.00  0.00    -0.014 A 
ATOM     69  C   UNL A   1      43.947  36.606  30.397  1.00  0.00     0.010 A 
ATOM     70  C   UNL A   1      43.919  35.827  32.695  1.00  0.00     0.010 A 
ATOM     71  C   UNL A   1      44.155  37.914  30.842  1.00  0.00     0.020 A 
ATOM     72  C   UNL A   1      44.096  37.138  33.146  1.00  0.00     0.020 A 
ATOM     73  C   UNL A   1      44.230  38.170  32.214  1.00  0.00     0.054 A 
BRANCH  73  74
ATOM     74  S   UNL A   1      44.491  39.878  32.762  1.00  0.00     0.124 S 
ATOM     75  O   UNL A   1      44.999  39.685  34.118  1.00  0.00    -0.237 OA
ATOM     76  O   UNL A   1      45.463  40.377  31.793  1.00  0.00    -0.237 OA
ATOM     77  O   UNL A   1      43.162  40.479  32.676  1.00  0.00    -0.744 OA
ENDBRANCH  73  74
ENDBRANCH  54  68
BRANCH  55  78
ATOM     78  C   UNL A   1      42.066  26.227  28.255  1.00  0.00    -0.014 A 
ATOM     79  C   UNL A   1      41.518  25.978  26.983  1.00  0.00     0.010 A 
ATOM     80  C   UNL A   1      42.392  25.135  29.082  1.00  0.00     0.010 A 
ATOM     81  C   UNL A   1      41.312  24.666  26.544  1.00  0.00     0.020 A 
ATOM     82  C   UNL A   1      42.210  23.822  28.636  1.00  0.00     0.020 A 
ATOM     83  C   UNL A   1      41.672  23.596  27.368  1.00  0.00     0.054 A 
BRANCH  83  84
ATOM     84  S   UNL A   1      41.491  21.905  26.731  1.00  0.00     0.124 S 
ATOM     85  O   UNL A   1      42.285  21.133  27.681  1.00  0.00    -0.237 OA
ATOM     86  O   UNL A   1      40.045  21.702  26.799  1.00  0.00    -0.237 OA
ATOM     87  O   UNL A   1      42.036  21.988  25.378  1.00  0.00    -0.744 OA
ENDBRANCH  83  84
ENDBRANCH  55  78
BRANCH  67  88
ATOM     88  C   UNL A   1      47.808  30.222  28.504  1.00  0.00    -0.014 A 
ATOM     89  C   UNL A   1      48.252  30.470  27.194  1.00  0.00     0.010 A 
ATOM     90  C   UNL A   1      48.748  29.859  29.487  1.00  0.00     0.010 A 
ATOM     91  C   UNL A   1      49.607  30.346  26.871  1.00  0.00     0.020 A 
ATOM     92  C   UNL A   1      50.107  29.760  29.174  1.00  0.00     0.020 A 
ATOM     93  C   UNL A   1      50.527  29.997  27.865  1.00  0.00     0.054 A 
BRANCH  93  94
ATOM     94  S   UNL A   1      52.286  29.910  27.432  1.00  0.00     0.124 S 
ATOM     95  O   UNL A   1      52.929  30.060  28.735  1.00  0.00    -0.237 OA
ATOM     96  O   UNL A   1      52.400  28.586  26.825  1.00  0.00    -0.237 OA
ATOM     97  O   UNL A   1      52.476  31.030  26.513  1.00  0.00    -0.744 OA
ENDBRANCH  93  94
ENDBRANCH  67  88
ENDBRANCH  41  42
ENDBRANCH  34  36
ENDBRANCH  33  34
ENDBRANCH  32  33
ENDBRANCH  31  32
ENDBRANCH  30  31
ENDBRANCH  29  30
ENDBRANCH   1  29
TORSDOF 25
ENDMDL
MODEL 2
REMARK VINA RESULT:      -8.6      4.938      5.914
REMARK SMILES Cc1nn(C)c(=O)c(C(=O)N2CCCC[C@H]2C(=O)OCCOCCOCCOCCOC(=O)c2ccc(-c3c4nc(c(-c5ccc(S(=O)(=O)[O-])cc5)c5ccc([nH]5)c(-c5ccc(S(=O)(=O)[O-])cc5)c5nc(c(-c6ccc(S(=O)(=O)[O-])cc6)c6ccc3[nH]6)C=C5)C=C4)cc2)c1C
REMARK SMILES IDX 26 1 25 2 24 3 23 4 22 5 21 6 20 7 19 8 17 9 18 10 16 11
REMARK SMILES IDX 11 12 12 13 13 14 15 15 14 16 9 17 10 18 8 19 1 20 2 21 3 22
REMARK SMILES IDX 94 23 4 24 95 25 5 26 6 27 7 28 27 29 28 30 29 31 30 32
REMARK SMILES IDX 31 33 32 34 33 35 34 36 35 37 93 38 36 39 92 40 37 41 38 42
REMARK SMILES IDX 39 43 86 44 40 45 91 46 85 47 87 48 41 49 90 50 84 51 83 52
REMARK SMILES IDX 42 54 72 55 53 56 71 57 54 58 57 59 70 60 88 61 55 62 56 63
REMARK SMILES IDX 69 65 89 66 58 67 43 68 44 69 52 70 45 71 51 72 46 73 47 74
REMARK SMILES IDX 48 75 49 76 50 77 73 78 74 79 82 80 75 81 81 82 76 83 77 84
REMARK SMILES IDX 78 85 79 86 80 87 59 88 60 89 68 90 61 91 67 92 62 93 63 94
REMARK SMILES IDX 64 95 65 96 66 97
REMARK H PARENT 87 53 57 64
REMARK Flexibility Score: inf
ROOT
ATOM      1  C   UNL A   1      33.182  31.315  26.861  1.00  0.00     0.188 C 
ENDROOT
BRANCH   1   2
ATOM      2  O   UNL A   1      34.043  30.770  27.841  1.00  0.00    -0.377 OA
BRANCH   2   3
ATOM      3  C   UNL A   1      34.718  29.566  27.573  1.00  0.00     0.188 C 
BRANCH   3   4
ATOM      4  C   UNL A   1      33.979  28.585  26.655  1.00  0.00     0.188 C 
BRANCH   4   5
ATOM      5  O   UNL A   1      32.968  27.713  27.156  1.00  0.00    -0.376 OA
BRANCH   5   6
ATOM      6  C   UNL A   1      31.605  27.795  26.758  1.00  0.00     0.202 C 
BRANCH   6   7
ATOM      7  C   UNL A   1      30.901  26.507  26.332  1.00  0.00     0.261 C 
BRANCH   7   8
ATOM      8  O   UNL A   1      30.782  26.359  24.908  1.00  0.00    -0.462 OA
BRANCH   8   9
ATOM      9  C   UNL A   1      31.952  26.310  24.225  1.00  0.00     0.328 C 
ATOM     10  O   UNL A   1      32.332  27.199  23.470  1.00  0.00    -0.250 OA
BRANCH   9  11
ATOM     11  C   UNL A   1      32.823  25.080  24.614  1.00  0.00     0.195 C 
ATOM     12  N   UNL A   1      32.136  23.773  24.643  1.00  0.00    -0.325 N 
ATOM     13  C   UNL A   1      31.572  23.387  23.347  1.00  0.00     0.121 C 
ATOM     14  C   UNL A   1      32.621  23.397  22.230  1.00  0.00     0.022 C 
ATOM     15  C   UNL A   1      33.980  25.020  23.597  1.00  0.00     0.037 C 
ATOM     16  C   UNL A   1      33.448  24.681  22.201  1.00  0.00     0.005 C 
BRANCH  12  17
ATOM     17  C   UNL A   1      32.521  22.718  25.482  1.00  0.00     0.260 C 
ATOM     18  O   UNL A   1      31.972  22.589  26.578  1.00  0.00    -0.269 OA
BRANCH  17  19
ATOM     19  C   UNL A   1      33.685  21.815  25.125  1.00  0.00     0.111 A 
ATOM     20  C   UNL A   1      37.430  21.398  25.014  1.00  0.00     0.069 C 
ATOM     21  C   UNL A   1      35.973  21.023  25.134  1.00  0.00     0.062 A 
ATOM     22  N   UNL A   1      35.692  19.802  24.821  1.00  0.00    -0.175 NA
ATOM     23  C   UNL A   1      34.959  22.051  25.509  1.00  0.00    -0.010 A 
ATOM     24  N   UNL A   1      34.379  19.473  24.723  1.00  0.00    -0.232 N 
ATOM     25  C   UNL A   1      35.444  23.155  26.386  1.00  0.00     0.047 C 
ATOM     26  C   UNL A   1      34.125  18.053  24.549  1.00  0.00     0.178 C 
ATOM     27  C   UNL A   1      33.367  20.425  24.605  1.00  0.00     0.279 A 
ATOM     28  O   UNL A   1      32.264  20.147  24.136  1.00  0.00    -0.267 OA
ENDBRANCH  17  19
ENDBRANCH  12  17
ENDBRANCH   9  11
ENDBRANCH   8   9
ENDBRANCH   7   8
ENDBRANCH   6   7
ENDBRANCH   5   6
ENDBRANCH   4   5
ENDBRANCH   3   4
ENDBRANCH   2   3
ENDBRANCH   1   2
BRANCH   1  29
ATOM     29  C   UNL A   1      31.926  32.092  27.260  1.00  0.00     0.188 C 
BRANCH  29  30
ATOM     30  O   UNL A   1      32.174  33.477  27.494  1.00  0.00    -0.376 OA
BRANCH  30  31
ATOM     31  C   UNL A   1      33.434  33.814  28.060  1.00  0.00     0.202 C 
BRANCH  31  32
ATOM     32  C   UNL A   1      33.391  34.916  29.129  1.00  0.00     0.261 C 
BRANCH  32  33
ATOM     33  O   UNL A   1      32.946  34.541  30.444  1.00  0.00    -0.460 OA
BRANCH  33  34
ATOM     34  C   UNL A   1      33.314  35.311  31.500  1.00  0.00     0.338 C 
ATOM     35  O   UNL A   1      32.724  36.255  31.958  1.00  0.00    -0.246 OA
BRANCH  34  36
ATOM     36  C   UNL A   1      34.499  34.657  32.118  1.00  0.00     0.060 A 
ATOM     37  C   UNL A   1      35.764  35.233  31.943  1.00  0.00     0.016 A 
ATOM     38  C   UNL A   1      34.348  33.514  32.906  1.00  0.00     0.016 A 
ATOM     39  C   UNL A   1      36.884  34.660  32.556  1.00  0.00     0.010 A 
ATOM     40  C   UNL A   1      35.472  32.934  33.503  1.00  0.00     0.010 A 
ATOM     41  C   UNL A   1      36.751  33.486  33.309  1.00  0.00    -0.014 A 
BRANCH  41  42
ATOM     42  C   UNL A   1      37.958  32.697  33.673  1.00  0.00     0.031 A 
ATOM     43  C   UNL A   1      38.670  33.065  34.949  1.00  0.00     0.074 A 
ATOM     44  C   UNL A   1      38.415  31.676  32.925  1.00  0.00     0.049 A 
ATOM     45  N   UNL A   1      39.740  32.540  35.485  1.00  0.00    -0.248 NA
ATOM     46  C   UNL A   1      38.093  34.179  35.721  1.00  0.00     0.031 C 
ATOM     47  C   UNL A   1      37.809  31.188  31.688  1.00  0.00     0.029 A 
ATOM     48  N   UNL A   1      39.508  30.862  33.107  1.00  0.00    -0.354 N 
ATOM     49  C   UNL A   1      39.966  33.261  36.652  1.00  0.00     0.074 A 
ATOM     50  C   UNL A   1      38.948  34.285  36.724  1.00  0.00     0.031 C 
ATOM     51  C   UNL A   1      38.539  30.156  31.223  1.00  0.00     0.029 A 
ATOM     52  C   UNL A   1      39.678  29.925  32.114  1.00  0.00     0.049 A 
ATOM     53  H   UNL A   1      40.114  30.941  33.880  1.00  0.00     0.167 HD
ATOM     54  C   UNL A   1      40.922  33.083  37.591  1.00  0.00     0.031 A 
ATOM     55  C   UNL A   1      40.644  28.997  31.938  1.00  0.00     0.031 A 
ATOM     56  C   UNL A   1      41.948  32.082  37.520  1.00  0.00     0.049 A 
ATOM     57  C   UNL A   1      41.751  28.866  32.956  1.00  0.00     0.074 A 
ATOM     58  C   UNL A   1      42.952  31.816  38.434  1.00  0.00     0.029 A 
ATOM     59  N   UNL A   1      42.111  31.189  36.472  1.00  0.00    -0.354 N 
ATOM     60  N   UNL A   1      41.928  29.532  34.073  1.00  0.00    -0.248 NA
ATOM     61  C   UNL A   1      42.787  27.856  32.690  1.00  0.00     0.031 C 
ATOM     62  C   UNL A   1      43.761  30.805  37.908  1.00  0.00     0.029 A 
ATOM     63  C   UNL A   1      43.221  30.394  36.699  1.00  0.00     0.049 A 
ATOM     64  H   UNL A   1      41.525  31.130  35.683  1.00  0.00     0.167 HD
ATOM     65  C   UNL A   1      43.080  29.006  34.652  1.00  0.00     0.074 A 
ATOM     66  C   UNL A   1      43.552  27.960  33.770  1.00  0.00     0.031 C 
ATOM     67  C   UNL A   1      43.689  29.359  35.812  1.00  0.00     0.031 A 
BRANCH  54  68
ATOM     68  C   UNL A   1      40.913  34.024  38.766  1.00  0.00    -0.014 A 
ATOM     69  C   UNL A   1      40.188  33.720  39.933  1.00  0.00     0.010 A 
ATOM     70  C   UNL A   1      41.650  35.220  38.706  1.00  0.00     0.010 A 
ATOM     71  C   UNL A   1      40.163  34.619  41.002  1.00  0.00     0.020 A 
ATOM     72  C   UNL A   1      41.653  36.106  39.786  1.00  0.00     0.020 A 
ATOM     73  C   UNL A   1      40.894  35.807  40.919  1.00  0.00     0.054 A 
BRANCH  73  74
ATOM     74  S   UNL A   1      40.849  36.949  42.326  1.00  0.00     0.124 S 
ATOM     75  O   UNL A   1      41.462  36.149  43.384  1.00  0.00    -0.237 OA
ATOM     76  O   UNL A   1      41.648  38.074  41.848  1.00  0.00    -0.237 OA
ATOM     77  O   UNL A   1      39.426  37.229  42.504  1.00  0.00    -0.744 OA
ENDBRANCH  73  74
ENDBRANCH  54  68
BRANCH  55  78
ATOM     78  C   UNL A   1      40.603  28.105  30.745  1.00  0.00    -0.014 A 
ATOM     79  C   UNL A   1      39.456  27.341  30.461  1.00  0.00     0.010 A 
ATOM     80  C   UNL A   1      41.703  28.034  29.870  1.00  0.00     0.010 A 
ATOM     81  C   UNL A   1      39.407  26.533  29.320  1.00  0.00     0.020 A 
ATOM     82  C   UNL A   1      41.648  27.246  28.715  1.00  0.00     0.020 A 
ATOM     83  C   UNL A   1      40.499  26.501  28.447  1.00  0.00     0.054 A 
BRANCH  83  84
ATOM     84  S   UNL A   1      40.367  25.526  26.921  1.00  0.00     0.124 S 
ATOM     85  O   UNL A   1      38.976  25.086  26.958  1.00  0.00    -0.237 OA
ATOM     86  O   UNL A   1      40.693  26.513  25.894  1.00  0.00    -0.237 OA
ATOM     87  O   UNL A   1      41.364  24.473  27.100  1.00  0.00    -0.744 OA
ENDBRANCH  83  84
ENDBRANCH  55  78
BRANCH  67  88
ATOM     88  C   UNL A   1      44.932  28.610  36.221  1.00  0.00    -0.014 A 
ATOM     89  C   UNL A   1      44.852  27.425  36.973  1.00  0.00     0.010 A 
ATOM     90  C   UNL A   1      46.188  29.039  35.754  1.00  0.00     0.010 A 
ATOM     91  C   UNL A   1      46.008  26.691  37.261  1.00  0.00     0.020 A 
ATOM     92  C   UNL A   1      47.341  28.294  36.016  1.00  0.00     0.020 A 
ATOM     93  C   UNL A   1      47.244  27.128  36.775  1.00  0.00     0.054 A 
BRANCH  93  94
ATOM     94  S   UNL A   1      48.716  26.120  37.107  1.00  0.00     0.124 S 
ATOM     95  O   UNL A   1      49.782  27.118  37.080  1.00  0.00    -0.237 OA
ATOM     96  O   UNL A   1      48.423  25.549  38.419  1.00  0.00    -0.237 OA
ATOM     97  O   UNL A   1      48.737  25.160  36.006  1.00  0.00    -0.744 OA
ENDBRANCH  93  94
ENDBRANCH  67  88
ENDBRANCH  41  42
ENDBRANCH  34  36
ENDBRANCH  33  34
ENDBRANCH  32  33
ENDBRANCH  31  32
ENDBRANCH  30  31
ENDBRANCH  29  30
ENDBRANCH   1  29
TORSDOF 25
ENDMDL
MODEL 3
REMARK VINA RESULT:      -8.4      4.717      9.076
REMARK SMILES Cc1nn(C)c(=O)c(C(=O)N2CCCC[C@H]2C(=O)OCCOCCOCCOCCOC(=O)c2ccc(-c3c4nc(c(-c5ccc(S(=O)(=O)[O-])cc5)c5ccc([nH]5)c(-c5ccc(S(=O)(=O)[O-])cc5)c5nc(c(-c6ccc(S(=O)(=O)[O-])cc6)c6ccc3[nH]6)C=C5)C=C4)cc2)c1C
REMARK SMILES IDX 26 1 25 2 24 3 23 4 22 5 21 6 20 7 19 8 17 9 18 10 16 11
REMARK SMILES IDX 11 12 12 13 13 14 15 15 14 16 9 17 10 18 8 19 1 20 2 21 3 22
REMARK SMILES IDX 94 23 4 24 95 25 5 26 6 27 7 28 27 29 28 30 29 31 30 32
REMARK SMILES IDX 31 33 32 34 33 35 34 36 35 37 93 38 36 39 92 40 37 41 38 42
REMARK SMILES IDX 39 43 86 44 40 45 91 46 85 47 87 48 41 49 90 50 84 51 83 52
REMARK SMILES IDX 42 54 72 55 53 56 71 57 54 58 57 59 70 60 88 61 55 62 56 63
REMARK SMILES IDX 69 65 89 66 58 67 43 68 44 69 52 70 45 71 51 72 46 73 47 74
REMARK SMILES IDX 48 75 49 76 50 77 73 78 74 79 82 80 75 81 81 82 76 83 77 84
REMARK SMILES IDX 78 85 79 86 80 87 59 88 60 89 68 90 61 91 67 92 62 93 63 94
REMARK SMILES IDX 64 95 65 96 66 97
REMARK H PARENT 87 53 57 64
REMARK Flexibility Score: inf
ROOT
ATOM      1  C   UNL A   1      32.887  30.032  25.902  1.00  0.00     0.188 C 
ENDROOT
BRANCH   1   2
ATOM      2  O   UNL A   1      33.447  29.345  27.004  1.00  0.00    -0.377 OA
BRANCH   2   3
ATOM      3  C   UNL A   1      33.657  27.958  26.918  1.00  0.00     0.188 C 
BRANCH   3   4
ATOM      4  C   UNL A   1      32.548  27.164  26.216  1.00  0.00     0.188 C 
BRANCH   4   5
ATOM      5  O   UNL A   1      31.254  27.020  26.798  1.00  0.00    -0.376 OA
BRANCH   5   6
ATOM      6  C   UNL A   1      30.175  26.371  26.137  1.00  0.00     0.202 C 
BRANCH   6   7
ATOM      7  C   UNL A   1      30.446  25.025  25.465  1.00  0.00     0.261 C 
BRANCH   7   8
ATOM      8  O   UNL A   1      30.465  25.090  24.031  1.00  0.00    -0.462 OA
BRANCH   8   9
ATOM      9  C   UNL A   1      31.694  25.134  23.462  1.00  0.00     0.328 C 
ATOM     10  O   UNL A   1      32.063  26.037  22.717  1.00  0.00    -0.250 OA
BRANCH   9  11
ATOM     11  C   UNL A   1      32.633  24.001  23.972  1.00  0.00     0.195 C 
ATOM     12  N   UNL A   1      32.016  22.670  24.150  1.00  0.00    -0.325 N 
ATOM     13  C   UNL A   1      31.467  22.118  22.911  1.00  0.00     0.121 C 
ATOM     14  C   UNL A   1      32.507  22.061  21.787  1.00  0.00     0.022 C 
ATOM     15  C   UNL A   1      33.785  23.892  22.955  1.00  0.00     0.037 C 
ATOM     16  C   UNL A   1      33.263  23.376  21.610  1.00  0.00     0.005 C 
BRANCH  12  17
ATOM     17  C   UNL A   1      32.461  21.735  25.094  1.00  0.00     0.260 C 
ATOM     18  O   UNL A   1      31.891  21.660  26.184  1.00  0.00    -0.269 OA
BRANCH  17  19
ATOM     19  C   UNL A   1      33.709  20.908  24.853  1.00  0.00     0.111 A 
ATOM     20  C   UNL A   1      37.477  20.808  24.884  1.00  0.00     0.069 C 
ATOM     21  C   UNL A   1      36.054  20.321  24.996  1.00  0.00     0.062 A 
ATOM     22  N   UNL A   1      35.887  19.058  24.787  1.00  0.00    -0.175 NA
ATOM     23  C   UNL A   1      34.944  21.286  25.249  1.00  0.00    -0.010 A 
ATOM     24  N   UNL A   1      34.611  18.609  24.682  1.00  0.00    -0.232 N 
ATOM     25  C   UNL A   1      35.303  22.500  26.037  1.00  0.00     0.047 C 
ATOM     26  C   UNL A   1      34.482  17.162  24.629  1.00  0.00     0.178 C 
ATOM     27  C   UNL A   1      33.527  19.456  24.451  1.00  0.00     0.279 A 
ATOM     28  O   UNL A   1      32.468  19.044  23.979  1.00  0.00    -0.267 OA
ENDBRANCH  17  19
ENDBRANCH  12  17
ENDBRANCH   9  11
ENDBRANCH   8   9
ENDBRANCH   7   8
ENDBRANCH   6   7
ENDBRANCH   5   6
ENDBRANCH   4   5
ENDBRANCH   3   4
ENDBRANCH   2   3
ENDBRANCH   1   2
BRANCH   1  29
ATOM     29  C   UNL A   1      31.429  30.494  25.922  1.00  0.00     0.188 C 
BRANCH  29  30
ATOM     30  O   UNL A   1      31.276  31.848  26.344  1.00  0.00    -0.376 OA
BRANCH  30  31
ATOM     31  C   UNL A   1      32.299  32.377  27.179  1.00  0.00     0.202 C 
BRANCH  31  32
ATOM     32  C   UNL A   1      32.085  33.831  27.625  1.00  0.00     0.261 C 
BRANCH  32  33
ATOM     33  O   UNL A   1      32.645  34.221  28.890  1.00  0.00    -0.460 OA
BRANCH  33  34
ATOM     34  C   UNL A   1      33.712  35.060  28.900  1.00  0.00     0.338 C 
ATOM     35  O   UNL A   1      33.734  36.220  28.577  1.00  0.00    -0.246 OA
BRANCH  34  36
ATOM     36  C   UNL A   1      34.825  34.334  29.567  1.00  0.00     0.060 A 
ATOM     37  C   UNL A   1      34.529  33.412  30.580  1.00  0.00     0.016 A 
ATOM     38  C   UNL A   1      36.146  34.526  29.155  1.00  0.00     0.016 A 
ATOM     39  C   UNL A   1      35.557  32.684  31.187  1.00  0.00     0.010 A 
ATOM     40  C   UNL A   1      37.174  33.809  29.776  1.00  0.00     0.010 A 
ATOM     41  C   UNL A   1      36.890  32.904  30.814  1.00  0.00    -0.014 A 
BRANCH  41  42
ATOM     42  C   UNL A   1      37.994  32.395  31.671  1.00  0.00     0.031 A 
ATOM     43  C   UNL A   1      38.811  31.245  31.141  1.00  0.00     0.074 A 
ATOM     44  C   UNL A   1      38.292  32.928  32.871  1.00  0.00     0.049 A 
ATOM     45  N   UNL A   1      39.818  30.618  31.690  1.00  0.00    -0.248 NA
ATOM     46  C   UNL A   1      38.435  30.735  29.812  1.00  0.00     0.031 C 
ATOM     47  C   UNL A   1      37.611  34.062  33.492  1.00  0.00     0.029 A 
ATOM     48  N   UNL A   1      39.258  32.574  33.784  1.00  0.00    -0.354 N 
ATOM     49  C   UNL A   1      40.192  29.640  30.776  1.00  0.00     0.074 A 
ATOM     50  C   UNL A   1      39.279  29.728  29.659  1.00  0.00     0.031 C 
ATOM     51  C   UNL A   1      38.184  34.313  34.685  1.00  0.00     0.029 A 
ATOM     52  C   UNL A   1      39.254  33.343  34.925  1.00  0.00     0.049 A 
ATOM     53  H   UNL A   1      39.895  31.839  33.633  1.00  0.00     0.167 HD
ATOM     54  C   UNL A   1      41.211  28.754  30.846  1.00  0.00     0.031 A 
ATOM     55  C   UNL A   1      40.017  33.266  36.037  1.00  0.00     0.031 A 
ATOM     56  C   UNL A   1      42.111  28.645  31.960  1.00  0.00     0.049 A 
ATOM     57  C   UNL A   1      41.098  32.217  36.133  1.00  0.00     0.074 A 
ATOM     58  C   UNL A   1      43.185  27.786  32.113  1.00  0.00     0.029 A 
ATOM     59  N   UNL A   1      42.038  29.408  33.114  1.00  0.00    -0.354 N 
ATOM     60  N   UNL A   1      41.463  31.324  35.244  1.00  0.00    -0.248 NA
ATOM     61  C   UNL A   1      41.874  32.169  37.383  1.00  0.00     0.031 C 
ATOM     62  C   UNL A   1      43.722  27.987  33.387  1.00  0.00     0.029 A 
ATOM     63  C   UNL A   1      43.027  29.017  34.000  1.00  0.00     0.049 A 
ATOM     64  H   UNL A   1      41.380  30.123  33.279  1.00  0.00     0.167 HD
ATOM     65  C   UNL A   1      42.521  30.624  35.817  1.00  0.00     0.074 A 
ATOM     66  C   UNL A   1      42.748  31.205  37.124  1.00  0.00     0.031 C 
ATOM     67  C   UNL A   1      43.241  29.595  35.303  1.00  0.00     0.031 A 
BRANCH  54  68
ATOM     68  C   UNL A   1      41.379  27.809  29.688  1.00  0.00    -0.014 A 
ATOM     69  C   UNL A   1      42.383  28.014  28.724  1.00  0.00     0.010 A 
ATOM     70  C   UNL A   1      40.531  26.693  29.570  1.00  0.00     0.010 A 
ATOM     71  C   UNL A   1      42.506  27.146  27.636  1.00  0.00     0.020 A 
ATOM     72  C   UNL A   1      40.671  25.806  28.500  1.00  0.00     0.020 A 
ATOM     73  C   UNL A   1      41.646  26.049  27.531  1.00  0.00     0.054 A 
BRANCH  73  74
ATOM     74  S   UNL A   1      41.836  24.936  26.113  1.00  0.00     0.124 S 
ATOM     75  O   UNL A   1      43.279  24.713  26.096  1.00  0.00    -0.237 OA
ATOM     76  O   UNL A   1      41.028  23.784  26.504  1.00  0.00    -0.237 OA
ATOM     77  O   UNL A   1      41.312  25.709  24.989  1.00  0.00    -0.744 OA
ENDBRANCH  73  74
ENDBRANCH  54  68
BRANCH  55  78
ATOM     78  C   UNL A   1      39.789  34.224  37.156  1.00  0.00    -0.014 A 
ATOM     79  C   UNL A   1      38.776  33.991  38.104  1.00  0.00     0.010 A 
ATOM     80  C   UNL A   1      40.602  35.365  37.295  1.00  0.00     0.010 A 
ATOM     81  C   UNL A   1      38.589  34.872  39.173  1.00  0.00     0.020 A 
ATOM     82  C   UNL A   1      40.433  36.235  38.377  1.00  0.00     0.020 A 
ATOM     83  C   UNL A   1      39.427  35.982  39.311  1.00  0.00     0.054 A 
BRANCH  83  84
ATOM     84  S   UNL A   1      39.229  37.051  40.765  1.00  0.00     0.124 S 
ATOM     85  O   UNL A   1      40.566  37.616  40.914  1.00  0.00    -0.237 OA
ATOM     86  O   UNL A   1      38.192  37.982  40.326  1.00  0.00    -0.237 OA
ATOM     87  O   UNL A   1      38.817  36.125  41.817  1.00  0.00    -0.744 OA
ENDBRANCH  83  84
ENDBRANCH  55  78
BRANCH  67  88
ATOM     88  C   UNL A   1      44.359  29.021  36.137  1.00  0.00    -0.014 A 
ATOM     89  C   UNL A   1      44.154  27.894  36.952  1.00  0.00     0.010 A 
ATOM     90  C   UNL A   1      45.658  29.552  36.018  1.00  0.00     0.010 A 
ATOM     91  C   UNL A   1      45.224  27.318  37.643  1.00  0.00     0.020 A 
ATOM     92  C   UNL A   1      46.735  28.962  36.685  1.00  0.00     0.020 A 
ATOM     93  C   UNL A   1      46.509  27.852  37.500  1.00  0.00     0.054 A 
BRANCH  93  94
ATOM     94  S   UNL A   1      47.889  27.042  38.355  1.00  0.00     0.124 S 
ATOM     95  O   UNL A   1      49.048  27.612  37.673  1.00  0.00    -0.237 OA
ATOM     96  O   UNL A   1      47.702  27.469  39.739  1.00  0.00    -0.237 OA
ATOM     97  O   UNL A   1      47.664  25.619  38.112  1.00  0.00    -0.744 OA
ENDBRANCH  93  94
ENDBRANCH  67  88
ENDBRANCH  41  42
ENDBRANCH  34  36
ENDBRANCH  33  34
ENDBRANCH  32  33
ENDBRANCH  31  32
ENDBRANCH  30  31
ENDBRANCH  29  30
ENDBRANCH   1  29
TORSDOF 25
ENDMDL
