MODEL 1
REMARK VINA RESULT:      -8.8      0.000      0.000
REMARK SMILES Cc1nc(C)c(C(=O)N2CCC([C@H](C)C(=O)OCCOCCOCCOCCOC(=O)c3ccc(-c4c5nc(c(-c6ccc(S(=O)(=O)[O-])cc6)c6ccc([nH]6)c(-c6ccc(S(=O)(=O)[O-])cc6)c6nc(c(-c7ccc(S(=O)(=O)[O-])cc7)c7ccc4[nH]7)C=C6)C=C5)cc3)CC2)s1
REMARK SMILES IDX 24 1 23 2 22 3 21 4 20 5 19 6 18 7 17 8 15 9 16 10 13 11
REMARK SMILES IDX 14 12 12 13 7 14 8 15 9 16 10 17 93 18 11 19 92 20 6 21 1 22
REMARK SMILES IDX 2 23 3 24 94 25 4 26 5 27 25 28 26 29 27 30 28 31 29 32
REMARK SMILES IDX 30 33 31 34 32 35 33 36 91 37 34 38 90 39 35 40 36 41 37 42
REMARK SMILES IDX 84 43 38 44 89 45 83 46 85 47 39 48 88 49 82 50 81 51 40 53
REMARK SMILES IDX 70 54 51 55 69 56 52 57 55 58 68 59 86 60 53 61 54 62 67 64
REMARK SMILES IDX 87 65 56 66 41 67 42 68 50 69 43 70 49 71 44 72 45 73 46 74
REMARK SMILES IDX 47 75 48 76 71 77 72 78 80 79 73 80 79 81 74 82 75 83 76 84
REMARK SMILES IDX 77 85 78 86 57 87 58 88 66 89 59 90 65 91 60 92 61 93 62 94
REMARK SMILES IDX 63 95 64 96
REMARK H PARENT 85 52 55 63
REMARK Flexibility Score: inf
ROOT
ATOM      1  C   UNL A   1      34.187  34.995  28.845  1.00  0.00     0.188 C 
ENDROOT
BRANCH   1   2
ATOM      2  O   UNL A   1      33.650  33.916  29.566  1.00  0.00    -0.377 OA
BRANCH   2   3
ATOM      3  C   UNL A   1      34.018  32.637  29.115  1.00  0.00     0.188 C 
BRANCH   3   4
ATOM      4  C   UNL A   1      35.373  32.009  29.448  1.00  0.00     0.188 C 
BRANCH   4   5
ATOM      5  O   UNL A   1      35.708  30.681  29.079  1.00  0.00    -0.376 OA
BRANCH   5   6
ATOM      6  C   UNL A   1      35.663  30.167  27.764  1.00  0.00     0.202 C 
BRANCH   6   7
ATOM      7  C   UNL A   1      34.497  29.331  27.222  1.00  0.00     0.261 C 
BRANCH   7   8
ATOM      8  O   UNL A   1      34.482  29.079  25.809  1.00  0.00    -0.463 OA
BRANCH   8   9
ATOM      9  C   UNL A   1      33.275  29.190  25.191  1.00  0.00     0.309 C 
ATOM     10  O   UNL A   1      32.454  30.067  25.432  1.00  0.00    -0.252 OA
BRANCH   9  11
ATOM     11  C   UNL A   1      32.985  28.039  24.226  1.00  0.00     0.099 C 
ATOM     12  C   UNL A   1      33.697  28.112  22.871  1.00  0.00     0.020 C 
BRANCH  11  13
ATOM     13  C   UNL A   1      33.059  26.656  24.920  1.00  0.00     0.006 C 
ATOM     14  C   UNL A   1      31.678  22.726  25.577  1.00  0.00     0.265 C 
ATOM     15  O   UNL A   1      30.465  22.725  25.783  1.00  0.00    -0.268 OA
ATOM     16  N   UNL A   1      32.387  23.928  25.566  1.00  0.00    -0.338 N 
ATOM     17  C   UNL A   1      31.973  24.980  26.467  1.00  0.00     0.120 C 
ATOM     18  C   UNL A   1      33.560  24.185  24.738  1.00  0.00     0.120 C 
ATOM     19  C   UNL A   1      31.805  26.301  25.746  1.00  0.00     0.026 C 
ATOM     20  C   UNL A   1      33.387  25.485  23.971  1.00  0.00     0.026 C 
BRANCH  14  21
ATOM     21  C   UNL A   1      32.451  21.510  25.447  1.00  0.00     0.115 A 
ATOM     22  C   UNL A   1      33.785  18.235  23.869  1.00  0.00     0.079 C 
ATOM     23  C   UNL A   1      33.462  19.462  24.638  1.00  0.00     0.091 A 
ATOM     24  N   UNL A   1      34.009  19.803  25.782  1.00  0.00    -0.246 NA
ATOM     25  S   UNL A   1      32.329  20.566  24.010  1.00  0.00    -0.113 S 
ATOM     26  C   UNL A   1      33.468  21.005  26.240  1.00  0.00     0.061 A 
ATOM     27  C   UNL A   1      34.027  21.596  27.491  1.00  0.00     0.068 C 
ENDBRANCH  14  21
ENDBRANCH  11  13
ENDBRANCH   9  11
ENDBRANCH   8   9
ENDBRANCH   7   8
ENDBRANCH   6   7
ENDBRANCH   5   6
ENDBRANCH   4   5
ENDBRANCH   3   4
ENDBRANCH   2   3
ENDBRANCH   1   2
BRANCH   1  28
ATOM     28  C   UNL A   1      33.214  36.175  28.795  1.00  0.00     0.188 C 
BRANCH  28  29
ATOM     29  O   UNL A   1      32.633  36.711  29.986  1.00  0.00    -0.376 OA
BRANCH  29  30
ATOM     30  C   UNL A   1      33.375  37.524  30.881  1.00  0.00     0.202 C 
BRANCH  30  31
ATOM     31  C   UNL A   1      33.038  37.442  32.384  1.00  0.00     0.261 C 
BRANCH  31  32
ATOM     32  O   UNL A   1      33.743  36.467  33.160  1.00  0.00    -0.460 OA
BRANCH  32  33
ATOM     33  C   UNL A   1      33.470  35.172  32.878  1.00  0.00     0.338 C 
ATOM     34  O   UNL A   1      32.382  34.686  32.614  1.00  0.00    -0.246 OA
BRANCH  33  35
ATOM     35  C   UNL A   1      34.747  34.429  32.804  1.00  0.00     0.060 A 
ATOM     36  C   UNL A   1      34.766  33.076  33.169  1.00  0.00     0.016 A 
ATOM     37  C   UNL A   1      35.920  35.063  32.386  1.00  0.00     0.016 A 
ATOM     38  C   UNL A   1      35.961  32.359  33.143  1.00  0.00     0.010 A 
ATOM     39  C   UNL A   1      37.125  34.355  32.396  1.00  0.00     0.010 A 
ATOM     40  C   UNL A   1      37.154  33.011  32.809  1.00  0.00    -0.014 A 
BRANCH  40  41
ATOM     41  C   UNL A   1      38.445  32.362  33.134  1.00  0.00     0.031 A 
ATOM     42  C   UNL A   1      39.051  32.639  34.481  1.00  0.00     0.074 A 
ATOM     43  C   UNL A   1      39.051  31.529  32.270  1.00  0.00     0.049 A 
ATOM     44  N   UNL A   1      40.184  32.225  34.983  1.00  0.00    -0.248 NA
ATOM     45  C   UNL A   1      38.272  33.506  35.382  1.00  0.00     0.031 C 
ATOM     46  C   UNL A   1      38.537  31.149  30.956  1.00  0.00     0.029 A 
ATOM     47  N   UNL A   1      40.246  30.862  32.374  1.00  0.00    -0.354 N 
ATOM     48  C   UNL A   1      40.259  32.787  36.252  1.00  0.00     0.074 A 
ATOM     49  C   UNL A   1      39.075  33.598  36.430  1.00  0.00     0.031 C 
ATOM     50  C   UNL A   1      39.425  30.332  30.363  1.00  0.00     0.029 A 
ATOM     51  C   UNL A   1      40.582  30.159  31.242  1.00  0.00     0.049 A 
ATOM     52  H   UNL A   1      40.808  30.885  33.181  1.00  0.00     0.167 HD
ATOM     53  C   UNL A   1      41.226  32.640  37.189  1.00  0.00     0.031 A 
ATOM     54  C   UNL A   1      41.709  29.483  30.939  1.00  0.00     0.031 A 
ATOM     55  C   UNL A   1      42.416  31.858  36.992  1.00  0.00     0.049 A 
ATOM     56  C   UNL A   1      42.809  29.391  31.964  1.00  0.00     0.074 A 
ATOM     57  C   UNL A   1      43.457  31.638  37.876  1.00  0.00     0.029 A 
ATOM     58  N   UNL A   1      42.732  31.181  35.824  1.00  0.00    -0.354 N 
ATOM     59  N   UNL A   1      42.856  29.903  33.173  1.00  0.00    -0.248 NA
ATOM     60  C   UNL A   1      44.005  28.623  31.590  1.00  0.00     0.031 C 
ATOM     61  C   UNL A   1      44.432  30.881  37.218  1.00  0.00     0.029 A 
ATOM     62  C   UNL A   1      43.966  30.567  35.951  1.00  0.00     0.049 A 
ATOM     63  H   UNL A   1      42.162  31.142  35.021  1.00  0.00     0.167 HD
ATOM     64  C   UNL A   1      44.074  29.498  33.711  1.00  0.00     0.074 A 
ATOM     65  C   UNL A   1      44.725  28.686  32.703  1.00  0.00     0.031 C 
ATOM     66  C   UNL A   1      44.604  29.768  34.932  1.00  0.00     0.031 A 
BRANCH  53  67
ATOM     67  C   UNL A   1      41.048  33.390  38.484  1.00  0.00    -0.014 A 
ATOM     68  C   UNL A   1      41.739  34.589  38.740  1.00  0.00     0.010 A 
ATOM     69  C   UNL A   1      40.181  32.880  39.467  1.00  0.00     0.010 A 
ATOM     70  C   UNL A   1      41.611  35.231  39.975  1.00  0.00     0.020 A 
ATOM     71  C   UNL A   1      40.024  33.537  40.690  1.00  0.00     0.020 A 
ATOM     72  C   UNL A   1      40.759  34.696  40.945  1.00  0.00     0.054 A 
BRANCH  72  73
ATOM     73  S   UNL A   1      40.617  35.543  42.542  1.00  0.00     0.124 S 
ATOM     74  O   UNL A   1      40.449  34.422  43.463  1.00  0.00    -0.237 OA
ATOM     75  O   UNL A   1      41.891  36.252  42.643  1.00  0.00    -0.237 OA
ATOM     76  O   UNL A   1      39.444  36.397  42.380  1.00  0.00    -0.744 OA
ENDBRANCH  72  73
ENDBRANCH  53  67
BRANCH  54  77
ATOM     77  C   UNL A   1      41.855  28.865  29.592  1.00  0.00    -0.014 A 
ATOM     78  C   UNL A   1      42.304  29.618  28.494  1.00  0.00     0.010 A 
ATOM     79  C   UNL A   1      41.570  27.498  29.412  1.00  0.00     0.010 A 
ATOM     80  C   UNL A   1      42.466  29.015  27.241  1.00  0.00     0.020 A 
ATOM     81  C   UNL A   1      41.758  26.885  28.169  1.00  0.00     0.020 A 
ATOM     82  C   UNL A   1      42.201  27.650  27.091  1.00  0.00     0.054 A 
BRANCH  82  83
ATOM     83  S   UNL A   1      42.507  26.873  25.479  1.00  0.00     0.124 S 
ATOM     84  O   UNL A   1      41.292  26.086  25.285  1.00  0.00    -0.237 OA
ATOM     85  O   UNL A   1      42.661  28.029  24.598  1.00  0.00    -0.237 OA
ATOM     86  O   UNL A   1      43.729  26.101  25.696  1.00  0.00    -0.744 OA
ENDBRANCH  82  83
ENDBRANCH  54  77
BRANCH  66  87
ATOM     87  C   UNL A   1      45.941  29.157  35.264  1.00  0.00    -0.014 A 
ATOM     88  C   UNL A   1      46.039  27.905  35.898  1.00  0.00     0.010 A 
ATOM     89  C   UNL A   1      47.120  29.820  34.874  1.00  0.00     0.010 A 
ATOM     90  C   UNL A   1      47.293  27.344  36.162  1.00  0.00     0.020 A 
ATOM     91  C   UNL A   1      48.373  29.248  35.109  1.00  0.00     0.020 A 
ATOM     92  C   UNL A   1      48.452  28.019  35.765  1.00  0.00     0.054 A 
BRANCH  92  93
ATOM     93  S   UNL A   1      50.062  27.248  36.081  1.00  0.00     0.124 S 
ATOM     94  O   UNL A   1      49.679  25.996  36.727  1.00  0.00    -0.237 OA
ATOM     95  O   UNL A   1      50.624  27.117  34.739  1.00  0.00    -0.237 OA
ATOM     96  O   UNL A   1      50.745  28.210  36.944  1.00  0.00    -0.744 OA
ENDBRANCH  92  93
ENDBRANCH  66  87
ENDBRANCH  40  41
ENDBRANCH  33  35
ENDBRANCH  32  33
ENDBRANCH  31  32
ENDBRANCH  30  31
ENDBRANCH  29  30
ENDBRANCH  28  29
ENDBRANCH   1  28
TORSDOF 25
ENDMDL
MODEL 2
REMARK VINA RESULT:      -8.6      5.029      6.654
REMARK SMILES Cc1nc(C)c(C(=O)N2CCC([C@H](C)C(=O)OCCOCCOCCOCCOC(=O)c3ccc(-c4c5nc(c(-c6ccc(S(=O)(=O)[O-])cc6)c6ccc([nH]6)c(-c6ccc(S(=O)(=O)[O-])cc6)c6nc(c(-c7ccc(S(=O)(=O)[O-])cc7)c7ccc4[nH]7)C=C6)C=C5)cc3)CC2)s1
REMARK SMILES IDX 24 1 23 2 22 3 21 4 20 5 19 6 18 7 17 8 15 9 16 10 13 11
REMARK SMILES IDX 14 12 12 13 7 14 8 15 9 16 10 17 93 18 11 19 92 20 6 21 1 22
REMARK SMILES IDX 2 23 3 24 94 25 4 26 5 27 25 28 26 29 27 30 28 31 29 32
REMARK SMILES IDX 30 33 31 34 32 35 33 36 91 37 34 38 90 39 35 40 36 41 37 42
REMARK SMILES IDX 84 43 38 44 89 45 83 46 85 47 39 48 88 49 82 50 81 51 40 53
REMARK SMILES IDX 70 54 51 55 69 56 52 57 55 58 68 59 86 60 53 61 54 62 67 64
REMARK SMILES IDX 87 65 56 66 41 67 42 68 50 69 43 70 49 71 44 72 45 73 46 74
REMARK SMILES IDX 47 75 48 76 71 77 72 78 80 79 73 80 79 81 74 82 75 83 76 84
REMARK SMILES IDX 77 85 78 86 57 87 58 88 66 89 59 90 65 91 60 92 61 93 62 94
REMARK SMILES IDX 63 95 64 96
REMARK H PARENT 85 52 55 63
REMARK Flexibility Score: inf
ROOT
ATOM      1  C   UNL A   1      32.891  36.033  29.552  1.00  0.00     0.188 C 
ENDROOT
BRANCH   1   2
ATOM      2  O   UNL A   1      32.728  34.936  28.690  1.00  0.00    -0.377 OA
BRANCH   2   3
ATOM      3  C   UNL A   1      33.914  34.349  28.218  1.00  0.00     0.188 C 
BRANCH   3   4
ATOM      4  C   UNL A   1      34.278  32.891  28.505  1.00  0.00     0.188 C 
BRANCH   4   5
ATOM      5  O   UNL A   1      33.578  31.803  27.926  1.00  0.00    -0.376 OA
BRANCH   5   6
ATOM      6  C   UNL A   1      34.179  30.722  27.239  1.00  0.00     0.202 C 
BRANCH   6   7
ATOM      7  C   UNL A   1      33.398  29.506  26.730  1.00  0.00     0.261 C 
BRANCH   7   8
ATOM      8  O   UNL A   1      33.639  29.101  25.374  1.00  0.00    -0.463 OA
BRANCH   8   9
ATOM      9  C   UNL A   1      32.656  28.373  24.779  1.00  0.00     0.309 C 
ATOM     10  O   UNL A   1      31.510  28.282  25.206  1.00  0.00    -0.252 OA
BRANCH   9  11
ATOM     11  C   UNL A   1      33.145  27.579  23.567  1.00  0.00     0.099 C 
ATOM     12  C   UNL A   1      33.983  28.363  22.553  1.00  0.00     0.020 C 
BRANCH  11  13
ATOM     13  C   UNL A   1      33.733  26.201  23.963  1.00  0.00     0.006 C 
ATOM     14  C   UNL A   1      33.558  22.505  25.985  1.00  0.00     0.265 C 
ATOM     15  O   UNL A   1      33.252  22.674  27.165  1.00  0.00    -0.268 OA
ATOM     16  N   UNL A   1      33.901  23.596  25.186  1.00  0.00    -0.338 N 
ATOM     17  C   UNL A   1      34.611  24.698  25.794  1.00  0.00     0.120 C 
ATOM     18  C   UNL A   1      33.638  23.684  23.754  1.00  0.00     0.120 C 
ATOM     19  C   UNL A   1      33.956  26.028  25.480  1.00  0.00     0.026 C 
ATOM     20  C   UNL A   1      32.938  24.993  23.428  1.00  0.00     0.026 C 
BRANCH  14  21
ATOM     21  C   UNL A   1      33.688  21.192  25.390  1.00  0.00     0.115 A 
ATOM     22  C   UNL A   1      32.626  17.890  23.668  1.00  0.00     0.079 C 
ATOM     23  C   UNL A   1      33.268  19.083  24.276  1.00  0.00     0.091 A 
ATOM     24  N   UNL A   1      34.557  19.225  24.479  1.00  0.00    -0.246 NA
ATOM     25  S   UNL A   1      32.303  20.412  24.724  1.00  0.00    -0.113 S 
ATOM     26  C   UNL A   1      34.820  20.457  25.081  1.00  0.00     0.061 A 
ATOM     27  C   UNL A   1      36.245  20.834  25.317  1.00  0.00     0.068 C 
ENDBRANCH  14  21
ENDBRANCH  11  13
ENDBRANCH   9  11
ENDBRANCH   8   9
ENDBRANCH   7   8
ENDBRANCH   6   7
ENDBRANCH   5   6
ENDBRANCH   4   5
ENDBRANCH   3   4
ENDBRANCH   2   3
ENDBRANCH   1   2
BRANCH   1  28
ATOM     28  C   UNL A   1      32.730  35.623  31.017  1.00  0.00     0.188 C 
BRANCH  28  29
ATOM     29  O   UNL A   1      33.598  36.132  32.032  1.00  0.00    -0.376 OA
BRANCH  29  30
ATOM     30  C   UNL A   1      34.704  35.385  32.515  1.00  0.00     0.202 C 
BRANCH  30  31
ATOM     31  C   UNL A   1      35.220  34.215  31.652  1.00  0.00     0.261 C 
BRANCH  31  32
ATOM     32  O   UNL A   1      36.557  33.763  31.896  1.00  0.00    -0.460 OA
BRANCH  32  33
ATOM     33  C   UNL A   1      36.676  32.569  32.522  1.00  0.00     0.338 C 
ATOM     34  O   UNL A   1      35.951  32.114  33.392  1.00  0.00    -0.246 OA
BRANCH  33  35
ATOM     35  C   UNL A   1      37.774  31.813  31.880  1.00  0.00     0.060 A 
ATOM     36  C   UNL A   1      38.546  30.945  32.665  1.00  0.00     0.016 A 
ATOM     37  C   UNL A   1      38.045  31.962  30.518  1.00  0.00     0.016 A 
ATOM     38  C   UNL A   1      39.609  30.245  32.097  1.00  0.00     0.010 A 
ATOM     39  C   UNL A   1      39.133  31.289  29.957  1.00  0.00     0.010 A 
ATOM     40  C   UNL A   1      39.940  30.457  30.753  1.00  0.00    -0.014 A 
BRANCH  40  41
ATOM     41  C   UNL A   1      41.262  30.010  30.258  1.00  0.00     0.031 A 
ATOM     42  C   UNL A   1      42.392  31.002  30.278  1.00  0.00     0.074 A 
ATOM     43  C   UNL A   1      41.465  28.753  29.828  1.00  0.00     0.049 A 
ATOM     44  N   UNL A   1      43.624  30.866  29.864  1.00  0.00    -0.248 NA
ATOM     45  C   UNL A   1      42.085  32.329  30.837  1.00  0.00     0.031 C 
ATOM     46  C   UNL A   1      40.461  27.692  29.805  1.00  0.00     0.029 A 
ATOM     47  N   UNL A   1      42.593  28.164  29.313  1.00  0.00    -0.354 N 
ATOM     48  C   UNL A   1      44.236  32.091  30.104  1.00  0.00     0.074 A 
ATOM     49  C   UNL A   1      43.232  32.967  30.667  1.00  0.00     0.031 C 
ATOM     50  C   UNL A   1      41.012  26.585  29.279  1.00  0.00     0.029 A 
ATOM     51  C   UNL A   1      42.396  26.869  28.898  1.00  0.00     0.049 A 
ATOM     52  H   UNL A   1      43.460  28.625  29.247  1.00  0.00     0.167 HD
ATOM     53  C   UNL A   1      45.521  32.455  29.878  1.00  0.00     0.031 A 
ATOM     54  C   UNL A   1      43.227  26.023  28.256  1.00  0.00     0.031 A 
ATOM     55  C   UNL A   1      46.505  31.589  29.289  1.00  0.00     0.049 A 
ATOM     56  C   UNL A   1      44.632  26.470  27.944  1.00  0.00     0.074 A 
ATOM     57  C   UNL A   1      47.836  31.854  29.021  1.00  0.00     0.029 A 
ATOM     58  N   UNL A   1      46.260  30.292  28.861  1.00  0.00    -0.354 N 
ATOM     59  N   UNL A   1      45.209  27.621  28.202  1.00  0.00    -0.248 NA
ATOM     60  C   UNL A   1      45.502  25.501  27.264  1.00  0.00     0.031 C 
ATOM     61  C   UNL A   1      48.378  30.740  28.372  1.00  0.00     0.029 A 
ATOM     62  C   UNL A   1      47.407  29.754  28.301  1.00  0.00     0.049 A 
ATOM     63  H   UNL A   1      45.398  29.823  28.942  1.00  0.00     0.167 HD
ATOM     64  C   UNL A   1      46.516  27.505  27.738  1.00  0.00     0.074 A 
ATOM     65  C   UNL A   1      46.648  26.167  27.198  1.00  0.00     0.031 C 
ATOM     66  C   UNL A   1      47.518  28.421  27.760  1.00  0.00     0.031 A 
BRANCH  53  67
ATOM     67  C   UNL A   1      45.905  33.870  30.226  1.00  0.00    -0.014 A 
ATOM     68  C   UNL A   1      46.393  34.207  31.502  1.00  0.00     0.010 A 
ATOM     69  C   UNL A   1      45.765  34.884  29.261  1.00  0.00     0.010 A 
ATOM     70  C   UNL A   1      46.678  35.537  31.824  1.00  0.00     0.020 A 
ATOM     71  C   UNL A   1      46.081  36.210  29.567  1.00  0.00     0.020 A 
ATOM     72  C   UNL A   1      46.513  36.531  30.856  1.00  0.00     0.054 A 
BRANCH  72  73
ATOM     73  S   UNL A   1      46.882  38.250  31.301  1.00  0.00     0.124 S 
ATOM     74  O   UNL A   1      45.676  38.941  30.853  1.00  0.00    -0.237 OA
ATOM     75  O   UNL A   1      47.061  38.174  32.749  1.00  0.00    -0.237 OA
ATOM     76  O   UNL A   1      48.092  38.554  30.542  1.00  0.00    -0.744 OA
ENDBRANCH  72  73
ENDBRANCH  53  67
BRANCH  54  77
ATOM     77  C   UNL A   1      42.734  24.681  27.844  1.00  0.00    -0.014 A 
ATOM     78  C   UNL A   1      42.788  23.586  28.724  1.00  0.00     0.010 A 
ATOM     79  C   UNL A   1      42.174  24.500  26.565  1.00  0.00     0.010 A 
ATOM     80  C   UNL A   1      42.291  22.338  28.333  1.00  0.00     0.020 A 
ATOM     81  C   UNL A   1      41.650  23.262  26.181  1.00  0.00     0.020 A 
ATOM     82  C   UNL A   1      41.716  22.187  27.067  1.00  0.00     0.054 A 
BRANCH  82  83
ATOM     83  S   UNL A   1      40.997  20.582  26.618  1.00  0.00     0.124 S 
ATOM     84  O   UNL A   1      39.680  20.968  26.119  1.00  0.00    -0.237 OA
ATOM     85  O   UNL A   1      41.936  20.088  25.614  1.00  0.00    -0.237 OA
ATOM     86  O   UNL A   1      41.000  19.841  27.878  1.00  0.00    -0.744 OA
ENDBRANCH  82  83
ENDBRANCH  54  77
BRANCH  66  87
ATOM     87  C   UNL A   1      48.859  28.002  27.215  1.00  0.00    -0.014 A 
ATOM     88  C   UNL A   1      49.312  28.443  25.958  1.00  0.00     0.010 A 
ATOM     89  C   UNL A   1      49.708  27.204  28.006  1.00  0.00     0.010 A 
ATOM     90  C   UNL A   1      50.576  28.069  25.492  1.00  0.00     0.020 A 
ATOM     91  C   UNL A   1      50.984  26.854  27.556  1.00  0.00     0.020 A 
ATOM     92  C   UNL A   1      51.404  27.277  26.294  1.00  0.00     0.054 A 
BRANCH  92  93
ATOM     93  S   UNL A   1      53.055  26.843  25.683  1.00  0.00     0.124 S 
ATOM     94  O   UNL A   1      52.773  25.684  24.841  1.00  0.00    -0.237 OA
ATOM     95  O   UNL A   1      53.462  28.052  24.971  1.00  0.00    -0.237 OA
ATOM     96  O   UNL A   1      53.813  26.559  26.900  1.00  0.00    -0.744 OA
ENDBRANCH  92  93
ENDBRANCH  66  87
ENDBRANCH  40  41
ENDBRANCH  33  35
ENDBRANCH  32  33
ENDBRANCH  31  32
ENDBRANCH  30  31
ENDBRANCH  29  30
ENDBRANCH  28  29
ENDBRANCH   1  28
TORSDOF 25
ENDMDL
MODEL 3
REMARK VINA RESULT:      -8.4      6.398     11.996
REMARK SMILES Cc1nc(C)c(C(=O)N2CCC([C@H](C)C(=O)OCCOCCOCCOCCOC(=O)c3ccc(-c4c5nc(c(-c6ccc(S(=O)(=O)[O-])cc6)c6ccc([nH]6)c(-c6ccc(S(=O)(=O)[O-])cc6)c6nc(c(-c7ccc(S(=O)(=O)[O-])cc7)c7ccc4[nH]7)C=C6)C=C5)cc3)CC2)s1
REMARK SMILES IDX 24 1 23 2 22 3 21 4 20 5 19 6 18 7 17 8 15 9 16 10 13 11
REMARK SMILES IDX 14 12 12 13 7 14 8 15 9 16 10 17 93 18 11 19 92 20 6 21 1 22
REMARK SMILES IDX 2 23 3 24 94 25 4 26 5 27 25 28 26 29 27 30 28 31 29 32
REMARK SMILES IDX 30 33 31 34 32 35 33 36 91 37 34 38 90 39 35 40 36 41 37 42
REMARK SMILES IDX 84 43 38 44 89 45 83 46 85 47 39 48 88 49 82 50 81 51 40 53
REMARK SMILES IDX 70 54 51 55 69 56 52 57 55 58 68 59 86 60 53 61 54 62 67 64
REMARK SMILES IDX 87 65 56 66 41 67 42 68 50 69 43 70 49 71 44 72 45 73 46 74
REMARK SMILES IDX 47 75 48 76 71 77 72 78 80 79 73 80 79 81 74 82 75 83 76 84
REMARK SMILES IDX 77 85 78 86 57 87 58 88 66 89 59 90 65 91 60 92 61 93 62 94
REMARK SMILES IDX 63 95 64 96
REMARK H PARENT 85 52 55 63
REMARK Flexibility Score: inf
ROOT
ATOM      1  C   UNL A   1      41.852  23.960  27.098  1.00  0.00     0.188 C 
ENDROOT
BRANCH   1   2
ATOM      2  O   UNL A   1      41.066  23.308  28.062  1.00  0.00    -0.377 OA
BRANCH   2   3
ATOM      3  C   UNL A   1      40.842  21.939  27.842  1.00  0.00     0.188 C 
BRANCH   3   4
ATOM      4  C   UNL A   1      40.110  21.416  26.604  1.00  0.00     0.188 C 
BRANCH   4   5
ATOM      5  O   UNL A   1      38.934  22.026  26.100  1.00  0.00    -0.376 OA
BRANCH   5   6
ATOM      6  C   UNL A   1      37.998  21.403  25.242  1.00  0.00     0.202 C 
BRANCH   6   7
ATOM      7  C   UNL A   1      36.524  21.196  25.607  1.00  0.00     0.261 C 
BRANCH   7   8
ATOM      8  O   UNL A   1      35.572  21.287  24.536  1.00  0.00    -0.463 OA
BRANCH   8   9
ATOM      9  C   UNL A   1      34.510  20.439  24.601  1.00  0.00     0.309 C 
ATOM     10  O   UNL A   1      34.597  19.243  24.855  1.00  0.00    -0.252 OA
BRANCH   9  11
ATOM     11  C   UNL A   1      33.186  21.102  24.218  1.00  0.00     0.099 C 
ATOM     12  C   UNL A   1      31.985  20.744  25.098  1.00  0.00     0.020 C 
BRANCH  11  13
ATOM     13  C   UNL A   1      33.347  22.615  23.930  1.00  0.00     0.006 C 
ATOM     14  C   UNL A   1      31.794  26.478  23.263  1.00  0.00     0.265 C 
ATOM     15  O   UNL A   1      30.912  26.446  22.406  1.00  0.00    -0.268 OA
ATOM     16  N   UNL A   1      32.606  25.364  23.477  1.00  0.00    -0.338 N 
ATOM     17  C   UNL A   1      32.961  24.543  22.343  1.00  0.00     0.120 C 
ATOM     18  C   UNL A   1      33.171  24.993  24.770  1.00  0.00     0.120 C 
ATOM     19  C   UNL A   1      32.696  23.075  22.609  1.00  0.00     0.026 C 
ATOM     20  C   UNL A   1      32.873  23.534  25.074  1.00  0.00     0.026 C 
BRANCH  14  21
ATOM     21  C   UNL A   1      32.117  27.676  24.009  1.00  0.00     0.115 A 
ATOM     22  C   UNL A   1      31.955  30.318  26.836  1.00  0.00     0.079 C 
ATOM     23  C   UNL A   1      32.227  29.424  25.683  1.00  0.00     0.091 A 
ATOM     24  N   UNL A   1      33.147  29.629  24.769  1.00  0.00    -0.246 NA
ATOM     25  S   UNL A   1      31.330  27.988  25.510  1.00  0.00    -0.113 S 
ATOM     26  C   UNL A   1      33.126  28.605  23.820  1.00  0.00     0.061 A 
ATOM     27  C   UNL A   1      34.160  28.622  22.744  1.00  0.00     0.068 C 
ENDBRANCH  14  21
ENDBRANCH  11  13
ENDBRANCH   9  11
ENDBRANCH   8   9
ENDBRANCH   7   8
ENDBRANCH   6   7
ENDBRANCH   5   6
ENDBRANCH   4   5
ENDBRANCH   3   4
ENDBRANCH   2   3
ENDBRANCH   1   2
BRANCH   1  28
ATOM     28  C   UNL A   1      43.194  23.254  26.898  1.00  0.00     0.188 C 
BRANCH  28  29
ATOM     29  O   UNL A   1      43.450  22.458  25.739  1.00  0.00    -0.376 OA
BRANCH  29  30
ATOM     30  C   UNL A   1      44.417  22.834  24.771  1.00  0.00     0.202 C 
BRANCH  30  31
ATOM     31  C   UNL A   1      44.870  24.308  24.735  1.00  0.00     0.261 C 
BRANCH  31  32
ATOM     32  O   UNL A   1      46.276  24.563  24.833  1.00  0.00    -0.460 OA
BRANCH  32  33
ATOM     33  C   UNL A   1      46.771  24.685  26.087  1.00  0.00     0.338 C 
ATOM     34  O   UNL A   1      47.285  23.813  26.768  1.00  0.00    -0.246 OA
BRANCH  33  35
ATOM     35  C   UNL A   1      46.717  26.112  26.473  1.00  0.00     0.060 A 
ATOM     36  C   UNL A   1      46.954  26.461  27.810  1.00  0.00     0.016 A 
ATOM     37  C   UNL A   1      46.430  27.100  25.527  1.00  0.00     0.016 A 
ATOM     38  C   UNL A   1      46.877  27.793  28.212  1.00  0.00     0.010 A 
ATOM     39  C   UNL A   1      46.315  28.431  25.937  1.00  0.00     0.010 A 
ATOM     40  C   UNL A   1      46.503  28.776  27.287  1.00  0.00    -0.014 A 
BRANCH  40  41
ATOM     41  C   UNL A   1      46.068  30.102  27.782  1.00  0.00     0.031 A 
ATOM     42  C   UNL A   1      47.026  31.253  27.643  1.00  0.00     0.074 A 
ATOM     43  C   UNL A   1      44.848  30.290  28.315  1.00  0.00     0.049 A 
ATOM     44  N   UNL A   1      46.895  32.493  28.032  1.00  0.00    -0.248 NA
ATOM     45  C   UNL A   1      48.307  30.959  26.978  1.00  0.00     0.031 C 
ATOM     46  C   UNL A   1      43.819  29.263  28.459  1.00  0.00     0.029 A 
ATOM     47  N   UNL A   1      44.279  31.419  28.847  1.00  0.00    -0.354 N 
ATOM     48  C   UNL A   1      48.079  33.125  27.668  1.00  0.00     0.074 A 
ATOM     49  C   UNL A   1      48.927  32.124  27.059  1.00  0.00     0.031 C 
ATOM     50  C   UNL A   1      42.749  29.804  29.065  1.00  0.00     0.029 A 
ATOM     51  C   UNL A   1      43.030  31.205  29.379  1.00  0.00     0.049 A 
ATOM     52  H   UNL A   1      44.721  32.298  28.847  1.00  0.00     0.167 HD
ATOM     53  C   UNL A   1      48.429  34.424  27.824  1.00  0.00     0.031 A 
ATOM     54  C   UNL A   1      42.223  32.037  30.069  1.00  0.00     0.031 A 
ATOM     55  C   UNL A   1      47.593  35.406  28.459  1.00  0.00     0.049 A 
ATOM     56  C   UNL A   1      42.659  33.460  30.301  1.00  0.00     0.074 A 
ATOM     57  C   UNL A   1      47.847  36.750  28.665  1.00  0.00     0.029 A 
ATOM     58  N   UNL A   1      46.345  35.146  29.006  1.00  0.00    -0.354 N 
ATOM     59  N   UNL A   1      43.769  34.055  29.926  1.00  0.00    -0.248 NA
ATOM     60  C   UNL A   1      41.731  34.329  31.038  1.00  0.00     0.031 C 
ATOM     61  C   UNL A   1      46.781  37.286  29.394  1.00  0.00     0.029 A 
ATOM     62  C   UNL A   1      45.829  36.296  29.578  1.00  0.00     0.049 A 
ATOM     63  H   UNL A   1      45.893  34.271  28.991  1.00  0.00     0.167 HD
ATOM     64  C   UNL A   1      43.660  35.373  30.362  1.00  0.00     0.074 A 
ATOM     65  C   UNL A   1      42.372  35.491  31.013  1.00  0.00     0.031 C 
ATOM     66  C   UNL A   1      44.545  36.394  30.230  1.00  0.00     0.031 A 
BRANCH  53  67
ATOM     67  C   UNL A   1      49.798  34.829  27.343  1.00  0.00    -0.014 A 
ATOM     68  C   UNL A   1      50.902  34.868  28.216  1.00  0.00     0.010 A 
ATOM     69  C   UNL A   1      49.982  35.189  25.995  1.00  0.00     0.010 A 
ATOM     70  C   UNL A   1      52.148  35.313  27.763  1.00  0.00     0.020 A 
ATOM     71  C   UNL A   1      51.234  35.602  25.531  1.00  0.00     0.020 A 
ATOM     72  C   UNL A   1      52.303  35.684  26.425  1.00  0.00     0.054 A 
BRANCH  72  73
ATOM     73  S   UNL A   1      53.927  36.265  25.865  1.00  0.00     0.124 S 
ATOM     74  O   UNL A   1      54.282  37.219  26.913  1.00  0.00    -0.237 OA
ATOM     75  O   UNL A   1      54.717  35.035  25.843  1.00  0.00    -0.237 OA
ATOM     76  O   UNL A   1      53.655  36.851  24.556  1.00  0.00    -0.744 OA
ENDBRANCH  72  73
ENDBRANCH  53  67
BRANCH  54  77
ATOM     77  C   UNL A   1      40.934  31.526  30.611  1.00  0.00    -0.014 A 
ATOM     78  C   UNL A   1      39.749  31.605  29.860  1.00  0.00     0.010 A 
ATOM     79  C   UNL A   1      40.896  30.924  31.884  1.00  0.00     0.010 A 
ATOM     80  C   UNL A   1      38.551  31.092  30.371  1.00  0.00     0.020 A 
ATOM     81  C   UNL A   1      39.708  30.384  32.386  1.00  0.00     0.020 A 
ATOM     82  C   UNL A   1      38.542  30.476  31.627  1.00  0.00     0.054 A 
BRANCH  82  83
ATOM     83  S   UNL A   1      36.996  29.737  32.227  1.00  0.00     0.124 S 
ATOM     84  O   UNL A   1      36.387  30.850  32.949  1.00  0.00    -0.237 OA
ATOM     85  O   UNL A   1      36.332  29.349  30.985  1.00  0.00    -0.237 OA
ATOM     86  O   UNL A   1      37.448  28.621  33.055  1.00  0.00    -0.744 OA
ENDBRANCH  82  83
ENDBRANCH  54  77
BRANCH  66  87
ATOM     87  C   UNL A   1      44.142  37.741  30.772  1.00  0.00    -0.014 A 
ATOM     88  C   UNL A   1      43.656  38.756  29.928  1.00  0.00     0.010 A 
ATOM     89  C   UNL A   1      44.190  37.972  32.160  1.00  0.00     0.010 A 
ATOM     90  C   UNL A   1      43.254  39.986  30.460  1.00  0.00     0.020 A 
ATOM     91  C   UNL A   1      43.761  39.188  32.698  1.00  0.00     0.020 A 
ATOM     92  C   UNL A   1      43.309  40.192  31.842  1.00  0.00     0.054 A 
BRANCH  92  93
ATOM     93  S   UNL A   1      42.741  41.780  32.510  1.00  0.00     0.124 S 
ATOM     94  O   UNL A   1      42.073  42.374  31.355  1.00  0.00    -0.237 OA
ATOM     95  O   UNL A   1      41.863  41.373  33.603  1.00  0.00    -0.237 OA
ATOM     96  O   UNL A   1      43.975  42.444  32.925  1.00  0.00    -0.744 OA
ENDBRANCH  92  93
ENDBRANCH  66  87
ENDBRANCH  40  41
ENDBRANCH  33  35
ENDBRANCH  32  33
ENDBRANCH  31  32
ENDBRANCH  30  31
ENDBRANCH  29  30
ENDBRANCH  28  29
ENDBRANCH   1  28
TORSDOF 25
ENDMDL
