MODEL 1
REMARK VINA RESULT:      -6.2      0.000      0.000
REMARK SMILES CCCCCCNC(=O)Oc1cccc(-c2ccc([C@@H](C)C(=O)OCCOCCOCCOCCOC(=O)c3ccc(-c4c5nc(c(-c6ccc(S(=O)(=O)[O-])cc6)c6ccc([nH]6)c(-c6ccc(S(=O)(=O)[O-])cc6)c6nc(c(-c7ccc(S(=O)(=O)[O-])cc7)c7ccc4[nH]7)C=C6)C=C5)cc3)cc2)c1
REMARK SMILES IDX 27 1 26 2 25 3 24 4 22 5 23 6 20 7 21 8 19 9 16 10 17 11
REMARK SMILES IDX 100 12 18 13 99 14 15 15 11 16 12 17 101 18 13 19 14 20
REMARK SMILES IDX 10 21 8 22 7 23 9 25 6 26 5 27 4 28 3 29 2 30 1 31 28 32
REMARK SMILES IDX 29 33 30 34 31 35 32 36 33 37 34 38 35 39 36 40 37 41 38 42
REMARK SMILES IDX 39 43 40 44 98 45 41 46 97 47 42 48 43 49 44 50 91 51 45 52
REMARK SMILES IDX 96 53 90 54 92 55 46 56 95 57 89 58 88 59 47 61 77 62 58 63
REMARK SMILES IDX 76 64 59 65 62 66 75 67 93 68 60 69 61 70 74 72 94 73 63 74
REMARK SMILES IDX 48 75 49 76 57 77 50 78 56 79 51 80 52 81 53 82 54 83 55 84
REMARK SMILES IDX 78 85 79 86 87 87 80 88 86 89 81 90 82 91 83 92 84 93 85 94
REMARK SMILES IDX 64 95 65 96 73 97 66 98 72 99 67 100 68 101 69 102 70 103
REMARK SMILES IDX 71 104
REMARK H PARENT 7 24 92 60 62 71
REMARK Flexibility Score: inf
ROOT
ATOM      1  O   UNL A   1      36.089  33.096  29.855  1.00  0.00    -0.376 OA
ENDROOT
BRANCH   1   2
ATOM      2  C   UNL A   1      36.919  32.614  28.808  1.00  0.00     0.202 C 
BRANCH   2   3
ATOM      3  C   UNL A   1      37.768  31.342  28.995  1.00  0.00     0.261 C 
BRANCH   3   4
ATOM      4  O   UNL A   1      38.977  31.470  29.772  1.00  0.00    -0.463 OA
BRANCH   4   5
ATOM      5  C   UNL A   1      39.605  30.319  30.101  1.00  0.00     0.313 C 
ATOM      6  O   UNL A   1      40.754  30.275  30.542  1.00  0.00    -0.252 OA
BRANCH   5   7
ATOM      7  C   UNL A   1      38.814  29.031  29.870  1.00  0.00     0.126 C 
ATOM      8  C   UNL A   1      38.202  28.594  31.195  1.00  0.00     0.025 C 
BRANCH   7   9
ATOM      9  C   UNL A   1      39.420  27.843  29.123  1.00  0.00    -0.034 A 
ATOM     10  C   UNL A   1      40.488  25.528  27.805  1.00  0.00    -0.018 A 
ATOM     11  C   UNL A   1      40.966  26.822  27.531  1.00  0.00     0.009 A 
ATOM     12  C   UNL A   1      39.455  25.414  28.743  1.00  0.00     0.009 A 
ATOM     13  C   UNL A   1      40.447  27.960  28.179  1.00  0.00     0.005 A 
ATOM     14  C   UNL A   1      38.940  26.545  29.397  1.00  0.00     0.005 A 
BRANCH  10  15
ATOM     15  C   UNL A   1      41.096  24.327  27.192  1.00  0.00    -0.015 A 
ATOM     16  C   UNL A   1      42.985  23.116  26.244  1.00  0.00     0.133 A 
ATOM     17  C   UNL A   1      42.165  22.042  25.905  1.00  0.00     0.047 A 
ATOM     18  C   UNL A   1      42.467  24.256  26.871  1.00  0.00     0.056 A 
ATOM     19  C   UNL A   1      40.811  22.095  26.219  1.00  0.00     0.004 A 
ATOM     20  C   UNL A   1      40.286  23.226  26.856  1.00  0.00     0.009 A 
BRANCH  16  21
ATOM     21  O   UNL A   1      44.323  23.043  25.810  1.00  0.00    -0.410 OA
BRANCH  21  22
ATOM     22  C   UNL A   1      44.931  24.208  25.366  1.00  0.00     0.412 C 
ATOM     23  N   UNL A   1      46.017  24.575  26.115  1.00  0.00    -0.321 N 
ATOM     24  H   UNL A   1      46.495  25.384  25.821  1.00  0.00     0.167 HD
ATOM     25  O   UNL A   1      44.575  24.885  24.408  1.00  0.00    -0.224 OA
BRANCH  23  26
ATOM     26  C   UNL A   1      46.543  23.911  27.292  1.00  0.00     0.119 C 
BRANCH  26  27
ATOM     27  C   UNL A   1      46.827  24.894  28.430  1.00  0.00     0.021 C 
BRANCH  27  28
ATOM     28  C   UNL A   1      45.633  25.766  28.846  1.00  0.00     0.002 C 
BRANCH  28  29
ATOM     29  C   UNL A   1      44.412  25.010  29.381  1.00  0.00    -0.000 C 
BRANCH  29  30
ATOM     30  C   UNL A   1      44.174  25.124  30.889  1.00  0.00    -0.003 C 
ATOM     31  C   UNL A   1      45.447  25.374  31.684  1.00  0.00     0.004 C 
ENDBRANCH  29  30
ENDBRANCH  28  29
ENDBRANCH  27  28
ENDBRANCH  26  27
ENDBRANCH  23  26
ENDBRANCH  21  22
ENDBRANCH  16  21
ENDBRANCH  10  15
ENDBRANCH   7   9
ENDBRANCH   5   7
ENDBRANCH   4   5
ENDBRANCH   3   4
ENDBRANCH   2   3
ENDBRANCH   1   2
BRANCH   1  32
ATOM     32  C   UNL A   1      36.607  33.276  31.168  1.00  0.00     0.188 C 
BRANCH  32  33
ATOM     33  C   UNL A   1      35.680  33.414  32.383  1.00  0.00     0.188 C 
BRANCH  33  34
ATOM     34  O   UNL A   1      36.012  32.600  33.486  1.00  0.00    -0.377 OA
BRANCH  34  35
ATOM     35  C   UNL A   1      36.876  31.506  33.230  1.00  0.00     0.188 C 
BRANCH  35  36
ATOM     36  C   UNL A   1      38.019  31.276  34.237  1.00  0.00     0.188 C 
BRANCH  36  37
ATOM     37  O   UNL A   1      38.688  32.468  34.637  1.00  0.00    -0.376 OA
BRANCH  37  38
ATOM     38  C   UNL A   1      38.397  33.009  35.920  1.00  0.00     0.202 C 
BRANCH  38  39
ATOM     39  C   UNL A   1      39.258  32.559  37.114  1.00  0.00     0.261 C 
BRANCH  39  40
ATOM     40  O   UNL A   1      40.660  32.846  37.041  1.00  0.00    -0.460 OA
BRANCH  40  41
ATOM     41  C   UNL A   1      41.505  32.117  37.804  1.00  0.00     0.338 C 
ATOM     42  O   UNL A   1      41.495  32.008  39.009  1.00  0.00    -0.246 OA
BRANCH  41  43
ATOM     43  C   UNL A   1      42.311  31.279  36.883  1.00  0.00     0.060 A 
ATOM     44  C   UNL A   1      43.578  30.848  37.301  1.00  0.00     0.016 A 
ATOM     45  C   UNL A   1      41.823  30.917  35.627  1.00  0.00     0.016 A 
ATOM     46  C   UNL A   1      44.378  30.090  36.446  1.00  0.00     0.010 A 
ATOM     47  C   UNL A   1      42.638  30.180  34.760  1.00  0.00     0.010 A 
ATOM     48  C   UNL A   1      43.933  29.795  35.151  1.00  0.00    -0.014 A 
BRANCH  48  49
ATOM     49  C   UNL A   1      44.895  29.279  34.145  1.00  0.00     0.031 A 
ATOM     50  C   UNL A   1      45.829  28.172  34.559  1.00  0.00     0.074 A 
ATOM     51  C   UNL A   1      44.927  29.753  32.886  1.00  0.00     0.049 A 
ATOM     52  N   UNL A   1      46.779  27.588  33.876  1.00  0.00    -0.248 NA
ATOM     53  C   UNL A   1      45.666  27.655  35.928  1.00  0.00     0.031 C 
ATOM     54  C   UNL A   1      44.039  30.779  32.343  1.00  0.00     0.029 A 
ATOM     55  N   UNL A   1      45.751  29.430  31.835  1.00  0.00    -0.354 N 
ATOM     56  C   UNL A   1      47.335  26.645  34.735  1.00  0.00     0.074 A 
ATOM     57  C   UNL A   1      46.634  26.754  35.995  1.00  0.00     0.031 C 
ATOM     58  C   UNL A   1      44.373  31.009  31.060  1.00  0.00     0.029 A 
ATOM     59  C   UNL A   1      45.521  30.176  30.703  1.00  0.00     0.049 A 
ATOM     60  H   UNL A   1      46.441  28.729  31.888  1.00  0.00     0.167 HD
ATOM     61  C   UNL A   1      48.336  25.765  34.496  1.00  0.00     0.031 A 
ATOM     62  C   UNL A   1      46.177  30.201  29.525  1.00  0.00     0.031 A 
ATOM     63  C   UNL A   1      49.045  25.672  33.247  1.00  0.00     0.049 A 
ATOM     64  C   UNL A   1      47.350  29.275  29.311  1.00  0.00     0.074 A 
ATOM     65  C   UNL A   1      50.070  24.809  32.904  1.00  0.00     0.029 A 
ATOM     66  N   UNL A   1      48.812  26.477  32.142  1.00  0.00    -0.354 N 
ATOM     67  N   UNL A   1      47.852  28.376  30.125  1.00  0.00    -0.248 NA
ATOM     68  C   UNL A   1      48.040  29.364  28.016  1.00  0.00     0.031 C 
ATOM     69  C   UNL A   1      50.501  25.136  31.614  1.00  0.00     0.029 A 
ATOM     70  C   UNL A   1      49.694  26.152  31.127  1.00  0.00     0.049 A 
ATOM     71  H   UNL A   1      48.120  27.176  32.088  1.00  0.00     0.167 HD
ATOM     72  C   UNL A   1      48.893  27.770  29.427  1.00  0.00     0.074 A 
ATOM     73  C   UNL A   1      48.940  28.395  28.122  1.00  0.00     0.031 C 
ATOM     74  C   UNL A   1      49.732  26.781  29.829  1.00  0.00     0.031 A 
BRANCH  61  75
ATOM     75  C   UNL A   1      48.755  24.863  35.627  1.00  0.00    -0.014 A 
ATOM     76  C   UNL A   1      48.213  23.572  35.776  1.00  0.00     0.010 A 
ATOM     77  C   UNL A   1      49.732  25.301  36.539  1.00  0.00     0.010 A 
ATOM     78  C   UNL A   1      48.614  22.754  36.836  1.00  0.00     0.020 A 
ATOM     79  C   UNL A   1      50.159  24.475  37.581  1.00  0.00     0.020 A 
ATOM     80  C   UNL A   1      49.584  23.211  37.733  1.00  0.00     0.054 A 
BRANCH  80  81
ATOM     81  S   UNL A   1      50.104  22.119  39.084  1.00  0.00     0.124 S 
ATOM     82  O   UNL A   1      51.559  22.157  38.959  1.00  0.00    -0.237 OA
ATOM     83  O   UNL A   1      49.557  22.787  40.262  1.00  0.00    -0.237 OA
ATOM     84  O   UNL A   1      49.485  20.838  38.755  1.00  0.00    -0.744 OA
ENDBRANCH  80  81
ENDBRANCH  61  75
BRANCH  62  85
ATOM     85  C   UNL A   1      45.761  31.154  28.457  1.00  0.00    -0.014 A 
ATOM     86  C   UNL A   1      46.430  32.379  28.282  1.00  0.00     0.010 A 
ATOM     87  C   UNL A   1      44.680  30.842  27.612  1.00  0.00     0.010 A 
ATOM     88  C   UNL A   1      46.016  33.279  27.294  1.00  0.00     0.020 A 
ATOM     89  C   UNL A   1      44.282  31.726  26.603  1.00  0.00     0.020 A 
ATOM     90  C   UNL A   1      44.947  32.943  26.458  1.00  0.00     0.054 A 
BRANCH  90  91
ATOM     91  S   UNL A   1      44.462  34.105  25.150  1.00  0.00     0.124 S 
ATOM     92  O   UNL A   1      45.682  34.885  24.969  1.00  0.00    -0.237 OA
ATOM     93  O   UNL A   1      44.114  33.209  24.049  1.00  0.00    -0.237 OA
ATOM     94  O   UNL A   1      43.336  34.828  25.735  1.00  0.00    -0.744 OA
ENDBRANCH  90  91
ENDBRANCH  62  85
BRANCH  74  95
ATOM     95  C   UNL A   1      50.748  26.275  28.837  1.00  0.00    -0.014 A 
ATOM     96  C   UNL A   1      50.394  25.376  27.815  1.00  0.00     0.010 A 
ATOM     97  C   UNL A   1      52.069  26.760  28.892  1.00  0.00     0.010 A 
ATOM     98  C   UNL A   1      51.349  24.947  26.888  1.00  0.00     0.020 A 
ATOM     99  C   UNL A   1      53.018  26.359  27.948  1.00  0.00     0.020 A 
ATOM    100  C   UNL A   1      52.655  25.443  26.960  1.00  0.00     0.054 A 
BRANCH 100 101
ATOM    101  S   UNL A   1      53.863  24.904  25.719  1.00  0.00     0.124 S 
ATOM    102  O   UNL A   1      53.923  26.060  24.829  1.00  0.00    -0.237 OA
ATOM    103  O   UNL A   1      55.061  24.665  26.521  1.00  0.00    -0.237 OA
ATOM    104  O   UNL A   1      53.258  23.705  25.142  1.00  0.00    -0.744 OA
ENDBRANCH 100 101
ENDBRANCH  74  95
ENDBRANCH  48  49
ENDBRANCH  41  43
ENDBRANCH  40  41
ENDBRANCH  39  40
ENDBRANCH  38  39
ENDBRANCH  37  38
ENDBRANCH  36  37
ENDBRANCH  35  36
ENDBRANCH  34  35
ENDBRANCH  33  34
ENDBRANCH  32  33
ENDBRANCH   1  32
TORSDOF 32
ENDMDL
MODEL 2
REMARK VINA RESULT:      -6.1      2.458      3.558
REMARK SMILES CCCCCCNC(=O)Oc1cccc(-c2ccc([C@@H](C)C(=O)OCCOCCOCCOCCOC(=O)c3ccc(-c4c5nc(c(-c6ccc(S(=O)(=O)[O-])cc6)c6ccc([nH]6)c(-c6ccc(S(=O)(=O)[O-])cc6)c6nc(c(-c7ccc(S(=O)(=O)[O-])cc7)c7ccc4[nH]7)C=C6)C=C5)cc3)cc2)c1
REMARK SMILES IDX 27 1 26 2 25 3 24 4 22 5 23 6 20 7 21 8 19 9 16 10 17 11
REMARK SMILES IDX 100 12 18 13 99 14 15 15 11 16 12 17 101 18 13 19 14 20
REMARK SMILES IDX 10 21 8 22 7 23 9 25 6 26 5 27 4 28 3 29 2 30 1 31 28 32
REMARK SMILES IDX 29 33 30 34 31 35 32 36 33 37 34 38 35 39 36 40 37 41 38 42
REMARK SMILES IDX 39 43 40 44 98 45 41 46 97 47 42 48 43 49 44 50 91 51 45 52
REMARK SMILES IDX 96 53 90 54 92 55 46 56 95 57 89 58 88 59 47 61 77 62 58 63
REMARK SMILES IDX 76 64 59 65 62 66 75 67 93 68 60 69 61 70 74 72 94 73 63 74
REMARK SMILES IDX 48 75 49 76 57 77 50 78 56 79 51 80 52 81 53 82 54 83 55 84
REMARK SMILES IDX 78 85 79 86 87 87 80 88 86 89 81 90 82 91 83 92 84 93 85 94
REMARK SMILES IDX 64 95 65 96 73 97 66 98 72 99 67 100 68 101 69 102 70 103
REMARK SMILES IDX 71 104
REMARK H PARENT 7 24 92 60 62 71
REMARK Flexibility Score: inf
ROOT
ATOM      1  O   UNL A   1      35.566  33.438  29.532  1.00  0.00    -0.376 OA
ENDROOT
BRANCH   1   2
ATOM      2  C   UNL A   1      36.718  33.112  28.767  1.00  0.00     0.202 C 
BRANCH   2   3
ATOM      3  C   UNL A   1      37.749  32.093  29.288  1.00  0.00     0.261 C 
BRANCH   3   4
ATOM      4  O   UNL A   1      38.983  32.623  29.817  1.00  0.00    -0.463 OA
BRANCH   4   5
ATOM      5  C   UNL A   1      39.770  31.754  30.491  1.00  0.00     0.313 C 
ATOM      6  O   UNL A   1      40.752  32.099  31.148  1.00  0.00    -0.252 OA
BRANCH   5   7
ATOM      7  C   UNL A   1      39.395  30.277  30.375  1.00  0.00     0.126 C 
ATOM      8  C   UNL A   1      38.523  29.905  31.569  1.00  0.00     0.025 C 
BRANCH   7   9
ATOM      9  C   UNL A   1      40.447  29.202  30.103  1.00  0.00    -0.034 A 
ATOM     10  C   UNL A   1      42.366  27.164  29.469  1.00  0.00    -0.018 A 
ATOM     11  C   UNL A   1      42.258  27.702  30.765  1.00  0.00     0.009 A 
ATOM     12  C   UNL A   1      41.504  27.676  28.492  1.00  0.00     0.009 A 
ATOM     13  C   UNL A   1      41.314  28.699  31.081  1.00  0.00     0.005 A 
ATOM     14  C   UNL A   1      40.557  28.664  28.804  1.00  0.00     0.005 A 
BRANCH  10  15
ATOM     15  C   UNL A   1      43.294  26.054  29.162  1.00  0.00    -0.015 A 
ATOM     16  C   UNL A   1      43.756  23.753  28.511  1.00  0.00     0.133 A 
ATOM     17  C   UNL A   1      45.123  23.940  28.712  1.00  0.00     0.047 A 
ATOM     18  C   UNL A   1      42.841  24.788  28.741  1.00  0.00     0.056 A 
ATOM     19  C   UNL A   1      45.585  25.185  29.124  1.00  0.00     0.004 A 
ATOM     20  C   UNL A   1      44.679  26.228  29.345  1.00  0.00     0.009 A 
BRANCH  16  21
ATOM     21  O   UNL A   1      43.344  22.445  28.193  1.00  0.00    -0.410 OA
BRANCH  21  22
ATOM     22  C   UNL A   1      42.016  22.245  27.845  1.00  0.00     0.412 C 
ATOM     23  N   UNL A   1      41.820  22.119  26.496  1.00  0.00    -0.321 N 
ATOM     24  H   UNL A   1      40.895  21.951  26.204  1.00  0.00     0.167 HD
ATOM     25  O   UNL A   1      41.071  22.180  28.623  1.00  0.00    -0.224 OA
BRANCH  23  26
ATOM     26  C   UNL A   1      42.817  22.207  25.446  1.00  0.00     0.119 C 
BRANCH  26  27
ATOM     27  C   UNL A   1      43.312  23.640  25.240  1.00  0.00     0.021 C 
BRANCH  27  28
ATOM     28  C   UNL A   1      44.652  23.763  24.501  1.00  0.00     0.002 C 
BRANCH  28  29
ATOM     29  C   UNL A   1      45.565  24.904  24.964  1.00  0.00    -0.000 C 
BRANCH  29  30
ATOM     30  C   UNL A   1      46.858  24.474  25.662  1.00  0.00    -0.003 C 
ATOM     31  C   UNL A   1      48.064  25.316  25.271  1.00  0.00     0.004 C 
ENDBRANCH  29  30
ENDBRANCH  28  29
ENDBRANCH  27  28
ENDBRANCH  26  27
ENDBRANCH  23  26
ENDBRANCH  21  22
ENDBRANCH  16  21
ENDBRANCH  10  15
ENDBRANCH   7   9
ENDBRANCH   5   7
ENDBRANCH   4   5
ENDBRANCH   3   4
ENDBRANCH   2   3
ENDBRANCH   1   2
BRANCH   1  32
ATOM     32  C   UNL A   1      35.691  33.897  30.873  1.00  0.00     0.188 C 
BRANCH  32  33
ATOM     33  C   UNL A   1      34.528  33.792  31.868  1.00  0.00     0.188 C 
BRANCH  33  34
ATOM     34  O   UNL A   1      34.754  32.936  32.966  1.00  0.00    -0.377 OA
BRANCH  34  35
ATOM     35  C   UNL A   1      35.867  32.063  32.871  1.00  0.00     0.188 C 
BRANCH  35  36
ATOM     36  C   UNL A   1      36.921  32.161  33.990  1.00  0.00     0.188 C 
BRANCH  36  37
ATOM     37  O   UNL A   1      37.165  33.490  34.441  1.00  0.00    -0.376 OA
BRANCH  37  38
ATOM     38  C   UNL A   1      36.728  33.854  35.745  1.00  0.00     0.202 C 
BRANCH  38  39
ATOM     39  C   UNL A   1      37.584  33.419  36.949  1.00  0.00     0.261 C 
BRANCH  39  40
ATOM     40  O   UNL A   1      39.004  33.563  36.815  1.00  0.00    -0.460 OA
BRANCH  40  41
ATOM     41  C   UNL A   1      39.803  32.767  37.558  1.00  0.00     0.338 C 
ATOM     42  O   UNL A   1      39.664  32.472  38.724  1.00  0.00    -0.246 OA
BRANCH  41  43
ATOM     43  C   UNL A   1      40.762  32.121  36.630  1.00  0.00     0.060 A 
ATOM     44  C   UNL A   1      42.083  31.923  37.057  1.00  0.00     0.016 A 
ATOM     45  C   UNL A   1      40.364  31.709  35.357  1.00  0.00     0.016 A 
ATOM     46  C   UNL A   1      43.020  31.352  36.194  1.00  0.00     0.010 A 
ATOM     47  C   UNL A   1      41.311  31.162  34.484  1.00  0.00     0.010 A 
ATOM     48  C   UNL A   1      42.651  31.015  34.886  1.00  0.00    -0.014 A 
BRANCH  48  49
ATOM     49  C   UNL A   1      43.704  30.717  33.882  1.00  0.00     0.031 A 
ATOM     50  C   UNL A   1      44.291  29.330  33.861  1.00  0.00     0.074 A 
ATOM     51  C   UNL A   1      44.114  31.636  32.989  1.00  0.00     0.049 A 
ATOM     52  N   UNL A   1      45.245  28.843  33.110  1.00  0.00    -0.248 NA
ATOM     53  C   UNL A   1      43.722  28.363  34.815  1.00  0.00     0.031 C 
ATOM     54  C   UNL A   1      43.585  32.994  32.866  1.00  0.00     0.029 A 
ATOM     55  N   UNL A   1      45.082  31.562  32.017  1.00  0.00    -0.354 N 
ATOM     56  C   UNL A   1      45.399  27.519  33.509  1.00  0.00     0.074 A 
ATOM     57  C   UNL A   1      44.462  27.288  34.585  1.00  0.00     0.031 C 
ATOM     58  C   UNL A   1      44.243  33.629  31.879  1.00  0.00     0.029 A 
ATOM     59  C   UNL A   1      45.264  32.738  31.327  1.00  0.00     0.049 A 
ATOM     60  H   UNL A   1      45.595  30.743  31.831  1.00  0.00     0.167 HD
ATOM     61  C   UNL A   1      46.244  26.579  33.023  1.00  0.00     0.031 A 
ATOM     62  C   UNL A   1      46.166  33.064  30.379  1.00  0.00     0.031 A 
ATOM     63  C   UNL A   1      47.191  26.817  31.966  1.00  0.00     0.049 A 
ATOM     64  C   UNL A   1      47.160  32.027  29.916  1.00  0.00     0.074 A 
ATOM     65  C   UNL A   1      48.085  25.928  31.397  1.00  0.00     0.029 A 
ATOM     66  N   UNL A   1      47.374  28.034  31.326  1.00  0.00    -0.354 N 
ATOM     67  N   UNL A   1      47.281  30.774  30.288  1.00  0.00    -0.248 NA
ATOM     68  C   UNL A   1      48.133  32.447  28.898  1.00  0.00     0.031 C 
ATOM     69  C   UNL A   1      48.856  26.624  30.460  1.00  0.00     0.029 A 
ATOM     70  C   UNL A   1      48.389  27.927  30.391  1.00  0.00     0.049 A 
ATOM     71  H   UNL A   1      46.859  28.853  31.510  1.00  0.00     0.167 HD
ATOM     72  C   UNL A   1      48.322  30.250  29.525  1.00  0.00     0.074 A 
ATOM     73  C   UNL A   1      48.785  31.316  28.663  1.00  0.00     0.031 C 
ATOM     74  C   UNL A   1      48.843  28.997  29.536  1.00  0.00     0.031 A 
BRANCH  61  75
ATOM     75  C   UNL A   1      46.213  25.217  33.664  1.00  0.00    -0.014 A 
ATOM     76  C   UNL A   1      47.048  24.897  34.751  1.00  0.00     0.010 A 
ATOM     77  C   UNL A   1      45.309  24.248  33.191  1.00  0.00     0.010 A 
ATOM     78  C   UNL A   1      47.004  23.624  35.327  1.00  0.00     0.020 A 
ATOM     79  C   UNL A   1      45.240  22.985  33.783  1.00  0.00     0.020 A 
ATOM     80  C   UNL A   1      46.100  22.675  34.838  1.00  0.00     0.054 A 
BRANCH  80  81
ATOM     81  S   UNL A   1      46.048  21.040  35.621  1.00  0.00     0.124 S 
ATOM     82  O   UNL A   1      44.935  20.406  34.918  1.00  0.00    -0.237 OA
ATOM     83  O   UNL A   1      47.371  20.500  35.319  1.00  0.00    -0.237 OA
ATOM     84  O   UNL A   1      45.805  21.335  37.030  1.00  0.00    -0.744 OA
ENDBRANCH  80  81
ENDBRANCH  61  75
BRANCH  62  85
ATOM     85  C   UNL A   1      46.194  34.445  29.818  1.00  0.00    -0.014 A 
ATOM     86  C   UNL A   1      45.447  34.773  28.672  1.00  0.00     0.010 A 
ATOM     87  C   UNL A   1      46.982  35.440  30.425  1.00  0.00     0.010 A 
ATOM     88  C   UNL A   1      45.501  36.064  28.136  1.00  0.00     0.020 A 
ATOM     89  C   UNL A   1      47.013  36.741  29.911  1.00  0.00     0.020 A 
ATOM     90  C   UNL A   1      46.280  37.041  28.763  1.00  0.00     0.054 A 
BRANCH  90  91
ATOM     91  S   UNL A   1      46.291  38.722  28.079  1.00  0.00     0.124 S 
ATOM     92  O   UNL A   1      47.503  39.282  28.668  1.00  0.00    -0.237 OA
ATOM     93  O   UNL A   1      46.342  38.475  26.640  1.00  0.00    -0.237 OA
ATOM     94  O   UNL A   1      45.037  39.296  28.562  1.00  0.00    -0.744 OA
ENDBRANCH  90  91
ENDBRANCH  62  85
BRANCH  74  95
ATOM     95  C   UNL A   1      49.946  28.687  28.555  1.00  0.00    -0.014 A 
ATOM     96  C   UNL A   1      51.248  29.189  28.729  1.00  0.00     0.010 A 
ATOM     97  C   UNL A   1      49.686  27.824  27.473  1.00  0.00     0.010 A 
ATOM     98  C   UNL A   1      52.260  28.861  27.822  1.00  0.00     0.020 A 
ATOM     99  C   UNL A   1      50.702  27.468  26.583  1.00  0.00     0.020 A 
ATOM    100  C   UNL A   1      51.980  27.999  26.755  1.00  0.00     0.054 A 
BRANCH 100 101
ATOM    101  S   UNL A   1      53.322  27.554  25.618  1.00  0.00     0.124 S 
ATOM    102  O   UNL A   1      54.502  27.700  26.467  1.00  0.00    -0.237 OA
ATOM    103  O   UNL A   1      52.982  26.184  25.243  1.00  0.00    -0.237 OA
ATOM    104  O   UNL A   1      53.205  28.536  24.541  1.00  0.00    -0.744 OA
ENDBRANCH 100 101
ENDBRANCH  74  95
ENDBRANCH  48  49
ENDBRANCH  41  43
ENDBRANCH  40  41
ENDBRANCH  39  40
ENDBRANCH  38  39
ENDBRANCH  37  38
ENDBRANCH  36  37
ENDBRANCH  35  36
ENDBRANCH  34  35
ENDBRANCH  33  34
ENDBRANCH  32  33
ENDBRANCH   1  32
TORSDOF 32
ENDMDL
MODEL 3
REMARK VINA RESULT:      -5.9      4.711      9.010
REMARK SMILES CCCCCCNC(=O)Oc1cccc(-c2ccc([C@@H](C)C(=O)OCCOCCOCCOCCOC(=O)c3ccc(-c4c5nc(c(-c6ccc(S(=O)(=O)[O-])cc6)c6ccc([nH]6)c(-c6ccc(S(=O)(=O)[O-])cc6)c6nc(c(-c7ccc(S(=O)(=O)[O-])cc7)c7ccc4[nH]7)C=C6)C=C5)cc3)cc2)c1
REMARK SMILES IDX 27 1 26 2 25 3 24 4 22 5 23 6 20 7 21 8 19 9 16 10 17 11
REMARK SMILES IDX 100 12 18 13 99 14 15 15 11 16 12 17 101 18 13 19 14 20
REMARK SMILES IDX 10 21 8 22 7 23 9 25 6 26 5 27 4 28 3 29 2 30 1 31 28 32
REMARK SMILES IDX 29 33 30 34 31 35 32 36 33 37 34 38 35 39 36 40 37 41 38 42
REMARK SMILES IDX 39 43 40 44 98 45 41 46 97 47 42 48 43 49 44 50 91 51 45 52
REMARK SMILES IDX 96 53 90 54 92 55 46 56 95 57 89 58 88 59 47 61 77 62 58 63
REMARK SMILES IDX 76 64 59 65 62 66 75 67 93 68 60 69 61 70 74 72 94 73 63 74
REMARK SMILES IDX 48 75 49 76 57 77 50 78 56 79 51 80 52 81 53 82 54 83 55 84
REMARK SMILES IDX 78 85 79 86 87 87 80 88 86 89 81 90 82 91 83 92 84 93 85 94
REMARK SMILES IDX 64 95 65 96 73 97 66 98 72 99 67 100 68 101 69 102 70 103
REMARK SMILES IDX 71 104
REMARK H PARENT 7 24 92 60 62 71
REMARK Flexibility Score: inf
ROOT
ATOM      1  O   UNL A   1      36.192  31.119  29.909  1.00  0.00    -0.376 OA
ENDROOT
BRANCH   1   2
ATOM      2  C   UNL A   1      37.336  30.856  29.109  1.00  0.00     0.202 C 
BRANCH   2   3
ATOM      3  C   UNL A   1      37.455  29.546  28.307  1.00  0.00     0.261 C 
BRANCH   3   4
ATOM      4  O   UNL A   1      38.772  28.967  28.191  1.00  0.00    -0.463 OA
BRANCH   4   5
ATOM      5  C   UNL A   1      39.224  28.282  29.264  1.00  0.00     0.313 C 
ATOM      6  O   UNL A   1      38.640  27.310  29.744  1.00  0.00    -0.252 OA
BRANCH   5   7
ATOM      7  C   UNL A   1      40.517  28.797  29.896  1.00  0.00     0.126 C 
ATOM      8  C   UNL A   1      41.539  27.667  29.897  1.00  0.00     0.025 C 
BRANCH   7   9
ATOM      9  C   UNL A   1      40.516  29.542  31.231  1.00  0.00    -0.034 A 
ATOM     10  C   UNL A   1      40.649  30.951  33.727  1.00  0.00    -0.018 A 
ATOM     11  C   UNL A   1      39.466  30.324  33.293  1.00  0.00     0.009 A 
ATOM     12  C   UNL A   1      41.761  30.872  32.882  1.00  0.00     0.009 A 
ATOM     13  C   UNL A   1      39.399  29.628  32.071  1.00  0.00     0.005 A 
ATOM     14  C   UNL A   1      41.701  30.172  31.666  1.00  0.00     0.005 A 
BRANCH  10  15
ATOM     15  C   UNL A   1      40.743  31.603  35.051  1.00  0.00    -0.015 A 
ATOM     16  C   UNL A   1      39.753  32.717  36.978  1.00  0.00     0.133 A 
ATOM     17  C   UNL A   1      41.013  32.954  37.526  1.00  0.00     0.047 A 
ATOM     18  C   UNL A   1      39.608  32.060  35.750  1.00  0.00     0.056 A 
ATOM     19  C   UNL A   1      42.143  32.506  36.850  1.00  0.00     0.004 A 
ATOM     20  C   UNL A   1      42.006  31.838  35.628  1.00  0.00     0.009 A 
BRANCH  16  21
ATOM     21  O   UNL A   1      38.658  33.283  37.659  1.00  0.00    -0.410 OA
BRANCH  21  22
ATOM     22  C   UNL A   1      38.496  32.979  39.003  1.00  0.00     0.412 C 
ATOM     23  N   UNL A   1      38.563  34.075  39.821  1.00  0.00    -0.321 N 
ATOM     24  H   UNL A   1      38.428  33.910  40.783  1.00  0.00     0.167 HD
ATOM     25  O   UNL A   1      38.311  31.861  39.470  1.00  0.00    -0.224 OA
BRANCH  23  26
ATOM     26  C   UNL A   1      38.810  35.452  39.436  1.00  0.00     0.119 C 
BRANCH  26  27
ATOM     27  C   UNL A   1      40.212  35.919  39.834  1.00  0.00     0.021 C 
BRANCH  27  28
ATOM     28  C   UNL A   1      40.252  37.194  40.688  1.00  0.00     0.002 C 
BRANCH  28  29
ATOM     29  C   UNL A   1      40.691  38.469  39.960  1.00  0.00    -0.000 C 
BRANCH  29  30
ATOM     30  C   UNL A   1      40.237  39.784  40.599  1.00  0.00    -0.003 C 
ATOM     31  C   UNL A   1      41.170  40.950  40.308  1.00  0.00     0.004 C 
ENDBRANCH  29  30
ENDBRANCH  28  29
ENDBRANCH  27  28
ENDBRANCH  26  27
ENDBRANCH  23  26
ENDBRANCH  21  22
ENDBRANCH  16  21
ENDBRANCH  10  15
ENDBRANCH   7   9
ENDBRANCH   5   7
ENDBRANCH   4   5
ENDBRANCH   3   4
ENDBRANCH   2   3
ENDBRANCH   1   2
BRANCH   1  32
ATOM     32  C   UNL A   1      36.331  31.628  31.230  1.00  0.00     0.188 C 
BRANCH  32  33
ATOM     33  C   UNL A   1      35.113  32.084  32.046  1.00  0.00     0.188 C 
BRANCH  33  34
ATOM     34  O   UNL A   1      34.357  33.123  31.464  1.00  0.00    -0.377 OA
BRANCH  34  35
ATOM     35  C   UNL A   1      34.914  34.425  31.526  1.00  0.00     0.188 C 
BRANCH  35  36
ATOM     36  C   UNL A   1      35.182  34.997  32.931  1.00  0.00     0.188 C 
BRANCH  36  37
ATOM     37  O   UNL A   1      36.562  35.066  33.276  1.00  0.00    -0.376 OA
BRANCH  37  38
ATOM     38  C   UNL A   1      37.526  34.815  32.260  1.00  0.00     0.202 C 
BRANCH  38  39
ATOM     39  C   UNL A   1      38.770  33.984  32.623  1.00  0.00     0.261 C 
BRANCH  39  40
ATOM     40  O   UNL A   1      40.017  34.411  32.059  1.00  0.00    -0.460 OA
BRANCH  40  41
ATOM     41  C   UNL A   1      41.054  34.642  32.894  1.00  0.00     0.338 C 
ATOM     42  O   UNL A   1      41.004  34.839  34.087  1.00  0.00    -0.246 OA
BRANCH  41  43
ATOM     43  C   UNL A   1      42.298  34.377  32.130  1.00  0.00     0.060 A 
ATOM     44  C   UNL A   1      42.256  34.450  30.730  1.00  0.00     0.016 A 
ATOM     45  C   UNL A   1      43.491  34.067  32.784  1.00  0.00     0.016 A 
ATOM     46  C   UNL A   1      43.398  34.170  29.980  1.00  0.00     0.010 A 
ATOM     47  C   UNL A   1      44.628  33.760  32.029  1.00  0.00     0.010 A 
ATOM     48  C   UNL A   1      44.577  33.773  30.623  1.00  0.00    -0.014 A 
BRANCH  48  49
ATOM     49  C   UNL A   1      45.678  33.171  29.830  1.00  0.00     0.031 A 
ATOM     50  C   UNL A   1      45.565  31.718  29.447  1.00  0.00     0.074 A 
ATOM     51  C   UNL A   1      46.741  33.893  29.429  1.00  0.00     0.049 A 
ATOM     52  N   UNL A   1      46.411  30.962  28.797  1.00  0.00    -0.248 NA
ATOM     53  C   UNL A   1      44.329  31.029  29.854  1.00  0.00     0.031 C 
ATOM     54  C   UNL A   1      46.942  35.319  29.681  1.00  0.00     0.029 A 
ATOM     55  N   UNL A   1      47.858  33.515  28.725  1.00  0.00    -0.354 N 
ATOM     56  C   UNL A   1      45.816  29.706  28.727  1.00  0.00     0.074 A 
ATOM     57  C   UNL A   1      44.553  29.796  29.424  1.00  0.00     0.031 C 
ATOM     58  C   UNL A   1      48.118  35.694  29.148  1.00  0.00     0.029 A 
ATOM     59  C   UNL A   1      48.771  34.528  28.550  1.00  0.00     0.049 A 
ATOM     60  H   UNL A   1      47.992  32.603  28.376  1.00  0.00     0.167 HD
ATOM     61  C   UNL A   1      46.278  28.580  28.135  1.00  0.00     0.031 A 
ATOM     62  C   UNL A   1      50.000  34.512  27.995  1.00  0.00     0.031 A 
ATOM     63  C   UNL A   1      47.546  28.488  27.458  1.00  0.00     0.049 A 
ATOM     64  C   UNL A   1      50.535  33.222  27.421  1.00  0.00     0.074 A 
ATOM     65  C   UNL A   1      48.101  27.394  26.819  1.00  0.00     0.029 A 
ATOM     66  N   UNL A   1      48.459  29.525  27.344  1.00  0.00    -0.354 N 
ATOM     67  N   UNL A   1      49.954  32.048  27.345  1.00  0.00    -0.248 NA
ATOM     68  C   UNL A   1      51.889  33.260  26.851  1.00  0.00     0.031 C 
ATOM     69  C   UNL A   1      49.379  27.750  26.377  1.00  0.00     0.029 A 
ATOM     70  C   UNL A   1      49.588  29.088  26.673  1.00  0.00     0.049 A 
ATOM     71  H   UNL A   1      48.325  30.438  27.690  1.00  0.00     0.167 HD
ATOM     72  C   UNL A   1      50.859  31.217  26.688  1.00  0.00     0.074 A 
ATOM     73  C   UNL A   1      52.018  32.027  26.378  1.00  0.00     0.031 C 
ATOM     74  C   UNL A   1      50.738  29.904  26.368  1.00  0.00     0.031 A 
BRANCH  61  75
ATOM     75  C   UNL A   1      45.426  27.342  28.231  1.00  0.00    -0.014 A 
ATOM     76  C   UNL A   1      45.588  26.420  29.282  1.00  0.00     0.010 A 
ATOM     77  C   UNL A   1      44.424  27.114  27.271  1.00  0.00     0.010 A 
ATOM     78  C   UNL A   1      44.788  25.275  29.348  1.00  0.00     0.020 A 
ATOM     79  C   UNL A   1      43.601  25.988  27.351  1.00  0.00     0.020 A 
ATOM     80  C   UNL A   1      43.799  25.066  28.381  1.00  0.00     0.054 A 
BRANCH  80  81
ATOM     81  S   UNL A   1      42.760  23.585  28.506  1.00  0.00     0.124 S 
ATOM     82  O   UNL A   1      43.300  22.747  27.438  1.00  0.00    -0.237 OA
ATOM     83  O   UNL A   1      43.028  23.121  29.865  1.00  0.00    -0.237 OA
ATOM     84  O   UNL A   1      41.408  24.088  28.277  1.00  0.00    -0.744 OA
ENDBRANCH  80  81
ENDBRANCH  61  75
BRANCH  62  85
ATOM     85  C   UNL A   1      50.829  35.750  27.976  1.00  0.00    -0.014 A 
ATOM     86  C   UNL A   1      51.762  36.010  28.996  1.00  0.00     0.010 A 
ATOM     87  C   UNL A   1      50.681  36.686  26.935  1.00  0.00     0.010 A 
ATOM     88  C   UNL A   1      52.517  37.188  28.985  1.00  0.00     0.020 A 
ATOM     89  C   UNL A   1      51.456  37.849  26.903  1.00  0.00     0.020 A 
ATOM     90  C   UNL A   1      52.362  38.098  27.934  1.00  0.00     0.054 A 
BRANCH  90  91
ATOM     91  S   UNL A   1      53.391  39.593  27.913  1.00  0.00     0.124 S 
ATOM     92  O   UNL A   1      53.950  39.558  26.566  1.00  0.00    -0.237 OA
ATOM     93  O   UNL A   1      52.414  40.649  28.167  1.00  0.00    -0.237 OA
ATOM     94  O   UNL A   1      54.346  39.365  28.994  1.00  0.00    -0.744 OA
ENDBRANCH  90  91
ENDBRANCH  62  85
BRANCH  74  95
ATOM     95  C   UNL A   1      51.867  29.261  25.603  1.00  0.00    -0.014 A 
ATOM     96  C   UNL A   1      52.885  28.545  26.256  1.00  0.00     0.010 A 
ATOM     97  C   UNL A   1      51.872  29.323  24.196  1.00  0.00     0.010 A 
ATOM     98  C   UNL A   1      53.904  27.932  25.520  1.00  0.00     0.020 A 
ATOM     99  C   UNL A   1      52.869  28.685  23.455  1.00  0.00     0.020 A 
ATOM    100  C   UNL A   1      53.888  28.005  24.123  1.00  0.00     0.054 A 
BRANCH 100 101
ATOM    101  S   UNL A   1      55.196  27.163  23.190  1.00  0.00     0.124 S 
ATOM    102  O   UNL A   1      56.099  28.265  22.868  1.00  0.00    -0.237 OA
ATOM    103  O   UNL A   1      55.707  26.195  24.158  1.00  0.00    -0.237 OA
ATOM    104  O   UNL A   1      54.491  26.582  22.049  1.00  0.00    -0.744 OA
ENDBRANCH 100 101
ENDBRANCH  74  95
ENDBRANCH  48  49
ENDBRANCH  41  43
ENDBRANCH  40  41
ENDBRANCH  39  40
ENDBRANCH  38  39
ENDBRANCH  37  38
ENDBRANCH  36  37
ENDBRANCH  35  36
ENDBRANCH  34  35
ENDBRANCH  33  34
ENDBRANCH  32  33
ENDBRANCH   1  32
TORSDOF 32
ENDMDL
