MODEL 1
REMARK VINA RESULT:     -10.0      0.000      0.000
REMARK SMILES Cc1c(CC(=O)OCCOCCOCCOCCOC(=O)c2ccc(-c3c4nc(c(-c5ccc(S(=O)(=O)[O-])cc5)c5ccc([nH]5)c(-c5ccc(S(=O)(=O)[O-])cc5)c5nc(c(-c6ccc(S(=O)(=O)[O-])cc6)c6ccc3[nH]6)C=C5)C=C4)cc2)cccc1-c1ccn(C(F)F)c(=O)c1
REMARK SMILES IDX 13 1 12 2 11 3 10 4 9 5 8 6 7 7 5 8 6 9 4 10 3 11 1 12 2 13
REMARK SMILES IDX 85 14 82 15 84 16 83 17 86 18 87 19 95 20 88 21 93 22 89 23
REMARK SMILES IDX 94 24 90 25 91 26 92 27 14 28 15 29 16 30 17 31 18 32 19 33
REMARK SMILES IDX 20 34 21 35 22 36 23 37 81 38 24 39 80 40 25 41 26 42 27 43
REMARK SMILES IDX 74 44 28 45 79 46 73 47 75 48 29 49 78 50 72 51 71 52 30 54
REMARK SMILES IDX 60 55 41 56 59 57 42 58 45 59 58 60 76 61 43 62 44 63 57 65
REMARK SMILES IDX 77 66 46 67 31 68 32 69 40 70 33 71 39 72 34 73 35 74 36 75
REMARK SMILES IDX 37 76 38 77 61 78 62 79 70 80 63 81 69 82 64 83 65 84 66 85
REMARK SMILES IDX 67 86 68 87 47 88 48 89 56 90 49 91 55 92 50 93 51 94 52 95
REMARK SMILES IDX 53 96 54 97
REMARK H PARENT 75 53 45 64
REMARK Flexibility Score: inf
ROOT
ATOM      1  O   UNL A   1      38.798  20.189  25.997  1.00  0.00    -0.377 OA
ENDROOT
BRANCH   1   2
ATOM      2  C   UNL A   1      38.235  21.017  25.007  1.00  0.00     0.188 C 
BRANCH   2   3
ATOM      3  C   UNL A   1      36.709  21.040  24.855  1.00  0.00     0.188 C 
BRANCH   3   4
ATOM      4  O   UNL A   1      36.035  22.265  25.140  1.00  0.00    -0.376 OA
BRANCH   4   5
ATOM      5  C   UNL A   1      35.240  22.293  26.324  1.00  0.00     0.202 C 
BRANCH   5   6
ATOM      6  C   UNL A   1      33.987  21.420  26.345  1.00  0.00     0.261 C 
BRANCH   6   7
ATOM      7  O   UNL A   1      32.845  22.045  25.716  1.00  0.00    -0.463 OA
BRANCH   7   8
ATOM      8  C   UNL A   1      32.156  22.938  26.469  1.00  0.00     0.310 C 
ATOM      9  O   UNL A   1      32.112  22.942  27.694  1.00  0.00    -0.252 OA
BRANCH   8  10
ATOM     10  C   UNL A   1      31.352  23.905  25.633  1.00  0.00     0.158 C 
BRANCH  10  11
ATOM     11  C   UNL A   1      32.092  25.074  25.009  1.00  0.00    -0.033 A 
ATOM     12  C   UNL A   1      31.133  26.691  26.716  1.00  0.00     0.045 C 
ATOM     13  C   UNL A   1      32.046  26.379  25.553  1.00  0.00    -0.039 A 
ATOM     14  C   UNL A   1      32.924  27.374  25.046  1.00  0.00    -0.015 A 
ATOM     15  C   UNL A   1      32.973  24.823  23.946  1.00  0.00     0.004 A 
ATOM     16  C   UNL A   1      33.691  27.124  23.904  1.00  0.00     0.009 A 
ATOM     17  C   UNL A   1      33.715  25.849  23.357  1.00  0.00     0.001 A 
BRANCH  14  18
ATOM     18  C   UNL A   1      33.287  28.552  25.866  1.00  0.00    -0.011 A 
ATOM     19  C   UNL A   1      32.396  29.699  25.863  1.00  0.00     0.027 A 
ATOM     20  C   UNL A   1      34.383  28.574  26.642  1.00  0.00     0.080 A 
ATOM     21  C   UNL A   1      32.692  30.798  26.558  1.00  0.00     0.095 A 
ATOM     22  C   UNL A   1      34.725  29.799  27.429  1.00  0.00     0.255 A 
ATOM     23  N   UNL A   1      33.844  30.866  27.313  1.00  0.00    -0.258 N 
ATOM     24  O   UNL A   1      35.745  29.805  28.110  1.00  0.00    -0.269 OA
BRANCH  23  25
ATOM     25  C   UNL A   1      34.165  32.076  28.019  1.00  0.00     0.451 C 
ATOM     26  F   UNL A   1      33.222  33.031  27.829  1.00  0.00    -0.185 F 
ATOM     27  F   UNL A   1      34.285  31.858  29.351  1.00  0.00    -0.185 F 
ENDBRANCH  23  25
ENDBRANCH  14  18
ENDBRANCH  10  11
ENDBRANCH   8  10
ENDBRANCH   7   8
ENDBRANCH   6   7
ENDBRANCH   5   6
ENDBRANCH   4   5
ENDBRANCH   3   4
ENDBRANCH   2   3
ENDBRANCH   1   2
BRANCH   1  28
ATOM     28  C   UNL A   1      40.089  19.689  25.764  1.00  0.00     0.188 C 
BRANCH  28  29
ATOM     29  C   UNL A   1      40.984  19.919  26.975  1.00  0.00     0.188 C 
BRANCH  29  30
ATOM     30  O   UNL A   1      42.367  20.171  26.755  1.00  0.00    -0.376 OA
BRANCH  30  31
ATOM     31  C   UNL A   1      42.780  21.156  25.805  1.00  0.00     0.202 C 
BRANCH  31  32
ATOM     32  C   UNL A   1      41.916  22.408  25.554  1.00  0.00     0.261 C 
BRANCH  32  33
ATOM     33  O   UNL A   1      41.868  23.266  26.714  1.00  0.00    -0.460 OA
BRANCH  33  34
ATOM     34  C   UNL A   1      40.624  23.449  27.245  1.00  0.00     0.338 C 
ATOM     35  O   UNL A   1      39.969  22.578  27.798  1.00  0.00    -0.246 OA
BRANCH  34  36
ATOM     36  C   UNL A   1      40.296  24.893  27.347  1.00  0.00     0.060 A 
ATOM     37  C   UNL A   1      40.911  25.825  26.514  1.00  0.00     0.016 A 
ATOM     38  C   UNL A   1      39.476  25.332  28.385  1.00  0.00     0.016 A 
ATOM     39  C   UNL A   1      40.892  27.179  26.873  1.00  0.00     0.010 A 
ATOM     40  C   UNL A   1      39.531  26.668  28.788  1.00  0.00     0.010 A 
ATOM     41  C   UNL A   1      40.352  27.578  28.109  1.00  0.00    -0.014 A 
BRANCH  41  42
ATOM     42  C   UNL A   1      40.922  28.731  28.865  1.00  0.00     0.031 A 
ATOM     43  C   UNL A   1      40.121  29.670  29.722  1.00  0.00     0.074 A 
ATOM     44  C   UNL A   1      42.282  28.824  28.947  1.00  0.00     0.049 A 
ATOM     45  N   UNL A   1      40.607  30.765  30.213  1.00  0.00    -0.248 NA
ATOM     46  C   UNL A   1      38.719  29.500  30.105  1.00  0.00     0.031 C 
ATOM     47  C   UNL A   1      43.076  29.638  29.868  1.00  0.00     0.029 A 
ATOM     48  N   UNL A   1      43.268  28.203  28.178  1.00  0.00    -0.354 N 
ATOM     49  C   UNL A   1      39.759  31.250  31.179  1.00  0.00     0.074 A 
ATOM     50  C   UNL A   1      38.552  30.481  31.007  1.00  0.00     0.031 C 
ATOM     51  C   UNL A   1      44.379  29.534  29.585  1.00  0.00     0.029 A 
ATOM     52  C   UNL A   1      44.490  28.885  28.301  1.00  0.00     0.049 A 
ATOM     53  H   UNL A   1      43.127  27.400  27.627  1.00  0.00     0.167 HD
ATOM     54  C   UNL A   1      40.214  32.176  32.077  1.00  0.00     0.031 A 
ATOM     55  C   UNL A   1      45.011  29.537  27.218  1.00  0.00     0.031 A 
ATOM     56  C   UNL A   1      41.503  32.770  31.673  1.00  0.00     0.049 A 
ATOM     57  C   UNL A   1      44.831  31.050  27.248  1.00  0.00     0.074 A 
ATOM     58  C   UNL A   1      42.729  32.996  32.277  1.00  0.00     0.029 A 
ATOM     59  N   UNL A   1      41.677  33.154  30.338  1.00  0.00    -0.354 N 
ATOM     60  N   UNL A   1      44.245  31.691  28.230  1.00  0.00    -0.248 NA
ATOM     61  C   UNL A   1      45.264  31.972  26.200  1.00  0.00     0.031 C 
ATOM     62  C   UNL A   1      43.670  33.339  31.258  1.00  0.00     0.029 A 
ATOM     63  C   UNL A   1      43.000  33.422  30.050  1.00  0.00     0.049 A 
ATOM     64  H   UNL A   1      40.944  33.225  29.685  1.00  0.00     0.167 HD
ATOM     65  C   UNL A   1      44.098  33.013  27.927  1.00  0.00     0.074 A 
ATOM     66  C   UNL A   1      44.804  33.151  26.663  1.00  0.00     0.031 C 
ATOM     67  C   UNL A   1      43.374  33.871  28.708  1.00  0.00     0.031 A 
BRANCH  54  68
ATOM     68  C   UNL A   1      39.539  32.459  33.420  1.00  0.00    -0.014 A 
ATOM     69  C   UNL A   1      40.017  31.866  34.611  1.00  0.00     0.010 A 
ATOM     70  C   UNL A   1      38.361  33.225  33.559  1.00  0.00     0.010 A 
ATOM     71  C   UNL A   1      39.371  32.040  35.854  1.00  0.00     0.020 A 
ATOM     72  C   UNL A   1      37.730  33.443  34.797  1.00  0.00     0.020 A 
ATOM     73  C   UNL A   1      38.232  32.838  35.942  1.00  0.00     0.054 A 
BRANCH  73  74
ATOM     74  S   UNL A   1      37.416  33.081  37.547  1.00  0.00     0.124 S 
ATOM     75  O   UNL A   1      37.510  31.755  38.149  1.00  0.00    -0.237 OA
ATOM     76  O   UNL A   1      38.234  34.117  38.171  1.00  0.00    -0.237 OA
ATOM     77  O   UNL A   1      36.062  33.501  37.186  1.00  0.00    -0.744 OA
ENDBRANCH  73  74
ENDBRANCH  54  68
BRANCH  55  78
ATOM     78  C   UNL A   1      45.303  28.597  26.095  1.00  0.00    -0.014 A 
ATOM     79  C   UNL A   1      46.641  28.144  26.054  1.00  0.00     0.010 A 
ATOM     80  C   UNL A   1      44.303  27.754  25.576  1.00  0.00     0.010 A 
ATOM     81  C   UNL A   1      46.937  26.806  25.773  1.00  0.00     0.020 A 
ATOM     82  C   UNL A   1      44.600  26.411  25.276  1.00  0.00     0.020 A 
ATOM     83  C   UNL A   1      45.899  25.930  25.468  1.00  0.00     0.054 A 
BRANCH  83  84
ATOM     84  S   UNL A   1      46.211  24.140  25.623  1.00  0.00     0.124 S 
ATOM     85  O   UNL A   1      46.158  23.688  24.238  1.00  0.00    -0.237 OA
ATOM     86  O   UNL A   1      47.531  24.108  26.253  1.00  0.00    -0.237 OA
ATOM     87  O   UNL A   1      45.124  23.686  26.485  1.00  0.00    -0.744 OA
ENDBRANCH  83  84
ENDBRANCH  55  78
BRANCH  67  88
ATOM     88  C   UNL A   1      42.935  35.258  28.294  1.00  0.00    -0.014 A 
ATOM     89  C   UNL A   1      42.624  36.281  29.203  1.00  0.00     0.010 A 
ATOM     90  C   UNL A   1      42.995  35.613  26.924  1.00  0.00     0.010 A 
ATOM     91  C   UNL A   1      42.331  37.581  28.762  1.00  0.00     0.020 A 
ATOM     92  C   UNL A   1      42.748  36.913  26.478  1.00  0.00     0.020 A 
ATOM     93  C   UNL A   1      42.391  37.887  27.402  1.00  0.00     0.054 A 
BRANCH  93  94
ATOM     94  S   UNL A   1      42.080  39.584  26.853  1.00  0.00     0.124 S 
ATOM     95  O   UNL A   1      41.950  40.290  28.125  1.00  0.00    -0.237 OA
ATOM     96  O   UNL A   1      43.278  39.903  26.079  1.00  0.00    -0.237 OA
ATOM     97  O   UNL A   1      40.854  39.471  26.068  1.00  0.00    -0.744 OA
ENDBRANCH  93  94
ENDBRANCH  67  88
ENDBRANCH  41  42
ENDBRANCH  34  36
ENDBRANCH  33  34
ENDBRANCH  32  33
ENDBRANCH  31  32
ENDBRANCH  30  31
ENDBRANCH  29  30
ENDBRANCH  28  29
ENDBRANCH   1  28
TORSDOF 26
ENDMDL
MODEL 2
REMARK VINA RESULT:      -8.9      5.271     12.949
REMARK SMILES Cc1c(CC(=O)OCCOCCOCCOCCOC(=O)c2ccc(-c3c4nc(c(-c5ccc(S(=O)(=O)[O-])cc5)c5ccc([nH]5)c(-c5ccc(S(=O)(=O)[O-])cc5)c5nc(c(-c6ccc(S(=O)(=O)[O-])cc6)c6ccc3[nH]6)C=C5)C=C4)cc2)cccc1-c1ccn(C(F)F)c(=O)c1
REMARK SMILES IDX 13 1 12 2 11 3 10 4 9 5 8 6 7 7 5 8 6 9 4 10 3 11 1 12 2 13
REMARK SMILES IDX 85 14 82 15 84 16 83 17 86 18 87 19 95 20 88 21 93 22 89 23
REMARK SMILES IDX 94 24 90 25 91 26 92 27 14 28 15 29 16 30 17 31 18 32 19 33
REMARK SMILES IDX 20 34 21 35 22 36 23 37 81 38 24 39 80 40 25 41 26 42 27 43
REMARK SMILES IDX 74 44 28 45 79 46 73 47 75 48 29 49 78 50 72 51 71 52 30 54
REMARK SMILES IDX 60 55 41 56 59 57 42 58 45 59 58 60 76 61 43 62 44 63 57 65
REMARK SMILES IDX 77 66 46 67 31 68 32 69 40 70 33 71 39 72 34 73 35 74 36 75
REMARK SMILES IDX 37 76 38 77 61 78 62 79 70 80 63 81 69 82 64 83 65 84 66 85
REMARK SMILES IDX 67 86 68 87 47 88 48 89 56 90 49 91 55 92 50 93 51 94 52 95
REMARK SMILES IDX 53 96 54 97
REMARK H PARENT 75 53 45 64
REMARK Flexibility Score: inf
ROOT
ATOM      1  O   UNL A   1      36.999  34.997  34.036  1.00  0.00    -0.377 OA
ENDROOT
BRANCH   1   2
ATOM      2  C   UNL A   1      36.011  34.265  34.722  1.00  0.00     0.188 C 
BRANCH   2   3
ATOM      3  C   UNL A   1      36.451  33.320  35.847  1.00  0.00     0.188 C 
BRANCH   3   4
ATOM      4  O   UNL A   1      37.817  33.370  36.254  1.00  0.00    -0.376 OA
BRANCH   4   5
ATOM      5  C   UNL A   1      38.536  32.139  36.223  1.00  0.00     0.202 C 
BRANCH   5   6
ATOM      6  C   UNL A   1      39.072  31.677  34.869  1.00  0.00     0.261 C 
BRANCH   6   7
ATOM      7  O   UNL A   1      40.312  32.318  34.497  1.00  0.00    -0.463 OA
BRANCH   7   8
ATOM      8  C   UNL A   1      41.452  31.644  34.791  1.00  0.00     0.310 C 
ATOM      9  O   UNL A   1      42.507  32.161  35.143  1.00  0.00    -0.252 OA
BRANCH   8  10
ATOM     10  C   UNL A   1      41.325  30.158  34.555  1.00  0.00     0.158 C 
BRANCH  10  11
ATOM     11  C   UNL A   1      42.545  29.426  34.029  1.00  0.00    -0.033 A 
ATOM     12  C   UNL A   1      43.216  28.705  36.370  1.00  0.00     0.045 C 
ATOM     13  C   UNL A   1      43.406  28.682  34.871  1.00  0.00    -0.039 A 
ATOM     14  C   UNL A   1      44.402  27.853  34.288  1.00  0.00    -0.015 A 
ATOM     15  C   UNL A   1      42.742  29.355  32.641  1.00  0.00     0.004 A 
ATOM     16  C   UNL A   1      44.653  27.910  32.913  1.00  0.00     0.009 A 
ATOM     17  C   UNL A   1      43.822  28.659  32.093  1.00  0.00     0.001 A 
BRANCH  14  18
ATOM     18  C   UNL A   1      44.965  26.708  35.037  1.00  0.00    -0.011 A 
ATOM     19  C   UNL A   1      44.263  25.438  34.994  1.00  0.00     0.027 A 
ATOM     20  C   UNL A   1      46.124  26.794  35.712  1.00  0.00     0.080 A 
ATOM     21  C   UNL A   1      44.709  24.383  35.677  1.00  0.00     0.095 A 
ATOM     22  C   UNL A   1      46.639  25.618  36.479  1.00  0.00     0.255 A 
ATOM     23  N   UNL A   1      45.863  24.467  36.428  1.00  0.00    -0.258 N 
ATOM     24  O   UNL A   1      47.685  25.729  37.110  1.00  0.00    -0.269 OA
BRANCH  23  25
ATOM     25  C   UNL A   1      46.304  23.331  37.191  1.00  0.00     0.451 C 
ATOM     26  F   UNL A   1      45.283  22.766  37.880  1.00  0.00    -0.185 F 
ATOM     27  F   UNL A   1      46.855  22.382  36.397  1.00  0.00    -0.185 F 
ENDBRANCH  23  25
ENDBRANCH  14  18
ENDBRANCH  10  11
ENDBRANCH   8  10
ENDBRANCH   7   8
ENDBRANCH   6   7
ENDBRANCH   5   6
ENDBRANCH   4   5
ENDBRANCH   3   4
ENDBRANCH   2   3
ENDBRANCH   1   2
BRANCH   1  28
ATOM     28  C   UNL A   1      37.037  34.878  32.638  1.00  0.00     0.188 C 
BRANCH  28  29
ATOM     29  C   UNL A   1      37.157  33.417  32.224  1.00  0.00     0.188 C 
BRANCH  29  30
ATOM     30  O   UNL A   1      36.082  32.829  31.501  1.00  0.00    -0.376 OA
BRANCH  30  31
ATOM     31  C   UNL A   1      35.876  31.414  31.532  1.00  0.00     0.202 C 
BRANCH  31  32
ATOM     32  C   UNL A   1      35.987  30.582  30.238  1.00  0.00     0.261 C 
BRANCH  32  33
ATOM     33  O   UNL A   1      36.355  31.399  29.107  1.00  0.00    -0.460 OA
BRANCH  33  34
ATOM     34  C   UNL A   1      37.698  31.592  28.947  1.00  0.00     0.338 C 
ATOM     35  O   UNL A   1      38.248  32.683  28.958  1.00  0.00    -0.246 OA
BRANCH  34  36
ATOM     36  C   UNL A   1      38.438  30.312  29.070  1.00  0.00     0.060 A 
ATOM     37  C   UNL A   1      39.238  30.054  30.180  1.00  0.00     0.016 A 
ATOM     38  C   UNL A   1      38.446  29.427  27.994  1.00  0.00     0.016 A 
ATOM     39  C   UNL A   1      40.212  29.049  30.101  1.00  0.00     0.010 A 
ATOM     40  C   UNL A   1      39.470  28.485  27.884  1.00  0.00     0.010 A 
ATOM     41  C   UNL A   1      40.447  28.382  28.885  1.00  0.00    -0.014 A 
BRANCH  41  42
ATOM     42  C   UNL A   1      41.815  27.923  28.508  1.00  0.00     0.031 A 
ATOM     43  C   UNL A   1      42.226  26.484  28.375  1.00  0.00     0.074 A 
ATOM     44  C   UNL A   1      42.697  28.865  28.061  1.00  0.00     0.049 A 
ATOM     45  N   UNL A   1      43.459  26.114  28.231  1.00  0.00    -0.248 NA
ATOM     46  C   UNL A   1      41.330  25.328  28.401  1.00  0.00     0.031 C 
ATOM     47  C   UNL A   1      43.953  28.653  27.339  1.00  0.00     0.029 A 
ATOM     48  N   UNL A   1      42.661  30.254  28.186  1.00  0.00    -0.354 N 
ATOM     49  C   UNL A   1      43.499  24.797  27.839  1.00  0.00     0.074 A 
ATOM     50  C   UNL A   1      42.154  24.325  28.052  1.00  0.00     0.031 C 
ATOM     51  C   UNL A   1      44.588  29.814  27.148  1.00  0.00     0.029 A 
ATOM     52  C   UNL A   1      43.937  30.801  27.975  1.00  0.00     0.049 A 
ATOM     53  H   UNL A   1      41.853  30.778  28.393  1.00  0.00     0.167 HD
ATOM     54  C   UNL A   1      44.641  24.290  27.284  1.00  0.00     0.031 A 
ATOM     55  C   UNL A   1      44.593  31.402  29.014  1.00  0.00     0.031 A 
ATOM     56  C   UNL A   1      45.806  25.176  27.477  1.00  0.00     0.049 A 
ATOM     57  C   UNL A   1      45.697  30.556  29.636  1.00  0.00     0.074 A 
ATOM     58  C   UNL A   1      46.797  25.710  26.668  1.00  0.00     0.029 A 
ATOM     59  N   UNL A   1      46.006  25.758  28.734  1.00  0.00    -0.354 N 
ATOM     60  N   UNL A   1      46.017  29.357  29.212  1.00  0.00    -0.248 NA
ATOM     61  C   UNL A   1      46.521  30.950  30.776  1.00  0.00     0.031 C 
ATOM     62  C   UNL A   1      47.462  26.739  27.402  1.00  0.00     0.029 A 
ATOM     63  C   UNL A   1      46.948  26.765  28.687  1.00  0.00     0.049 A 
ATOM     64  H   UNL A   1      45.532  25.482  29.551  1.00  0.00     0.167 HD
ATOM     65  C   UNL A   1      46.936  28.780  30.038  1.00  0.00     0.074 A 
ATOM     66  C   UNL A   1      47.263  29.842  30.976  1.00  0.00     0.031 C 
ATOM     67  C   UNL A   1      47.317  27.472  29.915  1.00  0.00     0.031 A 
BRANCH  54  68
ATOM     68  C   UNL A   1      44.680  23.019  26.433  1.00  0.00    -0.014 A 
ATOM     69  C   UNL A   1      43.599  22.108  26.441  1.00  0.00     0.010 A 
ATOM     70  C   UNL A   1      45.804  22.615  25.679  1.00  0.00     0.010 A 
ATOM     71  C   UNL A   1      43.634  20.888  25.733  1.00  0.00     0.020 A 
ATOM     72  C   UNL A   1      45.837  21.423  24.933  1.00  0.00     0.020 A 
ATOM     73  C   UNL A   1      44.754  20.555  24.972  1.00  0.00     0.054 A 
BRANCH  73  74
ATOM     74  S   UNL A   1      44.788  18.995  24.040  1.00  0.00     0.124 S 
ATOM     75  O   UNL A   1      44.453  19.434  22.688  1.00  0.00    -0.237 OA
ATOM     76  O   UNL A   1      46.160  18.535  24.234  1.00  0.00    -0.237 OA
ATOM     77  O   UNL A   1      43.766  18.179  24.696  1.00  0.00    -0.744 OA
ENDBRANCH  73  74
ENDBRANCH  54  68
BRANCH  55  78
ATOM     78  C   UNL A   1      43.841  32.585  29.531  1.00  0.00    -0.014 A 
ATOM     79  C   UNL A   1      43.252  32.384  30.800  1.00  0.00     0.010 A 
ATOM     80  C   UNL A   1      44.211  33.894  29.173  1.00  0.00     0.010 A 
ATOM     81  C   UNL A   1      43.291  33.387  31.775  1.00  0.00     0.020 A 
ATOM     82  C   UNL A   1      44.236  34.910  30.147  1.00  0.00     0.020 A 
ATOM     83  C   UNL A   1      43.862  34.618  31.462  1.00  0.00     0.054 A 
BRANCH  83  84
ATOM     84  S   UNL A   1      44.379  35.700  32.835  1.00  0.00     0.124 S 
ATOM     85  O   UNL A   1      43.395  35.396  33.867  1.00  0.00    -0.237 OA
ATOM     86  O   UNL A   1      45.742  35.238  33.098  1.00  0.00    -0.237 OA
ATOM     87  O   UNL A   1      44.302  37.036  32.252  1.00  0.00    -0.744 OA
ENDBRANCH  83  84
ENDBRANCH  55  78
BRANCH  67  88
ATOM     88  C   UNL A   1      48.100  26.697  30.952  1.00  0.00    -0.014 A 
ATOM     89  C   UNL A   1      49.499  26.716  31.047  1.00  0.00     0.010 A 
ATOM     90  C   UNL A   1      47.395  26.045  31.994  1.00  0.00     0.010 A 
ATOM     91  C   UNL A   1      50.166  26.067  32.097  1.00  0.00     0.020 A 
ATOM     92  C   UNL A   1      48.046  25.433  33.068  1.00  0.00     0.020 A 
ATOM     93  C   UNL A   1      49.435  25.428  33.099  1.00  0.00     0.054 A 
BRANCH  93  94
ATOM     94  S   UNL A   1      50.305  24.656  34.486  1.00  0.00     0.124 S 
ATOM     95  O   UNL A   1      50.702  25.819  35.275  1.00  0.00    -0.237 OA
ATOM     96  O   UNL A   1      49.276  23.811  35.089  1.00  0.00    -0.237 OA
ATOM     97  O   UNL A   1      51.398  23.929  33.844  1.00  0.00    -0.744 OA
ENDBRANCH  93  94
ENDBRANCH  67  88
ENDBRANCH  41  42
ENDBRANCH  34  36
ENDBRANCH  33  34
ENDBRANCH  32  33
ENDBRANCH  31  32
ENDBRANCH  30  31
ENDBRANCH  29  30
ENDBRANCH  28  29
ENDBRANCH   1  28
TORSDOF 26
ENDMDL
MODEL 3
REMARK VINA RESULT:      -8.6      3.661     12.005
REMARK SMILES Cc1c(CC(=O)OCCOCCOCCOCCOC(=O)c2ccc(-c3c4nc(c(-c5ccc(S(=O)(=O)[O-])cc5)c5ccc([nH]5)c(-c5ccc(S(=O)(=O)[O-])cc5)c5nc(c(-c6ccc(S(=O)(=O)[O-])cc6)c6ccc3[nH]6)C=C5)C=C4)cc2)cccc1-c1ccn(C(F)F)c(=O)c1
REMARK SMILES IDX 13 1 12 2 11 3 10 4 9 5 8 6 7 7 5 8 6 9 4 10 3 11 1 12 2 13
REMARK SMILES IDX 85 14 82 15 84 16 83 17 86 18 87 19 95 20 88 21 93 22 89 23
REMARK SMILES IDX 94 24 90 25 91 26 92 27 14 28 15 29 16 30 17 31 18 32 19 33
REMARK SMILES IDX 20 34 21 35 22 36 23 37 81 38 24 39 80 40 25 41 26 42 27 43
REMARK SMILES IDX 74 44 28 45 79 46 73 47 75 48 29 49 78 50 72 51 71 52 30 54
REMARK SMILES IDX 60 55 41 56 59 57 42 58 45 59 58 60 76 61 43 62 44 63 57 65
REMARK SMILES IDX 77 66 46 67 31 68 32 69 40 70 33 71 39 72 34 73 35 74 36 75
REMARK SMILES IDX 37 76 38 77 61 78 62 79 70 80 63 81 69 82 64 83 65 84 66 85
REMARK SMILES IDX 67 86 68 87 47 88 48 89 56 90 49 91 55 92 50 93 51 94 52 95
REMARK SMILES IDX 53 96 54 97
REMARK H PARENT 75 53 45 64
REMARK Flexibility Score: inf
ROOT
ATOM      1  O   UNL A   1      44.042  37.037  34.538  1.00  0.00    -0.377 OA
ENDROOT
BRANCH   1   2
ATOM      2  C   UNL A   1      44.388  38.257  33.927  1.00  0.00     0.188 C 
BRANCH   2   3
ATOM      3  C   UNL A   1      45.179  38.218  32.614  1.00  0.00     0.188 C 
BRANCH   3   4
ATOM      4  O   UNL A   1      44.518  37.703  31.459  1.00  0.00    -0.376 OA
BRANCH   4   5
ATOM      5  C   UNL A   1      44.114  38.656  30.479  1.00  0.00     0.202 C 
BRANCH   5   6
ATOM      6  C   UNL A   1      44.343  38.290  29.013  1.00  0.00     0.261 C 
BRANCH   6   7
ATOM      7  O   UNL A   1      45.239  37.169  28.838  1.00  0.00    -0.463 OA
BRANCH   7   8
ATOM      8  C   UNL A   1      45.003  36.370  27.767  1.00  0.00     0.310 C 
ATOM      9  O   UNL A   1      45.128  36.706  26.595  1.00  0.00    -0.252 OA
BRANCH   8  10
ATOM     10  C   UNL A   1      44.472  35.013  28.161  1.00  0.00     0.158 C 
BRANCH  10  11
ATOM     11  C   UNL A   1      43.852  34.876  29.539  1.00  0.00    -0.033 A 
ATOM     12  C   UNL A   1      41.547  35.451  28.644  1.00  0.00     0.045 C 
ATOM     13  C   UNL A   1      42.462  35.017  29.764  1.00  0.00    -0.039 A 
ATOM     14  C   UNL A   1      41.925  34.670  31.033  1.00  0.00    -0.015 A 
ATOM     15  C   UNL A   1      44.662  34.445  30.603  1.00  0.00     0.004 A 
ATOM     16  C   UNL A   1      42.776  34.371  32.103  1.00  0.00     0.009 A 
ATOM     17  C   UNL A   1      44.141  34.258  31.885  1.00  0.00     0.001 A 
BRANCH  14  18
ATOM     18  C   UNL A   1      40.497  34.309  31.177  1.00  0.00    -0.011 A 
ATOM     19  C   UNL A   1      39.892  33.456  30.170  1.00  0.00     0.027 A 
ATOM     20  C   UNL A   1      39.760  34.707  32.228  1.00  0.00     0.080 A 
ATOM     21  C   UNL A   1      38.601  33.127  30.235  1.00  0.00     0.095 A 
ATOM     22  C   UNL A   1      38.313  34.343  32.315  1.00  0.00     0.255 A 
ATOM     23  N   UNL A   1      37.811  33.576  31.272  1.00  0.00    -0.258 N 
ATOM     24  O   UNL A   1      37.654  34.741  33.271  1.00  0.00    -0.269 OA
BRANCH  23  25
ATOM     25  C   UNL A   1      36.412  33.247  31.299  1.00  0.00     0.451 C 
ATOM     26  F   UNL A   1      36.145  32.279  32.210  1.00  0.00    -0.185 F 
ATOM     27  F   UNL A   1      35.651  34.328  31.595  1.00  0.00    -0.185 F 
ENDBRANCH  23  25
ENDBRANCH  14  18
ENDBRANCH  10  11
ENDBRANCH   8  10
ENDBRANCH   7   8
ENDBRANCH   6   7
ENDBRANCH   5   6
ENDBRANCH   4   5
ENDBRANCH   3   4
ENDBRANCH   2   3
ENDBRANCH   1   2
BRANCH   1  28
ATOM     28  C   UNL A   1      42.682  36.806  34.797  1.00  0.00     0.188 C 
BRANCH  28  29
ATOM     29  C   UNL A   1      42.414  36.788  36.297  1.00  0.00     0.188 C 
BRANCH  29  30
ATOM     30  O   UNL A   1      41.745  35.660  36.849  1.00  0.00    -0.376 OA
BRANCH  30  31
ATOM     31  C   UNL A   1      42.468  34.698  37.622  1.00  0.00     0.202 C 
BRANCH  31  32
ATOM     32  C   UNL A   1      41.863  33.306  37.896  1.00  0.00     0.261 C 
BRANCH  32  33
ATOM     33  O   UNL A   1      40.436  33.292  37.682  1.00  0.00    -0.460 OA
BRANCH  33  34
ATOM     34  C   UNL A   1      39.944  32.135  37.149  1.00  0.00     0.338 C 
ATOM     35  O   UNL A   1      38.842  31.669  37.397  1.00  0.00    -0.246 OA
BRANCH  34  36
ATOM     36  C   UNL A   1      40.775  31.679  36.006  1.00  0.00     0.060 A 
ATOM     37  C   UNL A   1      41.311  32.595  35.104  1.00  0.00     0.016 A 
ATOM     38  C   UNL A   1      40.893  30.314  35.754  1.00  0.00     0.016 A 
ATOM     39  C   UNL A   1      41.744  32.144  33.850  1.00  0.00     0.010 A 
ATOM     40  C   UNL A   1      41.244  29.877  34.476  1.00  0.00     0.010 A 
ATOM     41  C   UNL A   1      41.544  30.805  33.469  1.00  0.00    -0.014 A 
BRANCH  41  42
ATOM     42  C   UNL A   1      41.263  30.440  32.050  1.00  0.00     0.031 A 
ATOM     43  C   UNL A   1      39.939  29.944  31.543  1.00  0.00     0.074 A 
ATOM     44  C   UNL A   1      42.206  30.762  31.116  1.00  0.00     0.049 A 
ATOM     45  N   UNL A   1      39.776  29.459  30.353  1.00  0.00    -0.248 NA
ATOM     46  C   UNL A   1      38.683  29.924  32.293  1.00  0.00     0.031 C 
ATOM     47  C   UNL A   1      42.051  30.814  29.661  1.00  0.00     0.029 A 
ATOM     48  N   UNL A   1      43.550  31.097  31.280  1.00  0.00    -0.354 N 
ATOM     49  C   UNL A   1      38.434  29.374  30.072  1.00  0.00     0.074 A 
ATOM     50  C   UNL A   1      37.793  29.585  31.346  1.00  0.00     0.031 C 
ATOM     51  C   UNL A   1      43.221  31.081  29.072  1.00  0.00     0.029 A 
ATOM     52  C   UNL A   1      44.250  30.935  30.074  1.00  0.00     0.049 A 
ATOM     53  H   UNL A   1      43.952  31.405  32.125  1.00  0.00     0.167 HD
ATOM     54  C   UNL A   1      38.021  29.237  28.775  1.00  0.00     0.031 A 
ATOM     55  C   UNL A   1      45.205  29.961  29.974  1.00  0.00     0.031 A 
ATOM     56  C   UNL A   1      39.125  28.877  27.864  1.00  0.00     0.049 A 
ATOM     57  C   UNL A   1      44.763  28.721  29.209  1.00  0.00     0.074 A 
ATOM     58  C   UNL A   1      39.607  29.340  26.651  1.00  0.00     0.029 A 
ATOM     59  N   UNL A   1      40.034  27.892  28.268  1.00  0.00    -0.354 N 
ATOM     60  N   UNL A   1      43.575  28.587  28.669  1.00  0.00    -0.248 NA
ATOM     61  C   UNL A   1      45.578  27.528  28.991  1.00  0.00     0.031 C 
ATOM     62  C   UNL A   1      40.894  28.758  26.433  1.00  0.00     0.029 A 
ATOM     63  C   UNL A   1      41.151  27.865  27.459  1.00  0.00     0.049 A 
ATOM     64  H   UNL A   1      39.893  27.293  29.036  1.00  0.00     0.167 HD
ATOM     65  C   UNL A   1      43.406  27.327  28.174  1.00  0.00     0.074 A 
ATOM     66  C   UNL A   1      44.713  26.716  28.351  1.00  0.00     0.031 C 
ATOM     67  C   UNL A   1      42.202  26.876  27.706  1.00  0.00     0.031 A 
BRANCH  54  68
ATOM     68  C   UNL A   1      36.605  29.562  28.297  1.00  0.00    -0.014 A 
ATOM     69  C   UNL A   1      35.814  28.583  27.653  1.00  0.00     0.010 A 
ATOM     70  C   UNL A   1      36.033  30.852  28.362  1.00  0.00     0.010 A 
ATOM     71  C   UNL A   1      34.536  28.870  27.127  1.00  0.00     0.020 A 
ATOM     72  C   UNL A   1      34.743  31.144  27.881  1.00  0.00     0.020 A 
ATOM     73  C   UNL A   1      34.002  30.152  27.253  1.00  0.00     0.054 A 
BRANCH  73  74
ATOM     74  S   UNL A   1      32.346  30.514  26.598  1.00  0.00     0.124 S 
ATOM     75  O   UNL A   1      31.491  29.672  27.429  1.00  0.00    -0.237 OA
ATOM     76  O   UNL A   1      32.221  31.952  26.816  1.00  0.00    -0.237 OA
ATOM     77  O   UNL A   1      32.434  30.110  25.194  1.00  0.00    -0.744 OA
ENDBRANCH  73  74
ENDBRANCH  54  68
BRANCH  55  78
ATOM     78  C   UNL A   1      46.321  30.182  30.941  1.00  0.00    -0.014 A 
ATOM     79  C   UNL A   1      47.045  31.377  30.726  1.00  0.00     0.010 A 
ATOM     80  C   UNL A   1      46.257  29.675  32.252  1.00  0.00     0.010 A 
ATOM     81  C   UNL A   1      47.442  32.179  31.801  1.00  0.00     0.020 A 
ATOM     82  C   UNL A   1      46.671  30.471  33.336  1.00  0.00     0.020 A 
ATOM     83  C   UNL A   1      47.173  31.755  33.101  1.00  0.00     0.054 A 
BRANCH  83  84
ATOM     84  S   UNL A   1      47.206  32.998  34.434  1.00  0.00     0.124 S 
ATOM     85  O   UNL A   1      47.268  34.254  33.697  1.00  0.00    -0.237 OA
ATOM     86  O   UNL A   1      45.950  32.732  35.137  1.00  0.00    -0.237 OA
ATOM     87  O   UNL A   1      48.402  32.641  35.191  1.00  0.00    -0.744 OA
ENDBRANCH  83  84
ENDBRANCH  55  78
BRANCH  67  88
ATOM     88  C   UNL A   1      41.874  25.428  27.414  1.00  0.00    -0.014 A 
ATOM     89  C   UNL A   1      42.054  24.826  26.160  1.00  0.00     0.010 A 
ATOM     90  C   UNL A   1      41.524  24.577  28.491  1.00  0.00     0.010 A 
ATOM     91  C   UNL A   1      41.838  23.452  25.976  1.00  0.00     0.020 A 
ATOM     92  C   UNL A   1      41.349  23.201  28.328  1.00  0.00     0.020 A 
ATOM     93  C   UNL A   1      41.484  22.649  27.061  1.00  0.00     0.054 A 
BRANCH  93  94
ATOM     94  S   UNL A   1      41.279  20.866  26.825  1.00  0.00     0.124 S 
ATOM     95  O   UNL A   1      40.943  20.422  28.175  1.00  0.00    -0.237 OA
ATOM     96  O   UNL A   1      40.192  20.787  25.851  1.00  0.00    -0.237 OA
ATOM     97  O   UNL A   1      42.582  20.433  26.326  1.00  0.00    -0.744 OA
ENDBRANCH  93  94
ENDBRANCH  67  88
ENDBRANCH  41  42
ENDBRANCH  34  36
ENDBRANCH  33  34
ENDBRANCH  32  33
ENDBRANCH  31  32
ENDBRANCH  30  31
ENDBRANCH  29  30
ENDBRANCH  28  29
ENDBRANCH   1  28
TORSDOF 26
ENDMDL
