MODEL 1
REMARK VINA RESULT:      -9.2      0.000      0.000
REMARK SMILES O=C(OCCOCCOCCOCCOC(=O)[C@@H]1[C@H](C(=O)NCc2ccncc2)[C@H]2C=C[C@@H]1O2)c1ccc(-c2c3nc(c(-c4ccc(S(=O)(=O)[O-])cc4)c4ccc([nH]4)c(-c4ccc(S(=O)(=O)[O-])cc4)c4nc(c(-c5ccc(S(=O)(=O)[O-])cc5)c5ccc2[nH]5)C=C4)C=C3)cc1
REMARK SMILES IDX 9 1 8 2 7 3 6 4 5 5 4 6 3 7 2 8 1 9 35 10 36 11 94 12 37 13
REMARK SMILES IDX 93 14 38 15 39 16 40 17 87 18 41 19 92 20 86 21 88 22 42 23
REMARK SMILES IDX 91 24 85 25 84 26 43 28 73 29 54 30 72 31 55 32 58 33 71 34
REMARK SMILES IDX 89 35 56 36 57 37 70 39 90 40 59 41 44 42 45 43 53 44 46 45
REMARK SMILES IDX 52 46 47 47 48 48 49 49 50 50 51 51 74 52 75 53 83 54 76 55
REMARK SMILES IDX 82 56 77 57 78 58 79 59 80 60 81 61 60 62 61 63 69 64 62 65
REMARK SMILES IDX 68 66 63 67 64 68 65 69 66 70 67 71 10 72 11 73 12 74 13 75
REMARK SMILES IDX 14 76 15 77 16 78 17 79 18 80 19 81 33 82 30 83 32 84 34 85
REMARK SMILES IDX 31 86 20 87 21 88 22 89 23 91 24 92 25 93 29 94 26 95 28 96
REMARK SMILES IDX 27 97
REMARK H PARENT 88 27 58 38 22 90
REMARK Flexibility Score: inf
ROOT
ATOM      1  O   UNL A   1      33.427  31.245  27.769  1.00  0.00    -0.377 OA
ENDROOT
BRANCH   1   2
ATOM      2  C   UNL A   1      34.804  31.555  27.994  1.00  0.00     0.188 C 
BRANCH   2   3
ATOM      3  C   UNL A   1      34.974  33.044  28.132  1.00  0.00     0.188 C 
BRANCH   3   4
ATOM      4  O   UNL A   1      35.193  33.357  29.486  1.00  0.00    -0.376 OA
BRANCH   4   5
ATOM      5  C   UNL A   1      35.206  32.338  30.476  1.00  0.00     0.202 C 
BRANCH   5   6
ATOM      6  C   UNL A   1      36.253  32.442  31.579  1.00  0.00     0.261 C 
BRANCH   6   7
ATOM      7  O   UNL A   1      37.074  31.302  31.995  1.00  0.00    -0.460 OA
BRANCH   7   8
ATOM      8  C   UNL A   1      37.503  30.082  31.613  1.00  0.00     0.338 C 
ATOM      9  O   UNL A   1      36.861  29.100  31.986  1.00  0.00    -0.246 OA
BRANCH   8  10
ATOM     10  C   UNL A   1      38.730  29.819  30.820  1.00  0.00     0.060 A 
ATOM     11  C   UNL A   1      39.869  29.311  31.395  1.00  0.00     0.016 A 
ATOM     12  C   UNL A   1      38.747  29.948  29.428  1.00  0.00     0.016 A 
ATOM     13  C   UNL A   1      41.010  28.962  30.727  1.00  0.00     0.010 A 
ATOM     14  C   UNL A   1      39.892  29.585  28.696  1.00  0.00     0.010 A 
ATOM     15  C   UNL A   1      41.025  29.095  29.361  1.00  0.00    -0.014 A 
BRANCH  15  16
ATOM     16  C   UNL A   1      42.333  28.871  28.751  1.00  0.00     0.031 A 
ATOM     17  C   UNL A   1      42.570  27.527  28.150  1.00  0.00     0.074 A 
ATOM     18  C   UNL A   1      43.154  29.916  28.536  1.00  0.00     0.049 A 
ATOM     19  N   UNL A   1      43.664  27.038  27.650  1.00  0.00    -0.248 NA
ATOM     20  C   UNL A   1      41.407  26.617  28.079  1.00  0.00     0.031 C 
ATOM     21  C   UNL A   1      42.852  31.319  28.851  1.00  0.00     0.029 A 
ATOM     22  N   UNL A   1      44.400  29.966  27.977  1.00  0.00    -0.354 N 
ATOM     23  C   UNL A   1      43.346  25.739  27.278  1.00  0.00     0.074 A 
ATOM     24  C   UNL A   1      41.947  25.528  27.555  1.00  0.00     0.031 C 
ATOM     25  C   UNL A   1      43.904  32.083  28.510  1.00  0.00     0.029 A 
ATOM     26  C   UNL A   1      44.973  31.215  28.040  1.00  0.00     0.049 A 
ATOM     27  H   UNL A   1      44.843  29.186  27.571  1.00  0.00     0.167 HD
ATOM     28  C   UNL A   1      44.188  24.804  26.795  1.00  0.00     0.031 A 
ATOM     29  C   UNL A   1      46.252  31.575  27.820  1.00  0.00     0.031 A 
ATOM     30  C   UNL A   1      45.576  25.073  26.560  1.00  0.00     0.049 A 
ATOM     31  C   UNL A   1      47.208  30.473  27.435  1.00  0.00     0.074 A 
ATOM     32  C   UNL A   1      46.567  24.205  26.156  1.00  0.00     0.029 A 
ATOM     33  N   UNL A   1      46.164  26.321  26.728  1.00  0.00    -0.354 N 
ATOM     34  N   UNL A   1      46.944  29.213  27.166  1.00  0.00    -0.248 NA
ATOM     35  C   UNL A   1      48.628  30.824  27.357  1.00  0.00     0.031 C 
ATOM     36  C   UNL A   1      47.772  24.915  26.149  1.00  0.00     0.029 A 
ATOM     37  C   UNL A   1      47.517  26.240  26.481  1.00  0.00     0.049 A 
ATOM     38  H   UNL A   1      45.684  27.141  26.985  1.00  0.00     0.167 HD
ATOM     39  C   UNL A   1      48.166  28.622  26.881  1.00  0.00     0.074 A 
ATOM     40  C   UNL A   1      49.164  29.671  26.977  1.00  0.00     0.031 C 
ATOM     41  C   UNL A   1      48.453  27.331  26.582  1.00  0.00     0.031 A 
BRANCH  28  42
ATOM     42  C   UNL A   1      43.657  23.411  26.645  1.00  0.00    -0.014 A 
ATOM     43  C   UNL A   1      43.427  22.830  25.387  1.00  0.00     0.010 A 
ATOM     44  C   UNL A   1      43.378  22.672  27.810  1.00  0.00     0.010 A 
ATOM     45  C   UNL A   1      42.924  21.529  25.299  1.00  0.00     0.020 A 
ATOM     46  C   UNL A   1      42.895  21.365  27.724  1.00  0.00     0.020 A 
ATOM     47  C   UNL A   1      42.668  20.803  26.468  1.00  0.00     0.054 A 
BRANCH  47  48
ATOM     48  S   UNL A   1      42.083  19.093  26.322  1.00  0.00     0.124 S 
ATOM     49  O   UNL A   1      40.719  19.280  25.832  1.00  0.00    -0.237 OA
ATOM     50  O   UNL A   1      43.022  18.518  25.362  1.00  0.00    -0.237 OA
ATOM     51  O   UNL A   1      42.189  18.572  27.682  1.00  0.00    -0.744 OA
ENDBRANCH  47  48
ENDBRANCH  28  42
BRANCH  29  52
ATOM     52  C   UNL A   1      46.726  32.960  28.103  1.00  0.00    -0.014 A 
ATOM     53  C   UNL A   1      46.930  33.889  27.066  1.00  0.00     0.010 A 
ATOM     54  C   UNL A   1      47.045  33.344  29.421  1.00  0.00     0.010 A 
ATOM     55  C   UNL A   1      47.484  35.146  27.336  1.00  0.00     0.020 A 
ATOM     56  C   UNL A   1      47.565  34.611  29.700  1.00  0.00     0.020 A 
ATOM     57  C   UNL A   1      47.806  35.497  28.651  1.00  0.00     0.054 A 
BRANCH  57  58
ATOM     58  S   UNL A   1      48.538  37.125  28.976  1.00  0.00     0.124 S 
ATOM     59  O   UNL A   1      48.339  37.807  27.702  1.00  0.00    -0.237 OA
ATOM     60  O   UNL A   1      47.731  37.616  30.091  1.00  0.00    -0.237 OA
ATOM     61  O   UNL A   1      49.926  36.815  29.311  1.00  0.00    -0.744 OA
ENDBRANCH  57  58
ENDBRANCH  29  52
BRANCH  41  62
ATOM     62  C   UNL A   1      49.893  26.998  26.320  1.00  0.00    -0.014 A 
ATOM     63  C   UNL A   1      50.450  27.178  25.045  1.00  0.00     0.010 A 
ATOM     64  C   UNL A   1      50.712  26.606  27.394  1.00  0.00     0.010 A 
ATOM     65  C   UNL A   1      51.812  26.960  24.843  1.00  0.00     0.020 A 
ATOM     66  C   UNL A   1      52.079  26.419  27.202  1.00  0.00     0.020 A 
ATOM     67  C   UNL A   1      52.618  26.591  25.925  1.00  0.00     0.054 A 
BRANCH  67  68
ATOM     68  S   UNL A   1      54.399  26.399  25.653  1.00  0.00     0.124 S 
ATOM     69  O   UNL A   1      54.449  25.222  24.790  1.00  0.00    -0.237 OA
ATOM     70  O   UNL A   1      54.763  27.662  25.016  1.00  0.00    -0.237 OA
ATOM     71  O   UNL A   1      54.937  26.208  26.999  1.00  0.00    -0.744 OA
ENDBRANCH  67  68
ENDBRANCH  41  62
ENDBRANCH  15  16
ENDBRANCH   8  10
ENDBRANCH   7   8
ENDBRANCH   6   7
ENDBRANCH   5   6
ENDBRANCH   4   5
ENDBRANCH   3   4
ENDBRANCH   2   3
ENDBRANCH   1   2
BRANCH   1  72
ATOM     72  C   UNL A   1      33.199  30.181  26.848  1.00  0.00     0.188 C 
BRANCH  72  73
ATOM     73  C   UNL A   1      32.049  29.166  26.908  1.00  0.00     0.188 C 
BRANCH  73  74
ATOM     74  O   UNL A   1      32.271  27.772  27.040  1.00  0.00    -0.376 OA
BRANCH  74  75
ATOM     75  C   UNL A   1      31.445  26.761  26.481  1.00  0.00     0.202 C 
BRANCH  75  76
ATOM     76  C   UNL A   1      32.039  25.717  25.536  1.00  0.00     0.261 C 
BRANCH  76  77
ATOM     77  O   UNL A   1      31.011  24.791  25.101  1.00  0.00    -0.463 OA
BRANCH  77  78
ATOM     78  C   UNL A   1      30.931  23.629  25.780  1.00  0.00     0.312 C 
ATOM     79  O   UNL A   1      30.320  23.501  26.842  1.00  0.00    -0.252 OA
BRANCH  78  80
ATOM     80  C   UNL A   1      31.597  22.428  25.134  1.00  0.00     0.147 C 
ATOM     81  C   UNL A   1      32.642  21.739  26.016  1.00  0.00     0.128 C 
ATOM     82  C   UNL A   1      32.302  22.361  23.755  1.00  0.00     0.157 C 
ATOM     83  C   UNL A   1      33.586  21.120  24.982  1.00  0.00     0.155 C 
ATOM     84  C   UNL A   1      32.113  20.964  23.235  1.00  0.00     0.004 C 
ATOM     85  O   UNL A   1      33.713  22.240  24.084  1.00  0.00    -0.365 OA
ATOM     86  C   UNL A   1      32.868  20.188  24.030  1.00  0.00     0.004 C 
BRANCH  81  87
ATOM     87  C   UNL A   1      33.334  22.616  27.058  1.00  0.00     0.227 C 
ATOM     88  O   UNL A   1      32.925  22.548  28.224  1.00  0.00    -0.275 OA
ATOM     89  N   UNL A   1      34.358  23.484  26.849  1.00  0.00    -0.352 N 
ATOM     90  H   UNL A   1      34.566  24.028  27.642  1.00  0.00     0.163 HD
BRANCH  89  91
ATOM     91  C   UNL A   1      35.217  23.789  25.711  1.00  0.00     0.151 C 
BRANCH  91  92
ATOM     92  C   UNL A   1      36.645  23.290  25.795  1.00  0.00    -0.026 A 
ATOM     93  C   UNL A   1      37.062  22.018  25.390  1.00  0.00     0.025 A 
ATOM     94  C   UNL A   1      37.603  24.125  26.397  1.00  0.00     0.025 A 
ATOM     95  C   UNL A   1      38.375  21.634  25.629  1.00  0.00     0.111 A 
ATOM     96  C   UNL A   1      38.890  23.650  26.598  1.00  0.00     0.111 A 
ATOM     97  N   UNL A   1      39.292  22.420  26.232  1.00  0.00    -0.265 NA
ENDBRANCH  91  92
ENDBRANCH  89  91
ENDBRANCH  81  87
ENDBRANCH  78  80
ENDBRANCH  77  78
ENDBRANCH  76  77
ENDBRANCH  75  76
ENDBRANCH  74  75
ENDBRANCH  73  74
ENDBRANCH  72  73
ENDBRANCH   1  72
TORSDOF 26
ENDMDL
MODEL 2
REMARK VINA RESULT:      -9.1      1.622      2.967
REMARK SMILES O=C(OCCOCCOCCOCCOC(=O)[C@@H]1[C@H](C(=O)NCc2ccncc2)[C@H]2C=C[C@@H]1O2)c1ccc(-c2c3nc(c(-c4ccc(S(=O)(=O)[O-])cc4)c4ccc([nH]4)c(-c4ccc(S(=O)(=O)[O-])cc4)c4nc(c(-c5ccc(S(=O)(=O)[O-])cc5)c5ccc2[nH]5)C=C4)C=C3)cc1
REMARK SMILES IDX 9 1 8 2 7 3 6 4 5 5 4 6 3 7 2 8 1 9 35 10 36 11 94 12 37 13
REMARK SMILES IDX 93 14 38 15 39 16 40 17 87 18 41 19 92 20 86 21 88 22 42 23
REMARK SMILES IDX 91 24 85 25 84 26 43 28 73 29 54 30 72 31 55 32 58 33 71 34
REMARK SMILES IDX 89 35 56 36 57 37 70 39 90 40 59 41 44 42 45 43 53 44 46 45
REMARK SMILES IDX 52 46 47 47 48 48 49 49 50 50 51 51 74 52 75 53 83 54 76 55
REMARK SMILES IDX 82 56 77 57 78 58 79 59 80 60 81 61 60 62 61 63 69 64 62 65
REMARK SMILES IDX 68 66 63 67 64 68 65 69 66 70 67 71 10 72 11 73 12 74 13 75
REMARK SMILES IDX 14 76 15 77 16 78 17 79 18 80 19 81 33 82 30 83 32 84 34 85
REMARK SMILES IDX 31 86 20 87 21 88 22 89 23 91 24 92 25 93 29 94 26 95 28 96
REMARK SMILES IDX 27 97
REMARK H PARENT 88 27 58 38 22 90
REMARK Flexibility Score: inf
ROOT
ATOM      1  O   UNL A   1      34.721  34.215  28.182  1.00  0.00    -0.377 OA
ENDROOT
BRANCH   1   2
ATOM      2  C   UNL A   1      33.713  33.887  29.141  1.00  0.00     0.188 C 
BRANCH   2   3
ATOM      3  C   UNL A   1      33.999  34.591  30.440  1.00  0.00     0.188 C 
BRANCH   3   4
ATOM      4  O   UNL A   1      35.170  34.054  31.005  1.00  0.00    -0.376 OA
BRANCH   4   5
ATOM      5  C   UNL A   1      35.101  33.011  31.968  1.00  0.00     0.202 C 
BRANCH   5   6
ATOM      6  C   UNL A   1      35.867  31.727  31.672  1.00  0.00     0.261 C 
BRANCH   6   7
ATOM      7  O   UNL A   1      36.950  31.242  32.529  1.00  0.00    -0.460 OA
BRANCH   7   8
ATOM      8  C   UNL A   1      37.872  30.265  32.659  1.00  0.00     0.338 C 
ATOM      9  O   UNL A   1      37.792  29.523  33.638  1.00  0.00    -0.246 OA
BRANCH   8  10
ATOM     10  C   UNL A   1      39.018  30.046  31.742  1.00  0.00     0.060 A 
ATOM     11  C   UNL A   1      40.163  29.410  32.155  1.00  0.00     0.016 A 
ATOM     12  C   UNL A   1      38.940  30.354  30.381  1.00  0.00     0.016 A 
ATOM     13  C   UNL A   1      41.228  29.093  31.357  1.00  0.00     0.010 A 
ATOM     14  C   UNL A   1      40.003  30.032  29.518  1.00  0.00     0.010 A 
ATOM     15  C   UNL A   1      41.151  29.402  30.022  1.00  0.00    -0.014 A 
BRANCH  15  16
ATOM     16  C   UNL A   1      42.393  29.193  29.284  1.00  0.00     0.031 A 
ATOM     17  C   UNL A   1      42.566  27.867  28.625  1.00  0.00     0.074 A 
ATOM     18  C   UNL A   1      43.196  30.242  29.022  1.00  0.00     0.049 A 
ATOM     19  N   UNL A   1      43.605  27.390  28.010  1.00  0.00    -0.248 NA
ATOM     20  C   UNL A   1      41.397  26.962  28.639  1.00  0.00     0.031 C 
ATOM     21  C   UNL A   1      42.931  31.637  29.405  1.00  0.00     0.029 A 
ATOM     22  N   UNL A   1      44.383  30.307  28.350  1.00  0.00    -0.354 N 
ATOM     23  C   UNL A   1      43.247  26.104  27.632  1.00  0.00     0.074 A 
ATOM     24  C   UNL A   1      41.880  25.887  28.035  1.00  0.00     0.031 C 
ATOM     25  C   UNL A   1      43.950  32.408  28.988  1.00  0.00     0.029 A 
ATOM     26  C   UNL A   1      44.965  31.552  28.394  1.00  0.00     0.049 A 
ATOM     27  H   UNL A   1      44.781  29.537  27.880  1.00  0.00     0.167 HD
ATOM     28  C   UNL A   1      44.035  25.181  27.045  1.00  0.00     0.031 A 
ATOM     29  C   UNL A   1      46.219  31.916  28.064  1.00  0.00     0.031 A 
ATOM     30  C   UNL A   1      45.396  25.454  26.687  1.00  0.00     0.049 A 
ATOM     31  C   UNL A   1      47.129  30.824  27.558  1.00  0.00     0.074 A 
ATOM     32  C   UNL A   1      46.340  24.596  26.166  1.00  0.00     0.029 A 
ATOM     33  N   UNL A   1      46.003  26.695  26.834  1.00  0.00    -0.354 N 
ATOM     34  N   UNL A   1      46.835  29.573  27.279  1.00  0.00    -0.248 NA
ATOM     35  C   UNL A   1      48.537  31.174  27.355  1.00  0.00     0.031 C 
ATOM     36  C   UNL A   1      47.542  25.304  26.065  1.00  0.00     0.029 A 
ATOM     37  C   UNL A   1      47.326  26.619  26.458  1.00  0.00     0.049 A 
ATOM     38  H   UNL A   1      45.554  27.509  27.159  1.00  0.00     0.167 HD
ATOM     39  C   UNL A   1      48.022  28.988  26.862  1.00  0.00     0.074 A 
ATOM     40  C   UNL A   1      49.028  30.032  26.893  1.00  0.00     0.031 C 
ATOM     41  C   UNL A   1      48.273  27.705  26.501  1.00  0.00     0.031 A 
BRANCH  28  42
ATOM     42  C   UNL A   1      43.486  23.795  26.907  1.00  0.00    -0.014 A 
ATOM     43  C   UNL A   1      43.203  22.987  28.021  1.00  0.00     0.010 A 
ATOM     44  C   UNL A   1      43.253  23.292  25.613  1.00  0.00     0.010 A 
ATOM     45  C   UNL A   1      42.699  21.697  27.841  1.00  0.00     0.020 A 
ATOM     46  C   UNL A   1      42.730  22.011  25.431  1.00  0.00     0.020 A 
ATOM     47  C   UNL A   1      42.458  21.220  26.547  1.00  0.00     0.054 A 
BRANCH  47  48
ATOM     48  S   UNL A   1      41.737  19.569  26.345  1.00  0.00     0.124 S 
ATOM     49  O   UNL A   1      42.418  19.085  25.147  1.00  0.00    -0.237 OA
ATOM     50  O   UNL A   1      42.111  18.905  27.592  1.00  0.00    -0.237 OA
ATOM     51  O   UNL A   1      40.309  19.830  26.186  1.00  0.00    -0.744 OA
ENDBRANCH  47  48
ENDBRANCH  28  42
BRANCH  29  52
ATOM     52  C   UNL A   1      46.724  33.292  28.339  1.00  0.00    -0.014 A 
ATOM     53  C   UNL A   1      46.795  34.261  27.324  1.00  0.00     0.010 A 
ATOM     54  C   UNL A   1      47.208  33.624  29.621  1.00  0.00     0.010 A 
ATOM     55  C   UNL A   1      47.377  35.510  27.571  1.00  0.00     0.020 A 
ATOM     56  C   UNL A   1      47.758  34.882  29.883  1.00  0.00     0.020 A 
ATOM     57  C   UNL A   1      47.863  35.810  28.848  1.00  0.00     0.054 A 
BRANCH  57  58
ATOM     58  S   UNL A   1      48.630  37.428  29.143  1.00  0.00     0.124 S 
ATOM     59  O   UNL A   1      47.608  38.108  29.931  1.00  0.00    -0.237 OA
ATOM     60  O   UNL A   1      49.851  37.071  29.862  1.00  0.00    -0.237 OA
ATOM     61  O   UNL A   1      48.842  37.958  27.798  1.00  0.00    -0.744 OA
ENDBRANCH  57  58
ENDBRANCH  29  52
BRANCH  41  62
ATOM     62  C   UNL A   1      49.679  27.377  26.094  1.00  0.00    -0.014 A 
ATOM     63  C   UNL A   1      50.096  27.532  24.762  1.00  0.00     0.010 A 
ATOM     64  C   UNL A   1      50.612  27.015  27.082  1.00  0.00     0.010 A 
ATOM     65  C   UNL A   1      51.431  27.320  24.421  1.00  0.00     0.020 A 
ATOM     66  C   UNL A   1      51.953  26.835  26.749  1.00  0.00     0.020 A 
ATOM     67  C   UNL A   1      52.351  26.982  25.418  1.00  0.00     0.054 A 
BRANCH  67  68
ATOM     68  S   UNL A   1      54.094  26.797  24.962  1.00  0.00     0.124 S 
ATOM     69  O   UNL A   1      54.204  27.692  23.813  1.00  0.00    -0.237 OA
ATOM     70  O   UNL A   1      54.789  27.234  26.170  1.00  0.00    -0.237 OA
ATOM     71  O   UNL A   1      54.224  25.373  24.657  1.00  0.00    -0.744 OA
ENDBRANCH  67  68
ENDBRANCH  41  62
ENDBRANCH  15  16
ENDBRANCH   8  10
ENDBRANCH   7   8
ENDBRANCH   6   7
ENDBRANCH   5   6
ENDBRANCH   4   5
ENDBRANCH   3   4
ENDBRANCH   2   3
ENDBRANCH   1   2
BRANCH   1  72
ATOM     72  C   UNL A   1      35.678  33.185  27.950  1.00  0.00     0.188 C 
BRANCH  72  73
ATOM     73  C   UNL A   1      35.463  31.682  28.182  1.00  0.00     0.188 C 
BRANCH  73  74
ATOM     74  O   UNL A   1      36.314  30.698  27.620  1.00  0.00    -0.376 OA
BRANCH  74  75
ATOM     75  C   UNL A   1      35.929  29.361  27.331  1.00  0.00     0.202 C 
BRANCH  75  76
ATOM     76  C   UNL A   1      34.450  28.978  27.287  1.00  0.00     0.261 C 
BRANCH  76  77
ATOM     77  O   UNL A   1      33.943  29.088  25.933  1.00  0.00    -0.463 OA
BRANCH  77  78
ATOM     78  C   UNL A   1      32.733  29.666  25.796  1.00  0.00     0.312 C 
ATOM     79  O   UNL A   1      32.358  30.630  26.464  1.00  0.00    -0.252 OA
BRANCH  78  80
ATOM     80  C   UNL A   1      31.841  29.101  24.706  1.00  0.00     0.147 C 
ATOM     81  C   UNL A   1      30.995  27.902  25.145  1.00  0.00     0.128 C 
ATOM     82  C   UNL A   1      32.251  28.650  23.281  1.00  0.00     0.157 C 
ATOM     83  C   UNL A   1      30.794  27.143  23.830  1.00  0.00     0.155 C 
ATOM     84  C   UNL A   1      31.071  28.899  22.386  1.00  0.00     0.004 C 
ATOM     85  O   UNL A   1      32.141  27.201  23.321  1.00  0.00    -0.365 OA
ATOM     86  C   UNL A   1      30.148  28.000  22.764  1.00  0.00     0.004 C 
BRANCH  81  87
ATOM     87  C   UNL A   1      31.561  27.054  26.283  1.00  0.00     0.227 C 
ATOM     88  O   UNL A   1      30.990  27.115  27.379  1.00  0.00    -0.275 OA
ATOM     89  N   UNL A   1      32.642  26.233  26.234  1.00  0.00    -0.352 N 
ATOM     90  H   UNL A   1      32.893  25.879  27.117  1.00  0.00     0.163 HD
BRANCH  89  91
ATOM     91  C   UNL A   1      33.515  25.761  25.165  1.00  0.00     0.151 C 
BRANCH  91  92
ATOM     92  C   UNL A   1      34.326  24.517  25.461  1.00  0.00    -0.026 A 
ATOM     93  C   UNL A   1      35.423  24.092  24.707  1.00  0.00     0.025 A 
ATOM     94  C   UNL A   1      33.900  23.685  26.512  1.00  0.00     0.025 A 
ATOM     95  C   UNL A   1      36.012  22.869  25.007  1.00  0.00     0.111 A 
ATOM     96  C   UNL A   1      34.549  22.480  26.732  1.00  0.00     0.111 A 
ATOM     97  N   UNL A   1      35.591  22.054  25.996  1.00  0.00    -0.265 NA
ENDBRANCH  91  92
ENDBRANCH  89  91
ENDBRANCH  81  87
ENDBRANCH  78  80
ENDBRANCH  77  78
ENDBRANCH  76  77
ENDBRANCH  75  76
ENDBRANCH  74  75
ENDBRANCH  73  74
ENDBRANCH  72  73
ENDBRANCH   1  72
TORSDOF 26
ENDMDL
MODEL 3
REMARK VINA RESULT:      -8.1     10.484     15.472
REMARK SMILES O=C(OCCOCCOCCOCCOC(=O)[C@@H]1[C@H](C(=O)NCc2ccncc2)[C@H]2C=C[C@@H]1O2)c1ccc(-c2c3nc(c(-c4ccc(S(=O)(=O)[O-])cc4)c4ccc([nH]4)c(-c4ccc(S(=O)(=O)[O-])cc4)c4nc(c(-c5ccc(S(=O)(=O)[O-])cc5)c5ccc2[nH]5)C=C4)C=C3)cc1
REMARK SMILES IDX 9 1 8 2 7 3 6 4 5 5 4 6 3 7 2 8 1 9 35 10 36 11 94 12 37 13
REMARK SMILES IDX 93 14 38 15 39 16 40 17 87 18 41 19 92 20 86 21 88 22 42 23
REMARK SMILES IDX 91 24 85 25 84 26 43 28 73 29 54 30 72 31 55 32 58 33 71 34
REMARK SMILES IDX 89 35 56 36 57 37 70 39 90 40 59 41 44 42 45 43 53 44 46 45
REMARK SMILES IDX 52 46 47 47 48 48 49 49 50 50 51 51 74 52 75 53 83 54 76 55
REMARK SMILES IDX 82 56 77 57 78 58 79 59 80 60 81 61 60 62 61 63 69 64 62 65
REMARK SMILES IDX 68 66 63 67 64 68 65 69 66 70 67 71 10 72 11 73 12 74 13 75
REMARK SMILES IDX 14 76 15 77 16 78 17 79 18 80 19 81 33 82 30 83 32 84 34 85
REMARK SMILES IDX 31 86 20 87 21 88 22 89 23 91 24 92 25 93 29 94 26 95 28 96
REMARK SMILES IDX 27 97
REMARK H PARENT 88 27 58 38 22 90
REMARK Flexibility Score: inf
ROOT
ATOM      1  O   UNL A   1      43.985  15.676  38.967  1.00  0.00    -0.377 OA
ENDROOT
BRANCH   1   2
ATOM      2  C   UNL A   1      44.414  16.537  37.909  1.00  0.00     0.188 C 
BRANCH   2   3
ATOM      3  C   UNL A   1      45.345  17.586  38.453  1.00  0.00     0.188 C 
BRANCH   3   4
ATOM      4  O   UNL A   1      45.115  18.799  37.777  1.00  0.00    -0.376 OA
BRANCH   4   5
ATOM      5  C   UNL A   1      46.198  19.571  37.280  1.00  0.00     0.202 C 
BRANCH   5   6
ATOM      6  C   UNL A   1      46.032  21.086  37.256  1.00  0.00     0.261 C 
BRANCH   6   7
ATOM      7  O   UNL A   1      45.393  21.791  36.143  1.00  0.00    -0.460 OA
BRANCH   7   8
ATOM      8  C   UNL A   1      45.597  22.239  34.887  1.00  0.00     0.338 C 
ATOM      9  O   UNL A   1      46.169  21.492  34.093  1.00  0.00    -0.246 OA
BRANCH   8  10
ATOM     10  C   UNL A   1      45.235  23.591  34.394  1.00  0.00     0.060 A 
ATOM     11  C   UNL A   1      44.191  23.790  33.525  1.00  0.00     0.016 A 
ATOM     12  C   UNL A   1      45.852  24.743  34.892  1.00  0.00     0.016 A 
ATOM     13  C   UNL A   1      43.739  25.005  33.090  1.00  0.00     0.010 A 
ATOM     14  C   UNL A   1      45.410  26.016  34.486  1.00  0.00     0.010 A 
ATOM     15  C   UNL A   1      44.350  26.134  33.575  1.00  0.00    -0.014 A 
BRANCH  15  16
ATOM     16  C   UNL A   1      43.928  27.372  32.926  1.00  0.00     0.031 A 
ATOM     17  C   UNL A   1      44.376  27.577  31.519  1.00  0.00     0.074 A 
ATOM     18  C   UNL A   1      42.982  28.137  33.503  1.00  0.00     0.049 A 
ATOM     19  N   UNL A   1      44.235  28.622  30.761  1.00  0.00    -0.248 NA
ATOM     20  C   UNL A   1      45.056  26.437  30.867  1.00  0.00     0.031 C 
ATOM     21  C   UNL A   1      42.291  27.834  34.765  1.00  0.00     0.029 A 
ATOM     22  N   UNL A   1      42.418  29.312  33.095  1.00  0.00    -0.354 N 
ATOM     23  C   UNL A   1      44.875  28.299  29.572  1.00  0.00     0.074 A 
ATOM     24  C   UNL A   1      45.358  26.945  29.681  1.00  0.00     0.031 C 
ATOM     25  C   UNL A   1      41.421  28.822  35.038  1.00  0.00     0.029 A 
ATOM     26  C   UNL A   1      41.561  29.855  34.023  1.00  0.00     0.049 A 
ATOM     27  H   UNL A   1      42.606  29.728  32.221  1.00  0.00     0.167 HD
ATOM     28  C   UNL A   1      45.073  29.107  28.512  1.00  0.00     0.031 A 
ATOM     29  C   UNL A   1      41.031  31.092  34.069  1.00  0.00     0.031 A 
ATOM     30  C   UNL A   1      44.583  30.453  28.475  1.00  0.00     0.049 A 
ATOM     31  C   UNL A   1      41.402  32.029  32.946  1.00  0.00     0.074 A 
ATOM     32  C   UNL A   1      44.778  31.417  27.508  1.00  0.00     0.029 A 
ATOM     33  N   UNL A   1      43.802  31.023  29.473  1.00  0.00    -0.354 N 
ATOM     34  N   UNL A   1      42.085  31.770  31.852  1.00  0.00    -0.248 NA
ATOM     35  C   UNL A   1      40.967  33.422  33.072  1.00  0.00     0.031 C 
ATOM     36  C   UNL A   1      44.174  32.594  27.959  1.00  0.00     0.029 A 
ATOM     37  C   UNL A   1      43.543  32.342  29.172  1.00  0.00     0.049 A 
ATOM     38  H   UNL A   1      43.481  30.553  30.276  1.00  0.00     0.167 HD
ATOM     39  C   UNL A   1      42.157  32.969  31.157  1.00  0.00     0.074 A 
ATOM     40  C   UNL A   1      41.418  33.942  31.938  1.00  0.00     0.031 C 
ATOM     41  C   UNL A   1      42.786  33.255  29.990  1.00  0.00     0.031 A 
BRANCH  28  42
ATOM     42  C   UNL A   1      45.960  28.600  27.416  1.00  0.00    -0.014 A 
ATOM     43  C   UNL A   1      47.361  28.650  27.504  1.00  0.00     0.010 A 
ATOM     44  C   UNL A   1      45.359  28.061  26.264  1.00  0.00     0.010 A 
ATOM     45  C   UNL A   1      48.146  28.171  26.452  1.00  0.00     0.020 A 
ATOM     46  C   UNL A   1      46.141  27.563  25.221  1.00  0.00     0.020 A 
ATOM     47  C   UNL A   1      47.531  27.624  25.320  1.00  0.00     0.054 A 
BRANCH  47  48
ATOM     48  S   UNL A   1      48.574  26.945  24.002  1.00  0.00     0.124 S 
ATOM     49  O   UNL A   1      48.492  27.988  22.983  1.00  0.00    -0.237 OA
ATOM     50  O   UNL A   1      49.871  26.812  24.662  1.00  0.00    -0.237 OA
ATOM     51  O   UNL A   1      47.922  25.685  23.656  1.00  0.00    -0.744 OA
ENDBRANCH  47  48
ENDBRANCH  28  42
BRANCH  29  52
ATOM     52  C   UNL A   1      40.251  31.558  35.252  1.00  0.00    -0.014 A 
ATOM     53  C   UNL A   1      40.889  32.123  36.371  1.00  0.00     0.010 A 
ATOM     54  C   UNL A   1      38.854  31.375  35.295  1.00  0.00     0.010 A 
ATOM     55  C   UNL A   1      40.156  32.449  37.518  1.00  0.00     0.020 A 
ATOM     56  C   UNL A   1      38.113  31.733  36.425  1.00  0.00     0.020 A 
ATOM     57  C   UNL A   1      38.773  32.245  37.541  1.00  0.00     0.054 A 
BRANCH  57  58
ATOM     58  S   UNL A   1      37.844  32.658  39.044  1.00  0.00     0.124 S 
ATOM     59  O   UNL A   1      38.242  31.587  39.951  1.00  0.00    -0.237 OA
ATOM     60  O   UNL A   1      38.353  33.988  39.373  1.00  0.00    -0.237 OA
ATOM     61  O   UNL A   1      36.451  32.625  38.607  1.00  0.00    -0.744 OA
ENDBRANCH  57  58
ENDBRANCH  29  52
BRANCH  41  62
ATOM     62  C   UNL A   1      42.678  34.665  29.489  1.00  0.00    -0.014 A 
ATOM     63  C   UNL A   1      43.719  35.583  29.701  1.00  0.00     0.010 A 
ATOM     64  C   UNL A   1      41.570  35.032  28.706  1.00  0.00     0.010 A 
ATOM     65  C   UNL A   1      43.648  36.858  29.141  1.00  0.00     0.020 A 
ATOM     66  C   UNL A   1      41.511  36.295  28.119  1.00  0.00     0.020 A 
ATOM     67  C   UNL A   1      42.549  37.201  28.348  1.00  0.00     0.054 A 
BRANCH  67  68
ATOM     68  S   UNL A   1      42.523  38.833  27.563  1.00  0.00     0.124 S 
ATOM     69  O   UNL A   1      41.781  39.627  28.539  1.00  0.00    -0.237 OA
ATOM     70  O   UNL A   1      43.943  39.151  27.441  1.00  0.00    -0.237 OA
ATOM     71  O   UNL A   1      41.831  38.599  26.297  1.00  0.00    -0.744 OA
ENDBRANCH  67  68
ENDBRANCH  41  62
ENDBRANCH  15  16
ENDBRANCH   8  10
ENDBRANCH   7   8
ENDBRANCH   6   7
ENDBRANCH   5   6
ENDBRANCH   4   5
ENDBRANCH   3   4
ENDBRANCH   2   3
ENDBRANCH   1   2
BRANCH   1  72
ATOM     72  C   UNL A   1      42.816  16.115  39.654  1.00  0.00     0.188 C 
BRANCH  72  73
ATOM     73  C   UNL A   1      42.017  15.305  40.685  1.00  0.00     0.188 C 
BRANCH  73  74
ATOM     74  O   UNL A   1      41.477  14.027  40.393  1.00  0.00    -0.376 OA
BRANCH  74  75
ATOM     75  C   UNL A   1      41.855  12.819  41.039  1.00  0.00     0.202 C 
BRANCH  75  76
ATOM     76  C   UNL A   1      41.589  12.629  42.532  1.00  0.00     0.261 C 
BRANCH  76  77
ATOM     77  O   UNL A   1      42.620  13.285  43.313  1.00  0.00    -0.463 OA
BRANCH  77  78
ATOM     78  C   UNL A   1      43.348  12.492  44.123  1.00  0.00     0.312 C 
ATOM     79  O   UNL A   1      43.896  11.453  43.750  1.00  0.00    -0.252 OA
BRANCH  78  80
ATOM     80  C   UNL A   1      43.525  12.975  45.552  1.00  0.00     0.147 C 
ATOM     81  C   UNL A   1      44.290  14.296  45.678  1.00  0.00     0.128 C 
ATOM     82  C   UNL A   1      44.112  12.192  46.754  1.00  0.00     0.157 C 
ATOM     83  C   UNL A   1      44.918  14.177  47.070  1.00  0.00     0.155 C 
ATOM     84  C   UNL A   1      43.425  12.703  47.987  1.00  0.00     0.004 C 
ATOM     85  O   UNL A   1      45.400  12.821  46.992  1.00  0.00    -0.365 OA
ATOM     86  C   UNL A   1      43.885  13.954  48.152  1.00  0.00     0.004 C 
BRANCH  81  87
ATOM     87  C   UNL A   1      45.283  14.613  44.562  1.00  0.00     0.227 C 
ATOM     88  O   UNL A   1      46.324  13.944  44.517  1.00  0.00    -0.275 OA
ATOM     89  N   UNL A   1      45.161  15.566  43.602  1.00  0.00    -0.352 N 
ATOM     90  H   UNL A   1      45.976  15.669  43.060  1.00  0.00     0.163 HD
BRANCH  89  91
ATOM     91  C   UNL A   1      44.091  16.470  43.196  1.00  0.00     0.151 C 
BRANCH  91  92
ATOM     92  C   UNL A   1      44.422  17.948  43.206  1.00  0.00    -0.026 A 
ATOM     93  C   UNL A   1      44.326  18.771  44.332  1.00  0.00     0.025 A 
ATOM     94  C   UNL A   1      44.768  18.556  41.986  1.00  0.00     0.025 A 
ATOM     95  C   UNL A   1      44.541  20.136  44.186  1.00  0.00     0.111 A 
ATOM     96  C   UNL A   1      44.959  19.929  41.940  1.00  0.00     0.111 A 
ATOM     97  N   UNL A   1      44.846  20.730  43.014  1.00  0.00    -0.265 NA
ENDBRANCH  91  92
ENDBRANCH  89  91
ENDBRANCH  81  87
ENDBRANCH  78  80
ENDBRANCH  77  78
ENDBRANCH  76  77
ENDBRANCH  75  76
ENDBRANCH  74  75
ENDBRANCH  73  74
ENDBRANCH  72  73
ENDBRANCH   1  72
TORSDOF 26
ENDMDL
