MODEL 1
REMARK VINA RESULT:      -8.7      0.000      0.000
REMARK SMILES CC[C@H]1CCCC[C@@H]1Sc1csc(C(=O)OCCOCCOCCOCCOC(=O)c2ccc(-c3c4nc(c(-c5ccc(S(=O)(=O)[O-])cc5)c5ccc([nH]5)c(-c5ccc(S(=O)(=O)[O-])cc5)c5nc(c(-c6ccc(S(=O)(=O)[O-])cc6)c6ccc3[nH]6)C=C5)C=C4)cc2)c1
REMARK SMILES IDX 22 1 21 2 20 3 19 4 18 5 17 6 16 7 14 8 15 9 13 10 10 11
REMARK SMILES IDX 11 12 91 13 12 14 9 15 8 16 3 17 4 18 5 19 7 20 6 21 2 22
REMARK SMILES IDX 1 23 23 24 24 25 25 26 26 27 27 28 28 29 29 30 30 31 31 32
REMARK SMILES IDX 32 33 90 34 33 35 89 36 34 37 35 38 36 39 83 40 37 41 88 42
REMARK SMILES IDX 82 43 84 44 38 45 87 46 81 47 80 48 39 50 69 51 50 52 68 53
REMARK SMILES IDX 51 54 54 55 67 56 85 57 52 58 53 59 66 61 86 62 55 63 40 64
REMARK SMILES IDX 41 65 49 66 42 67 48 68 43 69 44 70 45 71 46 72 47 73 70 74
REMARK SMILES IDX 71 75 79 76 72 77 78 78 73 79 74 80 75 81 76 82 77 83 56 84
REMARK SMILES IDX 57 85 65 86 58 87 64 88 59 89 60 90 61 91 62 92 63 93
REMARK H PARENT 84 49 54 60
REMARK Flexibility Score: inf
ROOT
ATOM      1  O   UNL A   1      39.885  21.287  26.723  1.00  0.00    -0.377 OA
ENDROOT
BRANCH   1   2
ATOM      2  C   UNL A   1      38.893  22.139  26.184  1.00  0.00     0.188 C 
BRANCH   2   3
ATOM      3  C   UNL A   1      37.674  21.433  25.569  1.00  0.00     0.188 C 
BRANCH   3   4
ATOM      4  O   UNL A   1      37.020  22.192  24.555  1.00  0.00    -0.376 OA
BRANCH   4   5
ATOM      5  C   UNL A   1      35.621  21.972  24.412  1.00  0.00     0.202 C 
BRANCH   5   6
ATOM      6  C   UNL A   1      35.005  21.070  25.489  1.00  0.00     0.261 C 
BRANCH   6   7
ATOM      7  O   UNL A   1      33.718  21.498  25.963  1.00  0.00    -0.459 OA
BRANCH   7   8
ATOM      8  C   UNL A   1      32.635  21.218  25.193  1.00  0.00     0.348 C 
ATOM      9  O   UNL A   1      32.198  20.090  24.989  1.00  0.00    -0.245 OA
BRANCH   8  10
ATOM     10  C   UNL A   1      32.034  22.463  24.767  1.00  0.00     0.113 A 
ATOM     11  C   UNL A   1      31.101  24.608  24.755  1.00  0.00     0.019 A 
ATOM     12  C   UNL A   1      30.873  24.205  23.461  1.00  0.00     0.080 A 
ATOM     13  C   UNL A   1      31.749  23.591  25.515  1.00  0.00     0.042 A 
ATOM     14  S   UNL A   1      31.507  22.643  23.148  1.00  0.00    -0.136 S 
BRANCH  11  15
ATOM     15  S   UNL A   1      30.708  26.144  25.508  1.00  0.00    -0.122 SA
BRANCH  15  16
ATOM     16  C   UNL A   1      32.313  26.858  26.049  1.00  0.00     0.055 C 
ATOM     17  C   UNL A   1      32.069  28.332  26.470  1.00  0.00     0.002 C 
ATOM     18  C   UNL A   1      31.915  29.282  25.265  1.00  0.00     0.005 C 
ATOM     19  C   UNL A   1      32.963  29.106  24.174  1.00  0.00     0.000 C 
ATOM     20  C   UNL A   1      33.342  26.713  24.916  1.00  0.00     0.015 C 
ATOM     21  C   UNL A   1      33.105  27.655  23.736  1.00  0.00     0.001 C 
BRANCH  17  22
ATOM     22  C   UNL A   1      33.059  28.867  27.536  1.00  0.00     0.001 C 
ATOM     23  C   UNL A   1      34.255  29.682  27.076  1.00  0.00     0.004 C 
ENDBRANCH  17  22
ENDBRANCH  15  16
ENDBRANCH  11  15
ENDBRANCH   8  10
ENDBRANCH   7   8
ENDBRANCH   6   7
ENDBRANCH   5   6
ENDBRANCH   4   5
ENDBRANCH   3   4
ENDBRANCH   2   3
ENDBRANCH   1   2
BRANCH   1  24
ATOM     24  C   UNL A   1      41.141  21.833  27.117  1.00  0.00     0.188 C 
BRANCH  24  25
ATOM     25  C   UNL A   1      42.486  21.308  26.570  1.00  0.00     0.188 C 
BRANCH  25  26
ATOM     26  O   UNL A   1      43.569  22.231  26.667  1.00  0.00    -0.376 OA
BRANCH  26  27
ATOM     27  C   UNL A   1      44.021  22.788  25.438  1.00  0.00     0.202 C 
BRANCH  27  28
ATOM     28  C   UNL A   1      43.381  24.146  25.136  1.00  0.00     0.261 C 
BRANCH  28  29
ATOM     29  O   UNL A   1      42.519  24.638  26.174  1.00  0.00    -0.460 OA
BRANCH  29  30
ATOM     30  C   UNL A   1      42.016  25.881  26.002  1.00  0.00     0.338 C 
ATOM     31  O   UNL A   1      41.505  26.338  24.996  1.00  0.00    -0.246 OA
BRANCH  30  32
ATOM     32  C   UNL A   1      42.036  26.560  27.311  1.00  0.00     0.060 A 
ATOM     33  C   UNL A   1      41.304  26.008  28.369  1.00  0.00     0.016 A 
ATOM     34  C   UNL A   1      42.765  27.740  27.483  1.00  0.00     0.016 A 
ATOM     35  C   UNL A   1      41.265  26.665  29.598  1.00  0.00     0.010 A 
ATOM     36  C   UNL A   1      42.714  28.401  28.709  1.00  0.00     0.010 A 
ATOM     37  C   UNL A   1      41.937  27.885  29.758  1.00  0.00    -0.014 A 
BRANCH  37  38
ATOM     38  C   UNL A   1      41.672  28.726  30.948  1.00  0.00     0.031 A 
ATOM     39  C   UNL A   1      40.515  29.686  30.897  1.00  0.00     0.074 A 
ATOM     40  C   UNL A   1      42.445  28.648  32.044  1.00  0.00     0.049 A 
ATOM     41  N   UNL A   1      40.105  30.538  31.799  1.00  0.00    -0.248 NA
ATOM     42  C   UNL A   1      39.717  29.685  29.659  1.00  0.00     0.031 C 
ATOM     43  C   UNL A   1      43.574  27.738  32.225  1.00  0.00     0.029 A 
ATOM     44  N   UNL A   1      42.394  29.361  33.216  1.00  0.00    -0.354 N 
ATOM     45  C   UNL A   1      39.003  31.175  31.239  1.00  0.00     0.074 A 
ATOM     46  C   UNL A   1      38.827  30.632  29.910  1.00  0.00     0.031 C 
ATOM     47  C   UNL A   1      44.113  27.950  33.439  1.00  0.00     0.029 A 
ATOM     48  C   UNL A   1      43.385  29.027  34.107  1.00  0.00     0.049 A 
ATOM     49  H   UNL A   1      41.711  30.046  33.400  1.00  0.00     0.167 HD
ATOM     50  C   UNL A   1      38.208  32.125  31.783  1.00  0.00     0.031 A 
ATOM     51  C   UNL A   1      43.676  29.546  35.316  1.00  0.00     0.031 A 
ATOM     52  C   UNL A   1      38.401  32.686  33.092  1.00  0.00     0.049 A 
ATOM     53  C   UNL A   1      42.825  30.661  35.868  1.00  0.00     0.074 A 
ATOM     54  C   UNL A   1      37.642  33.643  33.739  1.00  0.00     0.029 A 
ATOM     55  N   UNL A   1      39.440  32.350  33.947  1.00  0.00    -0.354 N 
ATOM     56  N   UNL A   1      41.763  31.225  35.345  1.00  0.00    -0.248 NA
ATOM     57  C   UNL A   1      43.212  31.206  37.178  1.00  0.00     0.031 C 
ATOM     58  C   UNL A   1      38.250  33.923  34.968  1.00  0.00     0.029 A 
ATOM     59  C   UNL A   1      39.358  33.102  35.106  1.00  0.00     0.049 A 
ATOM     60  H   UNL A   1      40.133  31.677  33.758  1.00  0.00     0.167 HD
ATOM     61  C   UNL A   1      41.337  32.169  36.275  1.00  0.00     0.074 A 
ATOM     62  C   UNL A   1      42.254  32.096  37.394  1.00  0.00     0.031 C 
ATOM     63  C   UNL A   1      40.280  33.017  36.210  1.00  0.00     0.031 A 
BRANCH  50  64
ATOM     64  C   UNL A   1      37.079  32.639  30.933  1.00  0.00    -0.014 A 
ATOM     65  C   UNL A   1      37.267  33.721  30.054  1.00  0.00     0.010 A 
ATOM     66  C   UNL A   1      35.814  32.033  31.016  1.00  0.00     0.010 A 
ATOM     67  C   UNL A   1      36.195  34.218  29.308  1.00  0.00     0.020 A 
ATOM     68  C   UNL A   1      34.745  32.511  30.253  1.00  0.00     0.020 A 
ATOM     69  C   UNL A   1      34.938  33.614  29.419  1.00  0.00     0.054 A 
BRANCH  69  70
ATOM     70  S   UNL A   1      33.562  34.280  28.444  1.00  0.00     0.124 S 
ATOM     71  O   UNL A   1      32.701  34.839  29.483  1.00  0.00    -0.237 OA
ATOM     72  O   UNL A   1      34.221  35.257  27.581  1.00  0.00    -0.237 OA
ATOM     73  O   UNL A   1      33.027  33.107  27.755  1.00  0.00    -0.744 OA
ENDBRANCH  69  70
ENDBRANCH  50  64
BRANCH  51  74
ATOM     74  C   UNL A   1      44.831  29.020  36.094  1.00  0.00    -0.014 A 
ATOM     75  C   UNL A   1      46.115  29.565  35.918  1.00  0.00     0.010 A 
ATOM     76  C   UNL A   1      44.653  27.967  37.010  1.00  0.00     0.010 A 
ATOM     77  C   UNL A   1      47.203  29.058  36.636  1.00  0.00     0.020 A 
ATOM     78  C   UNL A   1      45.734  27.473  37.746  1.00  0.00     0.020 A 
ATOM     79  C   UNL A   1      47.006  28.016  37.545  1.00  0.00     0.054 A 
BRANCH  79  80
ATOM     80  S   UNL A   1      48.423  27.408  38.503  1.00  0.00     0.124 S 
ATOM     81  O   UNL A   1      48.373  28.255  39.690  1.00  0.00    -0.237 OA
ATOM     82  O   UNL A   1      48.084  26.003  38.711  1.00  0.00    -0.237 OA
ATOM     83  O   UNL A   1      49.559  27.640  37.614  1.00  0.00    -0.744 OA
ENDBRANCH  79  80
ENDBRANCH  51  74
BRANCH  63  84
ATOM     84  C   UNL A   1      40.032  33.909  37.396  1.00  0.00    -0.014 A 
ATOM     85  C   UNL A   1      40.867  35.006  37.671  1.00  0.00     0.010 A 
ATOM     86  C   UNL A   1      38.908  33.681  38.211  1.00  0.00     0.010 A 
ATOM     87  C   UNL A   1      40.597  35.844  38.758  1.00  0.00     0.020 A 
ATOM     88  C   UNL A   1      38.621  34.531  39.283  1.00  0.00     0.020 A 
ATOM     89  C   UNL A   1      39.476  35.599  39.557  1.00  0.00     0.054 A 
BRANCH  89  90
ATOM     90  S   UNL A   1      39.117  36.728  40.932  1.00  0.00     0.124 S 
ATOM     91  O   UNL A   1      38.276  37.732  40.287  1.00  0.00    -0.237 OA
ATOM     92  O   UNL A   1      38.437  35.862  41.892  1.00  0.00    -0.237 OA
ATOM     93  O   UNL A   1      40.437  37.194  41.350  1.00  0.00    -0.744 OA
ENDBRANCH  89  90
ENDBRANCH  63  84
ENDBRANCH  37  38
ENDBRANCH  30  32
ENDBRANCH  29  30
ENDBRANCH  28  29
ENDBRANCH  27  28
ENDBRANCH  26  27
ENDBRANCH  25  26
ENDBRANCH  24  25
ENDBRANCH   1  24
TORSDOF 26
ENDMDL
MODEL 2
REMARK VINA RESULT:      -8.7      1.632      8.376
REMARK SMILES CC[C@H]1CCCC[C@@H]1Sc1csc(C(=O)OCCOCCOCCOCCOC(=O)c2ccc(-c3c4nc(c(-c5ccc(S(=O)(=O)[O-])cc5)c5ccc([nH]5)c(-c5ccc(S(=O)(=O)[O-])cc5)c5nc(c(-c6ccc(S(=O)(=O)[O-])cc6)c6ccc3[nH]6)C=C5)C=C4)cc2)c1
REMARK SMILES IDX 22 1 21 2 20 3 19 4 18 5 17 6 16 7 14 8 15 9 13 10 10 11
REMARK SMILES IDX 11 12 91 13 12 14 9 15 8 16 3 17 4 18 5 19 7 20 6 21 2 22
REMARK SMILES IDX 1 23 23 24 24 25 25 26 26 27 27 28 28 29 29 30 30 31 31 32
REMARK SMILES IDX 32 33 90 34 33 35 89 36 34 37 35 38 36 39 83 40 37 41 88 42
REMARK SMILES IDX 82 43 84 44 38 45 87 46 81 47 80 48 39 50 69 51 50 52 68 53
REMARK SMILES IDX 51 54 54 55 67 56 85 57 52 58 53 59 66 61 86 62 55 63 40 64
REMARK SMILES IDX 41 65 49 66 42 67 48 68 43 69 44 70 45 71 46 72 47 73 70 74
REMARK SMILES IDX 71 75 79 76 72 77 78 78 73 79 74 80 75 81 76 82 77 83 56 84
REMARK SMILES IDX 57 85 65 86 58 87 64 88 59 89 60 90 61 91 62 92 63 93
REMARK H PARENT 84 49 54 60
REMARK Flexibility Score: inf
ROOT
ATOM      1  O   UNL A   1      34.979  21.151  25.731  1.00  0.00    -0.377 OA
ENDROOT
BRANCH   1   2
ATOM      2  C   UNL A   1      34.642  21.584  27.035  1.00  0.00     0.188 C 
BRANCH   2   3
ATOM      3  C   UNL A   1      33.283  22.291  27.170  1.00  0.00     0.188 C 
BRANCH   3   4
ATOM      4  O   UNL A   1      32.421  22.099  26.051  1.00  0.00    -0.376 OA
BRANCH   4   5
ATOM      5  C   UNL A   1      31.069  22.507  26.226  1.00  0.00     0.202 C 
BRANCH   5   6
ATOM      6  C   UNL A   1      30.699  23.811  25.506  1.00  0.00     0.261 C 
BRANCH   6   7
ATOM      7  O   UNL A   1      31.203  23.918  24.166  1.00  0.00    -0.459 OA
BRANCH   7   8
ATOM      8  C   UNL A   1      30.733  24.931  23.392  1.00  0.00     0.348 C 
ATOM      9  O   UNL A   1      29.568  25.042  23.023  1.00  0.00    -0.245 OA
BRANCH   8  10
ATOM     10  C   UNL A   1      31.795  25.890  23.187  1.00  0.00     0.113 A 
ATOM     11  C   UNL A   1      33.299  27.659  23.476  1.00  0.00     0.019 A 
ATOM     12  C   UNL A   1      33.540  27.307  22.169  1.00  0.00     0.080 A 
ATOM     13  C   UNL A   1      32.272  26.856  24.054  1.00  0.00     0.042 A 
ATOM     14  S   UNL A   1      32.590  25.969  21.673  1.00  0.00    -0.136 S 
BRANCH  11  15
ATOM     15  S   UNL A   1      34.078  28.904  24.435  1.00  0.00    -0.122 SA
BRANCH  15  16
ATOM     16  C   UNL A   1      33.624  28.545  26.180  1.00  0.00     0.055 C 
ATOM     17  C   UNL A   1      32.365  29.381  26.534  1.00  0.00     0.002 C 
ATOM     18  C   UNL A   1      32.685  30.866  26.796  1.00  0.00     0.005 C 
ATOM     19  C   UNL A   1      33.878  31.111  27.711  1.00  0.00     0.000 C 
ATOM     20  C   UNL A   1      34.826  28.845  27.091  1.00  0.00     0.015 C 
ATOM     21  C   UNL A   1      35.112  30.335  27.273  1.00  0.00     0.001 C 
BRANCH  17  22
ATOM     22  C   UNL A   1      31.467  28.754  27.632  1.00  0.00     0.001 C 
ATOM     23  C   UNL A   1      31.187  27.263  27.580  1.00  0.00     0.004 C 
ENDBRANCH  17  22
ENDBRANCH  15  16
ENDBRANCH  11  15
ENDBRANCH   8  10
ENDBRANCH   7   8
ENDBRANCH   6   7
ENDBRANCH   5   6
ENDBRANCH   4   5
ENDBRANCH   3   4
ENDBRANCH   2   3
ENDBRANCH   1   2
BRANCH   1  24
ATOM     24  C   UNL A   1      35.474  22.095  24.784  1.00  0.00     0.188 C 
BRANCH  24  25
ATOM     25  C   UNL A   1      36.979  22.270  24.490  1.00  0.00     0.188 C 
BRANCH  25  26
ATOM     26  O   UNL A   1      37.600  23.345  25.190  1.00  0.00    -0.376 OA
BRANCH  26  27
ATOM     27  C   UNL A   1      38.275  22.994  26.393  1.00  0.00     0.202 C 
BRANCH  27  28
ATOM     28  C   UNL A   1      39.705  22.506  26.145  1.00  0.00     0.261 C 
BRANCH  28  29
ATOM     29  O   UNL A   1      40.679  23.037  27.057  1.00  0.00    -0.460 OA
BRANCH  29  30
ATOM     30  C   UNL A   1      41.455  24.042  26.593  1.00  0.00     0.338 C 
ATOM     31  O   UNL A   1      42.154  24.034  25.596  1.00  0.00    -0.246 OA
BRANCH  30  32
ATOM     32  C   UNL A   1      41.187  25.236  27.415  1.00  0.00     0.060 A 
ATOM     33  C   UNL A   1      42.021  26.351  27.278  1.00  0.00     0.016 A 
ATOM     34  C   UNL A   1      40.123  25.244  28.321  1.00  0.00     0.016 A 
ATOM     35  C   UNL A   1      41.818  27.470  28.085  1.00  0.00     0.010 A 
ATOM     36  C   UNL A   1      39.929  26.359  29.136  1.00  0.00     0.010 A 
ATOM     37  C   UNL A   1      40.797  27.460  29.046  1.00  0.00    -0.014 A 
BRANCH  37  38
ATOM     38  C   UNL A   1      40.752  28.508  30.090  1.00  0.00     0.031 A 
ATOM     39  C   UNL A   1      41.767  28.450  31.199  1.00  0.00     0.074 A 
ATOM     40  C   UNL A   1      39.826  29.482  30.063  1.00  0.00     0.049 A 
ATOM     41  N   UNL A   1      41.910  29.237  32.233  1.00  0.00    -0.248 NA
ATOM     42  C   UNL A   1      42.750  27.356  31.131  1.00  0.00     0.031 C 
ATOM     43  C   UNL A   1      38.811  29.660  29.027  1.00  0.00     0.029 A 
ATOM     44  N   UNL A   1      39.593  30.505  30.947  1.00  0.00    -0.354 N 
ATOM     45  C   UNL A   1      42.996  28.734  32.939  1.00  0.00     0.074 A 
ATOM     46  C   UNL A   1      43.457  27.559  32.232  1.00  0.00     0.031 C 
ATOM     47  C   UNL A   1      38.057  30.731  29.338  1.00  0.00     0.029 A 
ATOM     48  C   UNL A   1      38.521  31.294  30.605  1.00  0.00     0.049 A 
ATOM     49  H   UNL A   1      40.141  30.660  31.750  1.00  0.00     0.167 HD
ATOM     50  C   UNL A   1      43.562  29.208  34.074  1.00  0.00     0.031 A 
ATOM     51  C   UNL A   1      37.971  32.340  31.252  1.00  0.00     0.031 A 
ATOM     52  C   UNL A   1      43.086  30.357  34.792  1.00  0.00     0.049 A 
ATOM     53  C   UNL A   1      38.568  32.801  32.557  1.00  0.00     0.074 A 
ATOM     54  C   UNL A   1      43.599  30.925  35.943  1.00  0.00     0.029 A 
ATOM     55  N   UNL A   1      41.974  31.104  34.435  1.00  0.00    -0.354 N 
ATOM     56  N   UNL A   1      39.620  32.340  33.192  1.00  0.00    -0.248 NA
ATOM     57  C   UNL A   1      37.905  33.927  33.230  1.00  0.00     0.031 C 
ATOM     58  C   UNL A   1      42.767  31.989  36.312  1.00  0.00     0.029 A 
ATOM     59  C   UNL A   1      41.766  32.113  35.360  1.00  0.00     0.049 A 
ATOM     60  H   UNL A   1      41.415  30.942  33.642  1.00  0.00     0.167 HD
ATOM     61  C   UNL A   1      39.761  33.139  34.322  1.00  0.00     0.074 A 
ATOM     62  C   UNL A   1      38.691  34.115  34.281  1.00  0.00     0.031 C 
ATOM     63  C   UNL A   1      40.696  33.075  35.303  1.00  0.00     0.031 A 
BRANCH  50  64
ATOM     64  C   UNL A   1      44.738  28.446  34.619  1.00  0.00    -0.014 A 
ATOM     65  C   UNL A   1      46.051  28.750  34.215  1.00  0.00     0.010 A 
ATOM     66  C   UNL A   1      44.527  27.412  35.548  1.00  0.00     0.010 A 
ATOM     67  C   UNL A   1      47.128  28.000  34.693  1.00  0.00     0.020 A 
ATOM     68  C   UNL A   1      45.605  26.676  36.048  1.00  0.00     0.020 A 
ATOM     69  C   UNL A   1      46.897  26.962  35.601  1.00  0.00     0.054 A 
BRANCH  69  70
ATOM     70  S   UNL A   1      48.310  26.000  36.205  1.00  0.00     0.124 S 
ATOM     71  O   UNL A   1      48.093  26.022  37.650  1.00  0.00    -0.237 OA
ATOM     72  O   UNL A   1      48.117  24.703  35.561  1.00  0.00    -0.237 OA
ATOM     73  O   UNL A   1      49.469  26.758  35.738  1.00  0.00    -0.744 OA
ENDBRANCH  69  70
ENDBRANCH  50  64
BRANCH  51  74
ATOM     74  C   UNL A   1      36.782  33.029  30.680  1.00  0.00    -0.014 A 
ATOM     75  C   UNL A   1      35.505  32.817  31.226  1.00  0.00     0.010 A 
ATOM     76  C   UNL A   1      36.922  33.896  29.581  1.00  0.00     0.010 A 
ATOM     77  C   UNL A   1      34.386  33.451  30.676  1.00  0.00     0.020 A 
ATOM     78  C   UNL A   1      35.809  34.549  29.042  1.00  0.00     0.020 A 
ATOM     79  C   UNL A   1      34.545  34.313  29.588  1.00  0.00     0.054 A 
BRANCH  79  80
ATOM     80  S   UNL A   1      33.087  35.163  28.923  1.00  0.00     0.124 S 
ATOM     81  O   UNL A   1      32.271  35.347  30.118  1.00  0.00    -0.237 OA
ATOM     82  O   UNL A   1      33.662  36.379  28.354  1.00  0.00    -0.237 OA
ATOM     83  O   UNL A   1      32.559  34.217  27.942  1.00  0.00    -0.744 OA
ENDBRANCH  79  80
ENDBRANCH  51  74
BRANCH  63  84
ATOM     84  C   UNL A   1      40.629  34.108  36.396  1.00  0.00    -0.014 A 
ATOM     85  C   UNL A   1      41.235  35.368  36.246  1.00  0.00     0.010 A 
ATOM     86  C   UNL A   1      39.895  33.834  37.564  1.00  0.00     0.010 A 
ATOM     87  C   UNL A   1      41.129  36.326  37.259  1.00  0.00     0.020 A 
ATOM     88  C   UNL A   1      39.767  34.798  38.567  1.00  0.00     0.020 A 
ATOM     89  C   UNL A   1      40.397  36.033  38.414  1.00  0.00     0.054 A 
BRANCH  89  90
ATOM     90  S   UNL A   1      40.231  37.309  39.694  1.00  0.00     0.124 S 
ATOM     91  O   UNL A   1      41.467  38.069  39.526  1.00  0.00    -0.237 OA
ATOM     92  O   UNL A   1      39.009  38.005  39.301  1.00  0.00    -0.237 OA
ATOM     93  O   UNL A   1      40.133  36.543  40.934  1.00  0.00    -0.744 OA
ENDBRANCH  89  90
ENDBRANCH  63  84
ENDBRANCH  37  38
ENDBRANCH  30  32
ENDBRANCH  29  30
ENDBRANCH  28  29
ENDBRANCH  27  28
ENDBRANCH  26  27
ENDBRANCH  25  26
ENDBRANCH  24  25
ENDBRANCH   1  24
TORSDOF 26
ENDMDL
MODEL 3
REMARK VINA RESULT:      -8.7      2.359     10.020
REMARK SMILES CC[C@H]1CCCC[C@@H]1Sc1csc(C(=O)OCCOCCOCCOCCOC(=O)c2ccc(-c3c4nc(c(-c5ccc(S(=O)(=O)[O-])cc5)c5ccc([nH]5)c(-c5ccc(S(=O)(=O)[O-])cc5)c5nc(c(-c6ccc(S(=O)(=O)[O-])cc6)c6ccc3[nH]6)C=C5)C=C4)cc2)c1
REMARK SMILES IDX 22 1 21 2 20 3 19 4 18 5 17 6 16 7 14 8 15 9 13 10 10 11
REMARK SMILES IDX 11 12 91 13 12 14 9 15 8 16 3 17 4 18 5 19 7 20 6 21 2 22
REMARK SMILES IDX 1 23 23 24 24 25 25 26 26 27 27 28 28 29 29 30 30 31 31 32
REMARK SMILES IDX 32 33 90 34 33 35 89 36 34 37 35 38 36 39 83 40 37 41 88 42
REMARK SMILES IDX 82 43 84 44 38 45 87 46 81 47 80 48 39 50 69 51 50 52 68 53
REMARK SMILES IDX 51 54 54 55 67 56 85 57 52 58 53 59 66 61 86 62 55 63 40 64
REMARK SMILES IDX 41 65 49 66 42 67 48 68 43 69 44 70 45 71 46 72 47 73 70 74
REMARK SMILES IDX 71 75 79 76 72 77 78 78 73 79 74 80 75 81 76 82 77 83 56 84
REMARK SMILES IDX 57 85 65 86 58 87 64 88 59 89 60 90 61 91 62 92 63 93
REMARK H PARENT 84 49 54 60
REMARK Flexibility Score: inf
ROOT
ATOM      1  O   UNL A   1      34.500  31.651  27.566  1.00  0.00    -0.377 OA
ENDROOT
BRANCH   1   2
ATOM      2  C   UNL A   1      33.161  31.196  27.565  1.00  0.00     0.188 C 
BRANCH   2   3
ATOM      3  C   UNL A   1      32.841  30.073  26.566  1.00  0.00     0.188 C 
BRANCH   3   4
ATOM      4  O   UNL A   1      31.954  30.466  25.522  1.00  0.00    -0.376 OA
BRANCH   4   5
ATOM      5  C   UNL A   1      31.141  29.436  24.970  1.00  0.00     0.202 C 
BRANCH   5   6
ATOM      6  C   UNL A   1      31.458  29.088  23.510  1.00  0.00     0.261 C 
BRANCH   6   7
ATOM      7  O   UNL A   1      31.076  27.761  23.115  1.00  0.00    -0.459 OA
BRANCH   7   8
ATOM      8  C   UNL A   1      30.139  27.122  23.864  1.00  0.00     0.348 C 
ATOM      9  O   UNL A   1      28.929  27.278  23.744  1.00  0.00    -0.245 OA
BRANCH   8  10
ATOM     10  C   UNL A   1      30.803  26.164  24.719  1.00  0.00     0.113 A 
ATOM     11  C   UNL A   1      32.392  24.724  25.656  1.00  0.00     0.019 A 
ATOM     12  C   UNL A   1      31.270  24.402  26.383  1.00  0.00     0.080 A 
ATOM     13  C   UNL A   1      32.114  25.723  24.678  1.00  0.00     0.042 A 
ATOM     14  S   UNL A   1      29.916  25.355  25.940  1.00  0.00    -0.136 S 
BRANCH  11  15
ATOM     15  S   UNL A   1      34.016  24.077  25.807  1.00  0.00    -0.122 SA
BRANCH  15  16
ATOM     16  C   UNL A   1      34.328  23.151  24.250  1.00  0.00     0.055 C 
ATOM     17  C   UNL A   1      33.067  22.305  23.929  1.00  0.00     0.002 C 
ATOM     18  C   UNL A   1      32.956  21.039  24.802  1.00  0.00     0.005 C 
ATOM     19  C   UNL A   1      34.241  20.230  24.920  1.00  0.00     0.000 C 
ATOM     20  C   UNL A   1      35.602  22.304  24.409  1.00  0.00     0.015 C 
ATOM     21  C   UNL A   1      35.432  21.090  25.320  1.00  0.00     0.001 C 
BRANCH  17  22
ATOM     22  C   UNL A   1      32.855  22.018  22.420  1.00  0.00     0.001 C 
ATOM     23  C   UNL A   1      31.772  21.034  22.012  1.00  0.00     0.004 C 
ENDBRANCH  17  22
ENDBRANCH  15  16
ENDBRANCH  11  15
ENDBRANCH   8  10
ENDBRANCH   7   8
ENDBRANCH   6   7
ENDBRANCH   5   6
ENDBRANCH   4   5
ENDBRANCH   3   4
ENDBRANCH   2   3
ENDBRANCH   1   2
BRANCH   1  24
ATOM     24  C   UNL A   1      34.980  32.421  28.665  1.00  0.00     0.188 C 
BRANCH  24  25
ATOM     25  C   UNL A   1      34.864  33.959  28.720  1.00  0.00     0.188 C 
BRANCH  25  26
ATOM     26  O   UNL A   1      33.535  34.450  28.882  1.00  0.00    -0.376 OA
BRANCH  26  27
ATOM     27  C   UNL A   1      33.383  35.863  28.804  1.00  0.00     0.202 C 
BRANCH  27  28
ATOM     28  C   UNL A   1      32.724  36.454  30.053  1.00  0.00     0.261 C 
BRANCH  28  29
ATOM     29  O   UNL A   1      32.427  35.492  31.077  1.00  0.00    -0.460 OA
BRANCH  29  30
ATOM     30  C   UNL A   1      32.993  35.702  32.286  1.00  0.00     0.338 C 
ATOM     31  O   UNL A   1      32.555  36.378  33.199  1.00  0.00    -0.246 OA
BRANCH  30  32
ATOM     32  C   UNL A   1      34.176  34.829  32.388  1.00  0.00     0.060 A 
ATOM     33  C   UNL A   1      34.018  33.536  32.900  1.00  0.00     0.016 A 
ATOM     34  C   UNL A   1      35.433  35.292  31.989  1.00  0.00     0.016 A 
ATOM     35  C   UNL A   1      35.134  32.713  33.056  1.00  0.00     0.010 A 
ATOM     36  C   UNL A   1      36.548  34.473  32.158  1.00  0.00     0.010 A 
ATOM     37  C   UNL A   1      36.408  33.196  32.724  1.00  0.00    -0.014 A 
BRANCH  37  38
ATOM     38  C   UNL A   1      37.615  32.452  33.147  1.00  0.00     0.031 A 
ATOM     39  C   UNL A   1      38.274  32.843  34.442  1.00  0.00     0.074 A 
ATOM     40  C   UNL A   1      38.124  31.459  32.397  1.00  0.00     0.049 A 
ATOM     41  N   UNL A   1      39.349  32.358  35.005  1.00  0.00    -0.248 NA
ATOM     42  C   UNL A   1      37.632  33.930  35.201  1.00  0.00     0.031 C 
ATOM     43  C   UNL A   1      37.559  30.970  31.141  1.00  0.00     0.029 A 
ATOM     44  N   UNL A   1      39.243  30.689  32.590  1.00  0.00    -0.354 N 
ATOM     45  C   UNL A   1      39.514  33.080  36.181  1.00  0.00     0.074 A 
ATOM     46  C   UNL A   1      38.446  34.054  36.238  1.00  0.00     0.031 C 
ATOM     47  C   UNL A   1      38.340  29.980  30.671  1.00  0.00     0.029 A 
ATOM     48  C   UNL A   1      39.470  29.787  31.578  1.00  0.00     0.049 A 
ATOM     49  H   UNL A   1      39.826  30.774  33.378  1.00  0.00     0.167 HD
ATOM     50  C   UNL A   1      40.468  32.943  37.132  1.00  0.00     0.031 A 
ATOM     51  C   UNL A   1      40.484  28.917  31.402  1.00  0.00     0.031 A 
ATOM     52  C   UNL A   1      41.546  31.996  37.062  1.00  0.00     0.049 A 
ATOM     53  C   UNL A   1      41.580  28.839  32.434  1.00  0.00     0.074 A 
ATOM     54  C   UNL A   1      42.555  31.770  37.979  1.00  0.00     0.029 A 
ATOM     55  N   UNL A   1      41.764  31.128  36.002  1.00  0.00    -0.354 N 
ATOM     56  N   UNL A   1      41.702  29.499  33.561  1.00  0.00    -0.248 NA
ATOM     57  C   UNL A   1      42.675  27.893  32.170  1.00  0.00     0.031 C 
ATOM     58  C   UNL A   1      43.413  30.799  37.453  1.00  0.00     0.029 A 
ATOM     59  C   UNL A   1      42.909  30.384  36.230  1.00  0.00     0.049 A 
ATOM     60  H   UNL A   1      41.190  31.053  35.206  1.00  0.00     0.167 HD
ATOM     61  C   UNL A   1      42.869  29.027  34.154  1.00  0.00     0.074 A 
ATOM     62  C   UNL A   1      43.413  28.022  33.264  1.00  0.00     0.031 C 
ATOM     63  C   UNL A   1      43.436  29.388  35.333  1.00  0.00     0.031 A 
BRANCH  50  64
ATOM     64  C   UNL A   1      40.398  33.877  38.309  1.00  0.00    -0.014 A 
ATOM     65  C   UNL A   1      39.624  33.562  39.440  1.00  0.00     0.010 A 
ATOM     66  C   UNL A   1      41.114  35.086  38.281  1.00  0.00     0.010 A 
ATOM     67  C   UNL A   1      39.530  34.462  40.504  1.00  0.00     0.020 A 
ATOM     68  C   UNL A   1      41.042  35.978  39.354  1.00  0.00     0.020 A 
ATOM     69  C   UNL A   1      40.233  35.670  40.450  1.00  0.00     0.054 A 
BRANCH  69  70
ATOM     70  S   UNL A   1      40.092  36.825  41.841  1.00  0.00     0.124 S 
ATOM     71  O   UNL A   1      41.424  36.744  42.435  1.00  0.00    -0.237 OA
ATOM     72  O   UNL A   1      39.775  38.088  41.180  1.00  0.00    -0.237 OA
ATOM     73  O   UNL A   1      39.014  36.261  42.650  1.00  0.00    -0.744 OA
ENDBRANCH  69  70
ENDBRANCH  50  64
BRANCH  51  74
ATOM     74  C   UNL A   1      40.518  28.046  30.196  1.00  0.00    -0.014 A 
ATOM     75  C   UNL A   1      39.536  27.060  30.003  1.00  0.00     0.010 A 
ATOM     76  C   UNL A   1      41.537  28.195  29.238  1.00  0.00     0.010 A 
ATOM     77  C   UNL A   1      39.579  26.229  28.878  1.00  0.00     0.020 A 
ATOM     78  C   UNL A   1      41.570  27.382  28.101  1.00  0.00     0.020 A 
ATOM     79  C   UNL A   1      40.595  26.396  27.935  1.00  0.00     0.054 A 
BRANCH  79  80
ATOM     80  S   UNL A   1      40.602  25.341  26.458  1.00  0.00     0.124 S 
ATOM     81  O   UNL A   1      41.632  24.362  26.789  1.00  0.00    -0.237 OA
ATOM     82  O   UNL A   1      39.233  24.835  26.425  1.00  0.00    -0.237 OA
ATOM     83  O   UNL A   1      40.940  26.267  25.379  1.00  0.00    -0.744 OA
ENDBRANCH  79  80
ENDBRANCH  51  74
BRANCH  63  84
ATOM     84  C   UNL A   1      44.691  28.670  35.748  1.00  0.00    -0.014 A 
ATOM     85  C   UNL A   1      45.962  29.154  35.389  1.00  0.00     0.010 A 
ATOM     86  C   UNL A   1      44.597  27.527  36.564  1.00  0.00     0.010 A 
ATOM     87  C   UNL A   1      47.116  28.490  35.817  1.00  0.00     0.020 A 
ATOM     88  C   UNL A   1      45.749  26.876  37.013  1.00  0.00     0.020 A 
ATOM     89  C   UNL A   1      47.001  27.355  36.625  1.00  0.00     0.054 A 
BRANCH  89  90
ATOM     90  S   UNL A   1      48.513  26.539  37.209  1.00  0.00     0.124 S 
ATOM     91  O   UNL A   1      48.329  25.174  36.722  1.00  0.00    -0.237 OA
ATOM     92  O   UNL A   1      49.569  27.303  36.549  1.00  0.00    -0.237 OA
ATOM     93  O   UNL A   1      48.453  26.697  38.660  1.00  0.00    -0.744 OA
ENDBRANCH  89  90
ENDBRANCH  63  84
ENDBRANCH  37  38
ENDBRANCH  30  32
ENDBRANCH  29  30
ENDBRANCH  28  29
ENDBRANCH  27  28
ENDBRANCH  26  27
ENDBRANCH  25  26
ENDBRANCH  24  25
ENDBRANCH   1  24
TORSDOF 26
ENDMDL
