MODEL 1
REMARK VINA RESULT:      -7.9      0.000      0.000
REMARK SMILES C[NH+]1CCC(C[N@H+](C)[C@H]2CC[C@]([NH3+])(C(=O)OCCOCCOCCOCCOC(=O)c3ccc(-c4c5nc(c(-c6ccc(S(=O)(=O)[O-])cc6)c6ccc([nH]6)c(-c6ccc(S(=O)(=O)[O-])cc6)c6nc(c(-c7ccc(S(=O)(=O)[O-])cc7)c7ccc4[nH]7)C=C6)C=C5)cc3)C2)CC1
REMARK SMILES IDX 22 1 21 2 20 3 19 4 18 5 17 6 16 7 14 8 15 9 12 10 9 11
REMARK SMILES IDX 10 12 91 13 11 14 7 15 8 16 6 18 5 19 1 20 2 21 3 22 93 23
REMARK SMILES IDX 4 25 92 26 13 27 23 31 24 32 25 33 26 34 27 35 28 36 29 37
REMARK SMILES IDX 30 38 31 39 32 40 90 41 33 42 89 43 34 44 35 45 36 46 83 47
REMARK SMILES IDX 37 48 88 49 82 50 84 51 38 52 87 53 81 54 80 55 39 57 69 58
REMARK SMILES IDX 50 59 68 60 51 61 54 62 67 63 85 64 52 65 53 66 66 68 86 69
REMARK SMILES IDX 55 70 40 71 41 72 49 73 42 74 48 75 43 76 44 77 45 78 46 79
REMARK SMILES IDX 47 80 70 81 71 82 79 83 72 84 78 85 73 86 74 87 75 88 76 89
REMARK SMILES IDX 77 90 56 91 57 92 65 93 58 94 64 95 59 96 60 97 61 98 62 99
REMARK SMILES IDX 63 100
REMARK H PARENT 7 17 2 24 13 28 13 29 13 30 84 56 54 67
REMARK Flexibility Score: inf
ROOT
ATOM      1  O   UNL A   1      40.241  21.788  26.292  1.00  0.00    -0.377 OA
ENDROOT
BRANCH   1   2
ATOM      2  C   UNL A   1      39.433  20.703  25.895  1.00  0.00     0.188 C 
BRANCH   2   3
ATOM      3  C   UNL A   1      38.122  21.131  25.211  1.00  0.00     0.188 C 
BRANCH   3   4
ATOM      4  O   UNL A   1      37.138  20.155  24.912  1.00  0.00    -0.376 OA
BRANCH   4   5
ATOM      5  C   UNL A   1      35.765  20.532  24.932  1.00  0.00     0.202 C 
BRANCH   5   6
ATOM      6  C   UNL A   1      35.233  21.737  25.751  1.00  0.00     0.261 C 
BRANCH   6   7
ATOM      7  O   UNL A   1      33.865  22.110  25.522  1.00  0.00    -0.459 OA
BRANCH   7   8
ATOM      8  C   UNL A   1      33.524  22.648  24.306  1.00  0.00     0.368 C 
ATOM      9  O   UNL A   1      33.536  22.049  23.240  1.00  0.00    -0.245 OA
BRANCH   8  10
ATOM     10  C   UNL A   1      32.990  24.103  24.511  1.00  0.00     0.198 C 
ATOM     11  C   UNL A   1      31.661  25.928  23.474  1.00  0.00     0.191 C 
ATOM     12  C   UNL A   1      33.143  26.254  23.261  1.00  0.00     0.072 C 
ATOM     13  C   UNL A   1      31.641  24.427  23.852  1.00  0.00     0.145 C 
ATOM     14  C   UNL A   1      33.959  25.107  23.850  1.00  0.00     0.087 C 
BRANCH  11  15
ATOM     15  N   UNL A   1      30.966  26.998  24.242  1.00  0.00    -0.334 N 
ATOM     16  C   UNL A   1      29.560  27.080  23.823  1.00  0.00     0.332 C 
ATOM     17  H   UNL A   1      31.529  27.813  23.993  1.00  0.00     0.348 HD
BRANCH  15  18
ATOM     18  C   UNL A   1      31.027  27.024  25.714  1.00  0.00     0.266 C 
BRANCH  18  19
ATOM     19  C   UNL A   1      31.915  28.112  26.338  1.00  0.00     0.055 C 
ATOM     20  C   UNL A   1      34.396  31.292  27.615  1.00  0.00     0.332 C 
ATOM     21  N   UNL A   1      33.848  30.272  26.718  1.00  0.00    -0.337 N 
ATOM     22  C   UNL A   1      32.442  30.575  26.416  1.00  0.00     0.262 C 
ATOM     23  C   UNL A   1      34.035  28.934  27.309  1.00  0.00     0.262 C 
ATOM     24  H   UNL A   1      34.348  30.275  25.829  1.00  0.00     0.347 HD
ATOM     25  C   UNL A   1      31.755  29.464  25.618  1.00  0.00     0.071 C 
ATOM     26  C   UNL A   1      33.409  27.823  26.448  1.00  0.00     0.071 C 
ENDBRANCH  18  19
ENDBRANCH  15  18
ENDBRANCH  11  15
BRANCH  10  27
ATOM     27  N   UNL A   1      32.820  24.258  25.958  1.00  0.00    -0.343 N 
ATOM     28  H   UNL A   1      33.700  24.051  26.427  1.00  0.00     0.345 HD
ATOM     29  H   UNL A   1      32.099  23.614  26.286  1.00  0.00     0.345 HD
ATOM     30  H   UNL A   1      32.540  25.216  26.167  1.00  0.00     0.345 HD
ENDBRANCH  10  27
ENDBRANCH   8  10
ENDBRANCH   7   8
ENDBRANCH   6   7
ENDBRANCH   5   6
ENDBRANCH   4   5
ENDBRANCH   3   4
ENDBRANCH   2   3
ENDBRANCH   1   2
BRANCH   1  31
ATOM     31  C   UNL A   1      41.620  21.593  26.036  1.00  0.00     0.188 C 
BRANCH  31  32
ATOM     32  C   UNL A   1      42.463  22.822  25.624  1.00  0.00     0.188 C 
BRANCH  32  33
ATOM     33  O   UNL A   1      43.289  22.789  24.469  1.00  0.00    -0.376 OA
BRANCH  33  34
ATOM     34  C   UNL A   1      44.688  23.013  24.456  1.00  0.00     0.202 C 
BRANCH  34  35
ATOM     35  C   UNL A   1      45.380  24.152  25.205  1.00  0.00     0.261 C 
BRANCH  35  36
ATOM     36  O   UNL A   1      44.916  25.453  24.845  1.00  0.00    -0.460 OA
BRANCH  36  37
ATOM     37  C   UNL A   1      45.889  26.399  24.886  1.00  0.00     0.338 C 
ATOM     38  O   UNL A   1      46.965  26.373  24.324  1.00  0.00    -0.246 OA
BRANCH  37  39
ATOM     39  C   UNL A   1      45.370  27.614  25.528  1.00  0.00     0.060 A 
ATOM     40  C   UNL A   1      46.327  28.523  25.995  1.00  0.00     0.016 A 
ATOM     41  C   UNL A   1      44.007  27.816  25.750  1.00  0.00     0.016 A 
ATOM     42  C   UNL A   1      45.933  29.598  26.772  1.00  0.00     0.010 A 
ATOM     43  C   UNL A   1      43.612  28.882  26.561  1.00  0.00     0.010 A 
ATOM     44  C   UNL A   1      44.586  29.722  27.130  1.00  0.00    -0.014 A 
BRANCH  44  45
ATOM     45  C   UNL A   1      44.303  30.508  28.349  1.00  0.00     0.031 A 
ATOM     46  C   UNL A   1      44.374  29.787  29.669  1.00  0.00     0.074 A 
ATOM     47  C   UNL A   1      44.163  31.841  28.289  1.00  0.00     0.049 A 
ATOM     48  N   UNL A   1      44.314  30.268  30.883  1.00  0.00    -0.248 NA
ATOM     49  C   UNL A   1      44.555  28.326  29.613  1.00  0.00     0.031 C 
ATOM     50  C   UNL A   1      44.184  32.637  27.062  1.00  0.00     0.029 A 
ATOM     51  N   UNL A   1      44.019  32.760  29.292  1.00  0.00    -0.354 N 
ATOM     52  C   UNL A   1      44.446  29.171  31.728  1.00  0.00     0.074 A 
ATOM     53  C   UNL A   1      44.545  27.997  30.893  1.00  0.00     0.031 C 
ATOM     54  C   UNL A   1      44.082  33.937  27.390  1.00  0.00     0.029 A 
ATOM     55  C   UNL A   1      43.961  34.055  28.842  1.00  0.00     0.049 A 
ATOM     56  H   UNL A   1      43.962  32.516  30.244  1.00  0.00     0.167 HD
ATOM     57  C   UNL A   1      44.492  29.144  33.081  1.00  0.00     0.031 A 
ATOM     58  C   UNL A   1      43.830  35.203  29.533  1.00  0.00     0.031 A 
ATOM     59  C   UNL A   1      44.364  30.319  33.898  1.00  0.00     0.049 A 
ATOM     60  C   UNL A   1      43.773  35.141  31.036  1.00  0.00     0.074 A 
ATOM     61  C   UNL A   1      44.369  30.418  35.277  1.00  0.00     0.029 A 
ATOM     62  N   UNL A   1      44.195  31.606  33.403  1.00  0.00    -0.354 N 
ATOM     63  N   UNL A   1      43.886  34.098  31.826  1.00  0.00    -0.248 NA
ATOM     64  C   UNL A   1      43.588  36.415  31.741  1.00  0.00     0.031 C 
ATOM     65  C   UNL A   1      44.136  31.756  35.615  1.00  0.00     0.029 A 
ATOM     66  C   UNL A   1      44.067  32.503  34.449  1.00  0.00     0.049 A 
ATOM     67  H   UNL A   1      44.171  31.844  32.448  1.00  0.00     0.167 HD
ATOM     68  C   UNL A   1      43.828  34.595  33.123  1.00  0.00     0.074 A 
ATOM     69  C   UNL A   1      43.676  36.033  33.007  1.00  0.00     0.031 C 
ATOM     70  C   UNL A   1      43.906  33.930  34.305  1.00  0.00     0.031 A 
BRANCH  57  71
ATOM     71  C   UNL A   1      44.611  27.791  33.737  1.00  0.00    -0.014 A 
ATOM     72  C   UNL A   1      45.863  27.226  34.049  1.00  0.00     0.010 A 
ATOM     73  C   UNL A   1      43.445  27.053  34.014  1.00  0.00     0.010 A 
ATOM     74  C   UNL A   1      45.948  25.926  34.557  1.00  0.00     0.020 A 
ATOM     75  C   UNL A   1      43.524  25.767  34.555  1.00  0.00     0.020 A 
ATOM     76  C   UNL A   1      44.777  25.201  34.797  1.00  0.00     0.054 A 
BRANCH  76  77
ATOM     77  S   UNL A   1      44.913  23.506  35.427  1.00  0.00     0.124 S 
ATOM     78  O   UNL A   1      46.299  23.176  35.107  1.00  0.00    -0.237 OA
ATOM     79  O   UNL A   1      44.618  23.667  36.849  1.00  0.00    -0.237 OA
ATOM     80  O   UNL A   1      43.906  22.770  34.665  1.00  0.00    -0.744 OA
ENDBRANCH  76  77
ENDBRANCH  57  71
BRANCH  58  81
ATOM     81  C   UNL A   1      43.768  36.501  28.807  1.00  0.00    -0.014 A 
ATOM     82  C   UNL A   1      44.944  37.207  28.499  1.00  0.00     0.010 A 
ATOM     83  C   UNL A   1      42.529  37.025  28.396  1.00  0.00     0.010 A 
ATOM     84  C   UNL A   1      44.881  38.415  27.798  1.00  0.00     0.020 A 
ATOM     85  C   UNL A   1      42.464  38.218  27.671  1.00  0.00     0.020 A 
ATOM     86  C   UNL A   1      43.641  38.909  27.382  1.00  0.00     0.054 A 
BRANCH  86  87
ATOM     87  S   UNL A   1      43.593  40.443  26.415  1.00  0.00     0.124 S 
ATOM     88  O   UNL A   1      44.760  40.295  25.551  1.00  0.00    -0.237 OA
ATOM     89  O   UNL A   1      42.296  40.353  25.751  1.00  0.00    -0.237 OA
ATOM     90  O   UNL A   1      43.695  41.489  27.430  1.00  0.00    -0.744 OA
ENDBRANCH  86  87
ENDBRANCH  58  81
BRANCH  70  91
ATOM     91  C   UNL A   1      43.881  34.758  35.563  1.00  0.00    -0.014 A 
ATOM     92  C   UNL A   1      42.674  35.155  36.165  1.00  0.00     0.010 A 
ATOM     93  C   UNL A   1      45.100  35.119  36.170  1.00  0.00     0.010 A 
ATOM     94  C   UNL A   1      42.688  35.944  37.319  1.00  0.00     0.020 A 
ATOM     95  C   UNL A   1      45.117  35.875  37.342  1.00  0.00     0.020 A 
ATOM     96  C   UNL A   1      43.910  36.302  37.898  1.00  0.00     0.054 A 
BRANCH  96  97
ATOM     97  S   UNL A   1      43.900  37.314  39.401  1.00  0.00     0.124 S 
ATOM     98  O   UNL A   1      43.590  36.326  40.431  1.00  0.00    -0.237 OA
ATOM     99  O   UNL A   1      45.258  37.852  39.433  1.00  0.00    -0.237 OA
ATOM    100  O   UNL A   1      42.852  38.300  39.148  1.00  0.00    -0.744 OA
ENDBRANCH  96  97
ENDBRANCH  70  91
ENDBRANCH  44  45
ENDBRANCH  37  39
ENDBRANCH  36  37
ENDBRANCH  35  36
ENDBRANCH  34  35
ENDBRANCH  33  34
ENDBRANCH  32  33
ENDBRANCH  31  32
ENDBRANCH   1  31
TORSDOF 27
ENDMDL
MODEL 2
REMARK VINA RESULT:      -7.8      5.446      6.944
REMARK SMILES C[NH+]1CCC(C[N@H+](C)[C@H]2CC[C@]([NH3+])(C(=O)OCCOCCOCCOCCOC(=O)c3ccc(-c4c5nc(c(-c6ccc(S(=O)(=O)[O-])cc6)c6ccc([nH]6)c(-c6ccc(S(=O)(=O)[O-])cc6)c6nc(c(-c7ccc(S(=O)(=O)[O-])cc7)c7ccc4[nH]7)C=C6)C=C5)cc3)C2)CC1
REMARK SMILES IDX 22 1 21 2 20 3 19 4 18 5 17 6 16 7 14 8 15 9 12 10 9 11
REMARK SMILES IDX 10 12 91 13 11 14 7 15 8 16 6 18 5 19 1 20 2 21 3 22 93 23
REMARK SMILES IDX 4 25 92 26 13 27 23 31 24 32 25 33 26 34 27 35 28 36 29 37
REMARK SMILES IDX 30 38 31 39 32 40 90 41 33 42 89 43 34 44 35 45 36 46 83 47
REMARK SMILES IDX 37 48 88 49 82 50 84 51 38 52 87 53 81 54 80 55 39 57 69 58
REMARK SMILES IDX 50 59 68 60 51 61 54 62 67 63 85 64 52 65 53 66 66 68 86 69
REMARK SMILES IDX 55 70 40 71 41 72 49 73 42 74 48 75 43 76 44 77 45 78 46 79
REMARK SMILES IDX 47 80 70 81 71 82 79 83 72 84 78 85 73 86 74 87 75 88 76 89
REMARK SMILES IDX 77 90 56 91 57 92 65 93 58 94 64 95 59 96 60 97 61 98 62 99
REMARK SMILES IDX 63 100
REMARK H PARENT 7 17 2 24 13 28 13 29 13 30 84 56 54 67
REMARK Flexibility Score: inf
ROOT
ATOM      1  O   UNL A   1      39.780  25.120  27.911  1.00  0.00    -0.377 OA
ENDROOT
BRANCH   1   2
ATOM      2  C   UNL A   1      39.489  24.091  26.992  1.00  0.00     0.188 C 
BRANCH   2   3
ATOM      3  C   UNL A   1      38.044  24.129  26.464  1.00  0.00     0.188 C 
BRANCH   3   4
ATOM      4  O   UNL A   1      37.656  23.249  25.421  1.00  0.00    -0.376 OA
BRANCH   4   5
ATOM      5  C   UNL A   1      37.949  21.862  25.548  1.00  0.00     0.202 C 
BRANCH   5   6
ATOM      6  C   UNL A   1      36.961  20.747  25.114  1.00  0.00     0.261 C 
BRANCH   6   7
ATOM      7  O   UNL A   1      35.860  21.158  24.288  1.00  0.00    -0.459 OA
BRANCH   7   8
ATOM      8  C   UNL A   1      34.582  21.000  24.766  1.00  0.00     0.368 C 
ATOM      9  O   UNL A   1      34.136  19.976  25.264  1.00  0.00    -0.245 OA
BRANCH   8  10
ATOM     10  C   UNL A   1      33.826  22.366  24.697  1.00  0.00     0.198 C 
ATOM     11  C   UNL A   1      34.004  24.736  23.974  1.00  0.00     0.191 C 
ATOM     12  C   UNL A   1      34.260  24.691  25.484  1.00  0.00     0.072 C 
ATOM     13  C   UNL A   1      34.171  23.270  23.505  1.00  0.00     0.145 C 
ATOM     14  C   UNL A   1      34.203  23.229  25.920  1.00  0.00     0.087 C 
BRANCH  11  15
ATOM     15  N   UNL A   1      32.838  25.600  23.638  1.00  0.00    -0.334 N 
ATOM     16  C   UNL A   1      32.070  24.994  22.541  1.00  0.00     0.332 C 
ATOM     17  H   UNL A   1      33.308  26.473  23.394  1.00  0.00     0.348 HD
BRANCH  15  18
ATOM     18  C   UNL A   1      31.904  26.040  24.689  1.00  0.00     0.266 C 
BRANCH  18  19
ATOM     19  C   UNL A   1      32.135  27.450  25.256  1.00  0.00     0.055 C 
ATOM     20  C   UNL A   1      32.463  31.212  27.161  1.00  0.00     0.332 C 
ATOM     21  N   UNL A   1      31.841  29.961  26.722  1.00  0.00    -0.337 N 
ATOM     22  C   UNL A   1      32.532  28.818  27.334  1.00  0.00     0.262 C 
ATOM     23  C   UNL A   1      31.823  29.903  25.249  1.00  0.00     0.262 C 
ATOM     24  H   UNL A   1      30.871  29.919  27.032  1.00  0.00     0.347 HD
ATOM     25  C   UNL A   1      32.043  27.472  26.792  1.00  0.00     0.071 C 
ATOM     26  C   UNL A   1      31.250  28.574  24.725  1.00  0.00     0.071 C 
ENDBRANCH  18  19
ENDBRANCH  15  18
ENDBRANCH  11  15
BRANCH  10  27
ATOM     27  N   UNL A   1      32.405  22.022  24.589  1.00  0.00    -0.343 N 
ATOM     28  H   UNL A   1      31.987  22.545  23.821  1.00  0.00     0.345 HD
ATOM     29  H   UNL A   1      31.931  22.260  25.461  1.00  0.00     0.345 HD
ATOM     30  H   UNL A   1      32.310  21.023  24.412  1.00  0.00     0.345 HD
ENDBRANCH  10  27
ENDBRANCH   8  10
ENDBRANCH   7   8
ENDBRANCH   6   7
ENDBRANCH   5   6
ENDBRANCH   4   5
ENDBRANCH   3   4
ENDBRANCH   2   3
ENDBRANCH   1   2
BRANCH   1  31
ATOM     31  C   UNL A   1      40.922  25.884  27.565  1.00  0.00     0.188 C 
BRANCH  31  32
ATOM     32  C   UNL A   1      41.001  26.466  26.135  1.00  0.00     0.188 C 
BRANCH  32  33
ATOM     33  O   UNL A   1      41.846  25.883  25.153  1.00  0.00    -0.376 OA
BRANCH  33  34
ATOM     34  C   UNL A   1      42.771  24.836  25.388  1.00  0.00     0.202 C 
BRANCH  34  35
ATOM     35  C   UNL A   1      44.200  24.818  24.845  1.00  0.00     0.261 C 
BRANCH  35  36
ATOM     36  O   UNL A   1      44.899  26.051  25.001  1.00  0.00    -0.460 OA
BRANCH  36  37
ATOM     37  C   UNL A   1      46.245  25.899  25.075  1.00  0.00     0.338 C 
ATOM     38  O   UNL A   1      47.037  25.891  24.154  1.00  0.00    -0.246 OA
BRANCH  37  39
ATOM     39  C   UNL A   1      46.677  25.983  26.476  1.00  0.00     0.060 A 
ATOM     40  C   UNL A   1      46.505  24.827  27.247  1.00  0.00     0.016 A 
ATOM     41  C   UNL A   1      47.145  27.170  27.042  1.00  0.00     0.016 A 
ATOM     42  C   UNL A   1      46.711  24.874  28.614  1.00  0.00     0.010 A 
ATOM     43  C   UNL A   1      47.323  27.227  28.426  1.00  0.00     0.010 A 
ATOM     44  C   UNL A   1      47.029  26.098  29.212  1.00  0.00    -0.014 A 
BRANCH  44  45
ATOM     45  C   UNL A   1      46.707  26.227  30.649  1.00  0.00     0.031 A 
ATOM     46  C   UNL A   1      47.809  25.936  31.635  1.00  0.00     0.074 A 
ATOM     47  C   UNL A   1      45.537  26.750  31.046  1.00  0.00     0.049 A 
ATOM     48  N   UNL A   1      47.833  26.112  32.929  1.00  0.00    -0.248 NA
ATOM     49  C   UNL A   1      49.059  25.386  31.081  1.00  0.00     0.031 C 
ATOM     50  C   UNL A   1      44.450  27.158  30.156  1.00  0.00     0.029 A 
ATOM     51  N   UNL A   1      45.091  27.066  32.300  1.00  0.00    -0.354 N 
ATOM     52  C   UNL A   1      49.095  25.693  33.340  1.00  0.00     0.074 A 
ATOM     53  C   UNL A   1      49.790  25.214  32.168  1.00  0.00     0.031 C 
ATOM     54  C   UNL A   1      43.466  27.697  30.896  1.00  0.00     0.029 A 
ATOM     55  C   UNL A   1      43.846  27.643  32.308  1.00  0.00     0.049 A 
ATOM     56  H   UNL A   1      45.612  26.895  33.117  1.00  0.00     0.167 HD
ATOM     57  C   UNL A   1      49.632  25.716  34.583  1.00  0.00     0.031 A 
ATOM     58  C   UNL A   1      43.105  28.083  33.342  1.00  0.00     0.031 A 
ATOM     59  C   UNL A   1      48.916  26.170  35.743  1.00  0.00     0.049 A 
ATOM     60  C   UNL A   1      43.680  27.998  34.731  1.00  0.00     0.074 A 
ATOM     61  C   UNL A   1      49.342  26.218  37.058  1.00  0.00     0.029 A 
ATOM     62  N   UNL A   1      47.612  26.647  35.725  1.00  0.00    -0.354 N 
ATOM     63  N   UNL A   1      44.868  27.589  35.112  1.00  0.00    -0.248 NA
ATOM     64  C   UNL A   1      42.816  28.451  35.829  1.00  0.00     0.031 C 
ATOM     65  C   UNL A   1      48.271  26.661  37.843  1.00  0.00     0.029 A 
ATOM     66  C   UNL A   1      47.206  26.967  37.009  1.00  0.00     0.049 A 
ATOM     67  H   UNL A   1      47.058  26.745  34.917  1.00  0.00     0.167 HD
ATOM     68  C   UNL A   1      44.911  27.775  36.489  1.00  0.00     0.074 A 
ATOM     69  C   UNL A   1      43.630  28.339  36.870  1.00  0.00     0.031 C 
ATOM     70  C   UNL A   1      45.920  27.517  37.362  1.00  0.00     0.031 A 
BRANCH  57  71
ATOM     71  C   UNL A   1      51.026  25.163  34.738  1.00  0.00    -0.014 A 
ATOM     72  C   UNL A   1      51.259  23.795  34.984  1.00  0.00     0.010 A 
ATOM     73  C   UNL A   1      52.127  26.037  34.675  1.00  0.00     0.010 A 
ATOM     74  C   UNL A   1      52.553  23.328  35.232  1.00  0.00     0.020 A 
ATOM     75  C   UNL A   1      53.426  25.569  34.886  1.00  0.00     0.020 A 
ATOM     76  C   UNL A   1      53.628  24.221  35.191  1.00  0.00     0.054 A 
BRANCH  76  77
ATOM     77  S   UNL A   1      55.294  23.599  35.545  1.00  0.00     0.124 S 
ATOM     78  O   UNL A   1      55.405  23.836  36.983  1.00  0.00    -0.237 OA
ATOM     79  O   UNL A   1      55.205  22.197  35.145  1.00  0.00    -0.237 OA
ATOM     80  O   UNL A   1      56.160  24.429  34.711  1.00  0.00    -0.744 OA
ENDBRANCH  76  77
ENDBRANCH  57  71
BRANCH  58  81
ATOM     81  C   UNL A   1      41.756  28.660  33.094  1.00  0.00    -0.014 A 
ATOM     82  C   UNL A   1      41.602  30.027  32.809  1.00  0.00     0.010 A 
ATOM     83  C   UNL A   1      40.617  27.834  33.116  1.00  0.00     0.010 A 
ATOM     84  C   UNL A   1      40.334  30.560  32.556  1.00  0.00     0.020 A 
ATOM     85  C   UNL A   1      39.351  28.357  32.835  1.00  0.00     0.020 A 
ATOM     86  C   UNL A   1      39.217  29.718  32.564  1.00  0.00     0.054 A 
BRANCH  86  87
ATOM     87  S   UNL A   1      37.593  30.421  32.165  1.00  0.00     0.124 S 
ATOM     88  O   UNL A   1      37.244  31.104  33.407  1.00  0.00    -0.237 OA
ATOM     89  O   UNL A   1      37.898  31.286  31.029  1.00  0.00    -0.237 OA
ATOM     90  O   UNL A   1      36.782  29.248  31.848  1.00  0.00    -0.744 OA
ENDBRANCH  86  87
ENDBRANCH  58  81
BRANCH  70  91
ATOM     91  C   UNL A   1      45.694  27.892  38.803  1.00  0.00    -0.014 A 
ATOM     92  C   UNL A   1      45.821  29.220  39.251  1.00  0.00     0.010 A 
ATOM     93  C   UNL A   1      45.316  26.893  39.720  1.00  0.00     0.010 A 
ATOM     94  C   UNL A   1      45.629  29.529  40.600  1.00  0.00     0.020 A 
ATOM     95  C   UNL A   1      45.086  27.205  41.061  1.00  0.00     0.020 A 
ATOM     96  C   UNL A   1      45.266  28.518  41.498  1.00  0.00     0.054 A 
BRANCH  96  97
ATOM     97  S   UNL A   1      45.009  28.948  43.239  1.00  0.00     0.124 S 
ATOM     98  O   UNL A   1      43.561  29.124  43.299  1.00  0.00    -0.237 OA
ATOM     99  O   UNL A   1      45.530  27.777  43.938  1.00  0.00    -0.237 OA
ATOM    100  O   UNL A   1      45.792  30.170  43.413  1.00  0.00    -0.744 OA
ENDBRANCH  96  97
ENDBRANCH  70  91
ENDBRANCH  44  45
ENDBRANCH  37  39
ENDBRANCH  36  37
ENDBRANCH  35  36
ENDBRANCH  34  35
ENDBRANCH  33  34
ENDBRANCH  32  33
ENDBRANCH  31  32
ENDBRANCH   1  31
TORSDOF 27
ENDMDL
MODEL 3
REMARK VINA RESULT:      -7.7      6.592     12.705
REMARK SMILES C[NH+]1CCC(C[N@H+](C)[C@H]2CC[C@]([NH3+])(C(=O)OCCOCCOCCOCCOC(=O)c3ccc(-c4c5nc(c(-c6ccc(S(=O)(=O)[O-])cc6)c6ccc([nH]6)c(-c6ccc(S(=O)(=O)[O-])cc6)c6nc(c(-c7ccc(S(=O)(=O)[O-])cc7)c7ccc4[nH]7)C=C6)C=C5)cc3)C2)CC1
REMARK SMILES IDX 22 1 21 2 20 3 19 4 18 5 17 6 16 7 14 8 15 9 12 10 9 11
REMARK SMILES IDX 10 12 91 13 11 14 7 15 8 16 6 18 5 19 1 20 2 21 3 22 93 23
REMARK SMILES IDX 4 25 92 26 13 27 23 31 24 32 25 33 26 34 27 35 28 36 29 37
REMARK SMILES IDX 30 38 31 39 32 40 90 41 33 42 89 43 34 44 35 45 36 46 83 47
REMARK SMILES IDX 37 48 88 49 82 50 84 51 38 52 87 53 81 54 80 55 39 57 69 58
REMARK SMILES IDX 50 59 68 60 51 61 54 62 67 63 85 64 52 65 53 66 66 68 86 69
REMARK SMILES IDX 55 70 40 71 41 72 49 73 42 74 48 75 43 76 44 77 45 78 46 79
REMARK SMILES IDX 47 80 70 81 71 82 79 83 72 84 78 85 73 86 74 87 75 88 76 89
REMARK SMILES IDX 77 90 56 91 57 92 65 93 58 94 64 95 59 96 60 97 61 98 62 99
REMARK SMILES IDX 63 100
REMARK H PARENT 7 17 2 24 13 28 13 29 13 30 84 56 54 67
REMARK Flexibility Score: inf
ROOT
ATOM      1  O   UNL A   1      43.986  23.540  32.232  1.00  0.00    -0.377 OA
ENDROOT
BRANCH   1   2
ATOM      2  C   UNL A   1      44.847  24.212  33.123  1.00  0.00     0.188 C 
BRANCH   2   3
ATOM      3  C   UNL A   1      44.706  23.746  34.584  1.00  0.00     0.188 C 
BRANCH   3   4
ATOM      4  O   UNL A   1      44.231  22.437  34.857  1.00  0.00    -0.376 OA
BRANCH   4   5
ATOM      5  C   UNL A   1      45.010  21.321  34.440  1.00  0.00     0.202 C 
BRANCH   5   6
ATOM      6  C   UNL A   1      45.634  20.308  35.436  1.00  0.00     0.261 C 
BRANCH   6   7
ATOM      7  O   UNL A   1      46.572  20.840  36.383  1.00  0.00    -0.459 OA
BRANCH   7   8
ATOM      8  C   UNL A   1      47.915  20.694  36.135  1.00  0.00     0.368 C 
ATOM      9  O   UNL A   1      48.467  20.939  35.072  1.00  0.00    -0.245 OA
BRANCH   8  10
ATOM     10  C   UNL A   1      48.649  20.292  37.456  1.00  0.00     0.198 C 
ATOM     11  C   UNL A   1      48.352  19.911  39.892  1.00  0.00     0.191 C 
ATOM     12  C   UNL A   1      48.953  21.308  39.711  1.00  0.00     0.072 C 
ATOM     13  C   UNL A   1      47.807  19.534  38.493  1.00  0.00     0.145 C 
ATOM     14  C   UNL A   1      49.086  21.564  38.213  1.00  0.00     0.087 C 
BRANCH  11  15
ATOM     15  N   UNL A   1      49.231  19.035  40.717  1.00  0.00    -0.334 N 
ATOM     16  C   UNL A   1      48.628  17.700  40.841  1.00  0.00     0.332 C 
ATOM     17  H   UNL A   1      49.269  19.564  41.589  1.00  0.00     0.348 HD
BRANCH  15  18
ATOM     18  C   UNL A   1      50.659  18.885  40.388  1.00  0.00     0.266 C 
BRANCH  18  19
ATOM     19  C   UNL A   1      51.654  19.289  41.488  1.00  0.00     0.055 C 
ATOM     20  C   UNL A   1      54.425  19.932  44.619  1.00  0.00     0.332 C 
ATOM     21  N   UNL A   1      53.336  19.291  43.878  1.00  0.00    -0.337 N 
ATOM     22  C   UNL A   1      53.845  18.750  42.610  1.00  0.00     0.262 C 
ATOM     23  C   UNL A   1      52.228  20.246  43.694  1.00  0.00     0.262 C 
ATOM     24  H   UNL A   1      52.964  18.503  44.407  1.00  0.00     0.347 HD
ATOM     25  C   UNL A   1      52.731  18.211  41.708  1.00  0.00     0.071 C 
ATOM     26  C   UNL A   1      51.082  19.654  42.854  1.00  0.00     0.071 C 
ENDBRANCH  18  19
ENDBRANCH  15  18
ENDBRANCH  11  15
BRANCH  10  27
ATOM     27  N   UNL A   1      49.739  19.404  37.043  1.00  0.00    -0.343 N 
ATOM     28  H   UNL A   1      50.569  19.603  37.602  1.00  0.00     0.345 HD
ATOM     29  H   UNL A   1      49.948  19.559  36.057  1.00  0.00     0.345 HD
ATOM     30  H   UNL A   1      49.460  18.434  37.183  1.00  0.00     0.345 HD
ENDBRANCH  10  27
ENDBRANCH   8  10
ENDBRANCH   7   8
ENDBRANCH   6   7
ENDBRANCH   5   6
ENDBRANCH   4   5
ENDBRANCH   3   4
ENDBRANCH   2   3
ENDBRANCH   1   2
BRANCH   1  31
ATOM     31  C   UNL A   1      44.099  23.983  30.891  1.00  0.00     0.188 C 
BRANCH  31  32
ATOM     32  C   UNL A   1      44.437  22.936  29.806  1.00  0.00     0.188 C 
BRANCH  32  33
ATOM     33  O   UNL A   1      43.733  22.906  28.572  1.00  0.00    -0.376 OA
BRANCH  33  34
ATOM     34  C   UNL A   1      43.660  23.976  27.646  1.00  0.00     0.202 C 
BRANCH  34  35
ATOM     35  C   UNL A   1      42.743  25.188  27.808  1.00  0.00     0.261 C 
BRANCH  35  36
ATOM     36  O   UNL A   1      41.581  25.155  26.981  1.00  0.00    -0.460 OA
BRANCH  36  37
ATOM     37  C   UNL A   1      41.257  26.367  26.463  1.00  0.00     0.338 C 
ATOM     38  O   UNL A   1      41.310  26.708  25.299  1.00  0.00    -0.246 OA
BRANCH  37  39
ATOM     39  C   UNL A   1      40.584  27.178  27.486  1.00  0.00     0.060 A 
ATOM     40  C   UNL A   1      41.035  28.496  27.627  1.00  0.00     0.016 A 
ATOM     41  C   UNL A   1      39.614  26.647  28.339  1.00  0.00     0.016 A 
ATOM     42  C   UNL A   1      40.587  29.267  28.684  1.00  0.00     0.010 A 
ATOM     43  C   UNL A   1      39.186  27.414  29.424  1.00  0.00     0.010 A 
ATOM     44  C   UNL A   1      39.734  28.693  29.632  1.00  0.00    -0.014 A 
BRANCH  44  45
ATOM     45  C   UNL A   1      39.725  29.322  30.970  1.00  0.00     0.031 A 
ATOM     46  C   UNL A   1      40.911  29.069  31.863  1.00  0.00     0.074 A 
ATOM     47  C   UNL A   1      38.784  30.219  31.299  1.00  0.00     0.049 A 
ATOM     48  N   UNL A   1      41.218  29.611  33.011  1.00  0.00    -0.248 NA
ATOM     49  C   UNL A   1      41.895  28.080  31.386  1.00  0.00     0.031 C 
ATOM     50  C   UNL A   1      37.653  30.605  30.455  1.00  0.00     0.029 A 
ATOM     51  N   UNL A   1      38.658  30.998  32.418  1.00  0.00    -0.354 N 
ATOM     52  C   UNL A   1      42.423  29.027  33.392  1.00  0.00     0.074 A 
ATOM     53  C   UNL A   1      42.769  28.060  32.377  1.00  0.00     0.031 C 
ATOM     54  C   UNL A   1      36.959  31.572  31.080  1.00  0.00     0.029 A 
ATOM     55  C   UNL A   1      37.582  31.847  32.374  1.00  0.00     0.049 A 
ATOM     56  H   UNL A   1      39.279  30.951  33.180  1.00  0.00     0.167 HD
ATOM     57  C   UNL A   1      43.180  29.283  34.484  1.00  0.00     0.031 A 
ATOM     58  C   UNL A   1      37.157  32.749  33.279  1.00  0.00     0.031 A 
ATOM     59  C   UNL A   1      42.806  30.229  35.499  1.00  0.00     0.049 A 
ATOM     60  C   UNL A   1      37.956  32.939  34.541  1.00  0.00     0.074 A 
ATOM     61  C   UNL A   1      43.475  30.558  36.664  1.00  0.00     0.029 A 
ATOM     62  N   UNL A   1      41.647  30.994  35.472  1.00  0.00    -0.354 N 
ATOM     63  N   UNL A   1      39.086  32.375  34.897  1.00  0.00    -0.248 NA
ATOM     64  C   UNL A   1      37.428  33.903  35.514  1.00  0.00     0.031 C 
ATOM     65  C   UNL A   1      42.687  31.472  37.373  1.00  0.00     0.029 A 
ATOM     66  C   UNL A   1      41.568  31.775  36.612  1.00  0.00     0.049 A 
ATOM     67  H   UNL A   1      40.981  30.984  34.747  1.00  0.00     0.167 HD
ATOM     68  C   UNL A   1      39.428  32.946  36.118  1.00  0.00     0.074 A 
ATOM     69  C   UNL A   1      38.385  33.904  36.432  1.00  0.00     0.031 C 
ATOM     70  C   UNL A   1      40.511  32.713  36.905  1.00  0.00     0.031 A 
BRANCH  57  71
ATOM     71  C   UNL A   1      44.436  28.466  34.656  1.00  0.00    -0.014 A 
ATOM     72  C   UNL A   1      44.506  27.396  35.569  1.00  0.00     0.010 A 
ATOM     73  C   UNL A   1      45.583  28.800  33.913  1.00  0.00     0.010 A 
ATOM     74  C   UNL A   1      45.714  26.726  35.786  1.00  0.00     0.020 A 
ATOM     75  C   UNL A   1      46.784  28.110  34.100  1.00  0.00     0.020 A 
ATOM     76  C   UNL A   1      46.848  27.095  35.056  1.00  0.00     0.054 A 
BRANCH  76  77
ATOM     77  S   UNL A   1      48.411  26.232  35.376  1.00  0.00     0.124 S 
ATOM     78  O   UNL A   1      49.305  26.859  34.406  1.00  0.00    -0.237 OA
ATOM     79  O   UNL A   1      48.676  26.555  36.775  1.00  0.00    -0.237 OA
ATOM     80  O   UNL A   1      48.094  24.830  35.113  1.00  0.00    -0.744 OA
ENDBRANCH  76  77
ENDBRANCH  57  71
BRANCH  58  81
ATOM     81  C   UNL A   1      35.931  33.549  33.009  1.00  0.00    -0.014 A 
ATOM     82  C   UNL A   1      34.656  33.008  33.245  1.00  0.00     0.010 A 
ATOM     83  C   UNL A   1      36.037  34.871  32.538  1.00  0.00     0.010 A 
ATOM     84  C   UNL A   1      33.508  33.772  33.010  1.00  0.00     0.020 A 
ATOM     85  C   UNL A   1      34.893  35.646  32.329  1.00  0.00     0.020 A 
ATOM     86  C   UNL A   1      33.635  35.089  32.560  1.00  0.00     0.054 A 
BRANCH  86  87
ATOM     87  S   UNL A   1      32.134  36.081  32.328  1.00  0.00     0.124 S 
ATOM     88  O   UNL A   1      32.331  37.161  33.288  1.00  0.00    -0.237 OA
ATOM     89  O   UNL A   1      32.224  36.459  30.920  1.00  0.00    -0.237 OA
ATOM     90  O   UNL A   1      31.056  35.148  32.648  1.00  0.00    -0.744 OA
ENDBRANCH  86  87
ENDBRANCH  58  81
BRANCH  70  91
ATOM     91  C   UNL A   1      40.646  33.546  38.153  1.00  0.00    -0.014 A 
ATOM     92  C   UNL A   1      41.209  34.835  38.126  1.00  0.00     0.010 A 
ATOM     93  C   UNL A   1      40.167  33.034  39.374  1.00  0.00     0.010 A 
ATOM     94  C   UNL A   1      41.340  35.571  39.307  1.00  0.00     0.020 A 
ATOM     95  C   UNL A   1      40.263  33.781  40.548  1.00  0.00     0.020 A 
ATOM     96  C   UNL A   1      40.870  35.037  40.511  1.00  0.00     0.054 A 
BRANCH  96  97
ATOM     97  S   UNL A   1      41.041  36.017  42.026  1.00  0.00     0.124 S 
ATOM     98  O   UNL A   1      42.460  35.858  42.332  1.00  0.00    -0.237 OA
ATOM     99  O   UNL A   1      40.637  37.352  41.591  1.00  0.00    -0.237 OA
ATOM    100  O   UNL A   1      40.126  35.369  42.963  1.00  0.00    -0.744 OA
ENDBRANCH  96  97
ENDBRANCH  70  91
ENDBRANCH  44  45
ENDBRANCH  37  39
ENDBRANCH  36  37
ENDBRANCH  35  36
ENDBRANCH  34  35
ENDBRANCH  33  34
ENDBRANCH  32  33
ENDBRANCH  31  32
ENDBRANCH   1  31
TORSDOF 27
ENDMDL
