MODEL 1
REMARK VINA RESULT:      -9.6      0.000      0.000
REMARK SMILES O=C(OCCOCCOCCOCCOC(=O)c1ccccc1Nc1cccc(S(F)(F)(F)(F)F)c1)c1ccc(-c2c3nc(c(-c4ccc(S(=O)(=O)[O-])cc4)c4ccc([nH]4)c(-c4ccc(S(=O)(=O)[O-])cc4)c4nc(c(-c5ccc(S(=O)(=O)[O-])cc5)c5ccc2[nH]5)C=C4)C=C3)cc1
REMARK SMILES IDX 9 1 8 2 7 3 6 4 5 5 4 6 3 7 2 8 1 9 37 10 38 11 96 12 39 13
REMARK SMILES IDX 95 14 40 15 41 16 42 17 89 18 43 19 94 20 88 21 90 22 44 23
REMARK SMILES IDX 93 24 87 25 86 26 45 28 75 29 56 30 74 31 57 32 60 33 73 34
REMARK SMILES IDX 91 35 58 36 59 37 72 39 92 40 61 41 46 42 47 43 55 44 48 45
REMARK SMILES IDX 54 46 49 47 50 48 51 49 52 50 53 51 76 52 77 53 85 54 78 55
REMARK SMILES IDX 84 56 79 57 80 58 81 59 82 60 83 61 62 62 63 63 71 64 64 65
REMARK SMILES IDX 70 66 65 67 66 68 67 69 68 70 69 71 10 72 11 73 12 74 13 75
REMARK SMILES IDX 14 76 15 77 16 78 17 79 18 80 19 81 23 82 20 83 22 84 21 85
REMARK SMILES IDX 24 86 25 88 26 89 36 90 27 91 29 92 28 93 30 94 31 95 32 96
REMARK SMILES IDX 33 97 34 98 35 99
REMARK H PARENT 90 27 60 38 24 87
REMARK Flexibility Score: inf
ROOT
ATOM      1  O   UNL A   1      35.087  30.696  28.266  1.00  0.00    -0.377 OA
ENDROOT
BRANCH   1   2
ATOM      2  C   UNL A   1      35.583  32.001  28.008  1.00  0.00     0.188 C 
BRANCH   2   3
ATOM      3  C   UNL A   1      35.391  32.869  29.241  1.00  0.00     0.188 C 
BRANCH   3   4
ATOM      4  O   UNL A   1      35.311  34.233  28.852  1.00  0.00    -0.376 OA
BRANCH   4   5
ATOM      5  C   UNL A   1      33.979  34.536  28.462  1.00  0.00     0.202 C 
BRANCH   5   6
ATOM      6  C   UNL A   1      33.394  35.566  29.414  1.00  0.00     0.261 C 
BRANCH   6   7
ATOM      7  O   UNL A   1      32.734  34.903  30.482  1.00  0.00    -0.460 OA
BRANCH   7   8
ATOM      8  C   UNL A   1      33.081  35.203  31.826  1.00  0.00     0.338 C 
ATOM      9  O   UNL A   1      32.314  35.930  32.533  1.00  0.00    -0.246 OA
BRANCH   8  10
ATOM     10  C   UNL A   1      34.368  34.654  32.420  1.00  0.00     0.060 A 
ATOM     11  C   UNL A   1      35.554  35.369  32.398  1.00  0.00     0.016 A 
ATOM     12  C   UNL A   1      34.326  33.403  32.861  1.00  0.00     0.016 A 
ATOM     13  C   UNL A   1      36.707  34.573  32.595  1.00  0.00     0.010 A 
ATOM     14  C   UNL A   1      35.484  32.728  33.164  1.00  0.00     0.010 A 
ATOM     15  C   UNL A   1      36.698  33.356  33.108  1.00  0.00    -0.014 A 
BRANCH  15  16
ATOM     16  C   UNL A   1      37.968  32.688  33.608  1.00  0.00     0.031 A 
ATOM     17  C   UNL A   1      38.618  31.894  32.660  1.00  0.00     0.074 A 
ATOM     18  C   UNL A   1      38.478  32.965  34.865  1.00  0.00     0.049 A 
ATOM     19  N   UNL A   1      39.812  31.310  32.770  1.00  0.00    -0.248 NA
ATOM     20  C   UNL A   1      38.063  31.568  31.339  1.00  0.00     0.031 C 
ATOM     21  C   UNL A   1      37.833  33.772  35.823  1.00  0.00     0.029 A 
ATOM     22  N   UNL A   1      39.665  32.530  35.411  1.00  0.00    -0.354 N 
ATOM     23  C   UNL A   1      40.105  30.647  31.649  1.00  0.00     0.074 A 
ATOM     24  C   UNL A   1      38.983  30.800  30.715  1.00  0.00     0.031 C 
ATOM     25  C   UNL A   1      38.613  33.813  36.934  1.00  0.00     0.029 A 
ATOM     26  C   UNL A   1      39.760  33.033  36.690  1.00  0.00     0.049 A 
ATOM     27  H   UNL A   1      40.330  31.958  34.965  1.00  0.00     0.167 HD
ATOM     28  C   UNL A   1      41.266  29.925  31.369  1.00  0.00     0.031 A 
ATOM     29  C   UNL A   1      40.780  32.834  37.607  1.00  0.00     0.031 A 
ATOM     30  C   UNL A   1      42.306  29.761  32.271  1.00  0.00     0.049 A 
ATOM     31  C   UNL A   1      41.915  32.062  37.348  1.00  0.00     0.074 A 
ATOM     32  C   UNL A   1      43.487  29.042  32.002  1.00  0.00     0.029 A 
ATOM     33  N   UNL A   1      42.390  30.243  33.558  1.00  0.00    -0.354 N 
ATOM     34  N   UNL A   1      42.226  31.433  36.213  1.00  0.00    -0.248 NA
ATOM     35  C   UNL A   1      42.986  31.816  38.323  1.00  0.00     0.031 C 
ATOM     36  C   UNL A   1      44.268  29.083  33.114  1.00  0.00     0.029 A 
ATOM     37  C   UNL A   1      43.587  29.827  34.096  1.00  0.00     0.049 A 
ATOM     38  H   UNL A   1      41.711  30.792  34.015  1.00  0.00     0.167 HD
ATOM     39  C   UNL A   1      43.401  30.814  36.338  1.00  0.00     0.074 A 
ATOM     40  C   UNL A   1      43.904  31.046  37.700  1.00  0.00     0.031 C 
ATOM     41  C   UNL A   1      44.078  30.069  35.371  1.00  0.00     0.031 A 
BRANCH  28  42
ATOM     42  C   UNL A   1      41.398  29.283  29.998  1.00  0.00    -0.014 A 
ATOM     43  C   UNL A   1      40.907  28.012  29.751  1.00  0.00     0.010 A 
ATOM     44  C   UNL A   1      42.027  29.974  29.054  1.00  0.00     0.010 A 
ATOM     45  C   UNL A   1      41.384  27.436  28.550  1.00  0.00     0.020 A 
ATOM     46  C   UNL A   1      42.343  29.388  27.852  1.00  0.00     0.020 A 
ATOM     47  C   UNL A   1      41.939  28.114  27.562  1.00  0.00     0.054 A 
BRANCH  47  48
ATOM     48  S   UNL A   1      42.154  27.396  25.914  1.00  0.00     0.124 S 
ATOM     49  O   UNL A   1      42.126  28.510  24.866  1.00  0.00    -0.237 OA
ATOM     50  O   UNL A   1      43.497  26.666  25.847  1.00  0.00    -0.237 OA
ATOM     51  O   UNL A   1      40.887  26.291  25.606  1.00  0.00    -0.744 OA
ENDBRANCH  47  48
ENDBRANCH  28  42
BRANCH  29  52
ATOM     52  C   UNL A   1      40.655  33.490  38.973  1.00  0.00    -0.014 A 
ATOM     53  C   UNL A   1      39.847  32.870  39.913  1.00  0.00     0.010 A 
ATOM     54  C   UNL A   1      41.308  34.610  39.256  1.00  0.00     0.010 A 
ATOM     55  C   UNL A   1      39.564  33.673  41.043  1.00  0.00     0.020 A 
ATOM     56  C   UNL A   1      41.083  35.270  40.439  1.00  0.00     0.020 A 
ATOM     57  C   UNL A   1      40.251  34.746  41.390  1.00  0.00     0.054 A 
BRANCH  57  58
ATOM     58  S   UNL A   1      40.102  35.482  43.037  1.00  0.00     0.124 S 
ATOM     59  O   UNL A   1      41.327  36.354  43.320  1.00  0.00    -0.237 OA
ATOM     60  O   UNL A   1      38.838  36.342  43.100  1.00  0.00    -0.237 OA
ATOM     61  O   UNL A   1      40.006  34.240  44.210  1.00  0.00    -0.744 OA
ENDBRANCH  57  58
ENDBRANCH  29  52
BRANCH  41  62
ATOM     62  C   UNL A   1      45.434  29.488  35.736  1.00  0.00    -0.014 A 
ATOM     63  C   UNL A   1      46.607  30.196  35.532  1.00  0.00     0.010 A 
ATOM     64  C   UNL A   1      45.453  28.233  36.171  1.00  0.00     0.010 A 
ATOM     65  C   UNL A   1      47.771  29.392  35.542  1.00  0.00     0.020 A 
ATOM     66  C   UNL A   1      46.640  27.551  36.285  1.00  0.00     0.020 A 
ATOM     67  C   UNL A   1      47.834  28.172  36.042  1.00  0.00     0.054 A 
BRANCH  67  68
ATOM     68  S   UNL A   1      49.417  27.364  36.388  1.00  0.00     0.124 S 
ATOM     69  O   UNL A   1      50.274  28.274  37.270  1.00  0.00    -0.237 OA
ATOM     70  O   UNL A   1      49.165  26.040  37.113  1.00  0.00    -0.237 OA
ATOM     71  O   UNL A   1      50.236  27.062  34.917  1.00  0.00    -0.744 OA
ENDBRANCH  67  68
ENDBRANCH  41  62
ENDBRANCH  15  16
ENDBRANCH   8  10
ENDBRANCH   7   8
ENDBRANCH   6   7
ENDBRANCH   5   6
ENDBRANCH   4   5
ENDBRANCH   3   4
ENDBRANCH   2   3
ENDBRANCH   1   2
BRANCH   1  72
ATOM     72  C   UNL A   1      34.155  30.336  27.257  1.00  0.00     0.188 C 
BRANCH  72  73
ATOM     73  C   UNL A   1      33.978  28.826  27.246  1.00  0.00     0.188 C 
BRANCH  73  74
ATOM     74  O   UNL A   1      33.429  28.423  26.001  1.00  0.00    -0.376 OA
BRANCH  74  75
ATOM     75  C   UNL A   1      33.244  27.015  25.999  1.00  0.00     0.202 C 
BRANCH  75  76
ATOM     76  C   UNL A   1      31.849  26.685  26.503  1.00  0.00     0.261 C 
BRANCH  76  77
ATOM     77  O   UNL A   1      31.760  25.295  26.776  1.00  0.00    -0.460 OA
BRANCH  77  78
ATOM     78  C   UNL A   1      30.898  24.474  26.002  1.00  0.00     0.340 C 
ATOM     79  O   UNL A   1      29.647  24.698  25.990  1.00  0.00    -0.246 OA
BRANCH  78  80
ATOM     80  C   UNL A   1      31.471  23.327  25.185  1.00  0.00     0.083 A 
ATOM     81  C   UNL A   1      31.975  22.284  25.945  1.00  0.00     0.018 A 
ATOM     82  C   UNL A   1      31.399  23.244  23.861  1.00  0.00     0.053 A 
ATOM     83  C   UNL A   1      32.652  21.299  25.188  1.00  0.00     0.001 A 
ATOM     84  C   UNL A   1      31.965  22.184  23.196  1.00  0.00     0.027 A 
ATOM     85  C   UNL A   1      32.534  21.146  23.881  1.00  0.00     0.002 A 
BRANCH  82  86
ATOM     86  N   UNL A   1      30.708  24.296  23.102  1.00  0.00    -0.355 N 
ATOM     87  H   UNL A   1      29.793  24.147  22.775  1.00  0.00     0.167 HD
BRANCH  86  88
ATOM     88  C   UNL A   1      31.386  25.574  22.835  1.00  0.00     0.040 A 
ATOM     89  C   UNL A   1      32.679  25.581  22.339  1.00  0.00     0.026 A 
ATOM     90  C   UNL A   1      30.713  26.703  23.022  1.00  0.00     0.050 A 
ATOM     91  C   UNL A   1      33.286  26.859  22.341  1.00  0.00     0.004 A 
ATOM     92  C   UNL A   1      31.334  27.919  22.875  1.00  0.00     0.109 A 
ATOM     93  C   UNL A   1      32.629  28.001  22.444  1.00  0.00     0.024 A 
BRANCH  92  94
ATOM     94  S   UNL A   1      30.424  29.438  23.255  1.00  0.00     0.310 S 
ATOM     95  F   UNL A   1      29.050  28.659  23.400  1.00  0.00    -0.094 F 
ATOM     96  F   UNL A   1      30.104  29.578  21.719  1.00  0.00    -0.094 F 
ATOM     97  F   UNL A   1      29.644  30.747  23.567  1.00  0.00    -0.094 F 
ATOM     98  F   UNL A   1      30.635  29.204  24.804  1.00  0.00    -0.094 F 
ATOM     99  F   UNL A   1      31.122  28.049  22.967  1.00  0.00    -0.094 F 
ENDBRANCH  92  94
ENDBRANCH  86  88
ENDBRANCH  82  86
ENDBRANCH  78  80
ENDBRANCH  77  78
ENDBRANCH  76  77
ENDBRANCH  75  76
ENDBRANCH  74  75
ENDBRANCH  73  74
ENDBRANCH  72  73
ENDBRANCH   1  72
TORSDOF 26
ENDMDL
MODEL 2
REMARK VINA RESULT:      -9.4      1.027      7.737
REMARK SMILES O=C(OCCOCCOCCOCCOC(=O)c1ccccc1Nc1cccc(S(F)(F)(F)(F)F)c1)c1ccc(-c2c3nc(c(-c4ccc(S(=O)(=O)[O-])cc4)c4ccc([nH]4)c(-c4ccc(S(=O)(=O)[O-])cc4)c4nc(c(-c5ccc(S(=O)(=O)[O-])cc5)c5ccc2[nH]5)C=C4)C=C3)cc1
REMARK SMILES IDX 9 1 8 2 7 3 6 4 5 5 4 6 3 7 2 8 1 9 37 10 38 11 96 12 39 13
REMARK SMILES IDX 95 14 40 15 41 16 42 17 89 18 43 19 94 20 88 21 90 22 44 23
REMARK SMILES IDX 93 24 87 25 86 26 45 28 75 29 56 30 74 31 57 32 60 33 73 34
REMARK SMILES IDX 91 35 58 36 59 37 72 39 92 40 61 41 46 42 47 43 55 44 48 45
REMARK SMILES IDX 54 46 49 47 50 48 51 49 52 50 53 51 76 52 77 53 85 54 78 55
REMARK SMILES IDX 84 56 79 57 80 58 81 59 82 60 83 61 62 62 63 63 71 64 64 65
REMARK SMILES IDX 70 66 65 67 66 68 67 69 68 70 69 71 10 72 11 73 12 74 13 75
REMARK SMILES IDX 14 76 15 77 16 78 17 79 18 80 19 81 23 82 20 83 22 84 21 85
REMARK SMILES IDX 24 86 25 88 26 89 36 90 27 91 29 92 28 93 30 94 31 95 32 96
REMARK SMILES IDX 33 97 34 98 35 99
REMARK H PARENT 90 27 60 38 24 87
REMARK Flexibility Score: inf
ROOT
ATOM      1  O   UNL A   1      34.413  30.274  28.026  1.00  0.00    -0.377 OA
ENDROOT
BRANCH   1   2
ATOM      2  C   UNL A   1      34.854  31.592  27.740  1.00  0.00     0.188 C 
BRANCH   2   3
ATOM      3  C   UNL A   1      35.018  32.365  29.039  1.00  0.00     0.188 C 
BRANCH   3   4
ATOM      4  O   UNL A   1      34.986  33.759  28.769  1.00  0.00    -0.376 OA
BRANCH   4   5
ATOM      5  C   UNL A   1      33.668  34.139  28.401  1.00  0.00     0.202 C 
BRANCH   5   6
ATOM      6  C   UNL A   1      33.248  35.357  29.207  1.00  0.00     0.261 C 
BRANCH   6   7
ATOM      7  O   UNL A   1      32.456  34.944  30.311  1.00  0.00    -0.460 OA
BRANCH   7   8
ATOM      8  C   UNL A   1      32.886  35.221  31.637  1.00  0.00     0.338 C 
ATOM      9  O   UNL A   1      32.161  35.927  32.405  1.00  0.00    -0.246 OA
BRANCH   8  10
ATOM     10  C   UNL A   1      34.213  34.672  32.135  1.00  0.00     0.060 A 
ATOM     11  C   UNL A   1      35.400  35.373  31.998  1.00  0.00     0.016 A 
ATOM     12  C   UNL A   1      34.196  33.432  32.609  1.00  0.00     0.016 A 
ATOM     13  C   UNL A   1      36.558  34.569  32.119  1.00  0.00     0.010 A 
ATOM     14  C   UNL A   1      35.369  32.752  32.831  1.00  0.00     0.010 A 
ATOM     15  C   UNL A   1      36.580  33.364  32.660  1.00  0.00    -0.014 A 
BRANCH  15  16
ATOM     16  C   UNL A   1      37.881  32.694  33.070  1.00  0.00     0.031 A 
ATOM     17  C   UNL A   1      38.397  33.128  34.293  1.00  0.00     0.074 A 
ATOM     18  C   UNL A   1      38.417  31.654  32.329  1.00  0.00     0.049 A 
ATOM     19  N   UNL A   1      39.433  32.622  34.963  1.00  0.00    -0.248 NA
ATOM     20  C   UNL A   1      37.852  34.254  35.064  1.00  0.00     0.031 C 
ATOM     21  C   UNL A   1      37.897  31.205  31.099  1.00  0.00     0.029 A 
ATOM     22  N   UNL A   1      39.516  30.881  32.629  1.00  0.00    -0.354 N 
ATOM     23  C   UNL A   1      39.615  33.292  36.104  1.00  0.00     0.074 A 
ATOM     24  C   UNL A   1      38.603  34.354  36.182  1.00  0.00     0.031 C 
ATOM     25  C   UNL A   1      38.679  30.185  30.659  1.00  0.00     0.029 A 
ATOM     26  C   UNL A   1      39.700  29.978  31.606  1.00  0.00     0.049 A 
ATOM     27  H   UNL A   1      40.075  30.961  33.436  1.00  0.00     0.167 HD
ATOM     28  C   UNL A   1      40.581  33.055  37.083  1.00  0.00     0.031 A 
ATOM     29  C   UNL A   1      40.695  29.021  31.486  1.00  0.00     0.031 A 
ATOM     30  C   UNL A   1      41.551  32.070  36.982  1.00  0.00     0.049 A 
ATOM     31  C   UNL A   1      41.699  28.823  32.438  1.00  0.00     0.074 A 
ATOM     32  C   UNL A   1      42.529  31.814  37.964  1.00  0.00     0.029 A 
ATOM     33  N   UNL A   1      41.750  31.184  35.948  1.00  0.00    -0.354 N 
ATOM     34  N   UNL A   1      41.855  29.466  33.596  1.00  0.00    -0.248 NA
ATOM     35  C   UNL A   1      42.778  27.835  32.306  1.00  0.00     0.031 C 
ATOM     36  C   UNL A   1      43.310  30.793  37.523  1.00  0.00     0.029 A 
ATOM     37  C   UNL A   1      42.836  30.396  36.258  1.00  0.00     0.049 A 
ATOM     38  H   UNL A   1      41.208  31.123  35.127  1.00  0.00     0.167 HD
ATOM     39  C   UNL A   1      42.917  28.988  34.247  1.00  0.00     0.074 A 
ATOM     40  C   UNL A   1      43.531  27.937  33.423  1.00  0.00     0.031 C 
ATOM     41  C   UNL A   1      43.398  29.383  35.497  1.00  0.00     0.031 A 
BRANCH  28  42
ATOM     42  C   UNL A   1      40.570  33.927  38.327  1.00  0.00    -0.014 A 
ATOM     43  C   UNL A   1      39.810  33.588  39.434  1.00  0.00     0.010 A 
ATOM     44  C   UNL A   1      41.295  35.040  38.304  1.00  0.00     0.010 A 
ATOM     45  C   UNL A   1      39.651  34.641  40.365  1.00  0.00     0.020 A 
ATOM     46  C   UNL A   1      41.190  35.963  39.316  1.00  0.00     0.020 A 
ATOM     47  C   UNL A   1      40.412  35.721  40.413  1.00  0.00     0.054 A 
BRANCH  47  48
ATOM     48  S   UNL A   1      40.422  36.817  41.853  1.00  0.00     0.124 S 
ATOM     49  O   UNL A   1      39.399  36.322  42.878  1.00  0.00    -0.237 OA
ATOM     50  O   UNL A   1      41.816  36.818  42.484  1.00  0.00    -0.237 OA
ATOM     51  O   UNL A   1      40.016  38.404  41.363  1.00  0.00    -0.744 OA
ENDBRANCH  47  48
ENDBRANCH  28  42
BRANCH  29  52
ATOM     52  C   UNL A   1      40.697  28.139  30.248  1.00  0.00    -0.014 A 
ATOM     53  C   UNL A   1      39.571  27.367  30.008  1.00  0.00     0.010 A 
ATOM     54  C   UNL A   1      41.735  28.120  29.421  1.00  0.00     0.010 A 
ATOM     55  C   UNL A   1      39.756  26.381  29.010  1.00  0.00     0.020 A 
ATOM     56  C   UNL A   1      41.787  27.220  28.385  1.00  0.00     0.020 A 
ATOM     57  C   UNL A   1      40.735  26.386  28.124  1.00  0.00     0.054 A 
BRANCH  57  58
ATOM     58  S   UNL A   1      40.687  25.345  26.644  1.00  0.00     0.124 S 
ATOM     59  O   UNL A   1      41.625  24.150  26.830  1.00  0.00    -0.237 OA
ATOM     60  O   UNL A   1      39.260  24.842  26.418  1.00  0.00    -0.237 OA
ATOM     61  O   UNL A   1      41.193  26.258  25.288  1.00  0.00    -0.744 OA
ENDBRANCH  57  58
ENDBRANCH  29  52
BRANCH  41  62
ATOM     62  C   UNL A   1      44.611  28.658  36.056  1.00  0.00    -0.014 A 
ATOM     63  C   UNL A   1      45.899  29.118  35.834  1.00  0.00     0.010 A 
ATOM     64  C   UNL A   1      44.389  27.512  36.689  1.00  0.00     0.010 A 
ATOM     65  C   UNL A   1      46.902  28.147  36.065  1.00  0.00     0.020 A 
ATOM     66  C   UNL A   1      45.430  26.674  37.004  1.00  0.00     0.020 A 
ATOM     67  C   UNL A   1      46.725  27.039  36.759  1.00  0.00     0.054 A 
BRANCH  67  68
ATOM     68  S   UNL A   1      48.123  26.053  37.355  1.00  0.00     0.124 S 
ATOM     69  O   UNL A   1      47.966  25.799  38.855  1.00  0.00    -0.237 OA
ATOM     70  O   UNL A   1      48.156  24.716  36.612  1.00  0.00    -0.237 OA
ATOM     71  O   UNL A   1      49.580  26.901  37.069  1.00  0.00    -0.744 OA
ENDBRANCH  67  68
ENDBRANCH  41  62
ENDBRANCH  15  16
ENDBRANCH   8  10
ENDBRANCH   7   8
ENDBRANCH   6   7
ENDBRANCH   5   6
ENDBRANCH   4   5
ENDBRANCH   3   4
ENDBRANCH   2   3
ENDBRANCH   1   2
BRANCH   1  72
ATOM     72  C   UNL A   1      33.498  29.853  27.025  1.00  0.00     0.188 C 
BRANCH  72  73
ATOM     73  C   UNL A   1      34.163  28.816  26.134  1.00  0.00     0.188 C 
BRANCH  73  74
ATOM     74  O   UNL A   1      33.167  28.074  25.447  1.00  0.00    -0.376 OA
BRANCH  74  75
ATOM     75  C   UNL A   1      33.155  26.739  25.930  1.00  0.00     0.202 C 
BRANCH  75  76
ATOM     76  C   UNL A   1      31.772  26.407  26.467  1.00  0.00     0.261 C 
BRANCH  76  77
ATOM     77  O   UNL A   1      31.786  25.107  27.039  1.00  0.00    -0.460 OA
BRANCH  77  78
ATOM     78  C   UNL A   1      30.989  24.076  26.476  1.00  0.00     0.340 C 
ATOM     79  O   UNL A   1      29.750  24.008  26.749  1.00  0.00    -0.246 OA
BRANCH  78  80
ATOM     80  C   UNL A   1      31.619  23.052  25.545  1.00  0.00     0.083 A 
ATOM     81  C   UNL A   1      32.373  22.085  26.189  1.00  0.00     0.018 A 
ATOM     82  C   UNL A   1      31.386  22.988  24.239  1.00  0.00     0.053 A 
ATOM     83  C   UNL A   1      33.087  21.236  25.311  1.00  0.00     0.001 A 
ATOM     84  C   UNL A   1      32.015  22.045  23.463  1.00  0.00     0.027 A 
ATOM     85  C   UNL A   1      32.822  21.095  24.025  1.00  0.00     0.002 A 
BRANCH  82  86
ATOM     86  N   UNL A   1      30.447  23.934  23.619  1.00  0.00    -0.355 N 
ATOM     87  H   UNL A   1      29.492  23.706  23.549  1.00  0.00     0.167 HD
BRANCH  86  88
ATOM     88  C   UNL A   1      30.935  25.223  23.107  1.00  0.00     0.040 A 
ATOM     89  C   UNL A   1      32.098  25.275  22.358  1.00  0.00     0.026 A 
ATOM     90  C   UNL A   1      30.209  26.313  23.330  1.00  0.00     0.050 A 
ATOM     91  C   UNL A   1      32.571  26.588  22.123  1.00  0.00     0.004 A 
ATOM     92  C   UNL A   1      30.671  27.550  22.951  1.00  0.00     0.109 A 
ATOM     93  C   UNL A   1      31.843  27.682  22.258  1.00  0.00     0.024 A 
BRANCH  92  94
ATOM     94  S   UNL A   1      29.715  29.028  23.376  1.00  0.00     0.310 S 
ATOM     95  F   UNL A   1      30.171  29.785  22.059  1.00  0.00    -0.094 F 
ATOM     96  F   UNL A   1      31.004  29.607  24.073  1.00  0.00    -0.094 F 
ATOM     97  F   UNL A   1      28.905  30.300  23.753  1.00  0.00    -0.094 F 
ATOM     98  F   UNL A   1      28.478  28.493  22.552  1.00  0.00    -0.094 F 
ATOM     99  F   UNL A   1      30.558  27.781  22.890  1.00  0.00    -0.094 F 
ENDBRANCH  92  94
ENDBRANCH  86  88
ENDBRANCH  82  86
ENDBRANCH  78  80
ENDBRANCH  77  78
ENDBRANCH  76  77
ENDBRANCH  75  76
ENDBRANCH  74  75
ENDBRANCH  73  74
ENDBRANCH  72  73
ENDBRANCH   1  72
TORSDOF 26
ENDMDL
MODEL 3
REMARK VINA RESULT:      -8.9      3.616      4.866
REMARK SMILES O=C(OCCOCCOCCOCCOC(=O)c1ccccc1Nc1cccc(S(F)(F)(F)(F)F)c1)c1ccc(-c2c3nc(c(-c4ccc(S(=O)(=O)[O-])cc4)c4ccc([nH]4)c(-c4ccc(S(=O)(=O)[O-])cc4)c4nc(c(-c5ccc(S(=O)(=O)[O-])cc5)c5ccc2[nH]5)C=C4)C=C3)cc1
REMARK SMILES IDX 9 1 8 2 7 3 6 4 5 5 4 6 3 7 2 8 1 9 37 10 38 11 96 12 39 13
REMARK SMILES IDX 95 14 40 15 41 16 42 17 89 18 43 19 94 20 88 21 90 22 44 23
REMARK SMILES IDX 93 24 87 25 86 26 45 28 75 29 56 30 74 31 57 32 60 33 73 34
REMARK SMILES IDX 91 35 58 36 59 37 72 39 92 40 61 41 46 42 47 43 55 44 48 45
REMARK SMILES IDX 54 46 49 47 50 48 51 49 52 50 53 51 76 52 77 53 85 54 78 55
REMARK SMILES IDX 84 56 79 57 80 58 81 59 82 60 83 61 62 62 63 63 71 64 64 65
REMARK SMILES IDX 70 66 65 67 66 68 67 69 68 70 69 71 10 72 11 73 12 74 13 75
REMARK SMILES IDX 14 76 15 77 16 78 17 79 18 80 19 81 23 82 20 83 22 84 21 85
REMARK SMILES IDX 24 86 25 88 26 89 36 90 27 91 29 92 28 93 30 94 31 95 32 96
REMARK SMILES IDX 33 97 34 98 35 99
REMARK H PARENT 90 27 60 38 24 87
REMARK Flexibility Score: inf
ROOT
ATOM      1  O   UNL A   1      32.092  28.396  25.283  1.00  0.00    -0.377 OA
ENDROOT
BRANCH   1   2
ATOM      2  C   UNL A   1      33.025  27.754  26.138  1.00  0.00     0.188 C 
BRANCH   2   3
ATOM      3  C   UNL A   1      33.466  28.720  27.226  1.00  0.00     0.188 C 
BRANCH   3   4
ATOM      4  O   UNL A   1      32.513  29.765  27.345  1.00  0.00    -0.376 OA
BRANCH   4   5
ATOM      5  C   UNL A   1      33.031  30.949  26.755  1.00  0.00     0.202 C 
BRANCH   5   6
ATOM      6  C   UNL A   1      33.735  31.779  27.817  1.00  0.00     0.261 C 
BRANCH   6   7
ATOM      7  O   UNL A   1      33.070  33.025  27.962  1.00  0.00    -0.460 OA
BRANCH   7   8
ATOM      8  C   UNL A   1      33.665  34.062  28.729  1.00  0.00     0.338 C 
ATOM      9  O   UNL A   1      33.157  35.227  28.723  1.00  0.00    -0.246 OA
BRANCH   8  10
ATOM     10  C   UNL A   1      34.907  33.778  29.557  1.00  0.00     0.060 A 
ATOM     11  C   UNL A   1      36.147  34.303  29.230  1.00  0.00     0.016 A 
ATOM     12  C   UNL A   1      34.768  32.906  30.547  1.00  0.00     0.016 A 
ATOM     13  C   UNL A   1      37.234  33.621  29.827  1.00  0.00     0.010 A 
ATOM     14  C   UNL A   1      35.870  32.380  31.178  1.00  0.00     0.010 A 
ATOM     15  C   UNL A   1      37.130  32.810  30.865  1.00  0.00    -0.014 A 
BRANCH  15  16
ATOM     16  C   UNL A   1      38.346  32.378  31.668  1.00  0.00     0.031 A 
ATOM     17  C   UNL A   1      39.110  31.374  31.069  1.00  0.00     0.074 A 
ATOM     18  C   UNL A   1      38.706  33.034  32.832  1.00  0.00     0.049 A 
ATOM     19  N   UNL A   1      40.293  30.905  31.469  1.00  0.00    -0.248 NA
ATOM     20  C   UNL A   1      38.713  30.652  29.852  1.00  0.00     0.031 C 
ATOM     21  C   UNL A   1      37.946  34.053  33.439  1.00  0.00     0.029 A 
ATOM     22  N   UNL A   1      39.830  32.834  33.603  1.00  0.00    -0.354 N 
ATOM     23  C   UNL A   1      40.721  29.959  30.629  1.00  0.00     0.074 A 
ATOM     24  C   UNL A   1      39.708  29.780  29.581  1.00  0.00     0.031 C 
ATOM     25  C   UNL A   1      38.595  34.453  34.562  1.00  0.00     0.029 A 
ATOM     26  C   UNL A   1      39.773  33.691  34.679  1.00  0.00     0.049 A 
ATOM     27  H   UNL A   1      40.551  32.189  33.416  1.00  0.00     0.167 HD
ATOM     28  C   UNL A   1      41.917  29.243  30.696  1.00  0.00     0.031 A 
ATOM     29  C   UNL A   1      40.686  33.816  35.715  1.00  0.00     0.031 A 
ATOM     30  C   UNL A   1      42.850  29.399  31.709  1.00  0.00     0.049 A 
ATOM     31  C   UNL A   1      41.855  33.057  35.813  1.00  0.00     0.074 A 
ATOM     32  C   UNL A   1      44.064  28.689  31.787  1.00  0.00     0.029 A 
ATOM     33  N   UNL A   1      42.781  30.238  32.798  1.00  0.00    -0.354 N 
ATOM     34  N   UNL A   1      42.301  32.141  34.952  1.00  0.00    -0.248 NA
ATOM     35  C   UNL A   1      42.813  33.157  36.922  1.00  0.00     0.031 C 
ATOM     36  C   UNL A   1      44.714  29.090  32.912  1.00  0.00     0.029 A 
ATOM     37  C   UNL A   1      43.916  30.054  33.556  1.00  0.00     0.049 A 
ATOM     38  H   UNL A   1      42.047  30.863  33.000  1.00  0.00     0.167 HD
ATOM     39  C   UNL A   1      43.464  31.641  35.375  1.00  0.00     0.074 A 
ATOM     40  C   UNL A   1      43.807  32.284  36.652  1.00  0.00     0.031 C 
ATOM     41  C   UNL A   1      44.257  30.680  34.745  1.00  0.00     0.031 A 
BRANCH  28  42
ATOM     42  C   UNL A   1      42.212  28.236  29.597  1.00  0.00    -0.014 A 
ATOM     43  C   UNL A   1      43.071  28.542  28.555  1.00  0.00     0.010 A 
ATOM     44  C   UNL A   1      41.594  27.061  29.658  1.00  0.00     0.010 A 
ATOM     45  C   UNL A   1      42.991  27.646  27.463  1.00  0.00     0.020 A 
ATOM     46  C   UNL A   1      41.670  26.176  28.610  1.00  0.00     0.020 A 
ATOM     47  C   UNL A   1      42.454  26.440  27.521  1.00  0.00     0.054 A 
BRANCH  47  48
ATOM     48  S   UNL A   1      42.741  25.204  26.230  1.00  0.00     0.124 S 
ATOM     49  O   UNL A   1      44.205  24.761  26.266  1.00  0.00    -0.237 OA
ATOM     50  O   UNL A   1      41.835  23.995  26.471  1.00  0.00    -0.237 OA
ATOM     51  O   UNL A   1      42.388  25.885  24.702  1.00  0.00    -0.744 OA
ENDBRANCH  47  48
ENDBRANCH  28  42
BRANCH  29  52
ATOM     52  C   UNL A   1      40.398  34.835  36.805  1.00  0.00    -0.014 A 
ATOM     53  C   UNL A   1      41.107  36.025  36.776  1.00  0.00     0.010 A 
ATOM     54  C   UNL A   1      39.490  34.596  37.743  1.00  0.00     0.010 A 
ATOM     55  C   UNL A   1      40.989  36.791  37.960  1.00  0.00     0.020 A 
ATOM     56  C   UNL A   1      39.335  35.458  38.801  1.00  0.00     0.020 A 
ATOM     57  C   UNL A   1      40.045  36.625  38.868  1.00  0.00     0.054 A 
BRANCH  57  58
ATOM     58  S   UNL A   1      39.708  37.876  40.133  1.00  0.00     0.124 S 
ATOM     59  O   UNL A   1      39.871  37.253  41.522  1.00  0.00    -0.237 OA
ATOM     60  O   UNL A   1      40.691  39.038  39.977  1.00  0.00    -0.237 OA
ATOM     61  O   UNL A   1      38.108  38.452  39.953  1.00  0.00    -0.744 OA
ENDBRANCH  57  58
ENDBRANCH  29  52
BRANCH  41  62
ATOM     62  C   UNL A   1      45.571  30.296  35.404  1.00  0.00    -0.014 A 
ATOM     63  C   UNL A   1      46.757  30.938  35.087  1.00  0.00     0.010 A 
ATOM     64  C   UNL A   1      45.550  29.253  36.226  1.00  0.00     0.010 A 
ATOM     65  C   UNL A   1      47.917  30.220  35.467  1.00  0.00     0.020 A 
ATOM     66  C   UNL A   1      46.721  28.685  36.666  1.00  0.00     0.020 A 
ATOM     67  C   UNL A   1      47.932  29.233  36.343  1.00  0.00     0.054 A 
BRANCH  67  68
ATOM     68  S   UNL A   1      49.475  28.635  37.079  1.00  0.00     0.124 S 
ATOM     69  O   UNL A   1      49.828  27.270  36.486  1.00  0.00    -0.237 OA
ATOM     70  O   UNL A   1      50.601  29.628  36.778  1.00  0.00    -0.237 OA
ATOM     71  O   UNL A   1      49.281  28.488  38.771  1.00  0.00    -0.744 OA
ENDBRANCH  67  68
ENDBRANCH  41  62
ENDBRANCH  15  16
ENDBRANCH   8  10
ENDBRANCH   7   8
ENDBRANCH   6   7
ENDBRANCH   5   6
ENDBRANCH   4   5
ENDBRANCH   3   4
ENDBRANCH   2   3
ENDBRANCH   1   2
BRANCH   1  72
ATOM     72  C   UNL A   1      31.151  27.445  24.809  1.00  0.00     0.188 C 
BRANCH  72  73
ATOM     73  C   UNL A   1      30.832  27.730  23.351  1.00  0.00     0.188 C 
BRANCH  73  74
ATOM     74  O   UNL A   1      31.947  27.380  22.545  1.00  0.00    -0.376 OA
BRANCH  74  75
ATOM     75  C   UNL A   1      31.601  26.286  21.709  1.00  0.00     0.202 C 
BRANCH  75  76
ATOM     76  C   UNL A   1      32.818  25.397  21.508  1.00  0.00     0.261 C 
BRANCH  76  77
ATOM     77  O   UNL A   1      32.557  24.108  22.044  1.00  0.00    -0.460 OA
BRANCH  77  78
ATOM     78  C   UNL A   1      32.260  23.961  23.425  1.00  0.00     0.340 C 
ATOM     79  O   UNL A   1      31.063  24.077  23.835  1.00  0.00    -0.246 OA
BRANCH  78  80
ATOM     80  C   UNL A   1      33.376  23.664  24.415  1.00  0.00     0.083 A 
ATOM     81  C   UNL A   1      34.273  24.705  24.590  1.00  0.00     0.018 A 
ATOM     82  C   UNL A   1      33.444  22.563  25.155  1.00  0.00     0.053 A 
ATOM     83  C   UNL A   1      35.395  24.366  25.382  1.00  0.00     0.001 A 
ATOM     84  C   UNL A   1      34.500  22.360  26.009  1.00  0.00     0.027 A 
ATOM     85  C   UNL A   1      35.456  23.321  26.187  1.00  0.00     0.002 A 
BRANCH  82  86
ATOM     86  N   UNL A   1      32.380  21.554  25.058  1.00  0.00    -0.355 N 
ATOM     87  H   UNL A   1      31.549  21.663  25.573  1.00  0.00     0.167 HD
BRANCH  86  88
ATOM     88  C   UNL A   1      32.557  20.382  24.188  1.00  0.00     0.040 A 
ATOM     89  C   UNL A   1      32.109  20.418  22.878  1.00  0.00     0.026 A 
ATOM     90  C   UNL A   1      33.201  19.324  24.667  1.00  0.00     0.050 A 
ATOM     91  C   UNL A   1      32.137  19.161  22.228  1.00  0.00     0.004 A 
ATOM     92  C   UNL A   1      33.308  18.174  23.923  1.00  0.00     0.109 A 
ATOM     93  C   UNL A   1      32.836  18.119  22.641  1.00  0.00     0.024 A 
BRANCH  92  94
ATOM     94  S   UNL A   1      34.086  16.711  24.651  1.00  0.00     0.310 S 
ATOM     95  F   UNL A   1      34.388  16.079  23.227  1.00  0.00    -0.094 F 
ATOM     96  F   UNL A   1      32.685  15.993  24.596  1.00  0.00    -0.094 F 
ATOM     97  F   UNL A   1      34.740  15.448  25.281  1.00  0.00    -0.094 F 
ATOM     98  F   UNL A   1      35.508  17.395  24.567  1.00  0.00    -0.094 F 
ATOM     99  F   UNL A   1      33.459  17.957  23.908  1.00  0.00    -0.094 F 
ENDBRANCH  92  94
ENDBRANCH  86  88
ENDBRANCH  82  86
ENDBRANCH  78  80
ENDBRANCH  77  78
ENDBRANCH  76  77
ENDBRANCH  75  76
ENDBRANCH  74  75
ENDBRANCH  73  74
ENDBRANCH  72  73
ENDBRANCH   1  72
TORSDOF 26
ENDMDL
