MODEL 1
REMARK VINA RESULT:      -7.3      0.000      0.000
REMARK SMILES O=C(OCCOCCOCCOCCOC(=O)c1cnccc1C(=O)N1CCC(Cc2ccccc2)CC1)c1ccc(-c2c3nc(c(-c4ccc(S(=O)(=O)[O-])cc4)c4ccc([nH]4)c(-c4ccc(S(=O)(=O)[O-])cc4)c4nc(c(-c5ccc(S(=O)(=O)[O-])cc5)c5ccc2[nH]5)C=C4)C=C3)cc1
REMARK SMILES IDX 9 1 8 2 7 3 6 4 5 5 4 6 3 7 2 8 1 9 39 10 40 11 98 12 41 13
REMARK SMILES IDX 97 14 42 15 43 16 44 17 91 18 45 19 96 20 90 21 92 22 46 23
REMARK SMILES IDX 95 24 89 25 88 26 47 28 77 29 58 30 76 31 59 32 62 33 75 34
REMARK SMILES IDX 93 35 60 36 61 37 74 39 94 40 63 41 48 42 49 43 57 44 50 45
REMARK SMILES IDX 56 46 51 47 52 48 53 49 54 50 55 51 78 52 79 53 87 54 80 55
REMARK SMILES IDX 86 56 81 57 82 58 83 59 84 60 85 61 64 62 65 63 73 64 66 65
REMARK SMILES IDX 72 66 67 67 68 68 69 69 70 70 71 71 10 72 11 73 12 74 13 75
REMARK SMILES IDX 14 76 15 77 16 78 17 79 18 80 19 81 23 82 20 83 22 84 21 85
REMARK SMILES IDX 24 86 25 87 26 88 27 89 38 90 28 91 37 92 29 93 30 94 31 95
REMARK SMILES IDX 32 96 36 97 33 98 35 99 34 100
REMARK H PARENT 92 27 62 38
REMARK Flexibility Score: inf
ROOT
ATOM      1  O   UNL A   1      34.738  34.743  29.503  1.00  0.00    -0.377 OA
ENDROOT
BRANCH   1   2
ATOM      2  C   UNL A   1      34.799  33.666  28.571  1.00  0.00     0.188 C 
BRANCH   2   3
ATOM      3  C   UNL A   1      34.457  32.279  29.118  1.00  0.00     0.188 C 
BRANCH   3   4
ATOM      4  O   UNL A   1      35.396  31.302  28.668  1.00  0.00    -0.376 OA
BRANCH   4   5
ATOM      5  C   UNL A   1      36.010  30.513  29.684  1.00  0.00     0.202 C 
BRANCH   5   6
ATOM      6  C   UNL A   1      35.928  31.132  31.075  1.00  0.00     0.261 C 
BRANCH   6   7
ATOM      7  O   UNL A   1      37.096  31.904  31.377  1.00  0.00    -0.460 OA
BRANCH   7   8
ATOM      8  C   UNL A   1      38.227  31.488  31.996  1.00  0.00     0.338 C 
ATOM      9  O   UNL A   1      38.322  31.705  33.206  1.00  0.00    -0.246 OA
BRANCH   8  10
ATOM     10  C   UNL A   1      39.378  30.787  31.327  1.00  0.00     0.060 A 
ATOM     11  C   UNL A   1      40.354  29.992  31.943  1.00  0.00     0.016 A 
ATOM     12  C   UNL A   1      39.434  30.908  29.928  1.00  0.00     0.016 A 
ATOM     13  C   UNL A   1      41.367  29.371  31.217  1.00  0.00     0.010 A 
ATOM     14  C   UNL A   1      40.457  30.310  29.188  1.00  0.00     0.010 A 
ATOM     15  C   UNL A   1      41.446  29.573  29.846  1.00  0.00    -0.014 A 
BRANCH  15  16
ATOM     16  C   UNL A   1      42.720  29.280  29.171  1.00  0.00     0.031 A 
ATOM     17  C   UNL A   1      42.861  27.908  28.580  1.00  0.00     0.074 A 
ATOM     18  C   UNL A   1      43.669  30.217  29.033  1.00  0.00     0.049 A 
ATOM     19  N   UNL A   1      43.909  27.327  28.069  1.00  0.00    -0.248 NA
ATOM     20  C   UNL A   1      41.642  27.078  28.564  1.00  0.00     0.031 C 
ATOM     21  C   UNL A   1      43.544  31.615  29.446  1.00  0.00     0.029 A 
ATOM     22  N   UNL A   1      44.928  30.130  28.506  1.00  0.00    -0.354 N 
ATOM     23  C   UNL A   1      43.488  26.050  27.717  1.00  0.00     0.074 A 
ATOM     24  C   UNL A   1      42.090  25.942  28.059  1.00  0.00     0.031 C 
ATOM     25  C   UNL A   1      44.695  32.253  29.173  1.00  0.00     0.029 A 
ATOM     26  C   UNL A   1      45.651  31.291  28.629  1.00  0.00     0.049 A 
ATOM     27  H   UNL A   1      45.281  29.316  28.080  1.00  0.00     0.167 HD
ATOM     28  C   UNL A   1      44.220  25.049  27.178  1.00  0.00     0.031 A 
ATOM     29  C   UNL A   1      46.956  31.520  28.380  1.00  0.00     0.031 A 
ATOM     30  C   UNL A   1      45.619  25.189  26.891  1.00  0.00     0.049 A 
ATOM     31  C   UNL A   1      47.785  30.369  27.871  1.00  0.00     0.074 A 
ATOM     32  C   UNL A   1      46.507  24.246  26.415  1.00  0.00     0.029 A 
ATOM     33  N   UNL A   1      46.332  26.371  27.067  1.00  0.00    -0.354 N 
ATOM     34  N   UNL A   1      47.408  29.137  27.609  1.00  0.00    -0.248 NA
ATOM     35  C   UNL A   1      49.210  30.626  27.632  1.00  0.00     0.031 C 
ATOM     36  C   UNL A   1      47.769  24.845  26.350  1.00  0.00     0.029 A 
ATOM     37  C   UNL A   1      47.654  26.179  26.722  1.00  0.00     0.049 A 
ATOM     38  H   UNL A   1      45.950  27.218  27.390  1.00  0.00     0.167 HD
ATOM     39  C   UNL A   1      48.541  28.477  27.151  1.00  0.00     0.074 A 
ATOM     40  C   UNL A   1      49.618  29.451  27.170  1.00  0.00     0.031 C 
ATOM     41  C   UNL A   1      48.684  27.190  26.747  1.00  0.00     0.031 A 
BRANCH  28  42
ATOM     42  C   UNL A   1      43.529  23.725  26.995  1.00  0.00    -0.014 A 
ATOM     43  C   UNL A   1      43.342  22.833  28.067  1.00  0.00     0.010 A 
ATOM     44  C   UNL A   1      43.138  23.330  25.703  1.00  0.00     0.010 A 
ATOM     45  C   UNL A   1      42.841  21.547  27.838  1.00  0.00     0.020 A 
ATOM     46  C   UNL A   1      42.609  22.057  25.475  1.00  0.00     0.020 A 
ATOM     47  C   UNL A   1      42.492  21.163  26.541  1.00  0.00     0.054 A 
BRANCH  47  48
ATOM     48  S   UNL A   1      41.888  19.475  26.260  1.00  0.00     0.124 S 
ATOM     49  O   UNL A   1      42.245  19.257  24.860  1.00  0.00    -0.237 OA
ATOM     50  O   UNL A   1      42.653  18.695  27.230  1.00  0.00    -0.237 OA
ATOM     51  O   UNL A   1      40.456  19.568  26.530  1.00  0.00    -0.744 OA
ENDBRANCH  47  48
ENDBRANCH  28  42
BRANCH  29  52
ATOM     52  C   UNL A   1      47.541  32.860  28.666  1.00  0.00    -0.014 A 
ATOM     53  C   UNL A   1      48.413  33.056  29.749  1.00  0.00     0.010 A 
ATOM     54  C   UNL A   1      47.273  33.943  27.806  1.00  0.00     0.010 A 
ATOM     55  C   UNL A   1      49.015  34.304  29.960  1.00  0.00     0.020 A 
ATOM     56  C   UNL A   1      47.891  35.183  27.996  1.00  0.00     0.020 A 
ATOM     57  C   UNL A   1      48.759  35.356  29.075  1.00  0.00     0.054 A 
BRANCH  57  58
ATOM     58  S   UNL A   1      49.626  36.935  29.310  1.00  0.00     0.124 S 
ATOM     59  O   UNL A   1      49.567  37.517  27.973  1.00  0.00    -0.237 OA
ATOM     60  O   UNL A   1      48.807  37.593  30.326  1.00  0.00    -0.237 OA
ATOM     61  O   UNL A   1      50.955  36.530  29.761  1.00  0.00    -0.744 OA
ENDBRANCH  57  58
ENDBRANCH  29  52
BRANCH  41  62
ATOM     62  C   UNL A   1      50.033  26.773  26.237  1.00  0.00    -0.014 A 
ATOM     63  C   UNL A   1      50.358  26.868  24.875  1.00  0.00     0.010 A 
ATOM     64  C   UNL A   1      51.025  26.403  27.165  1.00  0.00     0.010 A 
ATOM     65  C   UNL A   1      51.660  26.596  24.446  1.00  0.00     0.020 A 
ATOM     66  C   UNL A   1      52.331  26.156  26.743  1.00  0.00     0.020 A 
ATOM     67  C   UNL A   1      52.638  26.250  25.385  1.00  0.00     0.054 A 
BRANCH  67  68
ATOM     68  S   UNL A   1      54.341  25.996  24.817  1.00  0.00     0.124 S 
ATOM     69  O   UNL A   1      54.225  26.263  23.386  1.00  0.00    -0.237 OA
ATOM     70  O   UNL A   1      55.086  26.991  25.585  1.00  0.00    -0.237 OA
ATOM     71  O   UNL A   1      54.621  24.607  25.172  1.00  0.00    -0.744 OA
ENDBRANCH  67  68
ENDBRANCH  41  62
ENDBRANCH  15  16
ENDBRANCH   8  10
ENDBRANCH   7   8
ENDBRANCH   6   7
ENDBRANCH   5   6
ENDBRANCH   4   5
ENDBRANCH   3   4
ENDBRANCH   2   3
ENDBRANCH   1   2
BRANCH   1  72
ATOM     72  C   UNL A   1      34.047  34.512  30.727  1.00  0.00     0.188 C 
BRANCH  72  73
ATOM     73  C   UNL A   1      34.599  35.087  32.058  1.00  0.00     0.188 C 
BRANCH  73  74
ATOM     74  O   UNL A   1      35.699  34.391  32.629  1.00  0.00    -0.376 OA
BRANCH  74  75
ATOM     75  C   UNL A   1      35.901  34.636  34.019  1.00  0.00     0.202 C 
BRANCH  75  76
ATOM     76  C   UNL A   1      36.978  33.751  34.639  1.00  0.00     0.261 C 
BRANCH  76  77
ATOM     77  O   UNL A   1      37.207  34.010  36.039  1.00  0.00    -0.460 OA
BRANCH  77  78
ATOM     78  C   UNL A   1      37.723  33.024  36.794  1.00  0.00     0.340 C 
ATOM     79  O   UNL A   1      37.529  31.825  36.663  1.00  0.00    -0.246 OA
BRANCH  78  80
ATOM     80  C   UNL A   1      38.682  33.583  37.752  1.00  0.00     0.091 A 
ATOM     81  C   UNL A   1      38.076  34.177  38.864  1.00  0.00     0.127 A 
ATOM     82  C   UNL A   1      40.074  33.465  37.742  1.00  0.00     0.057 A 
ATOM     83  N   UNL A   1      38.734  34.602  39.969  1.00  0.00    -0.264 NA
ATOM     84  C   UNL A   1      40.765  33.927  38.886  1.00  0.00     0.035 A 
ATOM     85  C   UNL A   1      40.068  34.456  39.960  1.00  0.00     0.112 A 
BRANCH  82  86
ATOM     86  C   UNL A   1      40.939  32.734  36.762  1.00  0.00     0.254 C 
ATOM     87  O   UNL A   1      41.142  31.539  37.006  1.00  0.00    -0.269 OA
ATOM     88  N   UNL A   1      41.453  33.288  35.590  1.00  0.00    -0.339 N 
ATOM     89  C   UNL A   1      41.319  32.429  34.411  1.00  0.00     0.120 C 
ATOM     90  C   UNL A   1      41.894  34.671  35.406  1.00  0.00     0.120 C 
ATOM     91  C   UNL A   1      42.378  32.645  33.344  1.00  0.00     0.025 C 
ATOM     92  C   UNL A   1      42.901  34.871  34.282  1.00  0.00     0.025 C 
ATOM     93  C   UNL A   1      42.485  34.131  32.998  1.00  0.00    -0.003 C 
BRANCH  93  94
ATOM     94  C   UNL A   1      43.492  34.453  31.882  1.00  0.00     0.039 C 
BRANCH  94  95
ATOM     95  C   UNL A   1      42.926  35.077  30.631  1.00  0.00    -0.048 A 
ATOM     96  C   UNL A   1      43.634  36.106  29.995  1.00  0.00     0.004 A 
ATOM     97  C   UNL A   1      41.694  34.673  30.101  1.00  0.00     0.004 A 
ATOM     98  C   UNL A   1      43.114  36.737  28.866  1.00  0.00     0.000 A 
ATOM     99  C   UNL A   1      41.175  35.306  28.969  1.00  0.00     0.000 A 
ATOM    100  C   UNL A   1      41.881  36.341  28.357  1.00  0.00     0.000 A 
ENDBRANCH  94  95
ENDBRANCH  93  94
ENDBRANCH  82  86
ENDBRANCH  78  80
ENDBRANCH  77  78
ENDBRANCH  76  77
ENDBRANCH  75  76
ENDBRANCH  74  75
ENDBRANCH  73  74
ENDBRANCH  72  73
ENDBRANCH   1  72
TORSDOF 26
ENDMDL
MODEL 2
REMARK VINA RESULT:      -6.9      5.101     14.435
REMARK SMILES O=C(OCCOCCOCCOCCOC(=O)c1cnccc1C(=O)N1CCC(Cc2ccccc2)CC1)c1ccc(-c2c3nc(c(-c4ccc(S(=O)(=O)[O-])cc4)c4ccc([nH]4)c(-c4ccc(S(=O)(=O)[O-])cc4)c4nc(c(-c5ccc(S(=O)(=O)[O-])cc5)c5ccc2[nH]5)C=C4)C=C3)cc1
REMARK SMILES IDX 9 1 8 2 7 3 6 4 5 5 4 6 3 7 2 8 1 9 39 10 40 11 98 12 41 13
REMARK SMILES IDX 97 14 42 15 43 16 44 17 91 18 45 19 96 20 90 21 92 22 46 23
REMARK SMILES IDX 95 24 89 25 88 26 47 28 77 29 58 30 76 31 59 32 62 33 75 34
REMARK SMILES IDX 93 35 60 36 61 37 74 39 94 40 63 41 48 42 49 43 57 44 50 45
REMARK SMILES IDX 56 46 51 47 52 48 53 49 54 50 55 51 78 52 79 53 87 54 80 55
REMARK SMILES IDX 86 56 81 57 82 58 83 59 84 60 85 61 64 62 65 63 73 64 66 65
REMARK SMILES IDX 72 66 67 67 68 68 69 69 70 70 71 71 10 72 11 73 12 74 13 75
REMARK SMILES IDX 14 76 15 77 16 78 17 79 18 80 19 81 23 82 20 83 22 84 21 85
REMARK SMILES IDX 24 86 25 87 26 88 27 89 38 90 28 91 37 92 29 93 30 94 31 95
REMARK SMILES IDX 32 96 36 97 33 98 35 99 34 100
REMARK H PARENT 92 27 62 38
REMARK Flexibility Score: inf
ROOT
ATOM      1  O   UNL A   1      53.894  27.658  33.366  1.00  0.00    -0.377 OA
ENDROOT
BRANCH   1   2
ATOM      2  C   UNL A   1      52.617  28.291  33.384  1.00  0.00     0.188 C 
BRANCH   2   3
ATOM      3  C   UNL A   1      51.861  28.248  34.713  1.00  0.00     0.188 C 
BRANCH   3   4
ATOM      4  O   UNL A   1      50.602  27.591  34.569  1.00  0.00    -0.376 OA
BRANCH   4   5
ATOM      5  C   UNL A   1      50.464  26.348  35.255  1.00  0.00     0.202 C 
BRANCH   5   6
ATOM      6  C   UNL A   1      50.006  26.494  36.702  1.00  0.00     0.261 C 
BRANCH   6   7
ATOM      7  O   UNL A   1      48.598  26.271  36.833  1.00  0.00    -0.460 OA
BRANCH   7   8
ATOM      8  C   UNL A   1      47.709  26.990  37.560  1.00  0.00     0.338 C 
ATOM      9  O   UNL A   1      47.866  27.012  38.782  1.00  0.00    -0.246 OA
BRANCH   8  10
ATOM     10  C   UNL A   1      46.546  27.760  36.998  1.00  0.00     0.060 A 
ATOM     11  C   UNL A   1      45.184  27.478  37.174  1.00  0.00     0.016 A 
ATOM     12  C   UNL A   1      46.876  28.912  36.265  1.00  0.00     0.016 A 
ATOM     13  C   UNL A   1      44.187  28.277  36.620  1.00  0.00     0.010 A 
ATOM     14  C   UNL A   1      45.888  29.711  35.685  1.00  0.00     0.010 A 
ATOM     15  C   UNL A   1      44.542  29.364  35.834  1.00  0.00    -0.014 A 
BRANCH  15  16
ATOM     16  C   UNL A   1      43.529  29.930  34.929  1.00  0.00     0.031 A 
ATOM     17  C   UNL A   1      42.750  31.102  35.449  1.00  0.00     0.074 A 
ATOM     18  C   UNL A   1      43.368  29.462  33.682  1.00  0.00     0.049 A 
ATOM     19  N   UNL A   1      41.709  31.698  34.943  1.00  0.00    -0.248 NA
ATOM     20  C   UNL A   1      43.220  31.682  36.722  1.00  0.00     0.031 C 
ATOM     21  C   UNL A   1      44.189  28.427  33.053  1.00  0.00     0.029 A 
ATOM     22  N   UNL A   1      42.453  29.801  32.723  1.00  0.00    -0.354 N 
ATOM     23  C   UNL A   1      41.371  32.690  35.857  1.00  0.00     0.074 A 
ATOM     24  C   UNL A   1      42.321  32.625  36.941  1.00  0.00     0.031 C 
ATOM     25  C   UNL A   1      43.725  28.200  31.812  1.00  0.00     0.029 A 
ATOM     26  C   UNL A   1      42.539  29.026  31.592  1.00  0.00     0.049 A 
ATOM     27  H   UNL A   1      41.798  30.528  32.831  1.00  0.00     0.167 HD
ATOM     28  C   UNL A   1      40.337  33.558  35.801  1.00  0.00     0.031 A 
ATOM     29  C   UNL A   1      41.712  28.963  30.530  1.00  0.00     0.031 A 
ATOM     30  C   UNL A   1      39.392  33.560  34.721  1.00  0.00     0.049 A 
ATOM     31  C   UNL A   1      40.507  29.868  30.524  1.00  0.00     0.074 A 
ATOM     32  C   UNL A   1      38.256  34.327  34.561  1.00  0.00     0.029 A 
ATOM     33  N   UNL A   1      39.486  32.731  33.607  1.00  0.00    -0.354 N 
ATOM     34  N   UNL A   1      40.141  30.753  31.425  1.00  0.00    -0.248 NA
ATOM     35  C   UNL A   1      39.600  29.767  29.375  1.00  0.00     0.031 C 
ATOM     36  C   UNL A   1      37.635  33.926  33.374  1.00  0.00     0.029 A 
ATOM     37  C   UNL A   1      38.421  32.957  32.761  1.00  0.00     0.049 A 
ATOM     38  H   UNL A   1      40.206  32.080  33.448  1.00  0.00     0.167 HD
ATOM     39  C   UNL A   1      38.975  31.333  30.941  1.00  0.00     0.074 A 
ATOM     40  C   UNL A   1      38.699  30.697  29.665  1.00  0.00     0.031 C 
ATOM     41  C   UNL A   1      38.202  32.303  31.492  1.00  0.00     0.031 A 
BRANCH  28  42
ATOM     42  C   UNL A   1      40.143  34.462  36.989  1.00  0.00    -0.014 A 
ATOM     43  C   UNL A   1      39.296  34.109  38.057  1.00  0.00     0.010 A 
ATOM     44  C   UNL A   1      40.756  35.728  36.993  1.00  0.00     0.010 A 
ATOM     45  C   UNL A   1      39.012  35.033  39.068  1.00  0.00     0.020 A 
ATOM     46  C   UNL A   1      40.498  36.642  38.018  1.00  0.00     0.020 A 
ATOM     47  C   UNL A   1      39.605  36.299  39.034  1.00  0.00     0.054 A 
BRANCH  47  48
ATOM     48  S   UNL A   1      39.185  37.496  40.332  1.00  0.00     0.124 S 
ATOM     49  O   UNL A   1      40.493  38.070  40.643  1.00  0.00    -0.237 OA
ATOM     50  O   UNL A   1      38.253  38.392  39.653  1.00  0.00    -0.237 OA
ATOM     51  O   UNL A   1      38.599  36.674  41.387  1.00  0.00    -0.744 OA
ENDBRANCH  47  48
ENDBRANCH  28  42
BRANCH  29  52
ATOM     52  C   UNL A   1      41.974  27.976  29.444  1.00  0.00    -0.014 A 
ATOM     53  C   UNL A   1      42.805  28.295  28.358  1.00  0.00     0.010 A 
ATOM     54  C   UNL A   1      41.437  26.676  29.529  1.00  0.00     0.010 A 
ATOM     55  C   UNL A   1      43.104  27.333  27.385  1.00  0.00     0.020 A 
ATOM     56  C   UNL A   1      41.753  25.705  28.575  1.00  0.00     0.020 A 
ATOM     57  C   UNL A   1      42.585  26.039  27.506  1.00  0.00     0.054 A 
BRANCH  57  58
ATOM     58  S   UNL A   1      43.064  24.781  26.287  1.00  0.00     0.124 S 
ATOM     59  O   UNL A   1      41.811  24.062  26.083  1.00  0.00    -0.237 OA
ATOM     60  O   UNL A   1      43.522  25.593  25.162  1.00  0.00    -0.237 OA
ATOM     61  O   UNL A   1      44.115  24.029  26.969  1.00  0.00    -0.744 OA
ENDBRANCH  57  58
ENDBRANCH  29  52
BRANCH  41  62
ATOM     62  C   UNL A   1      37.021  32.780  30.697  1.00  0.00    -0.014 A 
ATOM     63  C   UNL A   1      35.727  32.306  30.960  1.00  0.00     0.010 A 
ATOM     64  C   UNL A   1      37.207  33.815  29.761  1.00  0.00     0.010 A 
ATOM     65  C   UNL A   1      34.631  32.861  30.294  1.00  0.00     0.020 A 
ATOM     66  C   UNL A   1      36.114  34.388  29.114  1.00  0.00     0.020 A 
ATOM     67  C   UNL A   1      34.832  33.903  29.382  1.00  0.00     0.054 A 
BRANCH  67  68
ATOM     68  S   UNL A   1      33.386  34.672  28.603  1.00  0.00     0.124 S 
ATOM     69  O   UNL A   1      32.943  33.624  27.688  1.00  0.00    -0.237 OA
ATOM     70  O   UNL A   1      32.507  34.927  29.742  1.00  0.00    -0.237 OA
ATOM     71  O   UNL A   1      33.932  35.868  27.966  1.00  0.00    -0.744 OA
ENDBRANCH  67  68
ENDBRANCH  41  62
ENDBRANCH  15  16
ENDBRANCH   8  10
ENDBRANCH   7   8
ENDBRANCH   6   7
ENDBRANCH   5   6
ENDBRANCH   4   5
ENDBRANCH   3   4
ENDBRANCH   2   3
ENDBRANCH   1   2
BRANCH   1  72
ATOM     72  C   UNL A   1      54.100  26.625  32.407  1.00  0.00     0.188 C 
BRANCH  72  73
ATOM     73  C   UNL A   1      52.938  26.165  31.490  1.00  0.00     0.188 C 
BRANCH  73  74
ATOM     74  O   UNL A   1      53.222  26.121  30.098  1.00  0.00    -0.376 OA
BRANCH  74  75
ATOM     75  C   UNL A   1      53.216  27.389  29.449  1.00  0.00     0.202 C 
BRANCH  75  76
ATOM     76  C   UNL A   1      52.130  27.520  28.384  1.00  0.00     0.261 C 
BRANCH  76  77
ATOM     77  O   UNL A   1      51.270  28.662  28.569  1.00  0.00    -0.460 OA
BRANCH  77  78
ATOM     78  C   UNL A   1      49.940  28.474  28.517  1.00  0.00     0.340 C 
ATOM     79  O   UNL A   1      49.358  27.430  28.265  1.00  0.00    -0.246 OA
BRANCH  78  80
ATOM     80  C   UNL A   1      49.249  29.696  28.941  1.00  0.00     0.091 A 
ATOM     81  C   UNL A   1      49.904  30.869  28.551  1.00  0.00     0.127 A 
ATOM     82  C   UNL A   1      47.992  29.808  29.541  1.00  0.00     0.057 A 
ATOM     83  N   UNL A   1      49.387  32.116  28.660  1.00  0.00    -0.264 NA
ATOM     84  C   UNL A   1      47.459  31.111  29.674  1.00  0.00     0.035 A 
ATOM     85  C   UNL A   1      48.166  32.208  29.210  1.00  0.00     0.112 A 
BRANCH  82  86
ATOM     86  C   UNL A   1      47.029  28.717  29.895  1.00  0.00     0.254 C 
ATOM     87  O   UNL A   1      46.036  28.615  29.165  1.00  0.00    -0.269 OA
ATOM     88  N   UNL A   1      47.218  27.795  30.923  1.00  0.00    -0.339 N 
ATOM     89  C   UNL A   1      46.917  26.410  30.551  1.00  0.00     0.120 C 
ATOM     90  C   UNL A   1      47.866  28.052  32.210  1.00  0.00     0.120 C 
ATOM     91  C   UNL A   1      46.470  25.526  31.701  1.00  0.00     0.025 C 
ATOM     92  C   UNL A   1      47.453  27.105  33.329  1.00  0.00     0.025 C 
ATOM     93  C   UNL A   1      47.452  25.636  32.867  1.00  0.00    -0.003 C 
BRANCH  93  94
ATOM     94  C   UNL A   1      47.122  24.733  34.066  1.00  0.00     0.039 C 
BRANCH  94  95
ATOM     95  C   UNL A   1      45.682  24.305  34.203  1.00  0.00    -0.048 A 
ATOM     96  C   UNL A   1      44.725  25.238  34.625  1.00  0.00     0.004 A 
ATOM     97  C   UNL A   1      45.279  22.988  33.945  1.00  0.00     0.004 A 
ATOM     98  C   UNL A   1      43.395  24.861  34.810  1.00  0.00     0.000 A 
ATOM     99  C   UNL A   1      43.946  22.613  34.130  1.00  0.00     0.000 A 
ATOM    100  C   UNL A   1      43.007  23.546  34.568  1.00  0.00     0.000 A 
ENDBRANCH  94  95
ENDBRANCH  93  94
ENDBRANCH  82  86
ENDBRANCH  78  80
ENDBRANCH  77  78
ENDBRANCH  76  77
ENDBRANCH  75  76
ENDBRANCH  74  75
ENDBRANCH  73  74
ENDBRANCH  72  73
ENDBRANCH   1  72
TORSDOF 26
ENDMDL
MODEL 3
REMARK VINA RESULT:      -6.7      6.201     12.326
REMARK SMILES O=C(OCCOCCOCCOCCOC(=O)c1cnccc1C(=O)N1CCC(Cc2ccccc2)CC1)c1ccc(-c2c3nc(c(-c4ccc(S(=O)(=O)[O-])cc4)c4ccc([nH]4)c(-c4ccc(S(=O)(=O)[O-])cc4)c4nc(c(-c5ccc(S(=O)(=O)[O-])cc5)c5ccc2[nH]5)C=C4)C=C3)cc1
REMARK SMILES IDX 9 1 8 2 7 3 6 4 5 5 4 6 3 7 2 8 1 9 39 10 40 11 98 12 41 13
REMARK SMILES IDX 97 14 42 15 43 16 44 17 91 18 45 19 96 20 90 21 92 22 46 23
REMARK SMILES IDX 95 24 89 25 88 26 47 28 77 29 58 30 76 31 59 32 62 33 75 34
REMARK SMILES IDX 93 35 60 36 61 37 74 39 94 40 63 41 48 42 49 43 57 44 50 45
REMARK SMILES IDX 56 46 51 47 52 48 53 49 54 50 55 51 78 52 79 53 87 54 80 55
REMARK SMILES IDX 86 56 81 57 82 58 83 59 84 60 85 61 64 62 65 63 73 64 66 65
REMARK SMILES IDX 72 66 67 67 68 68 69 69 70 70 71 71 10 72 11 73 12 74 13 75
REMARK SMILES IDX 14 76 15 77 16 78 17 79 18 80 19 81 23 82 20 83 22 84 21 85
REMARK SMILES IDX 24 86 25 87 26 88 27 89 38 90 28 91 37 92 29 93 30 94 31 95
REMARK SMILES IDX 32 96 36 97 33 98 35 99 34 100
REMARK H PARENT 92 27 62 38
REMARK Flexibility Score: inf
ROOT
ATOM      1  O   UNL A   1      40.075  26.592  27.840  1.00  0.00    -0.377 OA
ENDROOT
BRANCH   1   2
ATOM      2  C   UNL A   1      39.633  25.237  27.852  1.00  0.00     0.188 C 
BRANCH   2   3
ATOM      3  C   UNL A   1      39.927  24.419  26.592  1.00  0.00     0.188 C 
BRANCH   3   4
ATOM      4  O   UNL A   1      41.150  23.696  26.721  1.00  0.00    -0.376 OA
BRANCH   4   5
ATOM      5  C   UNL A   1      42.245  24.177  25.944  1.00  0.00     0.202 C 
BRANCH   5   6
ATOM      6  C   UNL A   1      43.053  23.073  25.273  1.00  0.00     0.261 C 
BRANCH   6   7
ATOM      7  O   UNL A   1      43.955  22.447  26.192  1.00  0.00    -0.460 OA
BRANCH   7   8
ATOM      8  C   UNL A   1      44.975  23.022  26.874  1.00  0.00     0.338 C 
ATOM      9  O   UNL A   1      46.121  22.743  26.517  1.00  0.00    -0.246 OA
BRANCH   8  10
ATOM     10  C   UNL A   1      44.823  23.971  28.031  1.00  0.00     0.060 A 
ATOM     11  C   UNL A   1      45.279  25.294  28.103  1.00  0.00     0.016 A 
ATOM     12  C   UNL A   1      44.097  23.479  29.130  1.00  0.00     0.016 A 
ATOM     13  C   UNL A   1      45.062  26.091  29.224  1.00  0.00     0.010 A 
ATOM     14  C   UNL A   1      43.890  24.258  30.270  1.00  0.00     0.010 A 
ATOM     15  C   UNL A   1      44.412  25.554  30.327  1.00  0.00    -0.014 A 
BRANCH  15  16
ATOM     16  C   UNL A   1      44.561  26.234  31.623  1.00  0.00     0.031 A 
ATOM     17  C   UNL A   1      44.257  27.703  31.645  1.00  0.00     0.074 A 
ATOM     18  C   UNL A   1      44.882  25.555  32.735  1.00  0.00     0.049 A 
ATOM     19  N   UNL A   1      44.445  28.576  32.592  1.00  0.00    -0.248 NA
ATOM     20  C   UNL A   1      43.652  28.260  30.420  1.00  0.00     0.031 C 
ATOM     21  C   UNL A   1      45.044  24.103  32.823  1.00  0.00     0.029 A 
ATOM     22  N   UNL A   1      45.129  26.003  34.003  1.00  0.00    -0.354 N 
ATOM     23  C   UNL A   1      44.028  29.791  32.061  1.00  0.00     0.074 A 
ATOM     24  C   UNL A   1      43.566  29.545  30.716  1.00  0.00     0.031 C 
ATOM     25  C   UNL A   1      45.385  23.781  34.082  1.00  0.00     0.029 A 
ATOM     26  C   UNL A   1      45.529  25.008  34.863  1.00  0.00     0.049 A 
ATOM     27  H   UNL A   1      45.032  26.944  34.274  1.00  0.00     0.167 HD
ATOM     28  C   UNL A   1      44.057  31.011  32.645  1.00  0.00     0.031 A 
ATOM     29  C   UNL A   1      46.007  25.101  36.119  1.00  0.00     0.031 A 
ATOM     30  C   UNL A   1      44.562  31.215  33.972  1.00  0.00     0.049 A 
ATOM     31  C   UNL A   1      46.126  26.476  36.725  1.00  0.00     0.074 A 
ATOM     32  C   UNL A   1      44.724  32.396  34.668  1.00  0.00     0.029 A 
ATOM     33  N   UNL A   1      44.998  30.188  34.803  1.00  0.00    -0.354 N 
ATOM     34  N   UNL A   1      45.805  27.636  36.197  1.00  0.00    -0.248 NA
ATOM     35  C   UNL A   1      46.676  26.563  38.083  1.00  0.00     0.031 C 
ATOM     36  C   UNL A   1      45.303  32.086  35.903  1.00  0.00     0.029 A 
ATOM     37  C   UNL A   1      45.441  30.707  36.002  1.00  0.00     0.049 A 
ATOM     38  H   UNL A   1      44.992  29.232  34.570  1.00  0.00     0.167 HD
ATOM     39  C   UNL A   1      46.090  28.591  37.165  1.00  0.00     0.074 A 
ATOM     40  C   UNL A   1      46.608  27.868  38.313  1.00  0.00     0.031 C 
ATOM     41  C   UNL A   1      45.936  29.938  37.119  1.00  0.00     0.031 A 
BRANCH  28  42
ATOM     42  C   UNL A   1      43.640  32.181  31.796  1.00  0.00    -0.014 A 
ATOM     43  C   UNL A   1      42.308  32.635  31.763  1.00  0.00     0.010 A 
ATOM     44  C   UNL A   1      44.587  32.783  30.948  1.00  0.00     0.010 A 
ATOM     45  C   UNL A   1      41.918  33.619  30.849  1.00  0.00     0.020 A 
ATOM     46  C   UNL A   1      44.208  33.788  30.054  1.00  0.00     0.020 A 
ATOM     47  C   UNL A   1      42.869  34.179  29.990  1.00  0.00     0.054 A 
BRANCH  47  48
ATOM     48  S   UNL A   1      42.332  35.420  28.781  1.00  0.00     0.124 S 
ATOM     49  O   UNL A   1      40.877  35.292  28.845  1.00  0.00    -0.237 OA
ATOM     50  O   UNL A   1      42.876  36.659  29.328  1.00  0.00    -0.237 OA
ATOM     51  O   UNL A   1      42.941  34.974  27.531  1.00  0.00    -0.744 OA
ENDBRANCH  47  48
ENDBRANCH  28  42
BRANCH  29  52
ATOM     52  C   UNL A   1      46.452  23.872  36.835  1.00  0.00    -0.014 A 
ATOM     53  C   UNL A   1      47.745  23.355  36.656  1.00  0.00     0.010 A 
ATOM     54  C   UNL A   1      45.593  23.246  37.759  1.00  0.00     0.010 A 
ATOM     55  C   UNL A   1      48.174  22.244  37.393  1.00  0.00     0.020 A 
ATOM     56  C   UNL A   1      46.025  22.153  38.517  1.00  0.00     0.020 A 
ATOM     57  C   UNL A   1      47.315  21.657  38.328  1.00  0.00     0.054 A 
BRANCH  57  58
ATOM     58  S   UNL A   1      47.926  20.280  39.342  1.00  0.00     0.124 S 
ATOM     59  O   UNL A   1      47.124  20.415  40.554  1.00  0.00    -0.237 OA
ATOM     60  O   UNL A   1      47.626  19.118  38.508  1.00  0.00    -0.237 OA
ATOM     61  O   UNL A   1      49.349  20.574  39.495  1.00  0.00    -0.744 OA
ENDBRANCH  57  58
ENDBRANCH  29  52
BRANCH  41  62
ATOM     62  C   UNL A   1      46.274  30.714  38.359  1.00  0.00    -0.014 A 
ATOM     63  C   UNL A   1      45.329  30.907  39.378  1.00  0.00     0.010 A 
ATOM     64  C   UNL A   1      47.602  31.142  38.551  1.00  0.00     0.010 A 
ATOM     65  C   UNL A   1      45.707  31.521  40.575  1.00  0.00     0.020 A 
ATOM     66  C   UNL A   1      47.988  31.731  39.753  1.00  0.00     0.020 A 
ATOM     67  C   UNL A   1      47.036  31.921  40.757  1.00  0.00     0.054 A 
BRANCH  67  68
ATOM     68  S   UNL A   1      47.524  32.626  42.354  1.00  0.00     0.124 S 
ATOM     69  O   UNL A   1      47.685  31.430  43.175  1.00  0.00    -0.237 OA
ATOM     70  O   UNL A   1      48.758  33.336  42.027  1.00  0.00    -0.237 OA
ATOM     71  O   UNL A   1      46.396  33.482  42.714  1.00  0.00    -0.744 OA
ENDBRANCH  67  68
ENDBRANCH  41  62
ENDBRANCH  15  16
ENDBRANCH   8  10
ENDBRANCH   7   8
ENDBRANCH   6   7
ENDBRANCH   5   6
ENDBRANCH   4   5
ENDBRANCH   3   4
ENDBRANCH   2   3
ENDBRANCH   1   2
BRANCH   1  72
ATOM     72  C   UNL A   1      40.004  27.316  29.065  1.00  0.00     0.188 C 
BRANCH  72  73
ATOM     73  C   UNL A   1      39.585  28.809  29.069  1.00  0.00     0.188 C 
BRANCH  73  74
ATOM     74  O   UNL A   1      38.857  29.249  30.208  1.00  0.00    -0.376 OA
BRANCH  74  75
ATOM     75  C   UNL A   1      37.497  29.590  29.950  1.00  0.00     0.202 C 
BRANCH  75  76
ATOM     76  C   UNL A   1      36.802  30.245  31.140  1.00  0.00     0.261 C 
BRANCH  76  77
ATOM     77  O   UNL A   1      35.700  31.099  30.770  1.00  0.00    -0.460 OA
BRANCH  77  78
ATOM     78  C   UNL A   1      35.698  32.367  31.218  1.00  0.00     0.340 C 
ATOM     79  O   UNL A   1      36.429  32.842  32.072  1.00  0.00    -0.246 OA
BRANCH  78  80
ATOM     80  C   UNL A   1      34.754  33.168  30.432  1.00  0.00     0.091 A 
ATOM     81  C   UNL A   1      34.249  34.272  31.125  1.00  0.00     0.127 A 
ATOM     82  C   UNL A   1      34.432  33.033  29.079  1.00  0.00     0.057 A 
ATOM     83  N   UNL A   1      33.508  35.262  30.570  1.00  0.00    -0.264 NA
ATOM     84  C   UNL A   1      33.642  34.053  28.503  1.00  0.00     0.035 A 
ATOM     85  C   UNL A   1      33.230  35.135  29.263  1.00  0.00     0.112 A 
BRANCH  82  86
ATOM     86  C   UNL A   1      34.969  32.046  28.088  1.00  0.00     0.254 C 
ATOM     87  O   UNL A   1      36.151  32.201  27.757  1.00  0.00    -0.269 OA
ATOM     88  N   UNL A   1      34.258  30.956  27.589  1.00  0.00    -0.339 N 
ATOM     89  C   UNL A   1      35.019  29.704  27.564  1.00  0.00     0.120 C 
ATOM     90  C   UNL A   1      32.823  30.912  27.306  1.00  0.00     0.120 C 
ATOM     91  C   UNL A   1      34.589  28.721  26.489  1.00  0.00     0.025 C 
ATOM     92  C   UNL A   1      32.410  29.868  26.277  1.00  0.00     0.025 C 
ATOM     93  C   UNL A   1      33.076  28.506  26.542  1.00  0.00    -0.003 C 
BRANCH  93  94
ATOM     94  C   UNL A   1      32.543  27.480  25.529  1.00  0.00     0.039 C 
BRANCH  94  95
ATOM     95  C   UNL A   1      32.874  26.034  25.805  1.00  0.00    -0.048 A 
ATOM     96  C   UNL A   1      31.935  25.228  26.465  1.00  0.00     0.004 A 
ATOM     97  C   UNL A   1      34.108  25.481  25.442  1.00  0.00     0.004 A 
ATOM     98  C   UNL A   1      32.230  23.903  26.779  1.00  0.00     0.000 A 
ATOM     99  C   UNL A   1      34.401  24.151  25.756  1.00  0.00     0.000 A 
ATOM    100  C   UNL A   1      33.466  23.366  26.429  1.00  0.00     0.000 A 
ENDBRANCH  94  95
ENDBRANCH  93  94
ENDBRANCH  82  86
ENDBRANCH  78  80
ENDBRANCH  77  78
ENDBRANCH  76  77
ENDBRANCH  75  76
ENDBRANCH  74  75
ENDBRANCH  73  74
ENDBRANCH  72  73
ENDBRANCH   1  72
TORSDOF 26
ENDMDL
