MODEL 1
REMARK VINA RESULT:      -9.8      0.000      0.000
REMARK SMILES NS(=O)(=O)c1ccc(-n2nc(C(=O)OCCOCCOCCOCCOC(=O)c3ccc(-c4c5nc(c(-c6ccc(S(=O)(=O)[O-])cc6)c6ccc([nH]6)c(-c6ccc(S(=O)(=O)[O-])cc6)c6nc(c(-c7ccc(S(=O)(=O)[O-])cc7)c7ccc4[nH]7)C=C6)C=C5)cc3)cc2-c2cc3ccccc3s2)cc1
REMARK SMILES IDX 20 1 19 2 18 3 17 4 16 5 15 6 14 7 12 8 13 9 11 10 9 11
REMARK SMILES IDX 10 12 90 13 89 14 8 15 5 16 6 17 101 18 7 19 100 20 2 21
REMARK SMILES IDX 3 22 4 23 1 24 91 27 92 28 99 29 93 30 98 31 94 32 97 33
REMARK SMILES IDX 95 34 96 35 21 36 22 37 23 38 24 39 25 40 26 41 27 42 28 43
REMARK SMILES IDX 29 44 30 45 88 46 31 47 87 48 32 49 33 50 34 51 81 52 35 53
REMARK SMILES IDX 86 54 80 55 82 56 36 57 85 58 79 59 78 60 37 62 67 63 48 64
REMARK SMILES IDX 66 65 49 66 52 67 65 68 83 69 50 70 51 71 64 73 84 74 53 75
REMARK SMILES IDX 38 76 39 77 47 78 40 79 46 80 41 81 42 82 43 83 44 84 45 85
REMARK SMILES IDX 68 86 69 87 77 88 70 89 76 90 71 91 72 92 73 93 74 94 75 95
REMARK SMILES IDX 54 96 55 97 63 98 56 99 62 100 57 101 58 102 59 103 60 104
REMARK SMILES IDX 61 105
REMARK H PARENT 1 25 1 26 82 61 52 72
REMARK Flexibility Score: inf
ROOT
ATOM      1  O   UNL A   1      32.637  22.290  26.742  1.00  0.00    -0.377 OA
ENDROOT
BRANCH   1   2
ATOM      2  C   UNL A   1      31.500  23.046  26.359  1.00  0.00     0.188 C 
BRANCH   2   3
ATOM      3  C   UNL A   1      31.595  24.574  26.597  1.00  0.00     0.188 C 
BRANCH   3   4
ATOM      4  O   UNL A   1      32.571  25.411  25.974  1.00  0.00    -0.376 OA
BRANCH   4   5
ATOM      5  C   UNL A   1      32.280  26.735  25.559  1.00  0.00     0.202 C 
BRANCH   5   6
ATOM      6  C   UNL A   1      32.175  27.821  26.631  1.00  0.00     0.261 C 
BRANCH   6   7
ATOM      7  O   UNL A   1      33.418  28.143  27.247  1.00  0.00    -0.458 OA
BRANCH   7   8
ATOM      8  C   UNL A   1      34.152  29.117  26.629  1.00  0.00     0.358 C 
ATOM      9  O   UNL A   1      34.319  29.207  25.419  1.00  0.00    -0.244 OA
BRANCH   8  10
ATOM     10  C   UNL A   1      34.695  30.051  27.621  1.00  0.00     0.171 A 
ATOM     11  N   UNL A   1      34.938  31.760  28.884  1.00  0.00    -0.231 N 
ATOM     12  N   UNL A   1      33.993  31.008  28.253  1.00  0.00    -0.160 NA
ATOM     13  C   UNL A   1      36.208  31.307  28.612  1.00  0.00     0.085 A 
ATOM     14  C   UNL A   1      36.022  30.047  28.082  1.00  0.00     0.068 A 
BRANCH  11  15
ATOM     15  C   UNL A   1      34.527  32.853  29.665  1.00  0.00     0.065 A 
ATOM     16  C   UNL A   1      33.886  35.089  31.165  1.00  0.00     0.082 A 
ATOM     17  C   UNL A   1      34.196  33.883  31.809  1.00  0.00     0.024 A 
ATOM     18  C   UNL A   1      33.871  35.179  29.770  1.00  0.00     0.024 A 
ATOM     19  C   UNL A   1      34.501  32.750  31.055  1.00  0.00     0.030 A 
ATOM     20  C   UNL A   1      34.227  34.063  29.015  1.00  0.00     0.030 A 
BRANCH  16  21
ATOM     21  S   UNL A   1      33.488  36.509  32.139  1.00  0.00     0.238 S 
ATOM     22  O   UNL A   1      32.882  37.511  31.291  1.00  0.00    -0.207 OA
ATOM     23  O   UNL A   1      34.577  36.807  33.035  1.00  0.00    -0.207 OA
BRANCH  21  24
ATOM     24  N   UNL A   1      32.246  35.922  33.106  1.00  0.00    -0.225 NA
ATOM     25  H   UNL A   1      31.352  36.060  32.634  1.00  0.00     0.137 HD
ATOM     26  H   UNL A   1      32.241  36.423  33.995  1.00  0.00     0.137 HD
ENDBRANCH  21  24
ENDBRANCH  16  21
ENDBRANCH  11  15
BRANCH  13  27
ATOM     27  C   UNL A   1      37.492  31.953  28.677  1.00  0.00     0.054 A 
ATOM     28  C   UNL A   1      37.737  33.280  29.021  1.00  0.00     0.031 A 
ATOM     29  S   UNL A   1      38.711  31.056  29.568  1.00  0.00    -0.134 S 
ATOM     30  C   UNL A   1      37.932  33.307  30.468  1.00  0.00    -0.007 A 
ATOM     31  C   UNL A   1      38.277  32.033  30.942  1.00  0.00     0.035 A 
ATOM     32  C   UNL A   1      37.674  34.319  31.418  1.00  0.00     0.009 A 
ATOM     33  C   UNL A   1      38.205  31.687  32.300  1.00  0.00     0.019 A 
ATOM     34  C   UNL A   1      37.576  33.979  32.774  1.00  0.00     0.001 A 
ATOM     35  C   UNL A   1      37.791  32.672  33.200  1.00  0.00     0.001 A 
ENDBRANCH  13  27
ENDBRANCH   8  10
ENDBRANCH   7   8
ENDBRANCH   6   7
ENDBRANCH   5   6
ENDBRANCH   4   5
ENDBRANCH   3   4
ENDBRANCH   2   3
ENDBRANCH   1   2
BRANCH   1  36
ATOM     36  C   UNL A   1      32.980  21.243  25.835  1.00  0.00     0.188 C 
BRANCH  36  37
ATOM     37  C   UNL A   1      34.490  21.051  25.562  1.00  0.00     0.188 C 
BRANCH  37  38
ATOM     38  O   UNL A   1      35.309  22.077  26.117  1.00  0.00    -0.376 OA
BRANCH  38  39
ATOM     39  C   UNL A   1      36.343  22.662  25.343  1.00  0.00     0.202 C 
BRANCH  39  40
ATOM     40  C   UNL A   1      37.731  22.084  25.601  1.00  0.00     0.261 C 
BRANCH  40  41
ATOM     41  O   UNL A   1      38.522  22.893  26.453  1.00  0.00    -0.460 OA
BRANCH  41  42
ATOM     42  C   UNL A   1      39.756  22.426  26.729  1.00  0.00     0.338 C 
ATOM     43  O   UNL A   1      40.050  21.378  27.273  1.00  0.00    -0.246 OA
BRANCH  42  44
ATOM     44  C   UNL A   1      40.722  23.461  26.361  1.00  0.00     0.060 A 
ATOM     45  C   UNL A   1      41.962  23.005  25.913  1.00  0.00     0.016 A 
ATOM     46  C   UNL A   1      40.516  24.762  26.840  1.00  0.00     0.016 A 
ATOM     47  C   UNL A   1      43.065  23.754  26.233  1.00  0.00     0.010 A 
ATOM     48  C   UNL A   1      41.617  25.487  27.197  1.00  0.00     0.010 A 
ATOM     49  C   UNL A   1      42.869  24.918  26.977  1.00  0.00    -0.014 A 
BRANCH  49  50
ATOM     50  C   UNL A   1      44.018  25.545  27.574  1.00  0.00     0.031 A 
ATOM     51  C   UNL A   1      44.119  25.328  29.021  1.00  0.00     0.074 A 
ATOM     52  C   UNL A   1      44.961  26.141  26.826  1.00  0.00     0.049 A 
ATOM     53  N   UNL A   1      43.895  26.186  29.955  1.00  0.00    -0.248 NA
ATOM     54  C   UNL A   1      44.299  23.944  29.486  1.00  0.00     0.031 C 
ATOM     55  C   UNL A   1      45.102  26.130  25.367  1.00  0.00     0.029 A 
ATOM     56  N   UNL A   1      46.081  26.778  27.245  1.00  0.00    -0.354 N 
ATOM     57  C   UNL A   1      44.132  25.498  31.134  1.00  0.00     0.074 A 
ATOM     58  C   UNL A   1      44.124  24.097  30.797  1.00  0.00     0.031 C 
ATOM     59  C   UNL A   1      46.355  26.528  25.048  1.00  0.00     0.029 A 
ATOM     60  C   UNL A   1      47.050  26.921  26.265  1.00  0.00     0.049 A 
ATOM     61  H   UNL A   1      46.196  27.110  28.166  1.00  0.00     0.167 HD
ATOM     62  C   UNL A   1      44.619  26.124  32.239  1.00  0.00     0.031 A 
ATOM     63  C   UNL A   1      48.349  27.247  26.473  1.00  0.00     0.031 A 
ATOM     64  C   UNL A   1      44.544  27.558  32.123  1.00  0.00     0.049 A 
ATOM     65  C   UNL A   1      48.446  27.860  27.825  1.00  0.00     0.074 A 
ATOM     66  C   UNL A   1      43.518  28.460  31.922  1.00  0.00     0.029 A 
ATOM     67  N   UNL A   1      45.708  28.223  31.809  1.00  0.00    -0.354 N 
ATOM     68  N   UNL A   1      47.934  29.021  28.122  1.00  0.00    -0.248 NA
ATOM     69  C   UNL A   1      48.717  27.000  28.969  1.00  0.00     0.031 C 
ATOM     70  C   UNL A   1      44.068  29.472  31.084  1.00  0.00     0.029 A 
ATOM     71  C   UNL A   1      45.412  29.165  30.856  1.00  0.00     0.049 A 
ATOM     72  H   UNL A   1      46.597  28.053  32.200  1.00  0.00     0.167 HD
ATOM     73  C   UNL A   1      47.417  28.872  29.403  1.00  0.00     0.074 A 
ATOM     74  C   UNL A   1      48.039  27.655  29.918  1.00  0.00     0.031 C 
ATOM     75  C   UNL A   1      46.322  29.584  29.808  1.00  0.00     0.031 A 
BRANCH  62  76
ATOM     76  C   UNL A   1      45.532  25.438  33.219  1.00  0.00    -0.014 A 
ATOM     77  C   UNL A   1      46.885  25.815  33.267  1.00  0.00     0.010 A 
ATOM     78  C   UNL A   1      45.165  24.262  33.911  1.00  0.00     0.010 A 
ATOM     79  C   UNL A   1      47.830  25.020  33.928  1.00  0.00     0.020 A 
ATOM     80  C   UNL A   1      46.087  23.495  34.616  1.00  0.00     0.020 A 
ATOM     81  C   UNL A   1      47.423  23.858  34.586  1.00  0.00     0.054 A 
BRANCH  81  82
ATOM     82  S   UNL A   1      48.661  22.774  35.333  1.00  0.00     0.124 S 
ATOM     83  O   UNL A   1      49.726  22.811  34.335  1.00  0.00    -0.237 OA
ATOM     84  O   UNL A   1      48.945  23.452  36.594  1.00  0.00    -0.237 OA
ATOM     85  O   UNL A   1      47.962  21.497  35.459  1.00  0.00    -0.744 OA
ENDBRANCH  81  82
ENDBRANCH  62  76
BRANCH  63  86
ATOM     86  C   UNL A   1      49.534  26.810  25.695  1.00  0.00    -0.014 A 
ATOM     87  C   UNL A   1      50.022  27.586  24.629  1.00  0.00     0.010 A 
ATOM     88  C   UNL A   1      50.344  25.755  26.162  1.00  0.00     0.010 A 
ATOM     89  C   UNL A   1      51.301  27.356  24.096  1.00  0.00     0.020 A 
ATOM     90  C   UNL A   1      51.612  25.509  25.626  1.00  0.00     0.020 A 
ATOM     91  C   UNL A   1      52.097  26.330  24.613  1.00  0.00     0.054 A 
BRANCH  91  92
ATOM     92  S   UNL A   1      53.816  26.162  24.054  1.00  0.00     0.124 S 
ATOM     93  O   UNL A   1      54.459  27.317  24.672  1.00  0.00    -0.237 OA
ATOM     94  O   UNL A   1      54.198  24.859  24.592  1.00  0.00    -0.237 OA
ATOM     95  O   UNL A   1      53.709  26.216  22.596  1.00  0.00    -0.744 OA
ENDBRANCH  91  92
ENDBRANCH  63  86
BRANCH  75  96
ATOM     96  C   UNL A   1      45.872  30.743  28.943  1.00  0.00    -0.014 A 
ATOM     97  C   UNL A   1      46.321  32.067  29.126  1.00  0.00     0.010 A 
ATOM     98  C   UNL A   1      45.065  30.461  27.828  1.00  0.00     0.010 A 
ATOM     99  C   UNL A   1      45.934  33.086  28.245  1.00  0.00     0.020 A 
ATOM    100  C   UNL A   1      44.693  31.469  26.933  1.00  0.00     0.020 A 
ATOM    101  C   UNL A   1      45.117  32.780  27.154  1.00  0.00     0.054 A 
BRANCH 101 102
ATOM    102  S   UNL A   1      44.646  34.099  26.001  1.00  0.00     0.124 S 
ATOM    103  O   UNL A   1      45.903  34.382  25.314  1.00  0.00    -0.237 OA
ATOM    104  O   UNL A   1      43.612  33.465  25.186  1.00  0.00    -0.237 OA
ATOM    105  O   UNL A   1      44.165  35.169  26.875  1.00  0.00    -0.744 OA
ENDBRANCH 101 102
ENDBRANCH  75  96
ENDBRANCH  49  50
ENDBRANCH  42  44
ENDBRANCH  41  42
ENDBRANCH  40  41
ENDBRANCH  39  40
ENDBRANCH  38  39
ENDBRANCH  37  38
ENDBRANCH  36  37
ENDBRANCH   1  36
TORSDOF 27
ENDMDL
MODEL 2
REMARK VINA RESULT:      -9.8      2.368      7.025
REMARK SMILES NS(=O)(=O)c1ccc(-n2nc(C(=O)OCCOCCOCCOCCOC(=O)c3ccc(-c4c5nc(c(-c6ccc(S(=O)(=O)[O-])cc6)c6ccc([nH]6)c(-c6ccc(S(=O)(=O)[O-])cc6)c6nc(c(-c7ccc(S(=O)(=O)[O-])cc7)c7ccc4[nH]7)C=C6)C=C5)cc3)cc2-c2cc3ccccc3s2)cc1
REMARK SMILES IDX 20 1 19 2 18 3 17 4 16 5 15 6 14 7 12 8 13 9 11 10 9 11
REMARK SMILES IDX 10 12 90 13 89 14 8 15 5 16 6 17 101 18 7 19 100 20 2 21
REMARK SMILES IDX 3 22 4 23 1 24 91 27 92 28 99 29 93 30 98 31 94 32 97 33
REMARK SMILES IDX 95 34 96 35 21 36 22 37 23 38 24 39 25 40 26 41 27 42 28 43
REMARK SMILES IDX 29 44 30 45 88 46 31 47 87 48 32 49 33 50 34 51 81 52 35 53
REMARK SMILES IDX 86 54 80 55 82 56 36 57 85 58 79 59 78 60 37 62 67 63 48 64
REMARK SMILES IDX 66 65 49 66 52 67 65 68 83 69 50 70 51 71 64 73 84 74 53 75
REMARK SMILES IDX 38 76 39 77 47 78 40 79 46 80 41 81 42 82 43 83 44 84 45 85
REMARK SMILES IDX 68 86 69 87 77 88 70 89 76 90 71 91 72 92 73 93 74 94 75 95
REMARK SMILES IDX 54 96 55 97 63 98 56 99 62 100 57 101 58 102 59 103 60 104
REMARK SMILES IDX 61 105
REMARK H PARENT 1 25 1 26 82 61 52 72
REMARK Flexibility Score: inf
ROOT
ATOM      1  O   UNL A   1      33.509  24.780  25.888  1.00  0.00    -0.377 OA
ENDROOT
BRANCH   1   2
ATOM      2  C   UNL A   1      32.276  24.920  25.202  1.00  0.00     0.188 C 
BRANCH   2   3
ATOM      3  C   UNL A   1      31.131  25.590  26.003  1.00  0.00     0.188 C 
BRANCH   3   4
ATOM      4  O   UNL A   1      30.823  26.983  25.925  1.00  0.00    -0.376 OA
BRANCH   4   5
ATOM      5  C   UNL A   1      30.832  27.693  24.698  1.00  0.00     0.202 C 
BRANCH   5   6
ATOM      6  C   UNL A   1      31.509  29.064  24.663  1.00  0.00     0.261 C 
BRANCH   6   7
ATOM      7  O   UNL A   1      32.126  29.433  25.891  1.00  0.00    -0.458 OA
BRANCH   7   8
ATOM      8  C   UNL A   1      33.450  29.109  26.012  1.00  0.00     0.358 C 
ATOM      9  O   UNL A   1      34.031  28.274  25.330  1.00  0.00    -0.244 OA
BRANCH   8  10
ATOM     10  C   UNL A   1      34.078  29.918  27.062  1.00  0.00     0.171 A 
ATOM     11  N   UNL A   1      34.566  31.557  28.346  1.00  0.00    -0.231 N 
ATOM     12  N   UNL A   1      33.551  31.028  27.607  1.00  0.00    -0.160 NA
ATOM     13  C   UNL A   1      35.718  30.815  28.226  1.00  0.00     0.085 A 
ATOM     14  C   UNL A   1      35.305  29.618  27.676  1.00  0.00     0.068 A 
BRANCH  11  15
ATOM     15  C   UNL A   1      34.334  32.736  29.073  1.00  0.00     0.065 A 
ATOM     16  C   UNL A   1      33.732  34.968  30.595  1.00  0.00     0.082 A 
ATOM     17  C   UNL A   1      33.419  34.951  29.229  1.00  0.00     0.024 A 
ATOM     18  C   UNL A   1      34.367  33.882  31.204  1.00  0.00     0.024 A 
ATOM     19  C   UNL A   1      33.739  33.834  28.456  1.00  0.00     0.030 A 
ATOM     20  C   UNL A   1      34.640  32.745  30.446  1.00  0.00     0.030 A 
BRANCH  16  21
ATOM     21  S   UNL A   1      33.332  36.399  31.553  1.00  0.00     0.238 S 
ATOM     22  O   UNL A   1      34.368  36.615  32.538  1.00  0.00    -0.207 OA
ATOM     23  O   UNL A   1      31.930  36.382  31.892  1.00  0.00    -0.207 OA
BRANCH  21  24
ATOM     24  N   UNL A   1      33.514  37.628  30.423  1.00  0.00    -0.225 NA
ATOM     25  H   UNL A   1      32.893  38.403  30.659  1.00  0.00     0.137 HD
ATOM     26  H   UNL A   1      33.278  37.275  29.495  1.00  0.00     0.137 HD
ENDBRANCH  21  24
ENDBRANCH  16  21
ENDBRANCH  11  15
BRANCH  13  27
ATOM     27  C   UNL A   1      37.102  31.146  28.442  1.00  0.00     0.054 A 
ATOM     28  C   UNL A   1      37.615  31.932  29.471  1.00  0.00     0.031 A 
ATOM     29  S   UNL A   1      38.195  29.773  28.376  1.00  0.00    -0.134 S 
ATOM     30  C   UNL A   1      37.921  31.027  30.575  1.00  0.00    -0.007 A 
ATOM     31  C   UNL A   1      38.056  29.710  30.111  1.00  0.00     0.035 A 
ATOM     32  C   UNL A   1      37.928  31.240  31.972  1.00  0.00     0.009 A 
ATOM     33  C   UNL A   1      38.023  28.599  30.967  1.00  0.00     0.019 A 
ATOM     34  C   UNL A   1      37.870  30.137  32.834  1.00  0.00     0.001 A 
ATOM     35  C   UNL A   1      37.870  28.838  32.335  1.00  0.00     0.001 A 
ENDBRANCH  13  27
ENDBRANCH   8  10
ENDBRANCH   7   8
ENDBRANCH   6   7
ENDBRANCH   5   6
ENDBRANCH   4   5
ENDBRANCH   3   4
ENDBRANCH   2   3
ENDBRANCH   1   2
BRANCH   1  36
ATOM     36  C   UNL A   1      33.975  23.434  25.990  1.00  0.00     0.188 C 
BRANCH  36  37
ATOM     37  C   UNL A   1      35.167  23.060  25.078  1.00  0.00     0.188 C 
BRANCH  37  38
ATOM     38  O   UNL A   1      36.188  22.319  25.742  1.00  0.00    -0.376 OA
BRANCH  38  39
ATOM     39  C   UNL A   1      37.466  22.896  25.952  1.00  0.00     0.202 C 
BRANCH  39  40
ATOM     40  C   UNL A   1      38.628  21.912  25.854  1.00  0.00     0.261 C 
BRANCH  40  41
ATOM     41  O   UNL A   1      39.626  22.128  26.837  1.00  0.00    -0.460 OA
BRANCH  41  42
ATOM     42  C   UNL A   1      40.788  22.645  26.391  1.00  0.00     0.338 C 
ATOM     43  O   UNL A   1      41.634  22.094  25.712  1.00  0.00    -0.246 OA
BRANCH  42  44
ATOM     44  C   UNL A   1      40.935  23.983  26.963  1.00  0.00     0.060 A 
ATOM     45  C   UNL A   1      40.963  25.036  26.048  1.00  0.00     0.016 A 
ATOM     46  C   UNL A   1      41.427  24.096  28.271  1.00  0.00     0.016 A 
ATOM     47  C   UNL A   1      41.764  26.109  26.344  1.00  0.00     0.010 A 
ATOM     48  C   UNL A   1      42.258  25.144  28.547  1.00  0.00     0.010 A 
ATOM     49  C   UNL A   1      42.488  26.074  27.536  1.00  0.00    -0.014 A 
BRANCH  49  50
ATOM     50  C   UNL A   1      43.547  27.030  27.717  1.00  0.00     0.031 A 
ATOM     51  C   UNL A   1      44.797  26.654  27.048  1.00  0.00     0.074 A 
ATOM     52  C   UNL A   1      43.333  28.209  28.325  1.00  0.00     0.049 A 
ATOM     53  N   UNL A   1      45.879  26.227  27.602  1.00  0.00    -0.248 NA
ATOM     54  C   UNL A   1      44.776  26.555  25.581  1.00  0.00     0.031 C 
ATOM     55  C   UNL A   1      42.056  28.798  28.738  1.00  0.00     0.029 A 
ATOM     56  N   UNL A   1      44.229  29.195  28.575  1.00  0.00    -0.354 N 
ATOM     57  C   UNL A   1      46.759  26.021  26.552  1.00  0.00     0.074 A 
ATOM     58  C   UNL A   1      45.961  25.994  25.352  1.00  0.00     0.031 C 
ATOM     59  C   UNL A   1      42.239  30.118  28.968  1.00  0.00     0.029 A 
ATOM     60  C   UNL A   1      43.654  30.430  28.826  1.00  0.00     0.049 A 
ATOM     61  H   UNL A   1      45.203  29.046  28.578  1.00  0.00     0.167 HD
ATOM     62  C   UNL A   1      48.099  26.193  26.701  1.00  0.00     0.031 A 
ATOM     63  C   UNL A   1      44.297  31.623  28.818  1.00  0.00     0.031 A 
ATOM     64  C   UNL A   1      48.480  26.287  28.087  1.00  0.00     0.049 A 
ATOM     65  C   UNL A   1      45.753  31.347  28.953  1.00  0.00     0.074 A 
ATOM     66  C   UNL A   1      48.346  25.461  29.185  1.00  0.00     0.029 A 
ATOM     67  N   UNL A   1      48.739  27.546  28.582  1.00  0.00    -0.354 N 
ATOM     68  N   UNL A   1      46.293  30.874  30.041  1.00  0.00    -0.248 NA
ATOM     69  C   UNL A   1      46.550  31.169  27.746  1.00  0.00     0.031 C 
ATOM     70  C   UNL A   1      48.094  26.333  30.282  1.00  0.00     0.029 A 
ATOM     71  C   UNL A   1      48.136  27.648  29.811  1.00  0.00     0.049 A 
ATOM     72  H   UNL A   1      49.264  28.249  28.133  1.00  0.00     0.167 HD
ATOM     73  C   UNL A   1      47.255  29.972  29.604  1.00  0.00     0.074 A 
ATOM     74  C   UNL A   1      47.454  30.290  28.193  1.00  0.00     0.031 C 
ATOM     75  C   UNL A   1      47.581  28.874  30.351  1.00  0.00     0.031 A 
BRANCH  62  76
ATOM     76  C   UNL A   1      48.979  26.688  25.585  1.00  0.00    -0.014 A 
ATOM     77  C   UNL A   1      48.383  27.314  24.476  1.00  0.00     0.010 A 
ATOM     78  C   UNL A   1      50.340  26.331  25.468  1.00  0.00     0.010 A 
ATOM     79  C   UNL A   1      49.101  27.517  23.292  1.00  0.00     0.020 A 
ATOM     80  C   UNL A   1      51.079  26.579  24.315  1.00  0.00     0.020 A 
ATOM     81  C   UNL A   1      50.442  27.135  23.218  1.00  0.00     0.054 A 
BRANCH  81  82
ATOM     82  S   UNL A   1      51.331  27.288  21.653  1.00  0.00     0.124 S 
ATOM     83  O   UNL A   1      51.575  28.726  21.592  1.00  0.00    -0.237 OA
ATOM     84  O   UNL A   1      52.505  26.451  21.880  1.00  0.00    -0.237 OA
ATOM     85  O   UNL A   1      50.381  26.771  20.670  1.00  0.00    -0.744 OA
ENDBRANCH  81  82
ENDBRANCH  62  76
BRANCH  63  86
ATOM     86  C   UNL A   1      43.757  32.947  28.426  1.00  0.00    -0.014 A 
ATOM     87  C   UNL A   1      43.221  33.820  29.388  1.00  0.00     0.010 A 
ATOM     88  C   UNL A   1      44.001  33.463  27.136  1.00  0.00     0.010 A 
ATOM     89  C   UNL A   1      42.999  35.175  29.090  1.00  0.00     0.020 A 
ATOM     90  C   UNL A   1      43.768  34.807  26.826  1.00  0.00     0.020 A 
ATOM     91  C   UNL A   1      43.295  35.664  27.814  1.00  0.00     0.054 A 
BRANCH  91  92
ATOM     92  S   UNL A   1      43.189  37.448  27.493  1.00  0.00     0.124 S 
ATOM     93  O   UNL A   1      43.116  38.003  28.841  1.00  0.00    -0.237 OA
ATOM     94  O   UNL A   1      44.427  37.712  26.764  1.00  0.00    -0.237 OA
ATOM     95  O   UNL A   1      41.968  37.582  26.698  1.00  0.00    -0.744 OA
ENDBRANCH  91  92
ENDBRANCH  63  86
BRANCH  75  96
ATOM     96  C   UNL A   1      47.093  28.823  31.784  1.00  0.00    -0.014 A 
ATOM     97  C   UNL A   1      45.774  28.478  32.142  1.00  0.00     0.010 A 
ATOM     98  C   UNL A   1      48.036  29.007  32.810  1.00  0.00     0.010 A 
ATOM     99  C   UNL A   1      45.399  28.368  33.488  1.00  0.00     0.020 A 
ATOM    100  C   UNL A   1      47.673  28.877  34.155  1.00  0.00     0.020 A 
ATOM    101  C   UNL A   1      46.352  28.573  34.488  1.00  0.00     0.054 A 
BRANCH 101 102
ATOM    102  S   UNL A   1      45.867  28.398  36.226  1.00  0.00     0.124 S 
ATOM    103  O   UNL A   1      45.134  29.636  36.477  1.00  0.00    -0.237 OA
ATOM    104  O   UNL A   1      45.060  27.180  36.219  1.00  0.00    -0.237 OA
ATOM    105  O   UNL A   1      47.142  28.281  36.933  1.00  0.00    -0.744 OA
ENDBRANCH 101 102
ENDBRANCH  75  96
ENDBRANCH  49  50
ENDBRANCH  42  44
ENDBRANCH  41  42
ENDBRANCH  40  41
ENDBRANCH  39  40
ENDBRANCH  38  39
ENDBRANCH  37  38
ENDBRANCH  36  37
ENDBRANCH   1  36
TORSDOF 27
ENDMDL
MODEL 3
REMARK VINA RESULT:      -9.5      4.534     10.675
REMARK SMILES NS(=O)(=O)c1ccc(-n2nc(C(=O)OCCOCCOCCOCCOC(=O)c3ccc(-c4c5nc(c(-c6ccc(S(=O)(=O)[O-])cc6)c6ccc([nH]6)c(-c6ccc(S(=O)(=O)[O-])cc6)c6nc(c(-c7ccc(S(=O)(=O)[O-])cc7)c7ccc4[nH]7)C=C6)C=C5)cc3)cc2-c2cc3ccccc3s2)cc1
REMARK SMILES IDX 20 1 19 2 18 3 17 4 16 5 15 6 14 7 12 8 13 9 11 10 9 11
REMARK SMILES IDX 10 12 90 13 89 14 8 15 5 16 6 17 101 18 7 19 100 20 2 21
REMARK SMILES IDX 3 22 4 23 1 24 91 27 92 28 99 29 93 30 98 31 94 32 97 33
REMARK SMILES IDX 95 34 96 35 21 36 22 37 23 38 24 39 25 40 26 41 27 42 28 43
REMARK SMILES IDX 29 44 30 45 88 46 31 47 87 48 32 49 33 50 34 51 81 52 35 53
REMARK SMILES IDX 86 54 80 55 82 56 36 57 85 58 79 59 78 60 37 62 67 63 48 64
REMARK SMILES IDX 66 65 49 66 52 67 65 68 83 69 50 70 51 71 64 73 84 74 53 75
REMARK SMILES IDX 38 76 39 77 47 78 40 79 46 80 41 81 42 82 43 83 44 84 45 85
REMARK SMILES IDX 68 86 69 87 77 88 70 89 76 90 71 91 72 92 73 93 74 94 75 95
REMARK SMILES IDX 54 96 55 97 63 98 56 99 62 100 57 101 58 102 59 103 60 104
REMARK SMILES IDX 61 105
REMARK H PARENT 1 25 1 26 82 61 52 72
REMARK Flexibility Score: inf
ROOT
ATOM      1  O   UNL A   1      33.329  27.478  24.122  1.00  0.00    -0.377 OA
ENDROOT
BRANCH   1   2
ATOM      2  C   UNL A   1      33.578  26.104  24.370  1.00  0.00     0.188 C 
BRANCH   2   3
ATOM      3  C   UNL A   1      33.744  25.212  23.115  1.00  0.00     0.188 C 
BRANCH   3   4
ATOM      4  O   UNL A   1      33.366  23.835  23.068  1.00  0.00    -0.376 OA
BRANCH   4   5
ATOM      5  C   UNL A   1      34.225  22.798  23.510  1.00  0.00     0.202 C 
BRANCH   5   6
ATOM      6  C   UNL A   1      35.719  23.100  23.633  1.00  0.00     0.261 C 
BRANCH   6   7
ATOM      7  O   UNL A   1      36.071  23.788  24.828  1.00  0.00    -0.458 OA
BRANCH   7   8
ATOM      8  C   UNL A   1      36.521  23.002  25.854  1.00  0.00     0.358 C 
ATOM      9  O   UNL A   1      35.808  22.307  26.568  1.00  0.00    -0.244 OA
BRANCH   8  10
ATOM     10  C   UNL A   1      37.980  23.096  25.965  1.00  0.00     0.171 A 
ATOM     11  N   UNL A   1      40.047  22.562  26.094  1.00  0.00    -0.231 N 
ATOM     12  N   UNL A   1      38.850  22.139  25.599  1.00  0.00    -0.160 NA
ATOM     13  C   UNL A   1      39.916  23.738  26.795  1.00  0.00     0.085 A 
ATOM     14  C   UNL A   1      38.676  24.223  26.432  1.00  0.00     0.068 A 
BRANCH  11  15
ATOM     15  C   UNL A   1      41.191  21.780  25.865  1.00  0.00     0.065 A 
ATOM     16  C   UNL A   1      43.466  20.225  25.604  1.00  0.00     0.082 A 
ATOM     17  C   UNL A   1      43.526  21.598  25.331  1.00  0.00     0.024 A 
ATOM     18  C   UNL A   1      42.267  19.616  25.985  1.00  0.00     0.024 A 
ATOM     19  C   UNL A   1      42.376  22.381  25.444  1.00  0.00     0.030 A 
ATOM     20  C   UNL A   1      41.130  20.405  26.150  1.00  0.00     0.030 A 
BRANCH  16  21
ATOM     21  S   UNL A   1      44.930  19.249  25.440  1.00  0.00     0.238 S 
ATOM     22  O   UNL A   1      44.736  17.985  26.115  1.00  0.00    -0.207 OA
ATOM     23  O   UNL A   1      46.093  20.074  25.658  1.00  0.00    -0.207 OA
BRANCH  21  24
ATOM     24  N   UNL A   1      44.922  18.894  23.799  1.00  0.00    -0.225 NA
ATOM     25  H   UNL A   1      44.343  19.575  23.306  1.00  0.00     0.137 HD
ATOM     26  H   UNL A   1      44.542  17.958  23.655  1.00  0.00     0.137 HD
ENDBRANCH  21  24
ENDBRANCH  16  21
ENDBRANCH  11  15
BRANCH  13  27
ATOM     27  C   UNL A   1      40.735  24.348  27.809  1.00  0.00     0.054 A 
ATOM     28  C   UNL A   1      41.956  24.988  27.615  1.00  0.00     0.031 A 
ATOM     29  S   UNL A   1      39.865  25.422  28.894  1.00  0.00    -0.134 S 
ATOM     30  C   UNL A   1      41.656  26.395  27.367  1.00  0.00    -0.007 A 
ATOM     31  C   UNL A   1      40.382  26.721  27.855  1.00  0.00     0.035 A 
ATOM     32  C   UNL A   1      42.341  27.368  26.606  1.00  0.00     0.009 A 
ATOM     33  C   UNL A   1      39.702  27.888  27.475  1.00  0.00     0.019 A 
ATOM     34  C   UNL A   1      41.663  28.526  26.202  1.00  0.00     0.001 A 
ATOM     35  C   UNL A   1      40.347  28.757  26.593  1.00  0.00     0.001 A 
ENDBRANCH  13  27
ENDBRANCH   8  10
ENDBRANCH   7   8
ENDBRANCH   6   7
ENDBRANCH   5   6
ENDBRANCH   4   5
ENDBRANCH   3   4
ENDBRANCH   2   3
ENDBRANCH   1   2
BRANCH   1  36
ATOM     36  C   UNL A   1      31.962  27.790  23.853  1.00  0.00     0.188 C 
BRANCH  36  37
ATOM     37  C   UNL A   1      31.203  28.529  24.979  1.00  0.00     0.188 C 
BRANCH  37  38
ATOM     38  O   UNL A   1      32.037  28.944  26.058  1.00  0.00    -0.376 OA
BRANCH  38  39
ATOM     39  C   UNL A   1      32.651  30.222  26.035  1.00  0.00     0.202 C 
BRANCH  39  40
ATOM     40  C   UNL A   1      33.133  30.717  27.394  1.00  0.00     0.261 C 
BRANCH  40  41
ATOM     41  O   UNL A   1      34.537  30.627  27.556  1.00  0.00    -0.460 OA
BRANCH  41  42
ATOM     42  C   UNL A   1      35.069  31.393  28.529  1.00  0.00     0.338 C 
ATOM     43  O   UNL A   1      34.576  32.373  29.056  1.00  0.00    -0.246 OA
BRANCH  42  44
ATOM     44  C   UNL A   1      36.427  30.916  28.787  1.00  0.00     0.060 A 
ATOM     45  C   UNL A   1      36.528  29.705  29.472  1.00  0.00     0.016 A 
ATOM     46  C   UNL A   1      37.481  31.839  28.710  1.00  0.00     0.016 A 
ATOM     47  C   UNL A   1      37.578  29.555  30.341  1.00  0.00     0.010 A 
ATOM     48  C   UNL A   1      38.503  31.708  29.606  1.00  0.00     0.010 A 
ATOM     49  C   UNL A   1      38.472  30.619  30.473  1.00  0.00    -0.014 A 
BRANCH  49  50
ATOM     50  C   UNL A   1      39.388  30.603  31.582  1.00  0.00     0.031 A 
ATOM     51  C   UNL A   1      38.876  31.284  32.776  1.00  0.00     0.074 A 
ATOM     52  C   UNL A   1      40.532  29.899  31.538  1.00  0.00     0.049 A 
ATOM     53  N   UNL A   1      39.249  32.427  33.241  1.00  0.00    -0.248 NA
ATOM     54  C   UNL A   1      37.677  30.720  33.414  1.00  0.00     0.031 C 
ATOM     55  C   UNL A   1      40.970  28.943  30.517  1.00  0.00     0.029 A 
ATOM     56  N   UNL A   1      41.490  29.801  32.492  1.00  0.00    -0.354 N 
ATOM     57  C   UNL A   1      38.475  32.618  34.374  1.00  0.00     0.074 A 
ATOM     58  C   UNL A   1      37.381  31.685  34.283  1.00  0.00     0.031 C 
ATOM     59  C   UNL A   1      41.981  28.200  31.022  1.00  0.00     0.029 A 
ATOM     60  C   UNL A   1      42.324  28.705  32.343  1.00  0.00     0.049 A 
ATOM     61  H   UNL A   1      41.583  30.451  33.226  1.00  0.00     0.167 HD
ATOM     62  C   UNL A   1      38.945  33.305  35.449  1.00  0.00     0.031 A 
ATOM     63  C   UNL A   1      43.160  28.208  33.287  1.00  0.00     0.031 A 
ATOM     64  C   UNL A   1      40.145  34.038  35.138  1.00  0.00     0.049 A 
ATOM     65  C   UNL A   1      43.369  29.274  34.305  1.00  0.00     0.074 A 
ATOM     66  C   UNL A   1      40.470  35.019  34.222  1.00  0.00     0.029 A 
ATOM     67  N   UNL A   1      41.338  33.493  35.557  1.00  0.00    -0.354 N 
ATOM     68  N   UNL A   1      44.025  30.373  34.063  1.00  0.00    -0.248 NA
ATOM     69  C   UNL A   1      42.476  29.333  35.454  1.00  0.00     0.031 C 
ATOM     70  C   UNL A   1      41.800  34.721  33.809  1.00  0.00     0.029 A 
ATOM     71  C   UNL A   1      42.239  33.605  34.527  1.00  0.00     0.049 A 
ATOM     72  H   UNL A   1      41.515  33.094  36.441  1.00  0.00     0.167 HD
ATOM     73  C   UNL A   1      43.322  31.368  34.730  1.00  0.00     0.074 A 
ATOM     74  C   UNL A   1      42.459  30.653  35.666  1.00  0.00     0.031 C 
ATOM     75  C   UNL A   1      43.295  32.651  34.256  1.00  0.00     0.031 A 
BRANCH  62  76
ATOM     76  C   UNL A   1      38.545  32.969  36.860  1.00  0.00    -0.014 A 
ATOM     77  C   UNL A   1      38.052  31.682  37.138  1.00  0.00     0.010 A 
ATOM     78  C   UNL A   1      38.394  33.948  37.867  1.00  0.00     0.010 A 
ATOM     79  C   UNL A   1      37.391  31.409  38.342  1.00  0.00     0.020 A 
ATOM     80  C   UNL A   1      37.788  33.673  39.089  1.00  0.00     0.020 A 
ATOM     81  C   UNL A   1      37.253  32.413  39.302  1.00  0.00     0.054 A 
BRANCH  81  82
ATOM     82  S   UNL A   1      36.296  32.092  40.800  1.00  0.00     0.124 S 
ATOM     83  O   UNL A   1      36.025  33.446  41.273  1.00  0.00    -0.237 OA
ATOM     84  O   UNL A   1      35.147  31.356  40.282  1.00  0.00    -0.237 OA
ATOM     85  O   UNL A   1      37.211  31.309  41.628  1.00  0.00    -0.744 OA
ENDBRANCH  81  82
ENDBRANCH  62  76
BRANCH  63  86
ATOM     86  C   UNL A   1      43.557  26.795  33.501  1.00  0.00    -0.014 A 
ATOM     87  C   UNL A   1      44.626  26.231  32.783  1.00  0.00     0.010 A 
ATOM     88  C   UNL A   1      43.049  26.070  34.598  1.00  0.00     0.010 A 
ATOM     89  C   UNL A   1      45.208  25.019  33.189  1.00  0.00     0.020 A 
ATOM     90  C   UNL A   1      43.612  24.854  34.999  1.00  0.00     0.020 A 
ATOM     91  C   UNL A   1      44.708  24.348  34.309  1.00  0.00     0.054 A 
BRANCH  91  92
ATOM     92  S   UNL A   1      45.582  22.888  34.942  1.00  0.00     0.124 S 
ATOM     93  O   UNL A   1      45.401  21.924  33.860  1.00  0.00    -0.237 OA
ATOM     94  O   UNL A   1      46.942  23.387  35.126  1.00  0.00    -0.237 OA
ATOM     95  O   UNL A   1      44.871  22.572  36.180  1.00  0.00    -0.744 OA
ENDBRANCH  91  92
ENDBRANCH  63  86
BRANCH  75  96
ATOM     96  C   UNL A   1      44.282  33.023  33.169  1.00  0.00    -0.014 A 
ATOM     97  C   UNL A   1      45.528  33.631  33.427  1.00  0.00     0.010 A 
ATOM     98  C   UNL A   1      43.994  32.630  31.851  1.00  0.00     0.010 A 
ATOM     99  C   UNL A   1      46.437  33.881  32.390  1.00  0.00     0.020 A 
ATOM    100  C   UNL A   1      44.905  32.855  30.815  1.00  0.00     0.020 A 
ATOM    101  C   UNL A   1      46.116  33.494  31.087  1.00  0.00     0.054 A 
BRANCH 101 102
ATOM    102  S   UNL A   1      47.310  33.791  29.754  1.00  0.00     0.124 S 
ATOM    103  O   UNL A   1      47.254  32.546  28.995  1.00  0.00    -0.237 OA
ATOM    104  O   UNL A   1      46.761  34.965  29.080  1.00  0.00    -0.237 OA
ATOM    105  O   UNL A   1      48.569  34.027  30.462  1.00  0.00    -0.744 OA
ENDBRANCH 101 102
ENDBRANCH  75  96
ENDBRANCH  49  50
ENDBRANCH  42  44
ENDBRANCH  41  42
ENDBRANCH  40  41
ENDBRANCH  39  40
ENDBRANCH  38  39
ENDBRANCH  37  38
ENDBRANCH  36  37
ENDBRANCH   1  36
TORSDOF 27
ENDMDL
