MODEL 1
REMARK VINA RESULT:      -7.8      0.000      0.000
REMARK SMILES C[C@@H](C(=O)OCCOCCOCCOCCOC(=O)c1ccc(-c2c3nc(c(-c4ccc(S(=O)(=O)[O-])cc4)c4ccc([nH]4)c(-c4ccc(S(=O)(=O)[O-])cc4)c4nc(c(-c5ccc(S(=O)(=O)[O-])cc5)c5ccc2[nH]5)C=C4)C=C3)cc1)c1ccc(-c2cccc(OC(=O)NC3CC3)c2)c(F)c1
REMARK SMILES IDX 10 1 9 2 8 3 7 4 6 5 5 6 3 7 4 8 2 9 1 10 80 11 81 12 99 13
REMARK SMILES IDX 82 14 97 15 83 16 98 17 84 18 85 19 96 20 86 21 88 22 87 23
REMARK SMILES IDX 89 24 90 25 91 26 92 27 93 29 94 30 95 31 11 32 12 33 13 34
REMARK SMILES IDX 14 35 15 36 16 37 17 38 18 39 19 40 20 41 21 42 79 43 22 44
REMARK SMILES IDX 78 45 23 46 24 47 25 48 72 49 26 50 77 51 71 52 73 53 27 54
REMARK SMILES IDX 76 55 70 56 69 57 28 59 58 60 39 61 57 62 40 63 43 64 56 65
REMARK SMILES IDX 74 66 41 67 42 68 55 70 75 71 44 72 29 73 30 74 38 75 31 76
REMARK SMILES IDX 37 77 32 78 33 79 34 80 35 81 36 82 59 83 60 84 68 85 61 86
REMARK SMILES IDX 67 87 62 88 63 89 64 90 65 91 66 92 45 93 46 94 54 95 47 96
REMARK SMILES IDX 53 97 48 98 49 99 50 100 51 101 52 102
REMARK H PARENT 92 28 73 58 43 69
REMARK Flexibility Score: inf
ROOT
ATOM      1  C   UNL A   1      44.574  22.463  23.832  1.00  0.00     0.188 C 
ENDROOT
BRANCH   1   2
ATOM      2  C   UNL A   1      45.761  23.345  24.244  1.00  0.00     0.188 C 
BRANCH   2   3
ATOM      3  O   UNL A   1      45.470  24.614  24.790  1.00  0.00    -0.376 OA
BRANCH   3   4
ATOM      4  C   UNL A   1      46.447  25.645  24.824  1.00  0.00     0.202 C 
BRANCH   4   5
ATOM      5  C   UNL A   1      46.424  26.899  25.726  1.00  0.00     0.261 C 
BRANCH   5   6
ATOM      6  O   UNL A   1      45.690  28.032  25.252  1.00  0.00    -0.463 OA
BRANCH   6   7
ATOM      7  C   UNL A   1      44.769  28.588  26.074  1.00  0.00     0.313 C 
ATOM      8  O   UNL A   1      43.558  28.429  25.962  1.00  0.00    -0.252 OA
BRANCH   7   9
ATOM      9  C   UNL A   1      45.404  29.347  27.250  1.00  0.00     0.126 C 
ATOM     10  C   UNL A   1      44.565  29.278  28.541  1.00  0.00     0.025 C 
BRANCH   9  11
ATOM     11  C   UNL A   1      45.913  30.753  26.890  1.00  0.00    -0.031 A 
ATOM     12  C   UNL A   1      45.030  31.759  26.463  1.00  0.00     0.005 A 
ATOM     13  C   UNL A   1      47.261  31.118  27.046  1.00  0.00     0.044 A 
ATOM     14  C   UNL A   1      45.480  33.064  26.194  1.00  0.00     0.012 A 
ATOM     15  C   UNL A   1      47.708  32.407  26.752  1.00  0.00     0.131 A 
ATOM     16  C   UNL A   1      46.831  33.412  26.338  1.00  0.00     0.018 A 
ATOM     17  F   UNL A   1      49.016  32.672  26.905  1.00  0.00    -0.206 F 
BRANCH  16  18
ATOM     18  C   UNL A   1      47.300  34.785  26.106  1.00  0.00    -0.012 A 
ATOM     19  C   UNL A   1      48.452  35.024  25.338  1.00  0.00     0.009 A 
ATOM     20  C   UNL A   1      46.593  35.888  26.617  1.00  0.00     0.056 A 
ATOM     21  C   UNL A   1      48.888  36.325  25.079  1.00  0.00     0.004 A 
ATOM     22  C   UNL A   1      47.035  37.186  26.364  1.00  0.00     0.133 A 
ATOM     23  C   UNL A   1      48.179  37.408  25.593  1.00  0.00     0.047 A 
BRANCH  22  24
ATOM     24  O   UNL A   1      46.402  38.364  26.837  1.00  0.00    -0.410 OA
BRANCH  24  25
ATOM     25  C   UNL A   1      45.569  39.207  26.109  1.00  0.00     0.412 C 
ATOM     26  O   UNL A   1      45.929  40.064  25.307  1.00  0.00    -0.224 OA
ATOM     27  N   UNL A   1      44.233  39.029  26.360  1.00  0.00    -0.318 N 
ATOM     28  H   UNL A   1      43.637  39.661  25.899  1.00  0.00     0.167 HD
BRANCH  27  29
ATOM     29  C   UNL A   1      43.574  38.071  27.184  1.00  0.00     0.085 C 
ATOM     30  C   UNL A   1      42.786  38.339  28.433  1.00  0.00     0.027 C 
ATOM     31  C   UNL A   1      42.066  38.022  27.160  1.00  0.00     0.027 C 
ENDBRANCH  27  29
ENDBRANCH  24  25
ENDBRANCH  22  24
ENDBRANCH  16  18
ENDBRANCH   9  11
ENDBRANCH   7   9
ENDBRANCH   6   7
ENDBRANCH   5   6
ENDBRANCH   4   5
ENDBRANCH   3   4
ENDBRANCH   2   3
ENDBRANCH   1   2
BRANCH   1  32
ATOM     32  O   UNL A   1      43.367  22.718  24.523  1.00  0.00    -0.377 OA
BRANCH  32  33
ATOM     33  C   UNL A   1      43.075  21.955  25.687  1.00  0.00     0.188 C 
BRANCH  33  34
ATOM     34  C   UNL A   1      41.804  22.218  26.526  1.00  0.00     0.188 C 
BRANCH  34  35
ATOM     35  O   UNL A   1      42.027  22.836  27.784  1.00  0.00    -0.376 OA
BRANCH  35  36
ATOM     36  C   UNL A   1      41.756  24.223  27.918  1.00  0.00     0.202 C 
BRANCH  36  37
ATOM     37  C   UNL A   1      41.849  25.090  26.654  1.00  0.00     0.261 C 
BRANCH  37  38
ATOM     38  O   UNL A   1      40.964  26.220  26.590  1.00  0.00    -0.460 OA
BRANCH  38  39
ATOM     39  C   UNL A   1      39.816  26.160  27.302  1.00  0.00     0.338 C 
ATOM     40  O   UNL A   1      38.831  25.499  27.049  1.00  0.00    -0.246 OA
BRANCH  39  41
ATOM     41  C   UNL A   1      40.039  26.894  28.567  1.00  0.00     0.060 A 
ATOM     42  C   UNL A   1      39.248  26.581  29.681  1.00  0.00     0.016 A 
ATOM     43  C   UNL A   1      41.025  27.879  28.654  1.00  0.00     0.016 A 
ATOM     44  C   UNL A   1      39.412  27.282  30.875  1.00  0.00     0.010 A 
ATOM     45  C   UNL A   1      41.174  28.596  29.845  1.00  0.00     0.010 A 
ATOM     46  C   UNL A   1      40.342  28.327  30.948  1.00  0.00    -0.014 A 
BRANCH  46  47
ATOM     47  C   UNL A   1      40.301  29.270  32.091  1.00  0.00     0.031 A 
ATOM     48  C   UNL A   1      41.353  29.136  33.160  1.00  0.00     0.074 A 
ATOM     49  C   UNL A   1      39.372  30.239  32.174  1.00  0.00     0.049 A 
ATOM     50  N   UNL A   1      41.497  29.806  34.274  1.00  0.00    -0.248 NA
ATOM     51  C   UNL A   1      42.381  28.103  32.941  1.00  0.00     0.031 C 
ATOM     52  C   UNL A   1      38.334  30.507  31.180  1.00  0.00     0.029 A 
ATOM     53  N   UNL A   1      39.151  31.176  33.154  1.00  0.00    -0.354 N 
ATOM     54  C   UNL A   1      42.620  29.269  34.893  1.00  0.00     0.074 A 
ATOM     55  C   UNL A   1      43.100  28.199  34.048  1.00  0.00     0.031 C 
ATOM     56  C   UNL A   1      37.579  31.534  31.608  1.00  0.00     0.029 A 
ATOM     57  C   UNL A   1      38.054  31.970  32.920  1.00  0.00     0.049 A 
ATOM     58  H   UNL A   1      39.725  31.270  33.949  1.00  0.00     0.167 HD
ATOM     59  C   UNL A   1      43.204  29.638  36.057  1.00  0.00     0.031 A 
ATOM     60  C   UNL A   1      37.485  32.921  33.689  1.00  0.00     0.031 A 
ATOM     61  C   UNL A   1      42.710  30.690  36.905  1.00  0.00     0.049 A 
ATOM     62  C   UNL A   1      38.100  33.257  35.025  1.00  0.00     0.074 A 
ATOM     63  C   UNL A   1      43.233  31.146  38.103  1.00  0.00     0.029 A 
ATOM     64  N   UNL A   1      41.573  31.444  36.652  1.00  0.00    -0.354 N 
ATOM     65  N   UNL A   1      39.173  32.756  35.590  1.00  0.00    -0.248 NA
ATOM     66  C   UNL A   1      37.430  34.294  35.822  1.00  0.00     0.031 C 
ATOM     67  C   UNL A   1      42.375  32.128  38.607  1.00  0.00     0.029 A 
ATOM     68  C   UNL A   1      41.361  32.341  37.685  1.00  0.00     0.049 A 
ATOM     69  H   UNL A   1      41.003  31.355  35.855  1.00  0.00     0.167 HD
ATOM     70  C   UNL A   1      39.324  33.440  36.793  1.00  0.00     0.074 A 
ATOM     71  C   UNL A   1      38.242  34.398  36.867  1.00  0.00     0.031 C 
ATOM     72  C   UNL A   1      40.276  33.290  37.748  1.00  0.00     0.031 A 
BRANCH  59  73
ATOM     73  C   UNL A   1      44.418  28.864  36.502  1.00  0.00    -0.014 A 
ATOM     74  C   UNL A   1      45.719  29.295  36.184  1.00  0.00     0.010 A 
ATOM     75  C   UNL A   1      44.255  27.699  37.273  1.00  0.00     0.010 A 
ATOM     76  C   UNL A   1      46.831  28.551  36.591  1.00  0.00     0.020 A 
ATOM     77  C   UNL A   1      45.364  26.970  37.711  1.00  0.00     0.020 A 
ATOM     78  C   UNL A   1      46.645  27.392  37.352  1.00  0.00     0.054 A 
BRANCH  78  79
ATOM     79  S   UNL A   1      48.107  26.458  37.882  1.00  0.00     0.124 S 
ATOM     80  O   UNL A   1      49.144  27.002  37.008  1.00  0.00    -0.237 OA
ATOM     81  O   UNL A   1      48.222  26.818  39.292  1.00  0.00    -0.237 OA
ATOM     82  O   UNL A   1      47.743  25.068  37.623  1.00  0.00    -0.744 OA
ENDBRANCH  78  79
ENDBRANCH  59  73
BRANCH  60  83
ATOM     83  C   UNL A   1      36.246  33.608  33.226  1.00  0.00    -0.014 A 
ATOM     84  C   UNL A   1      34.978  33.050  33.466  1.00  0.00     0.010 A 
ATOM     85  C   UNL A   1      36.332  34.832  32.537  1.00  0.00     0.010 A 
ATOM     86  C   UNL A   1      33.821  33.697  33.018  1.00  0.00     0.020 A 
ATOM     87  C   UNL A   1      35.177  35.499  32.115  1.00  0.00     0.020 A 
ATOM     88  C   UNL A   1      33.928  34.921  32.351  1.00  0.00     0.054 A 
BRANCH  88  89
ATOM     89  S   UNL A   1      32.411  35.772  31.833  1.00  0.00     0.124 S 
ATOM     90  O   UNL A   1      32.319  35.400  30.425  1.00  0.00    -0.237 OA
ATOM     91  O   UNL A   1      31.406  35.179  32.713  1.00  0.00    -0.237 OA
ATOM     92  O   UNL A   1      32.703  37.180  32.091  1.00  0.00    -0.744 OA
ENDBRANCH  88  89
ENDBRANCH  60  83
BRANCH  72  93
ATOM     93  C   UNL A   1      40.222  34.210  38.941  1.00  0.00    -0.014 A 
ATOM     94  C   UNL A   1      39.589  33.829  40.137  1.00  0.00     0.010 A 
ATOM     95  C   UNL A   1      40.876  35.456  38.883  1.00  0.00     0.010 A 
ATOM     96  C   UNL A   1      39.581  34.690  41.240  1.00  0.00     0.020 A 
ATOM     97  C   UNL A   1      40.899  36.305  39.992  1.00  0.00     0.020 A 
ATOM     98  C   UNL A   1      40.238  35.922  41.161  1.00  0.00     0.054 A 
BRANCH  98  99
ATOM     99  S   UNL A   1      40.250  37.000  42.619  1.00  0.00     0.124 S 
ATOM    100  O   UNL A   1      41.647  36.933  43.037  1.00  0.00    -0.237 OA
ATOM    101  O   UNL A   1      39.818  38.283  42.069  1.00  0.00    -0.237 OA
ATOM    102  O   UNL A   1      39.296  36.366  43.528  1.00  0.00    -0.744 OA
ENDBRANCH  98  99
ENDBRANCH  72  93
ENDBRANCH  46  47
ENDBRANCH  39  41
ENDBRANCH  38  39
ENDBRANCH  37  38
ENDBRANCH  36  37
ENDBRANCH  35  36
ENDBRANCH  34  35
ENDBRANCH  33  34
ENDBRANCH  32  33
ENDBRANCH   1  32
TORSDOF 28
ENDMDL
MODEL 2
REMARK VINA RESULT:      -7.5      6.119     11.967
REMARK SMILES C[C@@H](C(=O)OCCOCCOCCOCCOC(=O)c1ccc(-c2c3nc(c(-c4ccc(S(=O)(=O)[O-])cc4)c4ccc([nH]4)c(-c4ccc(S(=O)(=O)[O-])cc4)c4nc(c(-c5ccc(S(=O)(=O)[O-])cc5)c5ccc2[nH]5)C=C4)C=C3)cc1)c1ccc(-c2cccc(OC(=O)NC3CC3)c2)c(F)c1
REMARK SMILES IDX 10 1 9 2 8 3 7 4 6 5 5 6 3 7 4 8 2 9 1 10 80 11 81 12 99 13
REMARK SMILES IDX 82 14 97 15 83 16 98 17 84 18 85 19 96 20 86 21 88 22 87 23
REMARK SMILES IDX 89 24 90 25 91 26 92 27 93 29 94 30 95 31 11 32 12 33 13 34
REMARK SMILES IDX 14 35 15 36 16 37 17 38 18 39 19 40 20 41 21 42 79 43 22 44
REMARK SMILES IDX 78 45 23 46 24 47 25 48 72 49 26 50 77 51 71 52 73 53 27 54
REMARK SMILES IDX 76 55 70 56 69 57 28 59 58 60 39 61 57 62 40 63 43 64 56 65
REMARK SMILES IDX 74 66 41 67 42 68 55 70 75 71 44 72 29 73 30 74 38 75 31 76
REMARK SMILES IDX 37 77 32 78 33 79 34 80 35 81 36 82 59 83 60 84 68 85 61 86
REMARK SMILES IDX 67 87 62 88 63 89 64 90 65 91 66 92 45 93 46 94 54 95 47 96
REMARK SMILES IDX 53 97 48 98 49 99 50 100 51 101 52 102
REMARK H PARENT 92 28 73 58 43 69
REMARK Flexibility Score: inf
ROOT
ATOM      1  C   UNL A   1      33.295  25.419  24.574  1.00  0.00     0.188 C 
ENDROOT
BRANCH   1   2
ATOM      2  C   UNL A   1      33.362  26.788  23.882  1.00  0.00     0.188 C 
BRANCH   2   3
ATOM      3  O   UNL A   1      33.407  27.932  24.707  1.00  0.00    -0.376 OA
BRANCH   3   4
ATOM      4  C   UNL A   1      33.976  27.882  26.009  1.00  0.00     0.202 C 
BRANCH   4   5
ATOM      5  C   UNL A   1      34.413  29.092  26.865  1.00  0.00     0.261 C 
BRANCH   5   6
ATOM      6  O   UNL A   1      35.791  29.164  27.241  1.00  0.00    -0.463 OA
BRANCH   6   7
ATOM      7  C   UNL A   1      36.135  29.987  28.258  1.00  0.00     0.313 C 
ATOM      8  O   UNL A   1      35.721  31.135  28.388  1.00  0.00    -0.252 OA
BRANCH   7   9
ATOM      9  C   UNL A   1      37.010  29.294  29.314  1.00  0.00     0.126 C 
ATOM     10  C   UNL A   1      36.587  29.618  30.761  1.00  0.00     0.025 C 
BRANCH   9  11
ATOM     11  C   UNL A   1      38.521  29.400  29.049  1.00  0.00    -0.031 A 
ATOM     12  C   UNL A   1      39.426  29.665  30.091  1.00  0.00     0.005 A 
ATOM     13  C   UNL A   1      39.071  29.161  27.777  1.00  0.00     0.044 A 
ATOM     14  C   UNL A   1      40.813  29.700  29.865  1.00  0.00     0.012 A 
ATOM     15  C   UNL A   1      40.447  29.223  27.553  1.00  0.00     0.131 A 
ATOM     16  C   UNL A   1      41.349  29.476  28.589  1.00  0.00     0.018 A 
ATOM     17  F   UNL A   1      40.894  29.004  26.306  1.00  0.00    -0.206 F 
BRANCH  16  18
ATOM     18  C   UNL A   1      42.800  29.462  28.355  1.00  0.00    -0.012 A 
ATOM     19  C   UNL A   1      43.312  29.264  27.062  1.00  0.00     0.009 A 
ATOM     20  C   UNL A   1      43.705  29.679  29.410  1.00  0.00     0.056 A 
ATOM     21  C   UNL A   1      44.686  29.286  26.820  1.00  0.00     0.004 A 
ATOM     22  C   UNL A   1      45.078  29.692  29.167  1.00  0.00     0.133 A 
ATOM     23  C   UNL A   1      45.572  29.499  27.874  1.00  0.00     0.047 A 
BRANCH  22  24
ATOM     24  O   UNL A   1      46.074  29.893  30.157  1.00  0.00    -0.410 OA
BRANCH  24  25
ATOM     25  C   UNL A   1      47.101  30.831  30.121  1.00  0.00     0.412 C 
ATOM     26  O   UNL A   1      47.610  31.308  29.112  1.00  0.00    -0.224 OA
ATOM     27  N   UNL A   1      47.555  31.211  31.358  1.00  0.00    -0.318 N 
ATOM     28  H   UNL A   1      48.322  31.827  31.346  1.00  0.00     0.167 HD
BRANCH  27  29
ATOM     29  C   UNL A   1      47.088  30.856  32.656  1.00  0.00     0.085 C 
ATOM     30  C   UNL A   1      47.014  31.742  33.867  1.00  0.00     0.027 C 
ATOM     31  C   UNL A   1      45.762  31.408  33.118  1.00  0.00     0.027 C 
ENDBRANCH  27  29
ENDBRANCH  24  25
ENDBRANCH  22  24
ENDBRANCH  16  18
ENDBRANCH   9  11
ENDBRANCH   7   9
ENDBRANCH   6   7
ENDBRANCH   5   6
ENDBRANCH   4   5
ENDBRANCH   3   4
ENDBRANCH   2   3
ENDBRANCH   1   2
BRANCH   1  32
ATOM     32  O   UNL A   1      34.494  24.668  24.539  1.00  0.00    -0.377 OA
BRANCH  32  33
ATOM     33  C   UNL A   1      34.480  23.393  23.908  1.00  0.00     0.188 C 
BRANCH  33  34
ATOM     34  C   UNL A   1      35.249  22.191  24.501  1.00  0.00     0.188 C 
BRANCH  34  35
ATOM     35  O   UNL A   1      36.370  22.528  25.305  1.00  0.00    -0.376 OA
BRANCH  35  36
ATOM     36  C   UNL A   1      37.269  21.498  25.685  1.00  0.00     0.202 C 
BRANCH  36  37
ATOM     37  C   UNL A   1      38.772  21.801  25.600  1.00  0.00     0.261 C 
BRANCH  37  38
ATOM     38  O   UNL A   1      39.358  22.441  26.745  1.00  0.00    -0.460 OA
BRANCH  38  39
ATOM     39  C   UNL A   1      39.320  23.792  26.797  1.00  0.00     0.338 C 
ATOM     40  O   UNL A   1      38.338  24.493  26.925  1.00  0.00    -0.246 OA
BRANCH  39  41
ATOM     41  C   UNL A   1      40.717  24.273  26.876  1.00  0.00     0.060 A 
ATOM     42  C   UNL A   1      41.728  23.365  27.222  1.00  0.00     0.016 A 
ATOM     43  C   UNL A   1      41.027  25.607  26.604  1.00  0.00     0.016 A 
ATOM     44  C   UNL A   1      43.048  23.800  27.339  1.00  0.00     0.010 A 
ATOM     45  C   UNL A   1      42.347  26.046  26.743  1.00  0.00     0.010 A 
ATOM     46  C   UNL A   1      43.356  25.153  27.148  1.00  0.00    -0.014 A 
BRANCH  46  47
ATOM     47  C   UNL A   1      44.677  25.673  27.575  1.00  0.00     0.031 A 
ATOM     48  C   UNL A   1      44.905  25.913  29.044  1.00  0.00     0.074 A 
ATOM     49  C   UNL A   1      45.663  25.908  26.691  1.00  0.00     0.049 A 
ATOM     50  N   UNL A   1      45.951  26.407  29.654  1.00  0.00    -0.248 NA
ATOM     51  C   UNL A   1      43.799  25.547  29.946  1.00  0.00     0.031 C 
ATOM     52  C   UNL A   1      45.587  25.666  25.251  1.00  0.00     0.029 A 
ATOM     53  N   UNL A   1      46.927  26.412  26.883  1.00  0.00    -0.354 N 
ATOM     54  C   UNL A   1      45.626  26.422  31.005  1.00  0.00     0.074 A 
ATOM     55  C   UNL A   1      44.276  25.919  31.124  1.00  0.00     0.031 C 
ATOM     56  C   UNL A   1      46.751  26.034  24.687  1.00  0.00     0.029 A 
ATOM     57  C   UNL A   1      47.639  26.571  25.718  1.00  0.00     0.049 A 
ATOM     58  H   UNL A   1      47.288  26.637  27.770  1.00  0.00     0.167 HD
ATOM     59  C   UNL A   1      46.386  26.814  32.055  1.00  0.00     0.031 A 
ATOM     60  C   UNL A   1      48.855  27.113  25.506  1.00  0.00     0.031 A 
ATOM     61  C   UNL A   1      47.721  27.333  31.931  1.00  0.00     0.049 A 
ATOM     62  C   UNL A   1      49.651  27.625  26.680  1.00  0.00     0.074 A 
ATOM     63  C   UNL A   1      48.577  27.752  32.935  1.00  0.00     0.029 A 
ATOM     64  N   UNL A   1      48.391  27.516  30.731  1.00  0.00    -0.354 N 
ATOM     65  N   UNL A   1      49.340  27.616  27.956  1.00  0.00    -0.248 NA
ATOM     66  C   UNL A   1      50.965  28.213  26.387  1.00  0.00     0.031 C 
ATOM     67  C   UNL A   1      49.738  28.251  32.336  1.00  0.00     0.029 A 
ATOM     68  C   UNL A   1      49.638  28.070  30.965  1.00  0.00     0.049 A 
ATOM     69  H   UNL A   1      48.033  27.285  29.844  1.00  0.00     0.167 HD
ATOM     70  C   UNL A   1      50.434  28.167  28.618  1.00  0.00     0.074 A 
ATOM     71  C   UNL A   1      51.418  28.485  27.604  1.00  0.00     0.031 C 
ATOM     72  C   UNL A   1      50.609  28.385  29.946  1.00  0.00     0.031 A 
BRANCH  59  73
ATOM     73  C   UNL A   1      45.767  26.735  33.428  1.00  0.00    -0.014 A 
ATOM     74  C   UNL A   1      45.821  25.554  34.190  1.00  0.00     0.010 A 
ATOM     75  C   UNL A   1      45.143  27.871  33.974  1.00  0.00     0.010 A 
ATOM     76  C   UNL A   1      45.225  25.498  35.454  1.00  0.00     0.020 A 
ATOM     77  C   UNL A   1      44.576  27.831  35.250  1.00  0.00     0.020 A 
ATOM     78  C   UNL A   1      44.605  26.638  35.974  1.00  0.00     0.054 A 
BRANCH  78  79
ATOM     79  S   UNL A   1      43.857  26.541  37.624  1.00  0.00     0.124 S 
ATOM     80  O   UNL A   1      44.751  27.388  38.410  1.00  0.00    -0.237 OA
ATOM     81  O   UNL A   1      42.518  27.078  37.400  1.00  0.00    -0.237 OA
ATOM     82  O   UNL A   1      43.908  25.117  37.946  1.00  0.00    -0.744 OA
ENDBRANCH  78  79
ENDBRANCH  59  73
BRANCH  60  83
ATOM     83  C   UNL A   1      49.388  27.224  24.118  1.00  0.00    -0.014 A 
ATOM     84  C   UNL A   1      48.621  27.806  23.094  1.00  0.00     0.010 A 
ATOM     85  C   UNL A   1      50.676  26.744  23.815  1.00  0.00     0.010 A 
ATOM     86  C   UNL A   1      49.125  27.895  21.792  1.00  0.00     0.020 A 
ATOM     87  C   UNL A   1      51.197  26.860  22.522  1.00  0.00     0.020 A 
ATOM     88  C   UNL A   1      50.413  27.427  21.517  1.00  0.00     0.054 A 
BRANCH  88  89
ATOM     89  S   UNL A   1      51.070  27.610  19.835  1.00  0.00     0.124 S 
ATOM     90  O   UNL A   1      50.096  26.863  19.045  1.00  0.00    -0.237 OA
ATOM     91  O   UNL A   1      51.058  29.060  19.651  1.00  0.00    -0.237 OA
ATOM     92  O   UNL A   1      52.399  27.011  19.919  1.00  0.00    -0.744 OA
ENDBRANCH  88  89
ENDBRANCH  60  83
BRANCH  72  93
ATOM     93  C   UNL A   1      51.930  28.957  30.393  1.00  0.00    -0.014 A 
ATOM     94  C   UNL A   1      52.178  30.341  30.370  1.00  0.00     0.010 A 
ATOM     95  C   UNL A   1      52.919  28.096  30.907  1.00  0.00     0.010 A 
ATOM     96  C   UNL A   1      53.402  30.849  30.820  1.00  0.00     0.020 A 
ATOM     97  C   UNL A   1      54.129  28.601  31.389  1.00  0.00     0.020 A 
ATOM     98  C   UNL A   1      54.368  29.975  31.329  1.00  0.00     0.054 A 
BRANCH  98  99
ATOM     99  S   UNL A   1      55.928  30.664  31.947  1.00  0.00     0.124 S 
ATOM    100  O   UNL A   1      56.468  29.550  32.722  1.00  0.00    -0.237 OA
ATOM    101  O   UNL A   1      56.646  30.980  30.715  1.00  0.00    -0.237 OA
ATOM    102  O   UNL A   1      55.510  31.824  32.733  1.00  0.00    -0.744 OA
ENDBRANCH  98  99
ENDBRANCH  72  93
ENDBRANCH  46  47
ENDBRANCH  39  41
ENDBRANCH  38  39
ENDBRANCH  37  38
ENDBRANCH  36  37
ENDBRANCH  35  36
ENDBRANCH  34  35
ENDBRANCH  33  34
ENDBRANCH  32  33
ENDBRANCH   1  32
TORSDOF 28
ENDMDL
MODEL 3
REMARK VINA RESULT:      -7.2      5.680     12.680
REMARK SMILES C[C@@H](C(=O)OCCOCCOCCOCCOC(=O)c1ccc(-c2c3nc(c(-c4ccc(S(=O)(=O)[O-])cc4)c4ccc([nH]4)c(-c4ccc(S(=O)(=O)[O-])cc4)c4nc(c(-c5ccc(S(=O)(=O)[O-])cc5)c5ccc2[nH]5)C=C4)C=C3)cc1)c1ccc(-c2cccc(OC(=O)NC3CC3)c2)c(F)c1
REMARK SMILES IDX 10 1 9 2 8 3 7 4 6 5 5 6 3 7 4 8 2 9 1 10 80 11 81 12 99 13
REMARK SMILES IDX 82 14 97 15 83 16 98 17 84 18 85 19 96 20 86 21 88 22 87 23
REMARK SMILES IDX 89 24 90 25 91 26 92 27 93 29 94 30 95 31 11 32 12 33 13 34
REMARK SMILES IDX 14 35 15 36 16 37 17 38 18 39 19 40 20 41 21 42 79 43 22 44
REMARK SMILES IDX 78 45 23 46 24 47 25 48 72 49 26 50 77 51 71 52 73 53 27 54
REMARK SMILES IDX 76 55 70 56 69 57 28 59 58 60 39 61 57 62 40 63 43 64 56 65
REMARK SMILES IDX 74 66 41 67 42 68 55 70 75 71 44 72 29 73 30 74 38 75 31 76
REMARK SMILES IDX 37 77 32 78 33 79 34 80 35 81 36 82 59 83 60 84 68 85 61 86
REMARK SMILES IDX 67 87 62 88 63 89 64 90 65 91 66 92 45 93 46 94 54 95 47 96
REMARK SMILES IDX 53 97 48 98 49 99 50 100 51 101 52 102
REMARK H PARENT 92 28 73 58 43 69
REMARK Flexibility Score: inf
ROOT
ATOM      1  C   UNL A   1      47.140  21.870  35.721  1.00  0.00     0.188 C 
ENDROOT
BRANCH   1   2
ATOM      2  C   UNL A   1      47.796  21.986  37.105  1.00  0.00     0.188 C 
BRANCH   2   3
ATOM      3  O   UNL A   1      47.263  22.941  37.999  1.00  0.00    -0.376 OA
BRANCH   3   4
ATOM      4  C   UNL A   1      45.882  23.276  37.984  1.00  0.00     0.202 C 
BRANCH   4   5
ATOM      5  C   UNL A   1      45.285  24.690  37.808  1.00  0.00     0.261 C 
BRANCH   5   6
ATOM      6  O   UNL A   1      43.861  24.791  37.705  1.00  0.00    -0.463 OA
BRANCH   6   7
ATOM      7  C   UNL A   1      43.333  25.950  37.249  1.00  0.00     0.313 C 
ATOM      8  O   UNL A   1      43.604  27.058  37.701  1.00  0.00    -0.252 OA
BRANCH   7   9
ATOM      9  C   UNL A   1      42.442  25.751  36.013  1.00  0.00     0.126 C 
ATOM     10  C   UNL A   1      41.366  24.665  36.208  1.00  0.00     0.025 C 
BRANCH   9  11
ATOM     11  C   UNL A   1      43.216  25.656  34.688  1.00  0.00    -0.031 A 
ATOM     12  C   UNL A   1      43.811  24.450  34.277  1.00  0.00     0.005 A 
ATOM     13  C   UNL A   1      43.297  26.738  33.795  1.00  0.00     0.044 A 
ATOM     14  C   UNL A   1      44.464  24.340  33.038  1.00  0.00     0.012 A 
ATOM     15  C   UNL A   1      43.971  26.632  32.576  1.00  0.00     0.131 A 
ATOM     16  C   UNL A   1      44.553  25.432  32.162  1.00  0.00     0.018 A 
ATOM     17  F   UNL A   1      44.024  27.717  31.788  1.00  0.00    -0.206 F 
BRANCH  16  18
ATOM     18  C   UNL A   1      45.192  25.311  30.844  1.00  0.00    -0.012 A 
ATOM     19  C   UNL A   1      46.535  25.683  30.666  1.00  0.00     0.009 A 
ATOM     20  C   UNL A   1      44.488  24.791  29.743  1.00  0.00     0.056 A 
ATOM     21  C   UNL A   1      47.165  25.538  29.429  1.00  0.00     0.004 A 
ATOM     22  C   UNL A   1      45.117  24.655  28.506  1.00  0.00     0.133 A 
ATOM     23  C   UNL A   1      46.455  25.024  28.346  1.00  0.00     0.047 A 
BRANCH  22  24
ATOM     24  O   UNL A   1      44.498  24.152  27.333  1.00  0.00    -0.410 OA
BRANCH  24  25
ATOM     25  C   UNL A   1      43.871  22.919  27.190  1.00  0.00     0.412 C 
ATOM     26  O   UNL A   1      42.801  22.588  27.694  1.00  0.00    -0.224 OA
ATOM     27  N   UNL A   1      44.563  22.025  26.415  1.00  0.00    -0.318 N 
ATOM     28  H   UNL A   1      44.161  21.129  26.356  1.00  0.00     0.167 HD
BRANCH  27  29
ATOM     29  C   UNL A   1      45.771  22.191  25.678  1.00  0.00     0.085 C 
ATOM     30  C   UNL A   1      46.240  21.376  24.507  1.00  0.00     0.027 C 
ATOM     31  C   UNL A   1      45.688  22.749  24.279  1.00  0.00     0.027 C 
ENDBRANCH  27  29
ENDBRANCH  24  25
ENDBRANCH  22  24
ENDBRANCH  16  18
ENDBRANCH   9  11
ENDBRANCH   7   9
ENDBRANCH   6   7
ENDBRANCH   5   6
ENDBRANCH   4   5
ENDBRANCH   3   4
ENDBRANCH   2   3
ENDBRANCH   1   2
BRANCH   1  32
ATOM     32  O   UNL A   1      47.856  21.094  34.780  1.00  0.00    -0.377 OA
BRANCH  32  33
ATOM     33  C   UNL A   1      48.953  20.312  35.237  1.00  0.00     0.188 C 
BRANCH  33  34
ATOM     34  C   UNL A   1      50.289  20.266  34.461  1.00  0.00     0.188 C 
BRANCH  34  35
ATOM     35  O   UNL A   1      51.151  19.191  34.805  1.00  0.00    -0.376 OA
BRANCH  35  36
ATOM     36  C   UNL A   1      52.544  19.442  34.907  1.00  0.00     0.202 C 
BRANCH  36  37
ATOM     37  C   UNL A   1      53.199  20.268  33.790  1.00  0.00     0.261 C 
BRANCH  37  38
ATOM     38  O   UNL A   1      53.413  21.660  34.070  1.00  0.00    -0.460 OA
BRANCH  38  39
ATOM     39  C   UNL A   1      53.815  22.452  33.049  1.00  0.00     0.338 C 
ATOM     40  O   UNL A   1      54.689  22.218  32.241  1.00  0.00    -0.246 OA
BRANCH  39  41
ATOM     41  C   UNL A   1      52.861  23.579  32.960  1.00  0.00     0.060 A 
ATOM     42  C   UNL A   1      51.512  23.306  32.695  1.00  0.00     0.016 A 
ATOM     43  C   UNL A   1      53.294  24.894  33.141  1.00  0.00     0.016 A 
ATOM     44  C   UNL A   1      50.598  24.352  32.570  1.00  0.00     0.010 A 
ATOM     45  C   UNL A   1      52.381  25.943  32.992  1.00  0.00     0.010 A 
ATOM     46  C   UNL A   1      51.038  25.678  32.669  1.00  0.00    -0.014 A 
BRANCH  46  47
ATOM     47  C   UNL A   1      50.152  26.782  32.228  1.00  0.00     0.031 A 
ATOM     48  C   UNL A   1      50.140  27.142  30.766  1.00  0.00     0.074 A 
ATOM     49  C   UNL A   1      49.358  27.438  33.092  1.00  0.00     0.049 A 
ATOM     50  N   UNL A   1      49.491  28.095  30.149  1.00  0.00    -0.248 NA
ATOM     51  C   UNL A   1      50.977  26.313  29.881  1.00  0.00     0.031 C 
ATOM     52  C   UNL A   1      49.238  27.150  34.521  1.00  0.00     0.029 A 
ATOM     53  N   UNL A   1      48.502  28.494  32.887  1.00  0.00    -0.354 N 
ATOM     54  C   UNL A   1      49.849  27.989  28.810  1.00  0.00     0.074 A 
ATOM     55  C   UNL A   1      50.796  26.901  28.708  1.00  0.00     0.031 C 
ATOM     56  C   UNL A   1      48.367  28.018  35.066  1.00  0.00     0.029 A 
ATOM     57  C   UNL A   1      47.898  28.944  34.036  1.00  0.00     0.049 A 
ATOM     58  H   UNL A   1      48.338  28.889  32.001  1.00  0.00     0.167 HD
ATOM     59  C   UNL A   1      49.424  28.726  27.758  1.00  0.00     0.031 A 
ATOM     60  C   UNL A   1      47.082  30.000  34.238  1.00  0.00     0.031 A 
ATOM     61  C   UNL A   1      48.498  29.821  27.867  1.00  0.00     0.049 A 
ATOM     62  C   UNL A   1      46.689  30.863  33.065  1.00  0.00     0.074 A 
ATOM     63  C   UNL A   1      47.998  30.628  26.859  1.00  0.00     0.029 A 
ATOM     64  N   UNL A   1      47.939  30.272  29.054  1.00  0.00    -0.354 N 
ATOM     65  N   UNL A   1      47.019  30.740  31.801  1.00  0.00    -0.248 NA
ATOM     66  C   UNL A   1      45.806  32.003  33.347  1.00  0.00     0.031 C 
ATOM     67  C   UNL A   1      47.191  31.608  27.446  1.00  0.00     0.029 A 
ATOM     68  C   UNL A   1      47.125  31.364  28.809  1.00  0.00     0.049 A 
ATOM     69  H   UNL A   1      48.098  29.872  29.939  1.00  0.00     0.167 HD
ATOM     70  C   UNL A   1      46.358  31.768  31.133  1.00  0.00     0.074 A 
ATOM     71  C   UNL A   1      45.600  32.492  32.131  1.00  0.00     0.031 C 
ATOM     72  C   UNL A   1      46.375  32.079  29.813  1.00  0.00     0.031 A 
BRANCH  59  73
ATOM     73  C   UNL A   1      49.995  28.397  26.402  1.00  0.00    -0.014 A 
ATOM     74  C   UNL A   1      51.089  29.106  25.876  1.00  0.00     0.010 A 
ATOM     75  C   UNL A   1      49.442  27.342  25.654  1.00  0.00     0.010 A 
ATOM     76  C   UNL A   1      51.592  28.795  24.608  1.00  0.00     0.020 A 
ATOM     77  C   UNL A   1      49.962  27.005  24.402  1.00  0.00     0.020 A 
ATOM     78  C   UNL A   1      51.023  27.746  23.879  1.00  0.00     0.054 A 
BRANCH  78  79
ATOM     79  S   UNL A   1      51.708  27.353  22.246  1.00  0.00     0.124 S 
ATOM     80  O   UNL A   1      50.518  26.919  21.518  1.00  0.00    -0.237 OA
ATOM     81  O   UNL A   1      52.273  28.631  21.822  1.00  0.00    -0.237 OA
ATOM     82  O   UNL A   1      52.685  26.303  22.523  1.00  0.00    -0.744 OA
ENDBRANCH  78  79
ENDBRANCH  59  73
BRANCH  60  83
ATOM     83  C   UNL A   1      46.601  30.315  35.612  1.00  0.00    -0.014 A 
ATOM     84  C   UNL A   1      45.437  29.715  36.125  1.00  0.00     0.010 A 
ATOM     85  C   UNL A   1      47.310  31.224  36.419  1.00  0.00     0.010 A 
ATOM     86  C   UNL A   1      44.987  30.026  37.413  1.00  0.00     0.020 A 
ATOM     87  C   UNL A   1      46.882  31.514  37.718  1.00  0.00     0.020 A 
ATOM     88  C   UNL A   1      45.717  30.919  38.204  1.00  0.00     0.054 A 
BRANCH  88  89
ATOM     89  S   UNL A   1      45.147  31.259  39.893  1.00  0.00     0.124 S 
ATOM     90  O   UNL A   1      44.459  30.019  40.237  1.00  0.00    -0.237 OA
ATOM     91  O   UNL A   1      46.401  31.505  40.601  1.00  0.00    -0.237 OA
ATOM     92  O   UNL A   1      44.288  32.429  39.735  1.00  0.00    -0.744 OA
ENDBRANCH  88  89
ENDBRANCH  60  83
BRANCH  72  93
ATOM     93  C   UNL A   1      45.515  33.230  29.354  1.00  0.00    -0.014 A 
ATOM     94  C   UNL A   1      46.000  34.549  29.334  1.00  0.00     0.010 A 
ATOM     95  C   UNL A   1      44.217  32.973  28.872  1.00  0.00     0.010 A 
ATOM     96  C   UNL A   1      45.191  35.594  28.874  1.00  0.00     0.020 A 
ATOM     97  C   UNL A   1      43.418  34.008  28.380  1.00  0.00     0.020 A 
ATOM     98  C   UNL A   1      43.906  35.316  28.397  1.00  0.00     0.054 A 
BRANCH  98  99
ATOM     99  S   UNL A   1      42.895  36.682  27.766  1.00  0.00     0.124 S 
ATOM    100  O   UNL A   1      42.939  36.454  26.325  1.00  0.00    -0.237 OA
ATOM    101  O   UNL A   1      41.601  36.442  28.402  1.00  0.00    -0.237 OA
ATOM    102  O   UNL A   1      43.597  37.878  28.229  1.00  0.00    -0.744 OA
ENDBRANCH  98  99
ENDBRANCH  72  93
ENDBRANCH  46  47
ENDBRANCH  39  41
ENDBRANCH  38  39
ENDBRANCH  37  38
ENDBRANCH  36  37
ENDBRANCH  35  36
ENDBRANCH  34  35
ENDBRANCH  33  34
ENDBRANCH  32  33
ENDBRANCH   1  32
TORSDOF 28
ENDMDL
