MODEL 1
REMARK VINA RESULT:      -6.3      0.000      0.000
REMARK SMILES CCCCCCC(=O)Nc1ccc(Cl)c(C(=O)OCCOCCOCCOCCOC(=O)c2ccc(-c3c4nc(c(-c5ccc(S(=O)(=O)[O-])cc5)c5ccc([nH]5)c(-c5ccc(S(=O)(=O)[O-])cc5)c5nc(c(-c6ccc(S(=O)(=O)[O-])cc6)c6ccc3[nH]6)C=C5)C=C4)cc2)c1
REMARK SMILES IDX 22 1 21 2 20 3 19 4 18 5 16 6 17 7 15 8 10 9 11 10 93 11
REMARK SMILES IDX 12 12 13 13 14 14 9 15 7 16 8 17 6 19 5 20 4 21 3 22 2 23
REMARK SMILES IDX 1 24 23 25 24 26 25 27 26 28 27 29 28 30 29 31 30 32 31 33
REMARK SMILES IDX 32 34 33 35 34 36 92 37 35 38 91 39 36 40 37 41 38 42 85 43
REMARK SMILES IDX 39 44 90 45 84 46 86 47 40 48 89 49 83 50 82 51 41 53 71 54
REMARK SMILES IDX 52 55 70 56 53 57 56 58 69 59 87 60 54 61 55 62 68 64 88 65
REMARK SMILES IDX 57 66 42 67 43 68 51 69 44 70 50 71 45 72 46 73 47 74 48 75
REMARK SMILES IDX 49 76 72 77 73 78 81 79 74 80 80 81 75 82 76 83 77 84 78 85
REMARK SMILES IDX 79 86 58 87 59 88 67 89 60 90 66 91 61 92 62 93 63 94 64 95
REMARK SMILES IDX 65 96
REMARK H PARENT 9 18 86 52 56 63
REMARK Flexibility Score: inf
ROOT
ATOM      1  C   UNL A   1      33.497  34.612  29.806  1.00  0.00     0.188 C 
ENDROOT
BRANCH   1   2
ATOM      2  O   UNL A   1      34.590  34.445  28.913  1.00  0.00    -0.376 OA
BRANCH   2   3
ATOM      3  C   UNL A   1      35.462  33.321  29.038  1.00  0.00     0.202 C 
BRANCH   3   4
ATOM      4  C   UNL A   1      35.449  32.185  28.000  1.00  0.00     0.261 C 
BRANCH   4   5
ATOM      5  O   UNL A   1      36.620  31.365  28.062  1.00  0.00    -0.460 OA
BRANCH   5   6
ATOM      6  C   UNL A   1      36.463  30.035  28.236  1.00  0.00     0.339 C 
ATOM      7  O   UNL A   1      35.453  29.380  28.037  1.00  0.00    -0.246 OA
BRANCH   6   8
ATOM      8  C   UNL A   1      37.805  29.428  28.405  1.00  0.00     0.080 A 
ATOM      9  C   UNL A   1      39.996  29.104  27.410  1.00  0.00     0.042 A 
ATOM     10  C   UNL A   1      40.518  28.798  28.664  1.00  0.00     0.028 A 
ATOM     11  C   UNL A   1      38.651  29.450  27.274  1.00  0.00     0.043 A 
ATOM     12  C   UNL A   1      39.666  28.683  29.764  1.00  0.00     0.023 A 
ATOM     13  C   UNL A   1      38.302  28.973  29.638  1.00  0.00     0.055 A 
ATOM     14  Cl  UNL A   1      37.314  28.734  31.032  1.00  0.00    -0.083 Cl
BRANCH   9  15
ATOM     15  N   UNL A   1      40.874  29.132  26.324  1.00  0.00    -0.326 N 
ATOM     16  C   UNL A   1      41.487  28.053  25.746  1.00  0.00     0.224 C 
ATOM     17  O   UNL A   1      42.467  28.258  25.024  1.00  0.00    -0.275 OA
ATOM     18  H   UNL A   1      41.071  30.015  25.937  1.00  0.00     0.169 HD
BRANCH  16  19
ATOM     19  C   UNL A   1      40.993  26.642  25.998  1.00  0.00     0.100 C 
BRANCH  19  20
ATOM     20  C   UNL A   1      42.100  25.581  26.075  1.00  0.00     0.010 C 
BRANCH  20  21
ATOM     21  C   UNL A   1      41.805  24.291  26.856  1.00  0.00     0.001 C 
BRANCH  21  22
ATOM     22  C   UNL A   1      41.842  24.455  28.377  1.00  0.00    -0.000 C 
BRANCH  22  23
ATOM     23  C   UNL A   1      42.626  23.393  29.140  1.00  0.00    -0.003 C 
ATOM     24  C   UNL A   1      42.688  22.039  28.454  1.00  0.00     0.004 C 
ENDBRANCH  22  23
ENDBRANCH  21  22
ENDBRANCH  20  21
ENDBRANCH  19  20
ENDBRANCH  16  19
ENDBRANCH   9  15
ENDBRANCH   6   8
ENDBRANCH   5   6
ENDBRANCH   4   5
ENDBRANCH   3   4
ENDBRANCH   2   3
ENDBRANCH   1   2
BRANCH   1  25
ATOM     25  C   UNL A   1      33.681  35.347  31.144  1.00  0.00     0.188 C 
BRANCH  25  26
ATOM     26  O   UNL A   1      33.266  34.618  32.278  1.00  0.00    -0.377 OA
BRANCH  26  27
ATOM     27  C   UNL A   1      34.177  33.662  32.815  1.00  0.00     0.188 C 
BRANCH  27  28
ATOM     28  C   UNL A   1      35.156  34.107  33.920  1.00  0.00     0.188 C 
BRANCH  28  29
ATOM     29  O   UNL A   1      36.233  34.925  33.473  1.00  0.00    -0.376 OA
BRANCH  29  30
ATOM     30  C   UNL A   1      37.511  34.324  33.305  1.00  0.00     0.202 C 
BRANCH  30  31
ATOM     31  C   UNL A   1      37.770  33.618  31.964  1.00  0.00     0.261 C 
BRANCH  31  32
ATOM     32  O   UNL A   1      39.132  33.637  31.507  1.00  0.00    -0.460 OA
BRANCH  32  33
ATOM     33  C   UNL A   1      39.470  32.754  30.544  1.00  0.00     0.338 C 
ATOM     34  O   UNL A   1      38.871  32.534  29.507  1.00  0.00    -0.246 OA
BRANCH  33  35
ATOM     35  C   UNL A   1      40.813  32.228  30.857  1.00  0.00     0.060 A 
ATOM     36  C   UNL A   1      41.898  32.689  30.103  1.00  0.00     0.016 A 
ATOM     37  C   UNL A   1      40.997  31.277  31.863  1.00  0.00     0.016 A 
ATOM     38  C   UNL A   1      43.169  32.162  30.324  1.00  0.00     0.010 A 
ATOM     39  C   UNL A   1      42.269  30.737  32.071  1.00  0.00     0.010 A 
ATOM     40  C   UNL A   1      43.353  31.150  31.275  1.00  0.00    -0.014 A 
BRANCH  40  41
ATOM     41  C   UNL A   1      44.639  30.414  31.300  1.00  0.00     0.031 A 
ATOM     42  C   UNL A   1      45.690  30.831  32.295  1.00  0.00     0.074 A 
ATOM     43  C   UNL A   1      44.845  29.353  30.501  1.00  0.00     0.049 A 
ATOM     44  N   UNL A   1      46.858  30.298  32.538  1.00  0.00    -0.248 NA
ATOM     45  C   UNL A   1      45.377  32.004  33.129  1.00  0.00     0.031 C 
ATOM     46  C   UNL A   1      43.891  28.830  29.524  1.00  0.00     0.029 A 
ATOM     47  N   UNL A   1      45.928  28.517  30.396  1.00  0.00    -0.354 N 
ATOM     48  C   UNL A   1      47.420  31.064  33.553  1.00  0.00     0.074 A 
ATOM     49  C   UNL A   1      46.480  32.121  33.854  1.00  0.00     0.031 C 
ATOM     50  C   UNL A   1      44.431  27.756  28.920  1.00  0.00     0.029 A 
ATOM     51  C   UNL A   1      45.775  27.532  29.451  1.00  0.00     0.049 A 
ATOM     52  H   UNL A   1      46.739  28.613  30.946  1.00  0.00     0.167 HD
ATOM     53  C   UNL A   1      48.606  30.898  34.185  1.00  0.00     0.031 A 
ATOM     54  C   UNL A   1      46.625  26.564  29.053  1.00  0.00     0.031 A 
ATOM     55  C   UNL A   1      49.549  29.859  33.868  1.00  0.00     0.049 A 
ATOM     56  C   UNL A   1      47.970  26.443  29.723  1.00  0.00     0.074 A 
ATOM     57  C   UNL A   1      50.775  29.600  34.459  1.00  0.00     0.029 A 
ATOM     58  N   UNL A   1      49.381  28.913  32.868  1.00  0.00    -0.354 N 
ATOM     59  N   UNL A   1      48.471  27.156  30.705  1.00  0.00    -0.248 NA
ATOM     60  C   UNL A   1      48.857  25.378  29.237  1.00  0.00     0.031 C 
ATOM     61  C   UNL A   1      51.374  28.537  33.774  1.00  0.00     0.029 A 
ATOM     62  C   UNL A   1      50.493  28.089  32.803  1.00  0.00     0.049 A 
ATOM     63  H   UNL A   1      48.587  28.838  32.289  1.00  0.00     0.167 HD
ATOM     64  C   UNL A   1      49.723  26.608  30.969  1.00  0.00     0.074 A 
ATOM     65  C   UNL A   1      49.889  25.491  30.061  1.00  0.00     0.031 C 
ATOM     66  C   UNL A   1      50.652  26.993  31.881  1.00  0.00     0.031 A 
BRANCH  53  67
ATOM     67  C   UNL A   1      48.964  31.890  35.260  1.00  0.00    -0.014 A 
ATOM     68  C   UNL A   1      49.670  33.069  34.962  1.00  0.00     0.010 A 
ATOM     69  C   UNL A   1      48.553  31.657  36.585  1.00  0.00     0.010 A 
ATOM     70  C   UNL A   1      49.993  33.977  35.974  1.00  0.00     0.020 A 
ATOM     71  C   UNL A   1      48.848  32.576  37.596  1.00  0.00     0.020 A 
ATOM     72  C   UNL A   1      49.580  33.724  37.286  1.00  0.00     0.054 A 
BRANCH  72  73
ATOM     73  S   UNL A   1      49.989  34.931  38.577  1.00  0.00     0.124 S 
ATOM     74  O   UNL A   1      48.783  35.755  38.612  1.00  0.00    -0.237 OA
ATOM     75  O   UNL A   1      50.204  34.084  39.748  1.00  0.00    -0.237 OA
ATOM     76  O   UNL A   1      51.183  35.596  38.064  1.00  0.00    -0.744 OA
ENDBRANCH  72  73
ENDBRANCH  53  67
BRANCH  54  77
ATOM     77  C   UNL A   1      46.238  25.637  27.953  1.00  0.00    -0.014 A 
ATOM     78  C   UNL A   1      46.030  26.113  26.646  1.00  0.00     0.010 A 
ATOM     79  C   UNL A   1      46.068  24.264  28.214  1.00  0.00     0.010 A 
ATOM     80  C   UNL A   1      45.640  25.238  25.628  1.00  0.00     0.020 A 
ATOM     81  C   UNL A   1      45.707  23.383  27.192  1.00  0.00     0.020 A 
ATOM     82  C   UNL A   1      45.484  23.877  25.907  1.00  0.00     0.054 A 
BRANCH  82  83
ATOM     83  S   UNL A   1      45.025  22.753  24.558  1.00  0.00     0.124 S 
ATOM     84  O   UNL A   1      46.028  23.066  23.546  1.00  0.00    -0.237 OA
ATOM     85  O   UNL A   1      45.147  21.441  25.189  1.00  0.00    -0.237 OA
ATOM     86  O   UNL A   1      43.657  23.153  24.231  1.00  0.00    -0.744 OA
ENDBRANCH  82  83
ENDBRANCH  54  77
BRANCH  66  87
ATOM     87  C   UNL A   1      51.922  26.183  31.954  1.00  0.00    -0.014 A 
ATOM     88  C   UNL A   1      53.034  26.491  31.147  1.00  0.00     0.010 A 
ATOM     89  C   UNL A   1      52.012  25.109  32.858  1.00  0.00     0.010 A 
ATOM     90  C   UNL A   1      54.187  25.702  31.201  1.00  0.00     0.020 A 
ATOM     91  C   UNL A   1      53.175  24.339  32.939  1.00  0.00     0.020 A 
ATOM     92  C   UNL A   1      54.248  24.627  32.092  1.00  0.00     0.054 A 
BRANCH  92  93
ATOM     93  S   UNL A   1      55.755  23.620  32.145  1.00  0.00     0.124 S 
ATOM     94  O   UNL A   1      55.398  22.592  33.119  1.00  0.00    -0.237 OA
ATOM     95  O   UNL A   1      55.883  23.160  30.764  1.00  0.00    -0.237 OA
ATOM     96  O   UNL A   1      56.785  24.560  32.580  1.00  0.00    -0.744 OA
ENDBRANCH  92  93
ENDBRANCH  66  87
ENDBRANCH  40  41
ENDBRANCH  33  35
ENDBRANCH  32  33
ENDBRANCH  31  32
ENDBRANCH  30  31
ENDBRANCH  29  30
ENDBRANCH  28  29
ENDBRANCH  27  28
ENDBRANCH  26  27
ENDBRANCH  25  26
ENDBRANCH   1  25
TORSDOF 29
ENDMDL
MODEL 2
REMARK VINA RESULT:      -5.7      5.997      6.947
REMARK SMILES CCCCCCC(=O)Nc1ccc(Cl)c(C(=O)OCCOCCOCCOCCOC(=O)c2ccc(-c3c4nc(c(-c5ccc(S(=O)(=O)[O-])cc5)c5ccc([nH]5)c(-c5ccc(S(=O)(=O)[O-])cc5)c5nc(c(-c6ccc(S(=O)(=O)[O-])cc6)c6ccc3[nH]6)C=C5)C=C4)cc2)c1
REMARK SMILES IDX 22 1 21 2 20 3 19 4 18 5 16 6 17 7 15 8 10 9 11 10 93 11
REMARK SMILES IDX 12 12 13 13 14 14 9 15 7 16 8 17 6 19 5 20 4 21 3 22 2 23
REMARK SMILES IDX 1 24 23 25 24 26 25 27 26 28 27 29 28 30 29 31 30 32 31 33
REMARK SMILES IDX 32 34 33 35 34 36 92 37 35 38 91 39 36 40 37 41 38 42 85 43
REMARK SMILES IDX 39 44 90 45 84 46 86 47 40 48 89 49 83 50 82 51 41 53 71 54
REMARK SMILES IDX 52 55 70 56 53 57 56 58 69 59 87 60 54 61 55 62 68 64 88 65
REMARK SMILES IDX 57 66 42 67 43 68 51 69 44 70 50 71 45 72 46 73 47 74 48 75
REMARK SMILES IDX 49 76 72 77 73 78 81 79 74 80 80 81 75 82 76 83 77 84 78 85
REMARK SMILES IDX 79 86 58 87 59 88 67 89 60 90 66 91 61 92 62 93 63 94 64 95
REMARK SMILES IDX 65 96
REMARK H PARENT 9 18 86 52 56 63
REMARK Flexibility Score: inf
ROOT
ATOM      1  C   UNL A   1      34.646  33.011  28.095  1.00  0.00     0.188 C 
ENDROOT
BRANCH   1   2
ATOM      2  O   UNL A   1      34.192  31.739  27.651  1.00  0.00    -0.376 OA
BRANCH   2   3
ATOM      3  C   UNL A   1      32.830  31.551  27.265  1.00  0.00     0.202 C 
BRANCH   3   4
ATOM      4  C   UNL A   1      32.308  30.169  26.837  1.00  0.00     0.261 C 
BRANCH   4   5
ATOM      5  O   UNL A   1      33.020  29.631  25.717  1.00  0.00    -0.460 OA
BRANCH   5   6
ATOM      6  C   UNL A   1      33.873  28.606  25.932  1.00  0.00     0.339 C 
ATOM      7  O   UNL A   1      34.677  28.495  26.843  1.00  0.00    -0.246 OA
BRANCH   6   8
ATOM      8  C   UNL A   1      33.462  27.474  25.067  1.00  0.00     0.080 A 
ATOM      9  C   UNL A   1      32.201  25.403  24.944  1.00  0.00     0.042 A 
ATOM     10  C   UNL A   1      32.179  25.501  23.555  1.00  0.00     0.028 A 
ATOM     11  C   UNL A   1      32.812  26.397  25.709  1.00  0.00     0.043 A 
ATOM     12  C   UNL A   1      32.902  26.511  22.917  1.00  0.00     0.023 A 
ATOM     13  C   UNL A   1      33.567  27.489  23.667  1.00  0.00     0.055 A 
ATOM     14  Cl  UNL A   1      34.494  28.654  22.794  1.00  0.00    -0.083 Cl
BRANCH   9  15
ATOM     15  N   UNL A   1      31.528  24.331  25.534  1.00  0.00    -0.326 N 
ATOM     16  C   UNL A   1      31.968  23.038  25.613  1.00  0.00     0.224 C 
ATOM     17  O   UNL A   1      31.142  22.156  25.865  1.00  0.00    -0.275 OA
ATOM     18  H   UNL A   1      30.650  24.527  25.934  1.00  0.00     0.169 HD
BRANCH  16  19
ATOM     19  C   UNL A   1      33.425  22.689  25.377  1.00  0.00     0.100 C 
BRANCH  19  20
ATOM     20  C   UNL A   1      34.413  23.406  26.308  1.00  0.00     0.010 C 
BRANCH  20  21
ATOM     21  C   UNL A   1      35.750  23.873  25.713  1.00  0.00     0.001 C 
BRANCH  21  22
ATOM     22  C   UNL A   1      36.842  22.800  25.701  1.00  0.00    -0.000 C 
BRANCH  22  23
ATOM     23  C   UNL A   1      37.160  22.192  24.339  1.00  0.00    -0.003 C 
ATOM     24  C   UNL A   1      36.382  22.794  23.182  1.00  0.00     0.004 C 
ENDBRANCH  22  23
ENDBRANCH  21  22
ENDBRANCH  20  21
ENDBRANCH  19  20
ENDBRANCH  16  19
ENDBRANCH   9  15
ENDBRANCH   6   8
ENDBRANCH   5   6
ENDBRANCH   4   5
ENDBRANCH   3   4
ENDBRANCH   2   3
ENDBRANCH   1   2
BRANCH   1  25
ATOM     25  C   UNL A   1      34.240  33.552  29.476  1.00  0.00     0.188 C 
BRANCH  25  26
ATOM     26  O   UNL A   1      34.649  32.752  30.564  1.00  0.00    -0.377 OA
BRANCH  26  27
ATOM     27  C   UNL A   1      36.047  32.536  30.733  1.00  0.00     0.188 C 
BRANCH  27  28
ATOM     28  C   UNL A   1      36.597  31.100  30.624  1.00  0.00     0.188 C 
BRANCH  28  29
ATOM     29  O   UNL A   1      38.012  31.008  30.501  1.00  0.00    -0.376 OA
BRANCH  29  30
ATOM     30  C   UNL A   1      38.816  31.748  31.411  1.00  0.00     0.202 C 
BRANCH  30  31
ATOM     31  C   UNL A   1      40.156  32.280  30.874  1.00  0.00     0.261 C 
BRANCH  31  32
ATOM     32  O   UNL A   1      41.067  32.776  31.867  1.00  0.00    -0.460 OA
BRANCH  32  33
ATOM     33  C   UNL A   1      42.013  33.647  31.453  1.00  0.00     0.338 C 
ATOM     34  O   UNL A   1      42.173  34.792  31.833  1.00  0.00    -0.246 OA
BRANCH  33  35
ATOM     35  C   UNL A   1      42.963  32.914  30.594  1.00  0.00     0.060 A 
ATOM     36  C   UNL A   1      43.929  32.109  31.209  1.00  0.00     0.016 A 
ATOM     37  C   UNL A   1      42.919  33.036  29.203  1.00  0.00     0.016 A 
ATOM     38  C   UNL A   1      44.886  31.460  30.433  1.00  0.00     0.010 A 
ATOM     39  C   UNL A   1      43.890  32.398  28.428  1.00  0.00     0.010 A 
ATOM     40  C   UNL A   1      44.901  31.638  29.043  1.00  0.00    -0.014 A 
BRANCH  40  41
ATOM     41  C   UNL A   1      46.079  31.172  28.273  1.00  0.00     0.031 A 
ATOM     42  C   UNL A   1      47.229  32.121  28.069  1.00  0.00     0.074 A 
ATOM     43  C   UNL A   1      46.154  29.908  27.821  1.00  0.00     0.049 A 
ATOM     44  N   UNL A   1      48.380  31.914  27.485  1.00  0.00    -0.248 NA
ATOM     45  C   UNL A   1      47.058  33.485  28.597  1.00  0.00     0.031 C 
ATOM     46  C   UNL A   1      45.122  28.885  27.989  1.00  0.00     0.029 A 
ATOM     47  N   UNL A   1      47.155  29.268  27.136  1.00  0.00    -0.354 N 
ATOM     48  C   UNL A   1      49.073  33.116  27.578  1.00  0.00     0.074 A 
ATOM     49  C   UNL A   1      48.199  34.058  28.241  1.00  0.00     0.031 C 
ATOM     50  C   UNL A   1      45.548  27.741  27.424  1.00  0.00     0.029 A 
ATOM     51  C   UNL A   1      46.869  27.958  26.836  1.00  0.00     0.049 A 
ATOM     52  H   UNL A   1      48.001  29.705  26.883  1.00  0.00     0.167 HD
ATOM     53  C   UNL A   1      50.328  33.407  27.158  1.00  0.00     0.031 A 
ATOM     54  C   UNL A   1      47.586  27.041  26.157  1.00  0.00     0.031 A 
ATOM     55  C   UNL A   1      51.187  32.475  26.479  1.00  0.00     0.049 A 
ATOM     56  C   UNL A   1      48.951  27.411  25.637  1.00  0.00     0.074 A 
ATOM     57  C   UNL A   1      52.479  32.671  26.023  1.00  0.00     0.029 A 
ATOM     58  N   UNL A   1      50.840  31.174  26.146  1.00  0.00    -0.354 N 
ATOM     59  N   UNL A   1      49.606  28.542  25.763  1.00  0.00    -0.248 NA
ATOM     60  C   UNL A   1      49.680  26.374  24.894  1.00  0.00     0.031 C 
ATOM     61  C   UNL A   1      52.890  31.510  25.360  1.00  0.00     0.029 A 
ATOM     62  C   UNL A   1      51.880  30.566  25.462  1.00  0.00     0.049 A 
ATOM     63  H   UNL A   1      49.980  30.746  26.363  1.00  0.00     0.167 HD
ATOM     64  C   UNL A   1      50.833  28.343  25.136  1.00  0.00     0.074 A 
ATOM     65  C   UNL A   1      50.836  26.976  24.654  1.00  0.00     0.031 C 
ATOM     66  C   UNL A   1      51.863  29.211  24.972  1.00  0.00     0.031 A 
BRANCH  53  67
ATOM     67  C   UNL A   1      50.829  34.808  27.393  1.00  0.00    -0.014 A 
ATOM     68  C   UNL A   1      51.431  35.175  28.610  1.00  0.00     0.010 A 
ATOM     69  C   UNL A   1      50.728  35.763  26.365  1.00  0.00     0.010 A 
ATOM     70  C   UNL A   1      51.889  36.481  28.808  1.00  0.00     0.020 A 
ATOM     71  C   UNL A   1      51.210  37.062  26.549  1.00  0.00     0.020 A 
ATOM     72  C   UNL A   1      51.775  37.417  27.776  1.00  0.00     0.054 A 
BRANCH  72  73
ATOM     73  S   UNL A   1      52.400  39.097  28.050  1.00  0.00     0.124 S 
ATOM     74  O   UNL A   1      53.071  38.962  29.341  1.00  0.00    -0.237 OA
ATOM     75  O   UNL A   1      53.283  39.299  26.903  1.00  0.00    -0.237 OA
ATOM     76  O   UNL A   1      51.194  39.920  28.058  1.00  0.00    -0.744 OA
ENDBRANCH  72  73
ENDBRANCH  53  67
BRANCH  54  77
ATOM     77  C   UNL A   1      47.023  25.683  25.914  1.00  0.00    -0.014 A 
ATOM     78  C   UNL A   1      46.422  24.954  26.954  1.00  0.00     0.010 A 
ATOM     79  C   UNL A   1      47.096  25.109  24.631  1.00  0.00     0.010 A 
ATOM     80  C   UNL A   1      45.923  23.668  26.721  1.00  0.00     0.020 A 
ATOM     81  C   UNL A   1      46.571  23.837  24.387  1.00  0.00     0.020 A 
ATOM     82  C   UNL A   1      45.998  23.119  25.437  1.00  0.00     0.054 A 
BRANCH  82  83
ATOM     83  S   UNL A   1      45.299  21.470  25.148  1.00  0.00     0.124 S 
ATOM     84  O   UNL A   1      44.379  21.328  26.270  1.00  0.00    -0.237 OA
ATOM     85  O   UNL A   1      44.678  21.619  23.833  1.00  0.00    -0.237 OA
ATOM     86  O   UNL A   1      46.468  20.593  25.179  1.00  0.00    -0.744 OA
ENDBRANCH  82  83
ENDBRANCH  54  77
BRANCH  66  87
ATOM     87  C   UNL A   1      53.089  28.698  24.261  1.00  0.00    -0.014 A 
ATOM     88  C   UNL A   1      54.166  28.136  24.972  1.00  0.00     0.010 A 
ATOM     89  C   UNL A   1      53.158  28.762  22.857  1.00  0.00     0.010 A 
ATOM     90  C   UNL A   1      55.312  27.704  24.296  1.00  0.00     0.020 A 
ATOM     91  C   UNL A   1      54.287  28.300  22.176  1.00  0.00     0.020 A 
ATOM     92  C   UNL A   1      55.367  27.795  22.902  1.00  0.00     0.054 A 
BRANCH  92  93
ATOM     93  S   UNL A   1      56.863  27.226  22.048  1.00  0.00     0.124 S 
ATOM     94  O   UNL A   1      57.469  26.353  23.050  1.00  0.00    -0.237 OA
ATOM     95  O   UNL A   1      56.323  26.552  20.870  1.00  0.00    -0.237 OA
ATOM     96  O   UNL A   1      57.594  28.460  21.772  1.00  0.00    -0.744 OA
ENDBRANCH  92  93
ENDBRANCH  66  87
ENDBRANCH  40  41
ENDBRANCH  33  35
ENDBRANCH  32  33
ENDBRANCH  31  32
ENDBRANCH  30  31
ENDBRANCH  29  30
ENDBRANCH  28  29
ENDBRANCH  27  28
ENDBRANCH  26  27
ENDBRANCH  25  26
ENDBRANCH   1  25
TORSDOF 29
ENDMDL
MODEL 3
REMARK VINA RESULT:      -5.6      5.726      9.996
REMARK SMILES CCCCCCC(=O)Nc1ccc(Cl)c(C(=O)OCCOCCOCCOCCOC(=O)c2ccc(-c3c4nc(c(-c5ccc(S(=O)(=O)[O-])cc5)c5ccc([nH]5)c(-c5ccc(S(=O)(=O)[O-])cc5)c5nc(c(-c6ccc(S(=O)(=O)[O-])cc6)c6ccc3[nH]6)C=C5)C=C4)cc2)c1
REMARK SMILES IDX 22 1 21 2 20 3 19 4 18 5 16 6 17 7 15 8 10 9 11 10 93 11
REMARK SMILES IDX 12 12 13 13 14 14 9 15 7 16 8 17 6 19 5 20 4 21 3 22 2 23
REMARK SMILES IDX 1 24 23 25 24 26 25 27 26 28 27 29 28 30 29 31 30 32 31 33
REMARK SMILES IDX 32 34 33 35 34 36 92 37 35 38 91 39 36 40 37 41 38 42 85 43
REMARK SMILES IDX 39 44 90 45 84 46 86 47 40 48 89 49 83 50 82 51 41 53 71 54
REMARK SMILES IDX 52 55 70 56 53 57 56 58 69 59 87 60 54 61 55 62 68 64 88 65
REMARK SMILES IDX 57 66 42 67 43 68 51 69 44 70 50 71 45 72 46 73 47 74 48 75
REMARK SMILES IDX 49 76 72 77 73 78 81 79 74 80 80 81 75 82 76 83 77 84 78 85
REMARK SMILES IDX 79 86 58 87 59 88 67 89 60 90 66 91 61 92 62 93 63 94 64 95
REMARK SMILES IDX 65 96
REMARK H PARENT 9 18 86 52 56 63
REMARK Flexibility Score: inf
ROOT
ATOM      1  C   UNL A   1      33.952  32.839  28.301  1.00  0.00     0.188 C 
ENDROOT
BRANCH   1   2
ATOM      2  O   UNL A   1      34.822  31.794  27.887  1.00  0.00    -0.376 OA
BRANCH   2   3
ATOM      3  C   UNL A   1      34.342  30.454  27.778  1.00  0.00     0.202 C 
BRANCH   3   4
ATOM      4  C   UNL A   1      35.107  29.400  26.958  1.00  0.00     0.261 C 
BRANCH   4   5
ATOM      5  O   UNL A   1      34.258  28.355  26.470  1.00  0.00    -0.460 OA
BRANCH   5   6
ATOM      6  C   UNL A   1      33.489  28.606  25.389  1.00  0.00     0.339 C 
ATOM      7  O   UNL A   1      33.676  29.456  24.533  1.00  0.00    -0.246 OA
BRANCH   6   8
ATOM      8  C   UNL A   1      32.545  27.476  25.220  1.00  0.00     0.080 A 
ATOM      9  C   UNL A   1      32.020  25.478  23.945  1.00  0.00     0.042 A 
ATOM     10  C   UNL A   1      31.206  25.031  24.983  1.00  0.00     0.028 A 
ATOM     11  C   UNL A   1      32.716  26.681  24.066  1.00  0.00     0.043 A 
ATOM     12  C   UNL A   1      30.960  25.858  26.080  1.00  0.00     0.023 A 
ATOM     13  C   UNL A   1      31.608  27.094  26.196  1.00  0.00     0.055 A 
ATOM     14  Cl  UNL A   1      31.189  28.079  27.549  1.00  0.00    -0.083 Cl
BRANCH   9  15
ATOM     15  N   UNL A   1      32.174  24.649  22.831  1.00  0.00    -0.326 N 
ATOM     16  C   UNL A   1      33.163  23.723  22.637  1.00  0.00     0.224 C 
ATOM     17  O   UNL A   1      33.356  23.309  21.490  1.00  0.00    -0.275 OA
ATOM     18  H   UNL A   1      31.505  24.742  22.115  1.00  0.00     0.169 HD
BRANCH  16  19
ATOM     19  C   UNL A   1      34.015  23.232  23.791  1.00  0.00     0.100 C 
BRANCH  19  20
ATOM     20  C   UNL A   1      33.950  21.717  24.035  1.00  0.00     0.010 C 
BRANCH  20  21
ATOM     21  C   UNL A   1      34.544  21.174  25.343  1.00  0.00     0.001 C 
BRANCH  21  22
ATOM     22  C   UNL A   1      35.056  22.256  26.298  1.00  0.00    -0.000 C 
BRANCH  22  23
ATOM     23  C   UNL A   1      34.165  22.555  27.499  1.00  0.00    -0.003 C 
ATOM     24  C   UNL A   1      32.676  22.460  27.219  1.00  0.00     0.004 C 
ENDBRANCH  22  23
ENDBRANCH  21  22
ENDBRANCH  20  21
ENDBRANCH  19  20
ENDBRANCH  16  19
ENDBRANCH   9  15
ENDBRANCH   6   8
ENDBRANCH   5   6
ENDBRANCH   4   5
ENDBRANCH   3   4
ENDBRANCH   2   3
ENDBRANCH   1   2
BRANCH   1  25
ATOM     25  C   UNL A   1      34.494  34.056  29.069  1.00  0.00     0.188 C 
BRANCH  25  26
ATOM     26  O   UNL A   1      34.328  33.990  30.468  1.00  0.00    -0.377 OA
BRANCH  26  27
ATOM     27  C   UNL A   1      34.854  32.849  31.140  1.00  0.00     0.188 C 
BRANCH  27  28
ATOM     28  C   UNL A   1      36.200  32.976  31.882  1.00  0.00     0.188 C 
BRANCH  28  29
ATOM     29  O   UNL A   1      37.257  33.540  31.112  1.00  0.00    -0.376 OA
BRANCH  29  30
ATOM     30  C   UNL A   1      38.586  33.106  31.374  1.00  0.00     0.202 C 
BRANCH  30  31
ATOM     31  C   UNL A   1      39.669  34.197  31.434  1.00  0.00     0.261 C 
BRANCH  31  32
ATOM     32  O   UNL A   1      40.349  34.325  32.693  1.00  0.00    -0.460 OA
BRANCH  32  33
ATOM     33  C   UNL A   1      41.692  34.457  32.655  1.00  0.00     0.338 C 
ATOM     34  O   UNL A   1      42.326  35.372  32.162  1.00  0.00    -0.246 OA
BRANCH  33  35
ATOM     35  C   UNL A   1      42.280  33.396  33.495  1.00  0.00     0.060 A 
ATOM     36  C   UNL A   1      43.674  33.288  33.550  1.00  0.00     0.016 A 
ATOM     37  C   UNL A   1      41.468  32.504  34.200  1.00  0.00     0.016 A 
ATOM     38  C   UNL A   1      44.261  32.254  34.276  1.00  0.00     0.010 A 
ATOM     39  C   UNL A   1      42.058  31.458  34.914  1.00  0.00     0.010 A 
ATOM     40  C   UNL A   1      43.456  31.306  34.922  1.00  0.00    -0.014 A 
BRANCH  40  41
ATOM     41  C   UNL A   1      44.085  30.071  35.448  1.00  0.00     0.031 A 
ATOM     42  C   UNL A   1      44.351  28.935  34.497  1.00  0.00     0.074 A 
ATOM     43  C   UNL A   1      44.474  29.985  36.733  1.00  0.00     0.049 A 
ATOM     44  N   UNL A   1      44.942  27.791  34.718  1.00  0.00    -0.248 NA
ATOM     45  C   UNL A   1      43.890  29.117  33.110  1.00  0.00     0.031 C 
ATOM     46  C   UNL A   1      44.306  31.032  37.740  1.00  0.00     0.029 A 
ATOM     47  N   UNL A   1      45.104  28.968  37.404  1.00  0.00    -0.354 N 
ATOM     48  C   UNL A   1      44.930  27.117  33.502  1.00  0.00     0.074 A 
ATOM     49  C   UNL A   1      44.239  27.965  32.556  1.00  0.00     0.031 C 
ATOM     50  C   UNL A   1      44.827  30.602  38.904  1.00  0.00     0.029 A 
ATOM     51  C   UNL A   1      45.341  29.244  38.728  1.00  0.00     0.049 A 
ATOM     52  H   UNL A   1      45.364  28.119  36.977  1.00  0.00     0.167 HD
ATOM     53  C   UNL A   1      45.455  25.906  33.196  1.00  0.00     0.031 A 
ATOM     54  C   UNL A   1      45.901  28.486  39.692  1.00  0.00     0.031 A 
ATOM     55  C   UNL A   1      46.122  25.055  34.144  1.00  0.00     0.049 A 
ATOM     56  C   UNL A   1      46.414  27.112  39.343  1.00  0.00     0.074 A 
ATOM     57  C   UNL A   1      46.698  23.814  33.930  1.00  0.00     0.029 A 
ATOM     58  N   UNL A   1      46.295  25.347  35.489  1.00  0.00    -0.354 N 
ATOM     59  N   UNL A   1      46.425  26.504  38.180  1.00  0.00    -0.248 NA
ATOM     60  C   UNL A   1      47.003  26.328  40.438  1.00  0.00     0.031 C 
ATOM     61  C   UNL A   1      47.162  23.329  35.157  1.00  0.00     0.029 A 
ATOM     62  C   UNL A   1      46.938  24.297  36.123  1.00  0.00     0.049 A 
ATOM     63  H   UNL A   1      46.001  26.179  35.928  1.00  0.00     0.167 HD
ATOM     64  C   UNL A   1      47.043  25.276  38.399  1.00  0.00     0.074 A 
ATOM     65  C   UNL A   1      47.412  25.241  39.800  1.00  0.00     0.031 C 
ATOM     66  C   UNL A   1      47.283  24.268  37.523  1.00  0.00     0.031 A 
BRANCH  53  67
ATOM     67  C   UNL A   1      45.292  25.418  31.780  1.00  0.00    -0.014 A 
ATOM     68  C   UNL A   1      46.210  25.772  30.775  1.00  0.00     0.010 A 
ATOM     69  C   UNL A   1      44.224  24.560  31.460  1.00  0.00     0.010 A 
ATOM     70  C   UNL A   1      46.040  25.310  29.467  1.00  0.00     0.020 A 
ATOM     71  C   UNL A   1      44.067  24.072  30.159  1.00  0.00     0.020 A 
ATOM     72  C   UNL A   1      44.969  24.462  29.167  1.00  0.00     0.054 A 
BRANCH  72  73
ATOM     73  S   UNL A   1      44.787  23.855  27.468  1.00  0.00     0.124 S 
ATOM     74  O   UNL A   1      46.179  23.694  27.055  1.00  0.00    -0.237 OA
ATOM     75  O   UNL A   1      44.040  22.612  27.652  1.00  0.00    -0.237 OA
ATOM     76  O   UNL A   1      44.057  24.924  26.793  1.00  0.00    -0.744 OA
ENDBRANCH  72  73
ENDBRANCH  53  67
BRANCH  54  77
ATOM     77  C   UNL A   1      45.996  29.000  41.086  1.00  0.00    -0.014 A 
ATOM     78  C   UNL A   1      47.096  29.774  41.498  1.00  0.00     0.010 A 
ATOM     79  C   UNL A   1      44.981  28.708  42.017  1.00  0.00     0.010 A 
ATOM     80  C   UNL A   1      47.188  30.228  42.818  1.00  0.00     0.020 A 
ATOM     81  C   UNL A   1      45.055  29.185  43.328  1.00  0.00     0.020 A 
ATOM     82  C   UNL A   1      46.165  29.933  43.724  1.00  0.00     0.054 A 
BRANCH  82  83
ATOM     83  S   UNL A   1      46.283  30.574  45.417  1.00  0.00     0.124 S 
ATOM     84  O   UNL A   1      47.245  31.660  45.265  1.00  0.00    -0.237 OA
ATOM     85  O   UNL A   1      44.907  30.980  45.695  1.00  0.00    -0.237 OA
ATOM     86  O   UNL A   1      46.751  29.423  46.186  1.00  0.00    -0.744 OA
ENDBRANCH  82  83
ENDBRANCH  54  77
BRANCH  66  87
ATOM     87  C   UNL A   1      48.000  23.051  38.052  1.00  0.00    -0.014 A 
ATOM     88  C   UNL A   1      47.322  22.070  38.799  1.00  0.00     0.010 A 
ATOM     89  C   UNL A   1      49.369  22.877  37.781  1.00  0.00     0.010 A 
ATOM     90  C   UNL A   1      48.014  20.970  39.315  1.00  0.00     0.020 A 
ATOM     91  C   UNL A   1      50.057  21.762  38.266  1.00  0.00     0.020 A 
ATOM     92  C   UNL A   1      49.379  20.827  39.050  1.00  0.00     0.054 A 
BRANCH  92  93
ATOM     93  S   UNL A   1      50.255  19.391  39.729  1.00  0.00     0.124 S 
ATOM     94  O   UNL A   1      49.151  18.496  40.068  1.00  0.00    -0.237 OA
ATOM     95  O   UNL A   1      51.089  18.964  38.609  1.00  0.00    -0.237 OA
ATOM     96  O   UNL A   1      50.985  19.938  40.870  1.00  0.00    -0.744 OA
ENDBRANCH  92  93
ENDBRANCH  66  87
ENDBRANCH  40  41
ENDBRANCH  33  35
ENDBRANCH  32  33
ENDBRANCH  31  32
ENDBRANCH  30  31
ENDBRANCH  29  30
ENDBRANCH  28  29
ENDBRANCH  27  28
ENDBRANCH  26  27
ENDBRANCH  25  26
ENDBRANCH   1  25
TORSDOF 29
ENDMDL
