MODEL 1
REMARK VINA RESULT:     -10.0      0.000      0.000
REMARK SMILES C[C@H](NC(=O)N1CCN(/C=C/c2ccccc2)CC1)C(=O)OCCOCCOCCOCCOC(=O)c1ccc(-c2c3nc(c(-c4ccc(S(=O)(=O)[O-])cc4)c4ccc([nH]4)c(-c4ccc(S(=O)(=O)[O-])cc4)c4nc(c(-c5ccc(S(=O)(=O)[O-])cc5)c5ccc2[nH]5)C=C4)C=C3)cc1
REMARK SMILES IDX 28 1 27 2 26 3 25 4 24 5 23 6 22 7 20 8 21 9 2 10 1 11 3 12
REMARK SMILES IDX 4 13 5 15 6 16 7 17 19 18 8 19 18 20 9 21 10 22 11 23 12 24
REMARK SMILES IDX 13 25 17 26 14 27 16 28 15 29 29 30 30 31 31 32 32 33 33 34
REMARK SMILES IDX 34 35 35 36 36 37 37 38 38 39 96 40 39 41 95 42 40 43 41 44
REMARK SMILES IDX 42 45 89 46 43 47 94 48 88 49 90 50 44 51 93 52 87 53 86 54
REMARK SMILES IDX 45 56 75 57 56 58 74 59 57 60 60 61 73 62 91 63 58 64 59 65
REMARK SMILES IDX 72 67 92 68 61 69 46 70 47 71 55 72 48 73 54 74 49 75 50 76
REMARK SMILES IDX 51 77 52 78 53 79 76 80 77 81 85 82 78 83 84 84 79 85 80 86
REMARK SMILES IDX 81 87 82 88 83 89 62 90 63 91 71 92 64 93 70 94 65 95 66 96
REMARK SMILES IDX 67 97 68 98 69 99
REMARK H PARENT 3 14 90 55 60 66
REMARK Flexibility Score: inf
ROOT
ATOM      1  O   UNL A   1      39.241  21.057  25.660  1.00  0.00    -0.377 OA
ENDROOT
BRANCH   1   2
ATOM      2  C   UNL A   1      38.273  22.076  25.770  1.00  0.00     0.188 C 
BRANCH   2   3
ATOM      3  C   UNL A   1      36.820  21.566  25.683  1.00  0.00     0.188 C 
BRANCH   3   4
ATOM      4  O   UNL A   1      35.759  22.418  25.288  1.00  0.00    -0.376 OA
BRANCH   4   5
ATOM      5  C   UNL A   1      34.979  23.080  26.273  1.00  0.00     0.202 C 
BRANCH   5   6
ATOM      6  C   UNL A   1      34.238  24.403  25.985  1.00  0.00     0.261 C 
BRANCH   6   7
ATOM      7  O   UNL A   1      32.962  24.586  26.624  1.00  0.00    -0.462 OA
BRANCH   7   8
ATOM      8  C   UNL A   1      32.196  25.602  26.163  1.00  0.00     0.328 C 
ATOM      9  O   UNL A   1      31.115  25.929  26.641  1.00  0.00    -0.250 OA
BRANCH   8  10
ATOM     10  C   UNL A   1      32.766  26.281  24.901  1.00  0.00     0.190 C 
ATOM     11  C   UNL A   1      33.631  27.446  25.371  1.00  0.00     0.043 C 
BRANCH  10  12
ATOM     12  N   UNL A   1      31.884  26.782  23.838  1.00  0.00    -0.325 N 
ATOM     13  C   UNL A   1      31.587  26.150  22.664  1.00  0.00     0.318 C 
ATOM     14  H   UNL A   1      31.466  27.662  23.986  1.00  0.00     0.166 HD
ATOM     15  O   UNL A   1      31.334  26.792  21.650  1.00  0.00    -0.249 OA
ATOM     16  N   UNL A   1      31.607  24.791  22.686  1.00  0.00    -0.321 N 
ATOM     17  C   UNL A   1      32.585  24.009  21.958  1.00  0.00     0.143 C 
ATOM     18  C   UNL A   1      30.548  23.995  23.279  1.00  0.00     0.143 C 
ATOM     19  C   UNL A   1      33.241  23.001  22.922  1.00  0.00     0.137 C 
ATOM     20  C   UNL A   1      31.135  23.009  24.295  1.00  0.00     0.137 C 
ATOM     21  N   UNL A   1      32.233  22.215  23.686  1.00  0.00    -0.374 N 
BRANCH  21  22
ATOM     22  C   UNL A   1      32.387  20.880  24.010  1.00  0.00     0.081 C 
ATOM     23  C   UNL A   1      33.400  20.285  24.651  1.00  0.00     0.025 C 
BRANCH  23  24
ATOM     24  C   UNL A   1      33.512  18.837  24.843  1.00  0.00    -0.024 A 
ATOM     25  C   UNL A   1      34.629  18.173  24.326  1.00  0.00     0.008 A 
ATOM     26  C   UNL A   1      32.481  18.088  25.425  1.00  0.00     0.008 A 
ATOM     27  C   UNL A   1      34.716  16.783  24.392  1.00  0.00     0.001 A 
ATOM     28  C   UNL A   1      32.568  16.697  25.491  1.00  0.00     0.001 A 
ATOM     29  C   UNL A   1      33.684  16.046  24.971  1.00  0.00     0.000 A 
ENDBRANCH  23  24
ENDBRANCH  21  22
ENDBRANCH  10  12
ENDBRANCH   8  10
ENDBRANCH   7   8
ENDBRANCH   6   7
ENDBRANCH   5   6
ENDBRANCH   4   5
ENDBRANCH   3   4
ENDBRANCH   2   3
ENDBRANCH   1   2
BRANCH   1  30
ATOM     30  C   UNL A   1      40.301  21.123  26.601  1.00  0.00     0.188 C 
BRANCH  30  31
ATOM     31  C   UNL A   1      40.996  22.486  26.802  1.00  0.00     0.188 C 
BRANCH  31  32
ATOM     32  O   UNL A   1      42.417  22.416  26.892  1.00  0.00    -0.376 OA
BRANCH  32  33
ATOM     33  C   UNL A   1      43.182  22.442  25.694  1.00  0.00     0.202 C 
BRANCH  33  34
ATOM     34  C   UNL A   1      43.424  23.812  25.036  1.00  0.00     0.261 C 
BRANCH  34  35
ATOM     35  O   UNL A   1      43.442  24.945  25.917  1.00  0.00    -0.460 OA
BRANCH  35  36
ATOM     36  C   UNL A   1      42.381  25.778  25.873  1.00  0.00     0.338 C 
ATOM     37  O   UNL A   1      41.536  25.834  24.994  1.00  0.00    -0.246 OA
BRANCH  36  38
ATOM     38  C   UNL A   1      42.270  26.458  27.181  1.00  0.00     0.060 A 
ATOM     39  C   UNL A   1      41.235  26.073  28.042  1.00  0.00     0.016 A 
ATOM     40  C   UNL A   1      43.176  27.451  27.568  1.00  0.00     0.016 A 
ATOM     41  C   UNL A   1      41.071  26.713  29.268  1.00  0.00     0.010 A 
ATOM     42  C   UNL A   1      42.995  28.111  28.789  1.00  0.00     0.010 A 
ATOM     43  C   UNL A   1      41.914  27.773  29.623  1.00  0.00    -0.014 A 
BRANCH  43  44
ATOM     44  C   UNL A   1      41.515  28.640  30.759  1.00  0.00     0.031 A 
ATOM     45  C   UNL A   1      42.321  28.570  32.030  1.00  0.00     0.074 A 
ATOM     46  C   UNL A   1      40.525  29.543  30.633  1.00  0.00     0.049 A 
ATOM     47  N   UNL A   1      42.212  29.283  33.121  1.00  0.00    -0.248 NA
ATOM     48  C   UNL A   1      43.400  27.568  32.071  1.00  0.00     0.031 C 
ATOM     49  C   UNL A   1      39.700  29.734  29.441  1.00  0.00     0.029 A 
ATOM     50  N   UNL A   1      40.058  30.479  31.521  1.00  0.00    -0.354 N 
ATOM     51  C   UNL A   1      43.212  28.824  33.971  1.00  0.00     0.074 A 
ATOM     52  C   UNL A   1      43.885  27.741  33.292  1.00  0.00     0.031 C 
ATOM     53  C   UNL A   1      38.825  30.729  29.673  1.00  0.00     0.029 A 
ATOM     54  C   UNL A   1      39.011  31.226  31.035  1.00  0.00     0.049 A 
ATOM     55  H   UNL A   1      40.436  30.604  32.421  1.00  0.00     0.167 HD
ATOM     56  C   UNL A   1      43.554  29.276  35.202  1.00  0.00     0.031 A 
ATOM     57  C   UNL A   1      38.280  32.192  31.626  1.00  0.00     0.031 A 
ATOM     58  C   UNL A   1      42.867  30.338  35.889  1.00  0.00     0.049 A 
ATOM     59  C   UNL A   1      38.629  32.626  33.028  1.00  0.00     0.074 A 
ATOM     60  C   UNL A   1      43.129  30.862  37.143  1.00  0.00     0.029 A 
ATOM     61  N   UNL A   1      41.781  31.035  35.384  1.00  0.00    -0.354 N 
ATOM     62  N   UNL A   1      39.591  32.196  33.811  1.00  0.00    -0.248 NA
ATOM     63  C   UNL A   1      37.803  33.688  33.618  1.00  0.00     0.031 C 
ATOM     64  C   UNL A   1      42.162  31.835  37.420  1.00  0.00     0.029 A 
ATOM     65  C   UNL A   1      41.344  31.969  36.309  1.00  0.00     0.049 A 
ATOM     66  H   UNL A   1      41.378  30.890  34.498  1.00  0.00     0.167 HD
ATOM     67  C   UNL A   1      39.500  32.953  34.976  1.00  0.00     0.074 A 
ATOM     68  C   UNL A   1      38.410  33.886  34.780  1.00  0.00     0.031 C 
ATOM     69  C   UNL A   1      40.248  32.883  36.107  1.00  0.00     0.031 A 
BRANCH  56  70
ATOM     70  C   UNL A   1      44.711  28.602  35.893  1.00  0.00    -0.014 A 
ATOM     71  C   UNL A   1      44.507  27.501  36.746  1.00  0.00     0.010 A 
ATOM     72  C   UNL A   1      46.024  29.047  35.655  1.00  0.00     0.010 A 
ATOM     73  C   UNL A   1      45.590  26.878  37.370  1.00  0.00     0.020 A 
ATOM     74  C   UNL A   1      47.113  28.407  36.254  1.00  0.00     0.020 A 
ATOM     75  C   UNL A   1      46.888  27.334  37.118  1.00  0.00     0.054 A 
BRANCH  75  76
ATOM     76  S   UNL A   1      48.277  26.480  37.913  1.00  0.00     0.124 S 
ATOM     77  O   UNL A   1      48.274  27.076  39.247  1.00  0.00    -0.237 OA
ATOM     78  O   UNL A   1      47.868  25.079  37.850  1.00  0.00    -0.237 OA
ATOM     79  O   UNL A   1      49.424  26.830  37.078  1.00  0.00    -0.744 OA
ENDBRANCH  75  76
ENDBRANCH  56  70
BRANCH  57  80
ATOM     80  C   UNL A   1      37.123  32.798  30.908  1.00  0.00    -0.014 A 
ATOM     81  C   UNL A   1      37.301  33.841  29.981  1.00  0.00     0.010 A 
ATOM     82  C   UNL A   1      35.819  32.337  31.171  1.00  0.00     0.010 A 
ATOM     83  C   UNL A   1      36.196  34.426  29.352  1.00  0.00     0.020 A 
ATOM     84  C   UNL A   1      34.717  32.895  30.519  1.00  0.00     0.020 A 
ATOM     85  C   UNL A   1      34.912  33.946  29.623  1.00  0.00     0.054 A 
BRANCH  85  86
ATOM     86  S   UNL A   1      33.498  34.692  28.765  1.00  0.00     0.124 S 
ATOM     87  O   UNL A   1      34.098  35.876  28.159  1.00  0.00    -0.237 OA
ATOM     88  O   UNL A   1      33.102  33.635  27.836  1.00  0.00    -0.237 OA
ATOM     89  O   UNL A   1      32.543  34.952  29.841  1.00  0.00    -0.744 OA
ENDBRANCH  85  86
ENDBRANCH  57  80
BRANCH  69  90
ATOM     90  C   UNL A   1      39.929  33.865  37.207  1.00  0.00    -0.014 A 
ATOM     91  C   UNL A   1      40.506  35.147  37.235  1.00  0.00     0.010 A 
ATOM     92  C   UNL A   1      39.025  33.501  38.222  1.00  0.00     0.010 A 
ATOM     93  C   UNL A   1      40.233  36.023  38.290  1.00  0.00     0.020 A 
ATOM     94  C   UNL A   1      38.721  34.388  39.259  1.00  0.00     0.020 A 
ATOM     95  C   UNL A   1      39.347  35.635  39.299  1.00  0.00     0.054 A 
BRANCH  95  96
ATOM     96  S   UNL A   1      39.011  36.788  40.658  1.00  0.00     0.124 S 
ATOM     97  O   UNL A   1      38.263  37.844  39.980  1.00  0.00    -0.237 OA
ATOM     98  O   UNL A   1      38.240  35.969  41.589  1.00  0.00    -0.237 OA
ATOM     99  O   UNL A   1      40.341  37.170  41.127  1.00  0.00    -0.744 OA
ENDBRANCH  95  96
ENDBRANCH  69  90
ENDBRANCH  43  44
ENDBRANCH  36  38
ENDBRANCH  35  36
ENDBRANCH  34  35
ENDBRANCH  33  34
ENDBRANCH  32  33
ENDBRANCH  31  32
ENDBRANCH  30  31
ENDBRANCH   1  30
TORSDOF 26
ENDMDL
MODEL 2
REMARK VINA RESULT:      -9.5      2.105      9.082
REMARK SMILES C[C@H](NC(=O)N1CCN(/C=C/c2ccccc2)CC1)C(=O)OCCOCCOCCOCCOC(=O)c1ccc(-c2c3nc(c(-c4ccc(S(=O)(=O)[O-])cc4)c4ccc([nH]4)c(-c4ccc(S(=O)(=O)[O-])cc4)c4nc(c(-c5ccc(S(=O)(=O)[O-])cc5)c5ccc2[nH]5)C=C4)C=C3)cc1
REMARK SMILES IDX 28 1 27 2 26 3 25 4 24 5 23 6 22 7 20 8 21 9 2 10 1 11 3 12
REMARK SMILES IDX 4 13 5 15 6 16 7 17 19 18 8 19 18 20 9 21 10 22 11 23 12 24
REMARK SMILES IDX 13 25 17 26 14 27 16 28 15 29 29 30 30 31 31 32 32 33 33 34
REMARK SMILES IDX 34 35 35 36 36 37 37 38 38 39 96 40 39 41 95 42 40 43 41 44
REMARK SMILES IDX 42 45 89 46 43 47 94 48 88 49 90 50 44 51 93 52 87 53 86 54
REMARK SMILES IDX 45 56 75 57 56 58 74 59 57 60 60 61 73 62 91 63 58 64 59 65
REMARK SMILES IDX 72 67 92 68 61 69 46 70 47 71 55 72 48 73 54 74 49 75 50 76
REMARK SMILES IDX 51 77 52 78 53 79 76 80 77 81 85 82 78 83 84 84 79 85 80 86
REMARK SMILES IDX 81 87 82 88 83 89 62 90 63 91 71 92 64 93 70 94 65 95 66 96
REMARK SMILES IDX 67 97 68 98 69 99
REMARK H PARENT 3 14 90 55 60 66
REMARK Flexibility Score: inf
ROOT
ATOM      1  O   UNL A   1      36.939  22.290  24.683  1.00  0.00    -0.377 OA
ENDROOT
BRANCH   1   2
ATOM      2  C   UNL A   1      35.888  22.683  25.538  1.00  0.00     0.188 C 
BRANCH   2   3
ATOM      3  C   UNL A   1      35.159  21.501  26.210  1.00  0.00     0.188 C 
BRANCH   3   4
ATOM      4  O   UNL A   1      34.117  21.712  27.147  1.00  0.00    -0.376 OA
BRANCH   4   5
ATOM      5  C   UNL A   1      32.984  22.488  26.783  1.00  0.00     0.202 C 
BRANCH   5   6
ATOM      6  C   UNL A   1      32.170  22.207  25.503  1.00  0.00     0.261 C 
BRANCH   6   7
ATOM      7  O   UNL A   1      30.858  22.792  25.425  1.00  0.00    -0.462 OA
BRANCH   7   8
ATOM      8  C   UNL A   1      30.699  23.999  26.017  1.00  0.00     0.328 C 
ATOM      9  O   UNL A   1      30.365  24.159  27.186  1.00  0.00    -0.250 OA
BRANCH   8  10
ATOM     10  C   UNL A   1      30.894  25.188  25.055  1.00  0.00     0.190 C 
ATOM     11  C   UNL A   1      29.550  25.900  24.944  1.00  0.00     0.043 C 
BRANCH  10  12
ATOM     12  N   UNL A   1      31.408  24.993  23.692  1.00  0.00    -0.325 N 
ATOM     13  C   UNL A   1      31.821  25.971  22.832  1.00  0.00     0.318 C 
ATOM     14  H   UNL A   1      31.459  24.064  23.367  1.00  0.00     0.166 HD
ATOM     15  O   UNL A   1      31.709  25.830  21.620  1.00  0.00    -0.249 OA
ATOM     16  N   UNL A   1      32.337  27.095  23.396  1.00  0.00    -0.321 N 
ATOM     17  C   UNL A   1      31.681  28.384  23.317  1.00  0.00     0.143 C 
ATOM     18  C   UNL A   1      33.673  27.153  23.962  1.00  0.00     0.143 C 
ATOM     19  C   UNL A   1      31.564  28.976  24.735  1.00  0.00     0.137 C 
ATOM     20  C   UNL A   1      33.614  27.681  25.399  1.00  0.00     0.137 C 
ATOM     21  N   UNL A   1      32.865  28.962  25.460  1.00  0.00    -0.374 N 
BRANCH  21  22
ATOM     22  C   UNL A   1      33.276  29.968  26.315  1.00  0.00     0.081 C 
ATOM     23  C   UNL A   1      34.521  30.332  26.644  1.00  0.00     0.025 C 
BRANCH  23  24
ATOM     24  C   UNL A   1      34.841  31.345  27.652  1.00  0.00    -0.024 A 
ATOM     25  C   UNL A   1      33.793  32.039  28.265  1.00  0.00     0.008 A 
ATOM     26  C   UNL A   1      36.162  31.718  27.931  1.00  0.00     0.008 A 
ATOM     27  C   UNL A   1      34.060  33.087  29.146  1.00  0.00     0.001 A 
ATOM     28  C   UNL A   1      36.430  32.766  28.813  1.00  0.00     0.001 A 
ATOM     29  C   UNL A   1      35.378  33.451  29.416  1.00  0.00     0.000 A 
ENDBRANCH  23  24
ENDBRANCH  21  22
ENDBRANCH  10  12
ENDBRANCH   8  10
ENDBRANCH   7   8
ENDBRANCH   6   7
ENDBRANCH   5   6
ENDBRANCH   4   5
ENDBRANCH   3   4
ENDBRANCH   2   3
ENDBRANCH   1   2
BRANCH   1  30
ATOM     30  C   UNL A   1      37.512  21.023  24.968  1.00  0.00     0.188 C 
BRANCH  30  31
ATOM     31  C   UNL A   1      38.894  21.002  25.655  1.00  0.00     0.188 C 
BRANCH  31  32
ATOM     32  O   UNL A   1      39.177  22.155  26.446  1.00  0.00    -0.376 OA
BRANCH  32  33
ATOM     33  C   UNL A   1      40.435  22.244  27.101  1.00  0.00     0.202 C 
BRANCH  33  34
ATOM     34  C   UNL A   1      40.828  23.606  27.700  1.00  0.00     0.261 C 
BRANCH  34  35
ATOM     35  O   UNL A   1      39.868  24.663  27.559  1.00  0.00    -0.460 OA
BRANCH  35  36
ATOM     36  C   UNL A   1      40.329  25.867  27.161  1.00  0.00     0.338 C 
ATOM     37  O   UNL A   1      40.616  26.196  26.021  1.00  0.00    -0.246 OA
BRANCH  36  38
ATOM     38  C   UNL A   1      40.213  26.807  28.296  1.00  0.00     0.060 A 
ATOM     39  C   UNL A   1      40.961  27.991  28.255  1.00  0.00     0.016 A 
ATOM     40  C   UNL A   1      39.373  26.542  29.382  1.00  0.00     0.016 A 
ATOM     41  C   UNL A   1      40.911  28.886  29.320  1.00  0.00     0.010 A 
ATOM     42  C   UNL A   1      39.342  27.431  30.463  1.00  0.00     0.010 A 
ATOM     43  C   UNL A   1      40.147  28.584  30.454  1.00  0.00    -0.014 A 
BRANCH  43  44
ATOM     44  C   UNL A   1      40.373  29.378  31.687  1.00  0.00     0.031 A 
ATOM     45  C   UNL A   1      39.373  30.448  32.042  1.00  0.00     0.074 A 
ATOM     46  C   UNL A   1      41.383  29.089  32.527  1.00  0.00     0.049 A 
ATOM     47  N   UNL A   1      39.318  31.212  33.103  1.00  0.00    -0.248 NA
ATOM     48  C   UNL A   1      38.286  30.682  31.076  1.00  0.00     0.031 C 
ATOM     49  C   UNL A   1      42.391  28.051  32.314  1.00  0.00     0.029 A 
ATOM     50  N   UNL A   1      41.717  29.641  33.739  1.00  0.00    -0.354 N 
ATOM     51  C   UNL A   1      38.188  32.005  32.936  1.00  0.00     0.074 A 
ATOM     52  C   UNL A   1      37.615  31.667  31.653  1.00  0.00     0.031 C 
ATOM     53  C   UNL A   1      43.233  28.041  33.363  1.00  0.00     0.029 A 
ATOM     54  C   UNL A   1      42.839  29.085  34.307  1.00  0.00     0.049 A 
ATOM     55  H   UNL A   1      41.202  30.365  34.161  1.00  0.00     0.167 HD
ATOM     56  C   UNL A   1      37.661  32.921  33.784  1.00  0.00     0.031 A 
ATOM     57  C   UNL A   1      43.481  29.393  35.452  1.00  0.00     0.031 A 
ATOM     58  C   UNL A   1      38.245  33.276  35.050  1.00  0.00     0.049 A 
ATOM     59  C   UNL A   1      42.920  30.473  36.343  1.00  0.00     0.074 A 
ATOM     60  C   UNL A   1      37.794  34.200  35.977  1.00  0.00     0.029 A 
ATOM     61  N   UNL A   1      39.409  32.727  35.567  1.00  0.00    -0.354 N 
ATOM     62  N   UNL A   1      41.838  31.199  36.181  1.00  0.00    -0.248 NA
ATOM     63  C   UNL A   1      43.656  30.760  37.581  1.00  0.00     0.031 C 
ATOM     64  C   UNL A   1      38.719  34.253  37.026  1.00  0.00     0.029 A 
ATOM     65  C   UNL A   1      39.706  33.309  36.788  1.00  0.00     0.049 A 
ATOM     66  H   UNL A   1      39.945  32.027  35.131  1.00  0.00     0.167 HD
ATOM     67  C   UNL A   1      41.754  32.012  37.309  1.00  0.00     0.074 A 
ATOM     68  C   UNL A   1      42.875  31.663  38.156  1.00  0.00     0.031 C 
ATOM     69  C   UNL A   1      40.834  32.962  37.616  1.00  0.00     0.031 A 
BRANCH  56  70
ATOM     70  C   UNL A   1      36.398  33.622  33.352  1.00  0.00    -0.014 A 
ATOM     71  C   UNL A   1      35.137  33.022  33.529  1.00  0.00     0.010 A 
ATOM     72  C   UNL A   1      36.468  34.914  32.802  1.00  0.00     0.010 A 
ATOM     73  C   UNL A   1      33.974  33.688  33.137  1.00  0.00     0.020 A 
ATOM     74  C   UNL A   1      35.304  35.597  32.436  1.00  0.00     0.020 A 
ATOM     75  C   UNL A   1      34.065  34.974  32.594  1.00  0.00     0.054 A 
BRANCH  75  76
ATOM     76  S   UNL A   1      32.534  35.829  32.129  1.00  0.00     0.124 S 
ATOM     77  O   UNL A   1      31.514  34.957  32.706  1.00  0.00    -0.237 OA
ATOM     78  O   UNL A   1      32.687  37.129  32.776  1.00  0.00    -0.237 OA
ATOM     79  O   UNL A   1      32.579  35.853  30.669  1.00  0.00    -0.744 OA
ENDBRANCH  75  76
ENDBRANCH  56  70
BRANCH  57  80
ATOM     80  C   UNL A   1      44.747  28.693  35.810  1.00  0.00    -0.014 A 
ATOM     81  C   UNL A   1      44.754  27.335  36.178  1.00  0.00     0.010 A 
ATOM     82  C   UNL A   1      45.963  29.401  35.801  1.00  0.00     0.010 A 
ATOM     83  C   UNL A   1      45.947  26.709  36.555  1.00  0.00     0.020 A 
ATOM     84  C   UNL A   1      47.162  28.770  36.142  1.00  0.00     0.020 A 
ATOM     85  C   UNL A   1      47.144  27.430  36.530  1.00  0.00     0.054 A 
BRANCH  85  86
ATOM     86  S   UNL A   1      48.686  26.587  36.982  1.00  0.00     0.124 S 
ATOM     87  O   UNL A   1      48.600  26.553  38.438  1.00  0.00    -0.237 OA
ATOM     88  O   UNL A   1      48.548  25.299  36.307  1.00  0.00    -0.237 OA
ATOM     89  O   UNL A   1      49.725  27.459  36.436  1.00  0.00    -0.744 OA
ENDBRANCH  85  86
ENDBRANCH  57  80
BRANCH  69  90
ATOM     90  C   UNL A   1      40.988  33.669  38.940  1.00  0.00    -0.014 A 
ATOM     91  C   UNL A   1      41.732  34.858  39.054  1.00  0.00     0.010 A 
ATOM     92  C   UNL A   1      40.363  33.142  40.085  1.00  0.00     0.010 A 
ATOM     93  C   UNL A   1      41.900  35.470  40.299  1.00  0.00     0.020 A 
ATOM     94  C   UNL A   1      40.498  33.772  41.325  1.00  0.00     0.020 A 
ATOM     95  C   UNL A   1      41.286  34.919  41.429  1.00  0.00     0.054 A 
BRANCH  95  96
ATOM     96  S   UNL A   1      41.521  35.731  43.033  1.00  0.00     0.124 S 
ATOM     97  O   UNL A   1      41.081  34.695  43.964  1.00  0.00    -0.237 OA
ATOM     98  O   UNL A   1      42.954  36.016  43.041  1.00  0.00    -0.237 OA
ATOM     99  O   UNL A   1      40.658  36.907  42.958  1.00  0.00    -0.744 OA
ENDBRANCH  95  96
ENDBRANCH  69  90
ENDBRANCH  43  44
ENDBRANCH  36  38
ENDBRANCH  35  36
ENDBRANCH  34  35
ENDBRANCH  33  34
ENDBRANCH  32  33
ENDBRANCH  31  32
ENDBRANCH  30  31
ENDBRANCH   1  30
TORSDOF 26
ENDMDL
MODEL 3
REMARK VINA RESULT:      -9.4      5.393     10.083
REMARK SMILES C[C@H](NC(=O)N1CCN(/C=C/c2ccccc2)CC1)C(=O)OCCOCCOCCOCCOC(=O)c1ccc(-c2c3nc(c(-c4ccc(S(=O)(=O)[O-])cc4)c4ccc([nH]4)c(-c4ccc(S(=O)(=O)[O-])cc4)c4nc(c(-c5ccc(S(=O)(=O)[O-])cc5)c5ccc2[nH]5)C=C4)C=C3)cc1
REMARK SMILES IDX 28 1 27 2 26 3 25 4 24 5 23 6 22 7 20 8 21 9 2 10 1 11 3 12
REMARK SMILES IDX 4 13 5 15 6 16 7 17 19 18 8 19 18 20 9 21 10 22 11 23 12 24
REMARK SMILES IDX 13 25 17 26 14 27 16 28 15 29 29 30 30 31 31 32 32 33 33 34
REMARK SMILES IDX 34 35 35 36 36 37 37 38 38 39 96 40 39 41 95 42 40 43 41 44
REMARK SMILES IDX 42 45 89 46 43 47 94 48 88 49 90 50 44 51 93 52 87 53 86 54
REMARK SMILES IDX 45 56 75 57 56 58 74 59 57 60 60 61 73 62 91 63 58 64 59 65
REMARK SMILES IDX 72 67 92 68 61 69 46 70 47 71 55 72 48 73 54 74 49 75 50 76
REMARK SMILES IDX 51 77 52 78 53 79 76 80 77 81 85 82 78 83 84 84 79 85 80 86
REMARK SMILES IDX 81 87 82 88 83 89 62 90 63 91 71 92 64 93 70 94 65 95 66 96
REMARK SMILES IDX 67 97 68 98 69 99
REMARK H PARENT 3 14 90 55 60 66
REMARK Flexibility Score: inf
ROOT
ATOM      1  O   UNL A   1      35.859  22.559  26.086  1.00  0.00    -0.377 OA
ENDROOT
BRANCH   1   2
ATOM      2  C   UNL A   1      34.493  22.483  26.430  1.00  0.00     0.188 C 
BRANCH   2   3
ATOM      3  C   UNL A   1      33.788  23.854  26.483  1.00  0.00     0.188 C 
BRANCH   3   4
ATOM      4  O   UNL A   1      34.363  25.005  25.888  1.00  0.00    -0.376 OA
BRANCH   4   5
ATOM      5  C   UNL A   1      33.571  26.163  25.676  1.00  0.00     0.202 C 
BRANCH   5   6
ATOM      6  C   UNL A   1      32.890  26.919  26.836  1.00  0.00     0.261 C 
BRANCH   6   7
ATOM      7  O   UNL A   1      32.025  28.014  26.481  1.00  0.00    -0.462 OA
BRANCH   7   8
ATOM      8  C   UNL A   1      32.562  28.975  25.693  1.00  0.00     0.328 C 
ATOM      9  O   UNL A   1      33.079  30.006  26.110  1.00  0.00    -0.250 OA
BRANCH   8  10
ATOM     10  C   UNL A   1      32.391  28.703  24.185  1.00  0.00     0.190 C 
ATOM     11  C   UNL A   1      33.659  29.192  23.494  1.00  0.00     0.043 C 
BRANCH  10  12
ATOM     12  N   UNL A   1      31.243  29.237  23.438  1.00  0.00    -0.325 N 
ATOM     13  C   UNL A   1      30.561  28.605  22.436  1.00  0.00     0.318 C 
ATOM     14  H   UNL A   1      30.936  30.141  23.682  1.00  0.00     0.166 HD
ATOM     15  O   UNL A   1      30.032  29.245  21.534  1.00  0.00    -0.249 OA
ATOM     16  N   UNL A   1      30.522  27.247  22.493  1.00  0.00    -0.321 N 
ATOM     17  C   UNL A   1      31.182  26.402  21.520  1.00  0.00     0.143 C 
ATOM     18  C   UNL A   1      29.667  26.520  23.414  1.00  0.00     0.143 C 
ATOM     19  C   UNL A   1      32.059  25.373  22.260  1.00  0.00     0.137 C 
ATOM     20  C   UNL A   1      30.496  25.518  24.224  1.00  0.00     0.137 C 
ATOM     21  N   UNL A   1      31.307  24.656  23.326  1.00  0.00    -0.374 N 
BRANCH  21  22
ATOM     22  C   UNL A   1      31.491  23.319  23.627  1.00  0.00     0.081 C 
ATOM     23  C   UNL A   1      32.206  22.402  22.965  1.00  0.00     0.025 C 
BRANCH  23  24
ATOM     24  C   UNL A   1      32.242  20.980  23.315  1.00  0.00    -0.024 A 
ATOM     25  C   UNL A   1      32.511  20.619  24.639  1.00  0.00     0.008 A 
ATOM     26  C   UNL A   1      32.132  19.977  22.343  1.00  0.00     0.008 A 
ATOM     27  C   UNL A   1      32.663  19.277  24.987  1.00  0.00     0.001 A 
ATOM     28  C   UNL A   1      32.283  18.635  22.691  1.00  0.00     0.001 A 
ATOM     29  C   UNL A   1      32.553  18.287  24.012  1.00  0.00     0.000 A 
ENDBRANCH  23  24
ENDBRANCH  21  22
ENDBRANCH  10  12
ENDBRANCH   8  10
ENDBRANCH   7   8
ENDBRANCH   6   7
ENDBRANCH   5   6
ENDBRANCH   4   5
ENDBRANCH   3   4
ENDBRANCH   2   3
ENDBRANCH   1   2
BRANCH   1  30
ATOM     30  C   UNL A   1      36.138  22.494  24.696  1.00  0.00     0.188 C 
BRANCH  30  31
ATOM     31  C   UNL A   1      37.433  21.776  24.260  1.00  0.00     0.188 C 
BRANCH  31  32
ATOM     32  O   UNL A   1      38.097  21.072  25.307  1.00  0.00    -0.376 OA
BRANCH  32  33
ATOM     33  C   UNL A   1      38.401  19.696  25.123  1.00  0.00     0.202 C 
BRANCH  33  34
ATOM     34  C   UNL A   1      39.653  19.144  25.828  1.00  0.00     0.261 C 
BRANCH  34  35
ATOM     35  O   UNL A   1      40.907  19.723  25.440  1.00  0.00    -0.460 OA
BRANCH  35  36
ATOM     36  C   UNL A   1      41.894  19.734  26.361  1.00  0.00     0.338 C 
ATOM     37  O   UNL A   1      42.551  18.776  26.735  1.00  0.00    -0.246 OA
BRANCH  36  38
ATOM     38  C   UNL A   1      42.213  21.142  26.682  1.00  0.00     0.060 A 
ATOM     39  C   UNL A   1      42.207  22.076  25.638  1.00  0.00     0.016 A 
ATOM     40  C   UNL A   1      42.501  21.547  27.988  1.00  0.00     0.016 A 
ATOM     41  C   UNL A   1      42.539  23.404  25.888  1.00  0.00     0.010 A 
ATOM     42  C   UNL A   1      42.860  22.878  28.234  1.00  0.00     0.010 A 
ATOM     43  C   UNL A   1      42.922  23.801  27.175  1.00  0.00    -0.014 A 
BRANCH  43  44
ATOM     44  C   UNL A   1      43.582  25.120  27.338  1.00  0.00     0.031 A 
ATOM     45  C   UNL A   1      42.754  26.276  27.837  1.00  0.00     0.074 A 
ATOM     46  C   UNL A   1      44.905  25.267  27.148  1.00  0.00     0.049 A 
ATOM     47  N   UNL A   1      43.126  27.496  28.131  1.00  0.00    -0.248 NA
ATOM     48  C   UNL A   1      41.318  26.020  28.040  1.00  0.00     0.031 C 
ATOM     49  C   UNL A   1      45.819  24.214  26.706  1.00  0.00     0.029 A 
ATOM     50  N   UNL A   1      45.712  26.364  27.318  1.00  0.00    -0.354 N 
ATOM     51  C   UNL A   1      41.975  28.146  28.562  1.00  0.00     0.074 A 
ATOM     52  C   UNL A   1      40.884  27.204  28.446  1.00  0.00     0.031 C 
ATOM     53  C   UNL A   1      47.064  24.718  26.639  1.00  0.00     0.029 A 
ATOM     54  C   UNL A   1      47.031  26.132  27.009  1.00  0.00     0.049 A 
ATOM     55  H   UNL A   1      45.377  27.235  27.632  1.00  0.00     0.167 HD
ATOM     56  C   UNL A   1      41.838  29.409  29.032  1.00  0.00     0.031 A 
ATOM     57  C   UNL A   1      48.088  26.969  27.013  1.00  0.00     0.031 A 
ATOM     58  C   UNL A   1      42.919  30.354  29.125  1.00  0.00     0.049 A 
ATOM     59  C   UNL A   1      47.897  28.395  27.465  1.00  0.00     0.074 A 
ATOM     60  C   UNL A   1      42.881  31.662  29.577  1.00  0.00     0.029 A 
ATOM     61  N   UNL A   1      44.230  30.097  28.755  1.00  0.00    -0.354 N 
ATOM     62  N   UNL A   1      46.806  28.988  27.890  1.00  0.00    -0.248 NA
ATOM     63  C   UNL A   1      49.086  29.257  27.457  1.00  0.00     0.031 C 
ATOM     64  C   UNL A   1      44.158  32.214  29.422  1.00  0.00     0.029 A 
ATOM     65  C   UNL A   1      45.007  31.228  28.945  1.00  0.00     0.049 A 
ATOM     66  H   UNL A   1      44.561  29.238  28.408  1.00  0.00     0.167 HD
ATOM     67  C   UNL A   1      47.184  30.286  28.222  1.00  0.00     0.074 A 
ATOM     68  C   UNL A   1      48.608  30.379  27.977  1.00  0.00     0.031 C 
ATOM     69  C   UNL A   1      46.422  31.311  28.684  1.00  0.00     0.031 A 
BRANCH  56  70
ATOM     70  C   UNL A   1      40.460  29.846  29.460  1.00  0.00    -0.014 A 
ATOM     71  C   UNL A   1      40.169  30.112  30.811  1.00  0.00     0.010 A 
ATOM     72  C   UNL A   1      39.455  30.036  28.495  1.00  0.00     0.010 A 
ATOM     73  C   UNL A   1      38.891  30.529  31.192  1.00  0.00     0.020 A 
ATOM     74  C   UNL A   1      38.184  30.482  28.868  1.00  0.00     0.020 A 
ATOM     75  C   UNL A   1      37.907  30.714  30.216  1.00  0.00     0.054 A 
BRANCH  75  76
ATOM     76  S   UNL A   1      36.268  31.293  30.737  1.00  0.00     0.124 S 
ATOM     77  O   UNL A   1      35.928  30.334  31.785  1.00  0.00    -0.237 OA
ATOM     78  O   UNL A   1      36.542  32.653  31.195  1.00  0.00    -0.237 OA
ATOM     79  O   UNL A   1      35.463  31.198  29.522  1.00  0.00    -0.744 OA
ENDBRANCH  75  76
ENDBRANCH  56  70
BRANCH  57  80
ATOM     80  C   UNL A   1      49.420  26.491  26.544  1.00  0.00    -0.014 A 
ATOM     81  C   UNL A   1      49.851  26.704  25.223  1.00  0.00     0.010 A 
ATOM     82  C   UNL A   1      50.263  25.794  27.431  1.00  0.00     0.010 A 
ATOM     83  C   UNL A   1      51.087  26.207  24.791  1.00  0.00     0.020 A 
ATOM     84  C   UNL A   1      51.512  25.328  27.014  1.00  0.00     0.020 A 
ATOM     85  C   UNL A   1      51.910  25.526  25.691  1.00  0.00     0.054 A 
BRANCH  85  86
ATOM     86  S   UNL A   1      53.525  24.927  25.122  1.00  0.00     0.124 S 
ATOM     87  O   UNL A   1      53.292  23.492  24.998  1.00  0.00    -0.237 OA
ATOM     88  O   UNL A   1      53.704  25.652  23.867  1.00  0.00    -0.237 OA
ATOM     89  O   UNL A   1      54.435  25.324  26.196  1.00  0.00    -0.744 OA
ENDBRANCH  85  86
ENDBRANCH  57  80
BRANCH  69  90
ATOM     90  C   UNL A   1      47.124  32.612  28.984  1.00  0.00    -0.014 A 
ATOM     91  C   UNL A   1      47.344  33.575  27.982  1.00  0.00     0.010 A 
ATOM     92  C   UNL A   1      47.557  32.881  30.296  1.00  0.00     0.010 A 
ATOM     93  C   UNL A   1      48.038  34.753  28.274  1.00  0.00     0.020 A 
ATOM     94  C   UNL A   1      48.219  34.074  30.599  1.00  0.00     0.020 A 
ATOM     95  C   UNL A   1      48.478  34.992  29.580  1.00  0.00     0.054 A 
BRANCH  95  96
ATOM     96  S   UNL A   1      49.378  36.526  29.931  1.00  0.00     0.124 S 
ATOM     97  O   UNL A   1      49.604  37.059  28.590  1.00  0.00    -0.237 OA
ATOM     98  O   UNL A   1      48.430  37.273  30.753  1.00  0.00    -0.237 OA
ATOM     99  O   UNL A   1      50.579  36.072  30.630  1.00  0.00    -0.744 OA
ENDBRANCH  95  96
ENDBRANCH  69  90
ENDBRANCH  43  44
ENDBRANCH  36  38
ENDBRANCH  35  36
ENDBRANCH  34  35
ENDBRANCH  33  34
ENDBRANCH  32  33
ENDBRANCH  31  32
ENDBRANCH  30  31
ENDBRANCH   1  30
TORSDOF 26
ENDMDL
