MODEL 1
REMARK VINA RESULT:      -7.7      0.000      0.000
REMARK SMILES COc1cc([C@@H]2CC(=O)Nc3c(C(=O)OCCOCCOCCOCCOC(=O)c4ccc(-c5c6nc(c(-c7ccc(S(=O)(=O)[O-])cc7)c7ccc([nH]7)c(-c7ccc(S(=O)(=O)[O-])cc7)c7nc(c(-c8ccc(S(=O)(=O)[O-])cc8)c8ccc5[nH]8)C=C7)C=C6)cc4)cn(-c4ccc(F)cc4)c32)c(OC)c2c1OCO2
REMARK SMILES IDX 22 1 21 2 20 3 19 4 18 5 17 6 16 7 15 8 13 9 14 10 12 11
REMARK SMILES IDX 6 12 7 13 99 14 8 15 11 16 91 17 9 18 10 19 90 20 5 22 3 23
REMARK SMILES IDX 4 24 104 25 103 26 105 27 100 28 107 29 106 30 2 31 1 32
REMARK SMILES IDX 101 33 102 34 92 35 93 36 98 37 94 38 97 39 95 40 96 41
REMARK SMILES IDX 23 42 24 43 25 44 26 45 27 46 28 47 29 48 30 49 31 50 89 51
REMARK SMILES IDX 32 52 88 53 33 54 34 55 35 56 82 57 36 58 87 59 81 60 83 61
REMARK SMILES IDX 37 62 86 63 80 64 79 65 38 67 68 68 49 69 67 70 50 71 53 72
REMARK SMILES IDX 66 73 84 74 51 75 52 76 65 78 85 79 54 80 39 81 40 82 48 83
REMARK SMILES IDX 41 84 47 85 42 86 43 87 44 88 45 89 46 90 69 91 70 92 78 93
REMARK SMILES IDX 71 94 77 95 72 96 73 97 74 98 75 99 76 100 55 101 56 102
REMARK SMILES IDX 64 103 57 104 63 105 58 106 59 107 60 108 61 109 62 110
REMARK H PARENT 10 21 83 66 53 77
REMARK Flexibility Score: inf
ROOT
ATOM      1  C   UNL A   1      34.042  34.420  32.778  1.00  0.00     0.188 C 
ENDROOT
BRANCH   1   2
ATOM      2  O   UNL A   1      35.321  33.989  33.243  1.00  0.00    -0.377 OA
BRANCH   2   3
ATOM      3  C   UNL A   1      35.766  32.748  32.720  1.00  0.00     0.188 C 
BRANCH   3   4
ATOM      4  C   UNL A   1      36.803  32.000  33.595  1.00  0.00     0.188 C 
BRANCH   4   5
ATOM      5  O   UNL A   1      38.036  32.579  34.016  1.00  0.00    -0.376 OA
BRANCH   5   6
ATOM      6  C   UNL A   1      38.591  33.716  33.379  1.00  0.00     0.202 C 
BRANCH   6   7
ATOM      7  C   UNL A   1      39.500  34.665  34.172  1.00  0.00     0.261 C 
BRANCH   7   8
ATOM      8  O   UNL A   1      40.877  34.672  33.791  1.00  0.00    -0.460 OA
BRANCH   8   9
ATOM      9  C   UNL A   1      41.582  35.758  34.208  1.00  0.00     0.341 C 
ATOM     10  O   UNL A   1      41.254  36.501  35.127  1.00  0.00    -0.246 OA
BRANCH   9  11
ATOM     11  C   UNL A   1      42.848  35.887  33.503  1.00  0.00     0.102 A 
ATOM     12  C   UNL A   1      45.074  36.249  30.571  1.00  0.00     0.082 C 
ATOM     13  C   UNL A   1      44.299  35.406  29.543  1.00  0.00     0.115 C 
ATOM     14  C   UNL A   1      44.452  36.091  31.925  1.00  0.00     0.055 A 
ATOM     15  C   UNL A   1      42.800  35.263  29.790  1.00  0.00     0.225 C 
ATOM     16  C   UNL A   1      43.148  35.708  32.134  1.00  0.00     0.078 A 
ATOM     17  N   UNL A   1      45.038  36.281  33.156  1.00  0.00    -0.317 N 
ATOM     18  O   UNL A   1      42.022  35.003  28.872  1.00  0.00    -0.275 OA
ATOM     19  N   UNL A   1      42.348  35.325  31.085  1.00  0.00    -0.324 N 
ATOM     20  C   UNL A   1      44.060  36.169  34.117  1.00  0.00     0.109 A 
ATOM     21  H   UNL A   1      41.411  35.086  31.269  1.00  0.00     0.170 HD
BRANCH  12  22
ATOM     22  C   UNL A   1      45.214  37.722  30.157  1.00  0.00     0.012 A 
ATOM     23  C   UNL A   1      44.064  39.878  29.896  1.00  0.00     0.165 A 
ATOM     24  C   UNL A   1      44.105  38.576  30.397  1.00  0.00     0.059 A 
ATOM     25  C   UNL A   1      45.187  40.353  29.249  1.00  0.00     0.211 A 
ATOM     26  C   UNL A   1      46.302  39.561  29.059  1.00  0.00     0.211 A 
ATOM     27  O   UNL A   1      45.352  41.607  28.735  1.00  0.00    -0.449 OA
ATOM     28  C   UNL A   1      46.348  38.242  29.488  1.00  0.00     0.168 A 
ATOM     29  O   UNL A   1      47.285  40.238  28.394  1.00  0.00    -0.449 OA
ATOM     30  C   UNL A   1      46.713  41.548  28.285  1.00  0.00     0.468 C 
BRANCH  23  31
ATOM     31  O   UNL A   1      42.909  40.573  30.102  1.00  0.00    -0.493 OA
ATOM     32  C   UNL A   1      42.679  40.903  31.471  1.00  0.00     0.278 C 
ENDBRANCH  23  31
BRANCH  28  33
ATOM     33  O   UNL A   1      47.388  37.383  29.312  1.00  0.00    -0.492 OA
ATOM     34  C   UNL A   1      47.647  36.835  28.031  1.00  0.00     0.278 C 
ENDBRANCH  28  33
ENDBRANCH  12  22
BRANCH  17  35
ATOM     35  C   UNL A   1      46.388  36.564  33.429  1.00  0.00     0.046 A 
ATOM     36  C   UNL A   1      47.375  35.729  32.904  1.00  0.00     0.029 A 
ATOM     37  C   UNL A   1      46.718  37.663  34.229  1.00  0.00     0.029 A 
ATOM     38  C   UNL A   1      48.707  35.946  33.245  1.00  0.00     0.041 A 
ATOM     39  C   UNL A   1      48.058  37.876  34.563  1.00  0.00     0.041 A 
ATOM     40  C   UNL A   1      49.036  37.009  34.079  1.00  0.00     0.123 A 
ATOM     41  F   UNL A   1      50.317  37.202  34.419  1.00  0.00    -0.207 F 
ENDBRANCH  17  35
ENDBRANCH   9  11
ENDBRANCH   8   9
ENDBRANCH   7   8
ENDBRANCH   6   7
ENDBRANCH   5   6
ENDBRANCH   4   5
ENDBRANCH   3   4
ENDBRANCH   2   3
ENDBRANCH   1   2
BRANCH   1  42
ATOM     42  C   UNL A   1      33.976  34.968  31.334  1.00  0.00     0.188 C 
BRANCH  42  43
ATOM     43  O   UNL A   1      33.930  33.952  30.337  1.00  0.00    -0.376 OA
BRANCH  43  44
ATOM     44  C   UNL A   1      33.460  34.277  29.039  1.00  0.00     0.202 C 
BRANCH  44  45
ATOM     45  C   UNL A   1      34.527  34.243  27.952  1.00  0.00     0.261 C 
BRANCH  45  46
ATOM     46  O   UNL A   1      35.621  33.387  28.240  1.00  0.00    -0.460 OA
BRANCH  46  47
ATOM     47  C   UNL A   1      35.411  32.076  28.014  1.00  0.00     0.338 C 
ATOM     48  O   UNL A   1      34.552  31.578  27.308  1.00  0.00    -0.246 OA
BRANCH  47  49
ATOM     49  C   UNL A   1      36.321  31.318  28.877  1.00  0.00     0.060 A 
ATOM     50  C   UNL A   1      37.345  32.041  29.486  1.00  0.00     0.016 A 
ATOM     51  C   UNL A   1      36.322  29.914  28.828  1.00  0.00     0.016 A 
ATOM     52  C   UNL A   1      38.484  31.361  29.843  1.00  0.00     0.010 A 
ATOM     53  C   UNL A   1      37.465  29.237  29.174  1.00  0.00     0.010 A 
ATOM     54  C   UNL A   1      38.560  29.985  29.588  1.00  0.00    -0.014 A 
BRANCH  54  55
ATOM     55  C   UNL A   1      39.844  29.355  29.773  1.00  0.00     0.031 A 
ATOM     56  C   UNL A   1      40.322  29.361  31.163  1.00  0.00     0.074 A 
ATOM     57  C   UNL A   1      40.541  28.801  28.767  1.00  0.00     0.049 A 
ATOM     58  N   UNL A   1      41.257  30.097  31.660  1.00  0.00    -0.248 NA
ATOM     59  C   UNL A   1      39.570  28.571  32.145  1.00  0.00     0.031 C 
ATOM     60  C   UNL A   1      40.094  28.477  27.410  1.00  0.00     0.029 A 
ATOM     61  N   UNL A   1      41.810  28.322  28.804  1.00  0.00    -0.354 N 
ATOM     62  C   UNL A   1      41.349  29.728  32.992  1.00  0.00     0.074 A 
ATOM     63  C   UNL A   1      40.192  28.913  33.274  1.00  0.00     0.031 C 
ATOM     64  C   UNL A   1      41.003  27.655  26.836  1.00  0.00     0.029 A 
ATOM     65  C   UNL A   1      42.147  27.524  27.725  1.00  0.00     0.049 A 
ATOM     66  H   UNL A   1      42.436  28.524  29.536  1.00  0.00     0.167 HD
ATOM     67  C   UNL A   1      42.481  29.936  33.714  1.00  0.00     0.031 A 
ATOM     68  C   UNL A   1      43.259  26.756  27.623  1.00  0.00     0.031 A 
ATOM     69  C   UNL A   1      43.390  30.839  33.060  1.00  0.00     0.049 A 
ATOM     70  C   UNL A   1      44.266  27.303  28.569  1.00  0.00     0.074 A 
ATOM     71  C   UNL A   1      43.331  32.161  32.669  1.00  0.00     0.029 A 
ATOM     72  N   UNL A   1      44.440  30.280  32.370  1.00  0.00    -0.354 N 
ATOM     73  N   UNL A   1      44.839  28.464  28.416  1.00  0.00    -0.248 NA
ATOM     74  C   UNL A   1      44.338  26.752  29.914  1.00  0.00     0.031 C 
ATOM     75  C   UNL A   1      44.057  32.221  31.444  1.00  0.00     0.029 A 
ATOM     76  C   UNL A   1      44.553  30.944  31.173  1.00  0.00     0.049 A 
ATOM     77  H   UNL A   1      45.009  29.538  32.677  1.00  0.00     0.167 HD
ATOM     78  C   UNL A   1      44.965  28.976  29.700  1.00  0.00     0.074 A 
ATOM     79  C   UNL A   1      44.747  27.835  30.583  1.00  0.00     0.031 C 
ATOM     80  C   UNL A   1      44.963  30.324  29.928  1.00  0.00     0.031 A 
BRANCH  67  81
ATOM     81  C   UNL A   1      42.911  29.027  34.829  1.00  0.00    -0.014 A 
ATOM     82  C   UNL A   1      42.946  29.521  36.145  1.00  0.00     0.010 A 
ATOM     83  C   UNL A   1      43.530  27.782  34.585  1.00  0.00     0.010 A 
ATOM     84  C   UNL A   1      43.611  28.820  37.157  1.00  0.00     0.020 A 
ATOM     85  C   UNL A   1      44.155  27.054  35.596  1.00  0.00     0.020 A 
ATOM     86  C   UNL A   1      44.222  27.597  36.871  1.00  0.00     0.054 A 
BRANCH  86  87
ATOM     87  S   UNL A   1      45.171  26.754  38.158  1.00  0.00     0.124 S 
ATOM     88  O   UNL A   1      44.820  25.358  37.922  1.00  0.00    -0.237 OA
ATOM     89  O   UNL A   1      46.543  27.130  37.827  1.00  0.00    -0.237 OA
ATOM     90  O   UNL A   1      44.655  27.330  39.398  1.00  0.00    -0.744 OA
ENDBRANCH  86  87
ENDBRANCH  67  81
BRANCH  68  91
ATOM     91  C   UNL A   1      43.368  25.412  27.012  1.00  0.00    -0.014 A 
ATOM     92  C   UNL A   1      42.819  25.149  25.746  1.00  0.00     0.010 A 
ATOM     93  C   UNL A   1      44.260  24.463  27.554  1.00  0.00     0.010 A 
ATOM     94  C   UNL A   1      43.202  24.012  25.016  1.00  0.00     0.020 A 
ATOM     95  C   UNL A   1      44.639  23.323  26.838  1.00  0.00     0.020 A 
ATOM     96  C   UNL A   1      44.128  23.117  25.560  1.00  0.00     0.054 A 
BRANCH  96  97
ATOM     97  S   UNL A   1      44.764  21.759  24.536  1.00  0.00     0.124 S 
ATOM     98  O   UNL A   1      43.835  20.677  24.844  1.00  0.00    -0.237 OA
ATOM     99  O   UNL A   1      44.670  22.309  23.187  1.00  0.00    -0.237 OA
ATOM    100  O   UNL A   1      46.128  21.566  25.028  1.00  0.00    -0.744 OA
ENDBRANCH  96  97
ENDBRANCH  68  91
BRANCH  80 101
ATOM    101  C   UNL A   1      45.150  31.249  28.744  1.00  0.00    -0.014 A 
ATOM    102  C   UNL A   1      44.211  31.379  27.702  1.00  0.00     0.010 A 
ATOM    103  C   UNL A   1      46.254  32.120  28.763  1.00  0.00     0.010 A 
ATOM    104  C   UNL A   1      44.391  32.334  26.689  1.00  0.00     0.020 A 
ATOM    105  C   UNL A   1      46.429  33.086  27.768  1.00  0.00     0.020 A 
ATOM    106  C   UNL A   1      45.501  33.182  26.730  1.00  0.00     0.054 A 
BRANCH 106 107
ATOM    107  S   UNL A   1      45.703  34.448  25.445  1.00  0.00     0.124 S 
ATOM    108  O   UNL A   1      44.888  33.925  24.353  1.00  0.00    -0.237 OA
ATOM    109  O   UNL A   1      45.186  35.653  26.093  1.00  0.00    -0.237 OA
ATOM    110  O   UNL A   1      47.143  34.462  25.192  1.00  0.00    -0.744 OA
ENDBRANCH 106 107
ENDBRANCH  80 101
ENDBRANCH  54  55
ENDBRANCH  47  49
ENDBRANCH  46  47
ENDBRANCH  45  46
ENDBRANCH  44  45
ENDBRANCH  43  44
ENDBRANCH  42  43
ENDBRANCH   1  42
TORSDOF 27
ENDMDL
MODEL 2
REMARK VINA RESULT:      -7.3      4.283      9.419
REMARK SMILES COc1cc([C@@H]2CC(=O)Nc3c(C(=O)OCCOCCOCCOCCOC(=O)c4ccc(-c5c6nc(c(-c7ccc(S(=O)(=O)[O-])cc7)c7ccc([nH]7)c(-c7ccc(S(=O)(=O)[O-])cc7)c7nc(c(-c8ccc(S(=O)(=O)[O-])cc8)c8ccc5[nH]8)C=C7)C=C6)cc4)cn(-c4ccc(F)cc4)c32)c(OC)c2c1OCO2
REMARK SMILES IDX 22 1 21 2 20 3 19 4 18 5 17 6 16 7 15 8 13 9 14 10 12 11
REMARK SMILES IDX 6 12 7 13 99 14 8 15 11 16 91 17 9 18 10 19 90 20 5 22 3 23
REMARK SMILES IDX 4 24 104 25 103 26 105 27 100 28 107 29 106 30 2 31 1 32
REMARK SMILES IDX 101 33 102 34 92 35 93 36 98 37 94 38 97 39 95 40 96 41
REMARK SMILES IDX 23 42 24 43 25 44 26 45 27 46 28 47 29 48 30 49 31 50 89 51
REMARK SMILES IDX 32 52 88 53 33 54 34 55 35 56 82 57 36 58 87 59 81 60 83 61
REMARK SMILES IDX 37 62 86 63 80 64 79 65 38 67 68 68 49 69 67 70 50 71 53 72
REMARK SMILES IDX 66 73 84 74 51 75 52 76 65 78 85 79 54 80 39 81 40 82 48 83
REMARK SMILES IDX 41 84 47 85 42 86 43 87 44 88 45 89 46 90 69 91 70 92 78 93
REMARK SMILES IDX 71 94 77 95 72 96 73 97 74 98 75 99 76 100 55 101 56 102
REMARK SMILES IDX 64 103 57 104 63 105 58 106 59 107 60 108 61 109 62 110
REMARK H PARENT 10 21 83 66 53 77
REMARK Flexibility Score: inf
ROOT
ATOM      1  C   UNL A   1      45.178  44.827  33.977  1.00  0.00     0.188 C 
ENDROOT
BRANCH   1   2
ATOM      2  O   UNL A   1      43.823  44.598  34.363  1.00  0.00    -0.377 OA
BRANCH   2   3
ATOM      3  C   UNL A   1      43.279  43.357  33.947  1.00  0.00     0.188 C 
BRANCH   3   4
ATOM      4  C   UNL A   1      42.405  43.418  32.669  1.00  0.00     0.188 C 
BRANCH   4   5
ATOM      5  O   UNL A   1      42.774  42.804  31.437  1.00  0.00    -0.376 OA
BRANCH   5   6
ATOM      6  C   UNL A   1      42.317  41.513  31.071  1.00  0.00     0.202 C 
BRANCH   6   7
ATOM      7  C   UNL A   1      42.989  40.770  29.908  1.00  0.00     0.261 C 
BRANCH   7   8
ATOM      8  O   UNL A   1      42.128  39.951  29.114  1.00  0.00    -0.460 OA
BRANCH   8   9
ATOM      9  C   UNL A   1      42.372  39.992  27.776  1.00  0.00     0.341 C 
ATOM     10  O   UNL A   1      41.949  40.851  27.008  1.00  0.00    -0.246 OA
BRANCH   9  11
ATOM     11  C   UNL A   1      43.296  38.948  27.361  1.00  0.00     0.102 A 
ATOM     12  C   UNL A   1      46.506  37.529  26.195  1.00  0.00     0.082 C 
ATOM     13  C   UNL A   1      46.977  38.663  25.267  1.00  0.00     0.115 C 
ATOM     14  C   UNL A   1      45.102  37.795  26.646  1.00  0.00     0.055 A 
ATOM     15  C   UNL A   1      46.421  40.051  25.574  1.00  0.00     0.225 C 
ATOM     16  C   UNL A   1      44.526  39.043  26.674  1.00  0.00     0.078 A 
ATOM     17  N   UNL A   1      44.166  36.889  27.088  1.00  0.00    -0.317 N 
ATOM     18  O   UNL A   1      47.011  41.071  25.217  1.00  0.00    -0.275 OA
ATOM     19  N   UNL A   1      45.185  40.137  26.166  1.00  0.00    -0.324 N 
ATOM     20  C   UNL A   1      43.070  37.589  27.535  1.00  0.00     0.109 A 
ATOM     21  H   UNL A   1      44.753  41.020  26.231  1.00  0.00     0.170 HD
BRANCH  12  22
ATOM     22  C   UNL A   1      47.463  37.277  27.370  1.00  0.00     0.012 A 
ATOM     23  C   UNL A   1      48.834  38.305  29.131  1.00  0.00     0.165 A 
ATOM     24  C   UNL A   1      47.836  38.396  28.160  1.00  0.00     0.059 A 
ATOM     25  C   UNL A   1      49.378  37.060  29.379  1.00  0.00     0.211 A 
ATOM     26  C   UNL A   1      48.986  35.944  28.666  1.00  0.00     0.211 A 
ATOM     27  O   UNL A   1      50.325  36.766  30.316  1.00  0.00    -0.449 OA
ATOM     28  C   UNL A   1      48.042  36.016  27.650  1.00  0.00     0.168 A 
ATOM     29  O   UNL A   1      49.658  34.830  29.079  1.00  0.00    -0.449 OA
ATOM     30  C   UNL A   1      50.421  35.341  30.179  1.00  0.00     0.468 C 
BRANCH  23  31
ATOM     31  O   UNL A   1      49.180  39.465  29.759  1.00  0.00    -0.493 OA
ATOM     32  C   UNL A   1      49.701  40.458  28.876  1.00  0.00     0.278 C 
ENDBRANCH  23  31
BRANCH  28  33
ATOM     33  O   UNL A   1      47.624  34.977  26.877  1.00  0.00    -0.492 OA
ATOM     34  C   UNL A   1      48.246  34.728  25.628  1.00  0.00     0.278 C 
ENDBRANCH  28  33
ENDBRANCH  12  22
BRANCH  17  35
ATOM     35  C   UNL A   1      44.276  35.487  27.117  1.00  0.00     0.046 A 
ATOM     36  C   UNL A   1      44.186  34.775  25.920  1.00  0.00     0.029 A 
ATOM     37  C   UNL A   1      44.458  34.831  28.339  1.00  0.00     0.029 A 
ATOM     38  C   UNL A   1      44.201  33.383  25.949  1.00  0.00     0.041 A 
ATOM     39  C   UNL A   1      44.475  33.435  28.359  1.00  0.00     0.041 A 
ATOM     40  C   UNL A   1      44.333  32.726  27.168  1.00  0.00     0.123 A 
ATOM     41  F   UNL A   1      44.327  31.387  27.193  1.00  0.00    -0.207 F 
ENDBRANCH  17  35
ENDBRANCH   9  11
ENDBRANCH   8   9
ENDBRANCH   7   8
ENDBRANCH   6   7
ENDBRANCH   5   6
ENDBRANCH   4   5
ENDBRANCH   3   4
ENDBRANCH   2   3
ENDBRANCH   1   2
BRANCH   1  42
ATOM     42  C   UNL A   1      46.162  43.649  34.161  1.00  0.00     0.188 C 
BRANCH  42  43
ATOM     43  O   UNL A   1      46.937  43.364  33.000  1.00  0.00    -0.376 OA
BRANCH  43  44
ATOM     44  C   UNL A   1      46.337  42.662  31.923  1.00  0.00     0.202 C 
BRANCH  44  45
ATOM     45  C   UNL A   1      46.813  41.224  31.762  1.00  0.00     0.261 C 
BRANCH  45  46
ATOM     46  O   UNL A   1      45.915  40.254  32.276  1.00  0.00    -0.460 OA
BRANCH  46  47
ATOM     47  C   UNL A   1      46.477  39.106  32.702  1.00  0.00     0.338 C 
ATOM     48  O   UNL A   1      47.579  38.674  32.413  1.00  0.00    -0.246 OA
BRANCH  47  49
ATOM     49  C   UNL A   1      45.475  38.376  33.483  1.00  0.00     0.060 A 
ATOM     50  C   UNL A   1      45.841  37.109  33.932  1.00  0.00     0.016 A 
ATOM     51  C   UNL A   1      44.142  38.822  33.498  1.00  0.00     0.016 A 
ATOM     52  C   UNL A   1      44.837  36.204  34.181  1.00  0.00     0.010 A 
ATOM     53  C   UNL A   1      43.141  37.913  33.735  1.00  0.00     0.010 A 
ATOM     54  C   UNL A   1      43.506  36.595  33.981  1.00  0.00    -0.014 A 
BRANCH  54  55
ATOM     55  C   UNL A   1      42.504  35.561  34.039  1.00  0.00     0.031 A 
ATOM     56  C   UNL A   1      41.919  35.365  35.374  1.00  0.00     0.074 A 
ATOM     57  C   UNL A   1      42.127  34.843  32.969  1.00  0.00     0.049 A 
ATOM     58  N   UNL A   1      42.146  34.391  36.187  1.00  0.00    -0.248 NA
ATOM     59  C   UNL A   1      41.110  36.458  35.929  1.00  0.00     0.031 C 
ATOM     60  C   UNL A   1      42.406  35.091  31.553  1.00  0.00     0.029 A 
ATOM     61  N   UNL A   1      41.313  33.758  32.944  1.00  0.00    -0.354 N 
ATOM     62  C   UNL A   1      41.356  34.643  37.297  1.00  0.00     0.074 A 
ATOM     63  C   UNL A   1      40.870  35.995  37.156  1.00  0.00     0.031 C 
ATOM     64  C   UNL A   1      41.587  34.317  30.803  1.00  0.00     0.029 A 
ATOM     65  C   UNL A   1      40.846  33.427  31.684  1.00  0.00     0.049 A 
ATOM     66  H   UNL A   1      41.074  33.250  33.753  1.00  0.00     0.167 HD
ATOM     67  C   UNL A   1      40.977  33.650  38.144  1.00  0.00     0.031 A 
ATOM     68  C   UNL A   1      39.863  32.536  31.411  1.00  0.00     0.031 A 
ATOM     69  C   UNL A   1      41.735  32.444  37.948  1.00  0.00     0.049 A 
ATOM     70  C   UNL A   1      39.753  31.622  32.577  1.00  0.00     0.074 A 
ATOM     71  C   UNL A   1      43.069  32.106  38.060  1.00  0.00     0.029 A 
ATOM     72  N   UNL A   1      41.148  31.449  37.200  1.00  0.00    -0.354 N 
ATOM     73  N   UNL A   1      40.679  30.767  32.910  1.00  0.00    -0.248 NA
ATOM     74  C   UNL A   1      38.801  31.940  33.631  1.00  0.00     0.031 C 
ATOM     75  C   UNL A   1      43.307  31.170  37.012  1.00  0.00     0.029 A 
ATOM     76  C   UNL A   1      42.100  30.957  36.341  1.00  0.00     0.049 A 
ATOM     77  H   UNL A   1      40.215  31.145  37.267  1.00  0.00     0.167 HD
ATOM     78  C   UNL A   1      40.687  30.765  34.298  1.00  0.00     0.074 A 
ATOM     79  C   UNL A   1      39.438  31.415  34.682  1.00  0.00     0.031 C 
ATOM     80  C   UNL A   1      41.826  30.483  34.999  1.00  0.00     0.031 A 
BRANCH  67  81
ATOM     81  C   UNL A   1      39.672  33.671  38.885  1.00  0.00    -0.014 A 
ATOM     82  C   UNL A   1      39.678  33.820  40.284  1.00  0.00     0.010 A 
ATOM     83  C   UNL A   1      38.457  33.286  38.278  1.00  0.00     0.010 A 
ATOM     84  C   UNL A   1      38.531  33.550  41.040  1.00  0.00     0.020 A 
ATOM     85  C   UNL A   1      37.298  33.061  39.017  1.00  0.00     0.020 A 
ATOM     86  C   UNL A   1      37.352  33.161  40.400  1.00  0.00     0.054 A 
BRANCH  86  87
ATOM     87  S   UNL A   1      35.910  32.709  41.391  1.00  0.00     0.124 S 
ATOM     88  O   UNL A   1      35.027  32.127  40.386  1.00  0.00    -0.237 OA
ATOM     89  O   UNL A   1      36.479  31.772  42.356  1.00  0.00    -0.237 OA
ATOM     90  O   UNL A   1      35.468  33.983  41.953  1.00  0.00    -0.744 OA
ENDBRANCH  86  87
ENDBRANCH  67  81
BRANCH  68  91
ATOM     91  C   UNL A   1      38.820  32.643  30.366  1.00  0.00    -0.014 A 
ATOM     92  C   UNL A   1      38.260  31.492  29.786  1.00  0.00     0.010 A 
ATOM     93  C   UNL A   1      38.172  33.876  30.140  1.00  0.00     0.010 A 
ATOM     94  C   UNL A   1      37.056  31.560  29.065  1.00  0.00     0.020 A 
ATOM     95  C   UNL A   1      36.979  33.954  29.415  1.00  0.00     0.020 A 
ATOM     96  C   UNL A   1      36.412  32.790  28.904  1.00  0.00     0.054 A 
BRANCH  96  97
ATOM     97  S   UNL A   1      34.765  32.842  28.142  1.00  0.00     0.124 S 
ATOM     98  O   UNL A   1      34.835  34.055  27.333  1.00  0.00    -0.237 OA
ATOM     99  O   UNL A   1      34.721  31.587  27.397  1.00  0.00    -0.237 OA
ATOM    100  O   UNL A   1      33.858  32.909  29.287  1.00  0.00    -0.744 OA
ENDBRANCH  96  97
ENDBRANCH  68  91
BRANCH  80 101
ATOM    101  C   UNL A   1      42.987  29.859  34.254  1.00  0.00    -0.014 A 
ATOM    102  C   UNL A   1      44.001  30.607  33.625  1.00  0.00     0.010 A 
ATOM    103  C   UNL A   1      43.127  28.460  34.317  1.00  0.00     0.010 A 
ATOM    104  C   UNL A   1      45.108  29.969  33.045  1.00  0.00     0.020 A 
ATOM    105  C   UNL A   1      44.237  27.820  33.758  1.00  0.00     0.020 A 
ATOM    106  C   UNL A   1      45.219  28.577  33.117  1.00  0.00     0.054 A 
BRANCH 106 107
ATOM    107  S   UNL A   1      46.678  27.761  32.409  1.00  0.00     0.124 S 
ATOM    108  O   UNL A   1      46.630  28.181  31.012  1.00  0.00    -0.237 OA
ATOM    109  O   UNL A   1      47.776  28.320  33.196  1.00  0.00    -0.237 OA
ATOM    110  O   UNL A   1      46.427  26.339  32.637  1.00  0.00    -0.744 OA
ENDBRANCH 106 107
ENDBRANCH  80 101
ENDBRANCH  54  55
ENDBRANCH  47  49
ENDBRANCH  46  47
ENDBRANCH  45  46
ENDBRANCH  44  45
ENDBRANCH  43  44
ENDBRANCH  42  43
ENDBRANCH   1  42
TORSDOF 27
ENDMDL
MODEL 3
REMARK VINA RESULT:      -7.2      1.670      3.399
REMARK SMILES COc1cc([C@@H]2CC(=O)Nc3c(C(=O)OCCOCCOCCOCCOC(=O)c4ccc(-c5c6nc(c(-c7ccc(S(=O)(=O)[O-])cc7)c7ccc([nH]7)c(-c7ccc(S(=O)(=O)[O-])cc7)c7nc(c(-c8ccc(S(=O)(=O)[O-])cc8)c8ccc5[nH]8)C=C7)C=C6)cc4)cn(-c4ccc(F)cc4)c32)c(OC)c2c1OCO2
REMARK SMILES IDX 22 1 21 2 20 3 19 4 18 5 17 6 16 7 15 8 13 9 14 10 12 11
REMARK SMILES IDX 6 12 7 13 99 14 8 15 11 16 91 17 9 18 10 19 90 20 5 22 3 23
REMARK SMILES IDX 4 24 104 25 103 26 105 27 100 28 107 29 106 30 2 31 1 32
REMARK SMILES IDX 101 33 102 34 92 35 93 36 98 37 94 38 97 39 95 40 96 41
REMARK SMILES IDX 23 42 24 43 25 44 26 45 27 46 28 47 29 48 30 49 31 50 89 51
REMARK SMILES IDX 32 52 88 53 33 54 34 55 35 56 82 57 36 58 87 59 81 60 83 61
REMARK SMILES IDX 37 62 86 63 80 64 79 65 38 67 68 68 49 69 67 70 50 71 53 72
REMARK SMILES IDX 66 73 84 74 51 75 52 76 65 78 85 79 54 80 39 81 40 82 48 83
REMARK SMILES IDX 41 84 47 85 42 86 43 87 44 88 45 89 46 90 69 91 70 92 78 93
REMARK SMILES IDX 71 94 77 95 72 96 73 97 74 98 75 99 76 100 55 101 56 102
REMARK SMILES IDX 64 103 57 104 63 105 58 106 59 107 60 108 61 109 62 110
REMARK H PARENT 10 21 83 66 53 77
REMARK Flexibility Score: inf
ROOT
ATOM      1  C   UNL A   1      34.310  34.372  33.076  1.00  0.00     0.188 C 
ENDROOT
BRANCH   1   2
ATOM      2  O   UNL A   1      35.625  34.042  33.524  1.00  0.00    -0.377 OA
BRANCH   2   3
ATOM      3  C   UNL A   1      36.146  32.824  33.016  1.00  0.00     0.188 C 
BRANCH   3   4
ATOM      4  C   UNL A   1      37.305  32.211  33.841  1.00  0.00     0.188 C 
BRANCH   4   5
ATOM      5  O   UNL A   1      38.259  32.994  34.555  1.00  0.00    -0.376 OA
BRANCH   5   6
ATOM      6  C   UNL A   1      39.112  33.921  33.906  1.00  0.00     0.202 C 
BRANCH   6   7
ATOM      7  C   UNL A   1      39.869  33.499  32.639  1.00  0.00     0.261 C 
BRANCH   7   8
ATOM      8  O   UNL A   1      40.270  34.562  31.772  1.00  0.00    -0.460 OA
BRANCH   8   9
ATOM      9  C   UNL A   1      41.330  34.277  30.968  1.00  0.00     0.341 C 
ATOM     10  O   UNL A   1      41.328  33.442  30.068  1.00  0.00    -0.246 OA
BRANCH   9  11
ATOM     11  C   UNL A   1      42.458  35.159  31.223  1.00  0.00     0.102 A 
ATOM     12  C   UNL A   1      44.848  37.099  33.274  1.00  0.00     0.082 C 
ATOM     13  C   UNL A   1      43.918  37.544  34.417  1.00  0.00     0.115 C 
ATOM     14  C   UNL A   1      44.042  36.445  32.193  1.00  0.00     0.055 A 
ATOM     15  C   UNL A   1      42.698  36.661  34.667  1.00  0.00     0.225 C 
ATOM     16  C   UNL A   1      42.810  35.870  32.392  1.00  0.00     0.078 A 
ATOM     17  N   UNL A   1      44.361  36.307  30.861  1.00  0.00    -0.317 N 
ATOM     18  O   UNL A   1      42.136  36.643  35.763  1.00  0.00    -0.275 OA
ATOM     19  N   UNL A   1      42.173  35.965  33.606  1.00  0.00    -0.324 N 
ATOM     20  C   UNL A   1      43.404  35.515  30.272  1.00  0.00     0.109 A 
ATOM     21  H   UNL A   1      41.305  35.516  33.721  1.00  0.00     0.170 HD
BRANCH  12  22
ATOM     22  C   UNL A   1      46.012  36.219  33.754  1.00  0.00     0.012 A 
ATOM     23  C   UNL A   1      46.687  34.362  35.214  1.00  0.00     0.165 A 
ATOM     24  C   UNL A   1      45.693  35.110  34.582  1.00  0.00     0.059 A 
ATOM     25  C   UNL A   1      48.002  34.664  34.924  1.00  0.00     0.211 A 
ATOM     26  C   UNL A   1      48.336  35.699  34.072  1.00  0.00     0.211 A 
ATOM     27  O   UNL A   1      49.104  34.018  35.405  1.00  0.00    -0.449 OA
ATOM     28  C   UNL A   1      47.371  36.502  33.480  1.00  0.00     0.168 A 
ATOM     29  O   UNL A   1      49.689  35.815  33.938  1.00  0.00    -0.449 OA
ATOM     30  C   UNL A   1      50.155  34.693  34.701  1.00  0.00     0.468 C 
BRANCH  23  31
ATOM     31  O   UNL A   1      46.263  33.383  36.064  1.00  0.00    -0.493 OA
ATOM     32  C   UNL A   1      44.847  33.356  36.241  1.00  0.00     0.278 C 
ENDBRANCH  23  31
BRANCH  28  33
ATOM     33  O   UNL A   1      47.611  37.560  32.659  1.00  0.00    -0.492 OA
ATOM     34  C   UNL A   1      48.350  38.673  33.133  1.00  0.00     0.278 C 
ENDBRANCH  28  33
ENDBRANCH  12  22
BRANCH  17  35
ATOM     35  C   UNL A   1      45.471  36.845  30.185  1.00  0.00     0.046 A 
ATOM     36  C   UNL A   1      45.523  38.221  29.955  1.00  0.00     0.029 A 
ATOM     37  C   UNL A   1      46.491  35.997  29.743  1.00  0.00     0.029 A 
ATOM     38  C   UNL A   1      46.570  38.750  29.206  1.00  0.00     0.041 A 
ATOM     39  C   UNL A   1      47.540  36.537  28.995  1.00  0.00     0.041 A 
ATOM     40  C   UNL A   1      47.562  37.903  28.723  1.00  0.00     0.123 A 
ATOM     41  F   UNL A   1      48.557  38.414  27.987  1.00  0.00    -0.207 F 
ENDBRANCH  17  35
ENDBRANCH   9  11
ENDBRANCH   8   9
ENDBRANCH   7   8
ENDBRANCH   6   7
ENDBRANCH   5   6
ENDBRANCH   4   5
ENDBRANCH   3   4
ENDBRANCH   2   3
ENDBRANCH   1   2
BRANCH   1  42
ATOM     42  C   UNL A   1      34.157  34.741  31.583  1.00  0.00     0.188 C 
BRANCH  42  43
ATOM     43  O   UNL A   1      34.261  33.625  30.704  1.00  0.00    -0.376 OA
BRANCH  43  44
ATOM     44  C   UNL A   1      33.774  33.742  29.377  1.00  0.00     0.202 C 
BRANCH  44  45
ATOM     45  C   UNL A   1      34.855  33.944  28.322  1.00  0.00     0.261 C 
BRANCH  45  46
ATOM     46  O   UNL A   1      36.007  33.138  28.510  1.00  0.00    -0.460 OA
BRANCH  46  47
ATOM     47  C   UNL A   1      35.878  31.844  28.158  1.00  0.00     0.338 C 
ATOM     48  O   UNL A   1      35.091  31.375  27.355  1.00  0.00    -0.246 OA
BRANCH  47  49
ATOM     49  C   UNL A   1      36.769  31.053  29.012  1.00  0.00     0.060 A 
ATOM     50  C   UNL A   1      37.645  31.769  29.826  1.00  0.00     0.016 A 
ATOM     51  C   UNL A   1      36.919  29.676  28.776  1.00  0.00     0.016 A 
ATOM     52  C   UNL A   1      38.806  31.147  30.217  1.00  0.00     0.010 A 
ATOM     53  C   UNL A   1      38.085  29.060  29.159  1.00  0.00     0.010 A 
ATOM     54  C   UNL A   1      39.049  29.834  29.792  1.00  0.00    -0.014 A 
BRANCH  54  55
ATOM     55  C   UNL A   1      40.365  29.299  30.038  1.00  0.00     0.031 A 
ATOM     56  C   UNL A   1      40.748  29.273  31.458  1.00  0.00     0.074 A 
ATOM     57  C   UNL A   1      41.170  28.854  29.060  1.00  0.00     0.049 A 
ATOM     58  N   UNL A   1      41.583  30.054  32.051  1.00  0.00    -0.248 NA
ATOM     59  C   UNL A   1      39.999  28.377  32.347  1.00  0.00     0.031 C 
ATOM     60  C   UNL A   1      40.843  28.564  27.662  1.00  0.00     0.029 A 
ATOM     61  N   UNL A   1      42.469  28.476  29.164  1.00  0.00    -0.354 N 
ATOM     62  C   UNL A   1      41.616  29.628  33.369  1.00  0.00     0.074 A 
ATOM     63  C   UNL A   1      40.515  28.710  33.531  1.00  0.00     0.031 C 
ATOM     64  C   UNL A   1      41.853  27.847  27.116  1.00  0.00     0.029 A 
ATOM     65  C   UNL A   1      42.942  27.763  28.077  1.00  0.00     0.049 A 
ATOM     66  H   UNL A   1      43.027  28.690  29.947  1.00  0.00     0.167 HD
ATOM     67  C   UNL A   1      42.678  29.888  34.177  1.00  0.00     0.031 A 
ATOM     68  C   UNL A   1      44.118  27.092  28.019  1.00  0.00     0.031 A 
ATOM     69  C   UNL A   1      43.550  30.892  33.630  1.00  0.00     0.049 A 
ATOM     70  C   UNL A   1      45.012  27.668  29.057  1.00  0.00     0.074 A 
ATOM     71  C   UNL A   1      43.408  32.224  33.295  1.00  0.00     0.029 A 
ATOM     72  N   UNL A   1      44.687  30.454  32.991  1.00  0.00    -0.354 N 
ATOM     73  N   UNL A   1      45.495  28.877  28.997  1.00  0.00    -0.248 NA
ATOM     74  C   UNL A   1      45.039  27.057  30.377  1.00  0.00     0.031 C 
ATOM     75  C   UNL A   1      44.207  32.403  32.129  1.00  0.00     0.029 A 
ATOM     76  C   UNL A   1      44.823  31.184  31.836  1.00  0.00     0.049 A 
ATOM     77  H   UNL A   1      45.293  29.745  33.303  1.00  0.00     0.167 HD
ATOM     78  C   UNL A   1      45.493  29.332  30.309  1.00  0.00     0.074 A 
ATOM     79  C   UNL A   1      45.312  28.134  31.122  1.00  0.00     0.031 C 
ATOM     80  C   UNL A   1      45.365  30.662  30.596  1.00  0.00     0.031 A 
BRANCH  67  81
ATOM     81  C   UNL A   1      43.106  28.960  35.277  1.00  0.00    -0.014 A 
ATOM     82  C   UNL A   1      43.580  29.499  36.486  1.00  0.00     0.010 A 
ATOM     83  C   UNL A   1      43.301  27.579  35.060  1.00  0.00     0.010 A 
ATOM     84  C   UNL A   1      44.260  28.699  37.411  1.00  0.00     0.020 A 
ATOM     85  C   UNL A   1      43.936  26.764  35.996  1.00  0.00     0.020 A 
ATOM     86  C   UNL A   1      44.443  27.339  37.153  1.00  0.00     0.054 A 
BRANCH  86  87
ATOM     87  S   UNL A   1      45.416  26.338  38.301  1.00  0.00     0.124 S 
ATOM     88  O   UNL A   1      45.404  25.035  37.645  1.00  0.00    -0.237 OA
ATOM     89  O   UNL A   1      46.700  27.034  38.307  1.00  0.00    -0.237 OA
ATOM     90  O   UNL A   1      44.662  26.419  39.550  1.00  0.00    -0.744 OA
ENDBRANCH  86  87
ENDBRANCH  67  81
BRANCH  68  91
ATOM     91  C   UNL A   1      44.378  25.793  27.358  1.00  0.00    -0.014 A 
ATOM     92  C   UNL A   1      43.873  24.597  27.895  1.00  0.00     0.010 A 
ATOM     93  C   UNL A   1      44.887  25.762  26.042  1.00  0.00     0.010 A 
ATOM     94  C   UNL A   1      43.814  23.427  27.119  1.00  0.00     0.020 A 
ATOM     95  C   UNL A   1      44.841  24.599  25.266  1.00  0.00     0.020 A 
ATOM     96  C   UNL A   1      44.278  23.443  25.801  1.00  0.00     0.054 A 
BRANCH  96  97
ATOM     97  S   UNL A   1      44.021  21.988  24.745  1.00  0.00     0.124 S 
ATOM     98  O   UNL A   1      42.872  21.347  25.377  1.00  0.00    -0.237 OA
ATOM     99  O   UNL A   1      43.771  22.586  23.437  1.00  0.00    -0.237 OA
ATOM    100  O   UNL A   1      45.281  21.255  24.856  1.00  0.00    -0.744 OA
ENDBRANCH  96  97
ENDBRANCH  68  91
BRANCH  80 101
ATOM    101  C   UNL A   1      45.553  31.657  29.471  1.00  0.00    -0.014 A 
ATOM    102  C   UNL A   1      46.813  32.118  29.042  1.00  0.00     0.010 A 
ATOM    103  C   UNL A   1      44.416  32.031  28.731  1.00  0.00     0.010 A 
ATOM    104  C   UNL A   1      46.927  32.956  27.921  1.00  0.00     0.020 A 
ATOM    105  C   UNL A   1      44.525  32.849  27.603  1.00  0.00     0.020 A 
ATOM    106  C   UNL A   1      45.780  33.315  27.209  1.00  0.00     0.054 A 
BRANCH 106 107
ATOM    107  S   UNL A   1      45.938  34.358  25.732  1.00  0.00     0.124 S 
ATOM    108  O   UNL A   1      45.559  35.676  26.231  1.00  0.00    -0.237 OA
ATOM    109  O   UNL A   1      47.347  34.203  25.374  1.00  0.00    -0.237 OA
ATOM    110  O   UNL A   1      44.999  33.763  24.782  1.00  0.00    -0.744 OA
ENDBRANCH 106 107
ENDBRANCH  80 101
ENDBRANCH  54  55
ENDBRANCH  47  49
ENDBRANCH  46  47
ENDBRANCH  45  46
ENDBRANCH  44  45
ENDBRANCH  43  44
ENDBRANCH  42  43
ENDBRANCH   1  42
TORSDOF 27
ENDMDL
