MODEL 1
REMARK VINA RESULT:     -10.0      0.000      0.000
REMARK SMILES CC(C)(C)c1cc2c(cc1Cl)C=C(C(=O)OCCOCCOCCOCCOC(=O)c1ccc(-c3c4nc(c(-c5ccc(S(=O)(=O)[O-])cc5)c5ccc([nH]5)c(-c5ccc(S(=O)(=O)[O-])cc5)c5nc(c(-c6ccc(S(=O)(=O)[O-])cc6)c6ccc3[nH]6)C=C5)C=C4)cc1)[C@@H](C(F)(F)F)O2
REMARK SMILES IDX 23 1 22 2 21 3 20 4 19 5 18 6 17 7 16 8 14 9 15 10 13 11
REMARK SMILES IDX 5 12 6 13 10 14 7 15 9 16 11 17 8 18 96 19 12 20 91 21 2 22
REMARK SMILES IDX 1 23 3 24 4 25 92 26 93 27 94 28 95 29 24 30 25 31 26 32
REMARK SMILES IDX 27 33 28 34 29 35 30 36 31 37 32 38 90 39 33 40 89 41 34 42
REMARK SMILES IDX 35 43 36 44 83 45 37 46 88 47 82 48 84 49 38 50 87 51 81 52
REMARK SMILES IDX 80 53 39 55 69 56 50 57 68 58 51 59 54 60 67 61 85 62 52 63
REMARK SMILES IDX 53 64 66 66 86 67 55 68 40 69 41 70 49 71 42 72 48 73 43 74
REMARK SMILES IDX 44 75 45 76 46 77 47 78 70 79 71 80 79 81 72 82 78 83 73 84
REMARK SMILES IDX 74 85 75 86 76 87 77 88 56 89 57 90 65 91 58 92 64 93 59 94
REMARK SMILES IDX 60 95 61 96 62 97 63 98
REMARK H PARENT 84 54 54 65
REMARK Flexibility Score: inf
ROOT
ATOM      1  C   UNL A   1      37.108  21.172  24.693  1.00  0.00     0.188 C 
ENDROOT
BRANCH   1   2
ATOM      2  O   UNL A   1      35.958  20.473  25.168  1.00  0.00    -0.377 OA
BRANCH   2   3
ATOM      3  C   UNL A   1      34.699  20.823  24.624  1.00  0.00     0.188 C 
BRANCH   3   4
ATOM      4  C   UNL A   1      33.537  20.612  25.610  1.00  0.00     0.188 C 
BRANCH   4   5
ATOM      5  O   UNL A   1      32.739  21.778  25.799  1.00  0.00    -0.376 OA
BRANCH   5   6
ATOM      6  C   UNL A   1      32.978  22.554  26.969  1.00  0.00     0.202 C 
BRANCH   6   7
ATOM      7  C   UNL A   1      33.965  23.727  26.856  1.00  0.00     0.261 C 
BRANCH   7   8
ATOM      8  O   UNL A   1      33.458  24.886  26.176  1.00  0.00    -0.460 OA
BRANCH   8   9
ATOM      9  C   UNL A   1      34.016  25.218  24.998  1.00  0.00     0.338 C 
ATOM     10  O   UNL A   1      34.988  24.703  24.473  1.00  0.00    -0.246 OA
BRANCH   9  11
ATOM     11  C   UNL A   1      33.130  26.205  24.343  1.00  0.00     0.087 C 
ATOM     12  C   UNL A   1      29.967  30.014  23.342  1.00  0.00    -0.020 A 
ATOM     13  C   UNL A   1      30.458  28.890  22.637  1.00  0.00     0.053 A 
ATOM     14  C   UNL A   1      30.655  30.338  24.532  1.00  0.00     0.045 A 
ATOM     15  C   UNL A   1      31.435  28.040  23.163  1.00  0.00     0.128 A 
ATOM     16  C   UNL A   1      31.622  29.470  25.071  1.00  0.00     0.032 A 
ATOM     17  Cl  UNL A   1      30.432  31.808  25.414  1.00  0.00    -0.084 Cl
ATOM     18  C   UNL A   1      31.967  28.290  24.418  1.00  0.00     0.019 A 
ATOM     19  O   UNL A   1      31.782  26.975  22.386  1.00  0.00    -0.475 OA
ATOM     20  C   UNL A   1      32.831  27.307  25.045  1.00  0.00     0.027 C 
ATOM     21  C   UNL A   1      32.690  25.971  22.919  1.00  0.00     0.316 C 
BRANCH  12  22
ATOM     22  C   UNL A   1      28.730  30.766  22.790  1.00  0.00    -0.012 C 
ATOM     23  C   UNL A   1      28.113  29.965  21.631  1.00  0.00     0.016 C 
ATOM     24  C   UNL A   1      29.051  32.206  22.314  1.00  0.00     0.016 C 
ATOM     25  C   UNL A   1      27.627  30.957  23.872  1.00  0.00     0.016 C 
ENDBRANCH  12  22
BRANCH  21  26
ATOM     26  C   UNL A   1      32.027  24.599  22.724  1.00  0.00     0.430 C 
ATOM     27  F   UNL A   1      30.884  24.709  22.005  1.00  0.00    -0.167 F 
ATOM     28  F   UNL A   1      32.827  23.732  22.067  1.00  0.00    -0.167 F 
ATOM     29  F   UNL A   1      31.705  24.035  23.912  1.00  0.00    -0.167 F 
ENDBRANCH  21  26
ENDBRANCH   9  11
ENDBRANCH   8   9
ENDBRANCH   7   8
ENDBRANCH   6   7
ENDBRANCH   5   6
ENDBRANCH   4   5
ENDBRANCH   3   4
ENDBRANCH   2   3
ENDBRANCH   1   2
BRANCH   1  30
ATOM     30  C   UNL A   1      37.977  22.045  25.628  1.00  0.00     0.188 C 
BRANCH  30  31
ATOM     31  O   UNL A   1      39.295  21.540  25.838  1.00  0.00    -0.376 OA
BRANCH  31  32
ATOM     32  C   UNL A   1      40.050  22.146  26.878  1.00  0.00     0.202 C 
BRANCH  32  33
ATOM     33  C   UNL A   1      40.975  23.270  26.397  1.00  0.00     0.261 C 
BRANCH  33  34
ATOM     34  O   UNL A   1      40.345  24.550  26.232  1.00  0.00    -0.460 OA
BRANCH  34  35
ATOM     35  C   UNL A   1      41.146  25.633  26.113  1.00  0.00     0.338 C 
ATOM     36  O   UNL A   1      41.679  26.044  25.098  1.00  0.00    -0.246 OA
BRANCH  35  37
ATOM     37  C   UNL A   1      41.092  26.363  27.397  1.00  0.00     0.060 A 
ATOM     38  C   UNL A   1      42.043  27.342  27.694  1.00  0.00     0.016 A 
ATOM     39  C   UNL A   1      40.098  26.034  28.328  1.00  0.00     0.016 A 
ATOM     40  C   UNL A   1      41.978  28.020  28.912  1.00  0.00     0.010 A 
ATOM     41  C   UNL A   1      40.038  26.708  29.550  1.00  0.00     0.010 A 
ATOM     42  C   UNL A   1      40.960  27.726  29.837  1.00  0.00    -0.014 A 
BRANCH  42  43
ATOM     43  C   UNL A   1      40.741  28.630  30.992  1.00  0.00     0.031 A 
ATOM     44  C   UNL A   1      41.567  28.557  32.238  1.00  0.00     0.074 A 
ATOM     45  C   UNL A   1      39.756  29.543  30.880  1.00  0.00     0.049 A 
ATOM     46  N   UNL A   1      41.542  29.355  33.275  1.00  0.00    -0.248 NA
ATOM     47  C   UNL A   1      42.540  27.460  32.343  1.00  0.00     0.031 C 
ATOM     48  C   UNL A   1      38.880  29.685  29.714  1.00  0.00     0.029 A 
ATOM     49  N   UNL A   1      39.335  30.526  31.737  1.00  0.00    -0.354 N 
ATOM     50  C   UNL A   1      42.510  28.877  34.149  1.00  0.00     0.074 A 
ATOM     51  C   UNL A   1      43.074  27.690  33.539  1.00  0.00     0.031 C 
ATOM     52  C   UNL A   1      38.046  30.713  29.917  1.00  0.00     0.029 A 
ATOM     53  C   UNL A   1      38.305  31.286  31.235  1.00  0.00     0.049 A 
ATOM     54  H   UNL A   1      39.730  30.674  32.626  1.00  0.00     0.167 HD
ATOM     55  C   UNL A   1      42.895  29.398  35.339  1.00  0.00     0.031 A 
ATOM     56  C   UNL A   1      37.645  32.335  31.763  1.00  0.00     0.031 A 
ATOM     57  C   UNL A   1      42.306  30.572  35.939  1.00  0.00     0.049 A 
ATOM     58  C   UNL A   1      38.065  32.865  33.102  1.00  0.00     0.074 A 
ATOM     59  C   UNL A   1      42.668  31.198  37.120  1.00  0.00     0.029 A 
ATOM     60  N   UNL A   1      41.236  31.287  35.423  1.00  0.00    -0.354 N 
ATOM     61  N   UNL A   1      39.040  32.452  33.876  1.00  0.00    -0.248 NA
ATOM     62  C   UNL A   1      37.314  34.010  33.634  1.00  0.00     0.031 C 
ATOM     63  C   UNL A   1      41.771  32.243  37.357  1.00  0.00     0.029 A 
ATOM     64  C   UNL A   1      40.899  32.323  36.283  1.00  0.00     0.049 A 
ATOM     65  H   UNL A   1      40.781  31.091  34.572  1.00  0.00     0.167 HD
ATOM     66  C   UNL A   1      39.031  33.296  34.980  1.00  0.00     0.074 A 
ATOM     67  C   UNL A   1      37.967  34.256  34.763  1.00  0.00     0.031 C 
ATOM     68  C   UNL A   1      39.833  33.270  36.072  1.00  0.00     0.031 A 
BRANCH  55  69
ATOM     69  C   UNL A   1      44.026  28.739  36.087  1.00  0.00    -0.014 A 
ATOM     70  C   UNL A   1      43.748  27.779  37.079  1.00  0.00     0.010 A 
ATOM     71  C   UNL A   1      45.346  29.196  35.933  1.00  0.00     0.010 A 
ATOM     72  C   UNL A   1      44.758  27.324  37.932  1.00  0.00     0.020 A 
ATOM     73  C   UNL A   1      46.366  28.724  36.766  1.00  0.00     0.020 A 
ATOM     74  C   UNL A   1      46.059  27.812  37.779  1.00  0.00     0.054 A 
BRANCH  74  75
ATOM     75  S   UNL A   1      47.343  27.256  38.934  1.00  0.00     0.124 S 
ATOM     76  O   UNL A   1      48.506  27.119  38.062  1.00  0.00    -0.237 OA
ATOM     77  O   UNL A   1      47.400  28.353  39.897  1.00  0.00    -0.237 OA
ATOM     78  O   UNL A   1      46.808  26.003  39.463  1.00  0.00    -0.744 OA
ENDBRANCH  74  75
ENDBRANCH  55  69
BRANCH  56  79
ATOM     79  C   UNL A   1      36.553  32.969  30.974  1.00  0.00    -0.014 A 
ATOM     80  C   UNL A   1      36.848  33.962  30.022  1.00  0.00     0.010 A 
ATOM     81  C   UNL A   1      35.209  32.656  31.243  1.00  0.00     0.010 A 
ATOM     82  C   UNL A   1      35.821  34.671  29.396  1.00  0.00     0.020 A 
ATOM     83  C   UNL A   1      34.179  33.341  30.593  1.00  0.00     0.020 A 
ATOM     84  C   UNL A   1      34.492  34.365  29.696  1.00  0.00     0.054 A 
BRANCH  84  85
ATOM     85  S   UNL A   1      33.176  35.334  28.911  1.00  0.00     0.124 S 
ATOM     86  O   UNL A   1      32.456  35.854  30.071  1.00  0.00    -0.237 OA
ATOM     87  O   UNL A   1      33.924  36.323  28.139  1.00  0.00    -0.237 OA
ATOM     88  O   UNL A   1      32.451  34.346  28.116  1.00  0.00    -0.744 OA
ENDBRANCH  84  85
ENDBRANCH  56  79
BRANCH  68  89
ATOM     89  C   UNL A   1      39.602  34.302  37.148  1.00  0.00    -0.014 A 
ATOM     90  C   UNL A   1      40.252  35.548  37.075  1.00  0.00     0.010 A 
ATOM     91  C   UNL A   1      38.851  33.989  38.295  1.00  0.00     0.010 A 
ATOM     92  C   UNL A   1      40.190  36.446  38.143  1.00  0.00     0.020 A 
ATOM     93  C   UNL A   1      38.760  34.897  39.354  1.00  0.00     0.020 A 
ATOM     94  C   UNL A   1      39.453  36.109  39.282  1.00  0.00     0.054 A 
BRANCH  94  95
ATOM     95  S   UNL A   1      39.419  37.268  40.678  1.00  0.00     0.124 S 
ATOM     96  O   UNL A   1      38.502  38.298  40.201  1.00  0.00    -0.237 OA
ATOM     97  O   UNL A   1      38.920  36.438  41.772  1.00  0.00    -0.237 OA
ATOM     98  O   UNL A   1      40.813  37.685  40.810  1.00  0.00    -0.744 OA
ENDBRANCH  94  95
ENDBRANCH  68  89
ENDBRANCH  42  43
ENDBRANCH  35  37
ENDBRANCH  34  35
ENDBRANCH  33  34
ENDBRANCH  32  33
ENDBRANCH  31  32
ENDBRANCH  30  31
ENDBRANCH   1  30
TORSDOF 25
ENDMDL
MODEL 2
REMARK VINA RESULT:      -8.6      5.077      8.065
REMARK SMILES CC(C)(C)c1cc2c(cc1Cl)C=C(C(=O)OCCOCCOCCOCCOC(=O)c1ccc(-c3c4nc(c(-c5ccc(S(=O)(=O)[O-])cc5)c5ccc([nH]5)c(-c5ccc(S(=O)(=O)[O-])cc5)c5nc(c(-c6ccc(S(=O)(=O)[O-])cc6)c6ccc3[nH]6)C=C5)C=C4)cc1)[C@@H](C(F)(F)F)O2
REMARK SMILES IDX 23 1 22 2 21 3 20 4 19 5 18 6 17 7 16 8 14 9 15 10 13 11
REMARK SMILES IDX 5 12 6 13 10 14 7 15 9 16 11 17 8 18 96 19 12 20 91 21 2 22
REMARK SMILES IDX 1 23 3 24 4 25 92 26 93 27 94 28 95 29 24 30 25 31 26 32
REMARK SMILES IDX 27 33 28 34 29 35 30 36 31 37 32 38 90 39 33 40 89 41 34 42
REMARK SMILES IDX 35 43 36 44 83 45 37 46 88 47 82 48 84 49 38 50 87 51 81 52
REMARK SMILES IDX 80 53 39 55 69 56 50 57 68 58 51 59 54 60 67 61 85 62 52 63
REMARK SMILES IDX 53 64 66 66 86 67 55 68 40 69 41 70 49 71 42 72 48 73 43 74
REMARK SMILES IDX 44 75 45 76 46 77 47 78 70 79 71 80 79 81 72 82 78 83 73 84
REMARK SMILES IDX 74 85 75 86 76 87 77 88 56 89 57 90 65 91 58 92 64 93 59 94
REMARK SMILES IDX 60 95 61 96 62 97 63 98
REMARK H PARENT 84 54 54 65
REMARK Flexibility Score: inf
ROOT
ATOM      1  C   UNL A   1      35.120  22.952  23.460  1.00  0.00     0.188 C 
ENDROOT
BRANCH   1   2
ATOM      2  O   UNL A   1      34.348  22.702  24.633  1.00  0.00    -0.377 OA
BRANCH   2   3
ATOM      3  C   UNL A   1      33.147  21.965  24.489  1.00  0.00     0.188 C 
BRANCH   3   4
ATOM      4  C   UNL A   1      31.889  22.801  24.784  1.00  0.00     0.188 C 
BRANCH   4   5
ATOM      5  O   UNL A   1      32.067  24.193  24.533  1.00  0.00    -0.376 OA
BRANCH   5   6
ATOM      6  C   UNL A   1      32.137  25.059  25.661  1.00  0.00     0.202 C 
BRANCH   6   7
ATOM      7  C   UNL A   1      33.439  25.851  25.869  1.00  0.00     0.261 C 
BRANCH   7   8
ATOM      8  O   UNL A   1      33.269  27.175  26.398  1.00  0.00    -0.460 OA
BRANCH   8   9
ATOM      9  C   UNL A   1      33.741  28.206  25.674  1.00  0.00     0.338 C 
ATOM     10  O   UNL A   1      33.745  28.312  24.461  1.00  0.00    -0.246 OA
BRANCH   9  11
ATOM     11  C   UNL A   1      34.092  29.292  26.615  1.00  0.00     0.087 C 
ATOM     12  C   UNL A   1      35.922  32.027  30.448  1.00  0.00    -0.020 A 
ATOM     13  C   UNL A   1      34.958  32.222  29.431  1.00  0.00     0.053 A 
ATOM     14  C   UNL A   1      36.777  30.917  30.274  1.00  0.00     0.045 A 
ATOM     15  C   UNL A   1      34.734  31.286  28.418  1.00  0.00     0.128 A 
ATOM     16  C   UNL A   1      36.536  29.964  29.268  1.00  0.00     0.032 A 
ATOM     17  Cl  UNL A   1      38.199  30.628  31.216  1.00  0.00    -0.084 Cl
ATOM     18  C   UNL A   1      35.477  30.117  28.378  1.00  0.00     0.019 A 
ATOM     19  O   UNL A   1      33.745  31.591  27.530  1.00  0.00    -0.475 OA
ATOM     20  C   UNL A   1      35.113  29.061  27.451  1.00  0.00     0.027 C 
ATOM     21  C   UNL A   1      33.358  30.609  26.529  1.00  0.00     0.316 C 
BRANCH  12  22
ATOM     22  C   UNL A   1      35.949  32.998  31.655  1.00  0.00    -0.012 C 
ATOM     23  C   UNL A   1      37.111  33.993  31.490  1.00  0.00     0.016 C 
ATOM     24  C   UNL A   1      36.073  32.275  33.020  1.00  0.00     0.016 C 
ATOM     25  C   UNL A   1      34.635  33.823  31.775  1.00  0.00     0.016 C 
ENDBRANCH  12  22
BRANCH  21  26
ATOM     26  C   UNL A   1      31.834  30.440  26.612  1.00  0.00     0.430 C 
ATOM     27  F   UNL A   1      31.499  29.470  27.497  1.00  0.00    -0.167 F 
ATOM     28  F   UNL A   1      31.215  31.572  27.014  1.00  0.00    -0.167 F 
ATOM     29  F   UNL A   1      31.310  30.094  25.413  1.00  0.00    -0.167 F 
ENDBRANCH  21  26
ENDBRANCH   9  11
ENDBRANCH   8   9
ENDBRANCH   7   8
ENDBRANCH   6   7
ENDBRANCH   5   6
ENDBRANCH   4   5
ENDBRANCH   3   4
ENDBRANCH   2   3
ENDBRANCH   1   2
BRANCH   1  30
ATOM     30  C   UNL A   1      36.667  22.977  23.491  1.00  0.00     0.188 C 
BRANCH  30  31
ATOM     31  O   UNL A   1      37.258  21.778  23.989  1.00  0.00    -0.376 OA
BRANCH  31  32
ATOM     32  C   UNL A   1      37.527  21.732  25.384  1.00  0.00     0.202 C 
BRANCH  32  33
ATOM     33  C   UNL A   1      38.846  21.036  25.738  1.00  0.00     0.261 C 
BRANCH  33  34
ATOM     34  O   UNL A   1      39.956  21.916  25.974  1.00  0.00    -0.460 OA
BRANCH  34  35
ATOM     35  C   UNL A   1      41.118  21.363  26.390  1.00  0.00     0.338 C 
ATOM     36  O   UNL A   1      41.571  20.278  26.073  1.00  0.00    -0.246 OA
BRANCH  35  37
ATOM     37  C   UNL A   1      41.856  22.403  27.140  1.00  0.00     0.060 A 
ATOM     38  C   UNL A   1      41.163  23.378  27.862  1.00  0.00     0.016 A 
ATOM     39  C   UNL A   1      43.255  22.420  27.084  1.00  0.00     0.016 A 
ATOM     40  C   UNL A   1      41.876  24.352  28.562  1.00  0.00     0.010 A 
ATOM     41  C   UNL A   1      43.967  23.400  27.780  1.00  0.00     0.010 A 
ATOM     42  C   UNL A   1      43.282  24.355  28.547  1.00  0.00    -0.014 A 
BRANCH  42  43
ATOM     43  C   UNL A   1      44.019  25.216  29.502  1.00  0.00     0.031 A 
ATOM     44  C   UNL A   1      44.499  24.717  30.829  1.00  0.00     0.074 A 
ATOM     45  C   UNL A   1      44.252  26.490  29.129  1.00  0.00     0.049 A 
ATOM     46  N   UNL A   1      45.241  25.340  31.709  1.00  0.00    -0.248 NA
ATOM     47  C   UNL A   1      44.104  23.358  31.225  1.00  0.00     0.031 C 
ATOM     48  C   UNL A   1      43.810  27.082  27.864  1.00  0.00     0.029 A 
ATOM     49  N   UNL A   1      44.924  27.507  29.757  1.00  0.00    -0.354 N 
ATOM     50  C   UNL A   1      45.426  24.445  32.755  1.00  0.00     0.074 A 
ATOM     51  C   UNL A   1      44.680  23.250  32.419  1.00  0.00     0.031 C 
ATOM     52  C   UNL A   1      44.246  28.347  27.797  1.00  0.00     0.029 A 
ATOM     53  C   UNL A   1      44.973  28.668  29.022  1.00  0.00     0.049 A 
ATOM     54  H   UNL A   1      45.331  27.415  30.648  1.00  0.00     0.167 HD
ATOM     55  C   UNL A   1      46.166  24.609  33.877  1.00  0.00     0.031 A 
ATOM     56  C   UNL A   1      45.546  29.857  29.289  1.00  0.00     0.031 A 
ATOM     57  C   UNL A   1      46.889  25.817  34.204  1.00  0.00     0.049 A 
ATOM     58  C   UNL A   1      46.325  30.024  30.561  1.00  0.00     0.074 A 
ATOM     59  C   UNL A   1      47.705  26.052  35.298  1.00  0.00     0.029 A 
ATOM     60  N   UNL A   1      46.878  26.985  33.457  1.00  0.00    -0.354 N 
ATOM     61  N   UNL A   1      46.560  29.139  31.499  1.00  0.00    -0.248 NA
ATOM     62  C   UNL A   1      46.931  31.340  30.807  1.00  0.00     0.031 C 
ATOM     63  C   UNL A   1      48.124  27.384  35.254  1.00  0.00     0.029 A 
ATOM     64  C   UNL A   1      47.639  27.958  34.089  1.00  0.00     0.049 A 
ATOM     65  H   UNL A   1      46.401  27.108  32.605  1.00  0.00     0.167 HD
ATOM     66  C   UNL A   1      47.355  29.783  32.439  1.00  0.00     0.074 A 
ATOM     67  C   UNL A   1      47.577  31.128  31.946  1.00  0.00     0.031 C 
ATOM     68  C   UNL A   1      47.850  29.300  33.604  1.00  0.00     0.031 A 
BRANCH  55  69
ATOM     69  C   UNL A   1      46.276  23.460  34.849  1.00  0.00    -0.014 A 
ATOM     70  C   UNL A   1      45.401  23.384  35.949  1.00  0.00     0.010 A 
ATOM     71  C   UNL A   1      47.353  22.560  34.771  1.00  0.00     0.010 A 
ATOM     72  C   UNL A   1      45.627  22.461  36.975  1.00  0.00     0.020 A 
ATOM     73  C   UNL A   1      47.568  21.617  35.782  1.00  0.00     0.020 A 
ATOM     74  C   UNL A   1      46.718  21.593  36.891  1.00  0.00     0.054 A 
BRANCH  74  75
ATOM     75  S   UNL A   1      47.030  20.445  38.260  1.00  0.00     0.124 S 
ATOM     76  O   UNL A   1      48.084  19.593  37.717  1.00  0.00    -0.237 OA
ATOM     77  O   UNL A   1      47.436  21.341  39.341  1.00  0.00    -0.237 OA
ATOM     78  O   UNL A   1      45.739  19.790  38.459  1.00  0.00    -0.744 OA
ENDBRANCH  74  75
ENDBRANCH  55  69
BRANCH  56  79
ATOM     79  C   UNL A   1      45.432  30.952  28.288  1.00  0.00    -0.014 A 
ATOM     80  C   UNL A   1      46.345  31.036  27.220  1.00  0.00     0.010 A 
ATOM     81  C   UNL A   1      44.478  31.970  28.454  1.00  0.00     0.010 A 
ATOM     82  C   UNL A   1      46.344  32.145  26.371  1.00  0.00     0.020 A 
ATOM     83  C   UNL A   1      44.452  33.066  27.586  1.00  0.00     0.020 A 
ATOM     84  C   UNL A   1      45.405  33.160  26.568  1.00  0.00     0.054 A 
BRANCH  84  85
ATOM     85  S   UNL A   1      45.456  34.615  25.488  1.00  0.00     0.124 S 
ATOM     86  O   UNL A   1      46.893  34.805  25.310  1.00  0.00    -0.237 OA
ATOM     87  O   UNL A   1      44.730  34.160  24.305  1.00  0.00    -0.237 OA
ATOM     88  O   UNL A   1      44.781  35.646  26.271  1.00  0.00    -0.744 OA
ENDBRANCH  84  85
ENDBRANCH  56  79
BRANCH  68  89
ATOM     89  C   UNL A   1      48.682  30.221  34.460  1.00  0.00    -0.014 A 
ATOM     90  C   UNL A   1      48.059  31.032  35.427  1.00  0.00     0.010 A 
ATOM     91  C   UNL A   1      50.058  30.382  34.217  1.00  0.00     0.010 A 
ATOM     92  C   UNL A   1      48.785  32.015  36.105  1.00  0.00     0.020 A 
ATOM     93  C   UNL A   1      50.795  31.342  34.916  1.00  0.00     0.020 A 
ATOM     94  C   UNL A   1      50.147  32.171  35.837  1.00  0.00     0.054 A 
BRANCH  94  95
ATOM     95  S   UNL A   1      51.064  33.480  36.695  1.00  0.00     0.124 S 
ATOM     96  O   UNL A   1      50.894  34.616  35.796  1.00  0.00    -0.237 OA
ATOM     97  O   UNL A   1      50.364  33.577  37.974  1.00  0.00    -0.237 OA
ATOM     98  O   UNL A   1      52.423  32.948  36.779  1.00  0.00    -0.744 OA
ENDBRANCH  94  95
ENDBRANCH  68  89
ENDBRANCH  42  43
ENDBRANCH  35  37
ENDBRANCH  34  35
ENDBRANCH  33  34
ENDBRANCH  32  33
ENDBRANCH  31  32
ENDBRANCH  30  31
ENDBRANCH   1  30
TORSDOF 25
ENDMDL
MODEL 3
REMARK VINA RESULT:      -8.5      5.688      7.704
REMARK SMILES CC(C)(C)c1cc2c(cc1Cl)C=C(C(=O)OCCOCCOCCOCCOC(=O)c1ccc(-c3c4nc(c(-c5ccc(S(=O)(=O)[O-])cc5)c5ccc([nH]5)c(-c5ccc(S(=O)(=O)[O-])cc5)c5nc(c(-c6ccc(S(=O)(=O)[O-])cc6)c6ccc3[nH]6)C=C5)C=C4)cc1)[C@@H](C(F)(F)F)O2
REMARK SMILES IDX 23 1 22 2 21 3 20 4 19 5 18 6 17 7 16 8 14 9 15 10 13 11
REMARK SMILES IDX 5 12 6 13 10 14 7 15 9 16 11 17 8 18 96 19 12 20 91 21 2 22
REMARK SMILES IDX 1 23 3 24 4 25 92 26 93 27 94 28 95 29 24 30 25 31 26 32
REMARK SMILES IDX 27 33 28 34 29 35 30 36 31 37 32 38 90 39 33 40 89 41 34 42
REMARK SMILES IDX 35 43 36 44 83 45 37 46 88 47 82 48 84 49 38 50 87 51 81 52
REMARK SMILES IDX 80 53 39 55 69 56 50 57 68 58 51 59 54 60 67 61 85 62 52 63
REMARK SMILES IDX 53 64 66 66 86 67 55 68 40 69 41 70 49 71 42 72 48 73 43 74
REMARK SMILES IDX 44 75 45 76 46 77 47 78 70 79 71 80 79 81 72 82 78 83 73 84
REMARK SMILES IDX 74 85 75 86 76 87 77 88 56 89 57 90 65 91 58 92 64 93 59 94
REMARK SMILES IDX 60 95 61 96 62 97 63 98
REMARK H PARENT 84 54 54 65
REMARK Flexibility Score: inf
ROOT
ATOM      1  C   UNL A   1      35.896  18.360  24.866  1.00  0.00     0.188 C 
ENDROOT
BRANCH   1   2
ATOM      2  O   UNL A   1      35.158  17.504  23.996  1.00  0.00    -0.377 OA
BRANCH   2   3
ATOM      3  C   UNL A   1      34.052  16.804  24.538  1.00  0.00     0.188 C 
BRANCH   3   4
ATOM      4  C   UNL A   1      32.822  17.702  24.759  1.00  0.00     0.188 C 
BRANCH   4   5
ATOM      5  O   UNL A   1      32.091  17.960  23.563  1.00  0.00    -0.376 OA
BRANCH   5   6
ATOM      6  C   UNL A   1      32.636  18.912  22.653  1.00  0.00     0.202 C 
BRANCH   6   7
ATOM      7  C   UNL A   1      32.037  20.328  22.664  1.00  0.00     0.261 C 
BRANCH   7   8
ATOM      8  O   UNL A   1      32.574  21.210  23.662  1.00  0.00    -0.460 OA
BRANCH   8   9
ATOM      9  C   UNL A   1      31.927  21.293  24.839  1.00  0.00     0.338 C 
ATOM     10  O   UNL A   1      31.572  20.370  25.550  1.00  0.00    -0.246 OA
BRANCH   9  11
ATOM     11  C   UNL A   1      31.883  22.720  25.227  1.00  0.00     0.087 C 
ATOM     12  C   UNL A   1      31.450  27.753  25.274  1.00  0.00    -0.020 A 
ATOM     13  C   UNL A   1      31.943  26.767  26.163  1.00  0.00     0.053 A 
ATOM     14  C   UNL A   1      30.673  27.272  24.198  1.00  0.00     0.045 A 
ATOM     15  C   UNL A   1      31.832  25.399  25.903  1.00  0.00     0.128 A 
ATOM     16  C   UNL A   1      30.582  25.895  23.926  1.00  0.00     0.032 A 
ATOM     17  Cl  UNL A   1      29.737  28.278  23.149  1.00  0.00    -0.084 Cl
ATOM     18  C   UNL A   1      31.213  24.961  24.743  1.00  0.00     0.019 A 
ATOM     19  O   UNL A   1      32.388  24.569  26.831  1.00  0.00    -0.475 OA
ATOM     20  C   UNL A   1      31.273  23.558  24.378  1.00  0.00     0.027 C 
ATOM     21  C   UNL A   1      32.436  23.138  26.568  1.00  0.00     0.316 C 
BRANCH  12  22
ATOM     22  C   UNL A   1      31.813  29.239  25.523  1.00  0.00    -0.012 C 
ATOM     23  C   UNL A   1      31.977  29.484  27.032  1.00  0.00     0.016 C 
ATOM     24  C   UNL A   1      30.770  30.228  24.944  1.00  0.00     0.016 C 
ATOM     25  C   UNL A   1      33.149  29.640  24.831  1.00  0.00     0.016 C 
ENDBRANCH  12  22
BRANCH  21  26
ATOM     26  C   UNL A   1      33.886  22.678  26.777  1.00  0.00     0.430 C 
ATOM     27  F   UNL A   1      33.936  21.373  27.138  1.00  0.00    -0.167 F 
ATOM     28  F   UNL A   1      34.631  22.808  25.658  1.00  0.00    -0.167 F 
ATOM     29  F   UNL A   1      34.493  23.393  27.754  1.00  0.00    -0.167 F 
ENDBRANCH  21  26
ENDBRANCH   9  11
ENDBRANCH   8   9
ENDBRANCH   7   8
ENDBRANCH   6   7
ENDBRANCH   5   6
ENDBRANCH   4   5
ENDBRANCH   3   4
ENDBRANCH   2   3
ENDBRANCH   1   2
BRANCH   1  30
ATOM     30  C   UNL A   1      35.710  19.895  24.851  1.00  0.00     0.188 C 
BRANCH  30  31
ATOM     31  O   UNL A   1      36.695  20.609  25.597  1.00  0.00    -0.376 OA
BRANCH  31  32
ATOM     32  C   UNL A   1      37.818  21.089  24.871  1.00  0.00     0.202 C 
BRANCH  32  33
ATOM     33  C   UNL A   1      38.800  21.907  25.718  1.00  0.00     0.261 C 
BRANCH  33  34
ATOM     34  O   UNL A   1      39.451  21.179  26.770  1.00  0.00    -0.460 OA
BRANCH  34  35
ATOM     35  C   UNL A   1      40.756  20.866  26.604  1.00  0.00     0.338 C 
ATOM     36  O   UNL A   1      41.212  19.846  26.119  1.00  0.00    -0.246 OA
BRANCH  35  37
ATOM     37  C   UNL A   1      41.542  22.078  26.920  1.00  0.00     0.060 A 
ATOM     38  C   UNL A   1      41.987  22.919  25.897  1.00  0.00     0.016 A 
ATOM     39  C   UNL A   1      41.867  22.351  28.256  1.00  0.00     0.016 A 
ATOM     40  C   UNL A   1      42.729  24.057  26.214  1.00  0.00     0.010 A 
ATOM     41  C   UNL A   1      42.616  23.487  28.571  1.00  0.00     0.010 A 
ATOM     42  C   UNL A   1      43.027  24.363  27.554  1.00  0.00    -0.014 A 
BRANCH  42  43
ATOM     43  C   UNL A   1      43.571  25.700  27.893  1.00  0.00     0.031 A 
ATOM     44  C   UNL A   1      45.020  26.042  27.735  1.00  0.00     0.074 A 
ATOM     45  C   UNL A   1      42.701  26.620  28.353  1.00  0.00     0.049 A 
ATOM     46  N   UNL A   1      45.601  27.203  27.901  1.00  0.00    -0.248 NA
ATOM     47  C   UNL A   1      45.934  24.958  27.348  1.00  0.00     0.031 C 
ATOM     48  C   UNL A   1      41.270  26.382  28.561  1.00  0.00     0.029 A 
ATOM     49  N   UNL A   1      42.878  27.931  28.712  1.00  0.00    -0.354 N 
ATOM     50  C   UNL A   1      46.945  27.001  27.614  1.00  0.00     0.074 A 
ATOM     51  C   UNL A   1      47.101  25.594  27.309  1.00  0.00     0.031 C 
ATOM     52  C   UNL A   1      40.695  27.517  28.982  1.00  0.00     0.029 A 
ATOM     53  C   UNL A   1      41.716  28.554  29.103  1.00  0.00     0.049 A 
ATOM     54  H   UNL A   1      43.752  28.383  28.692  1.00  0.00     0.167 HD
ATOM     55  C   UNL A   1      47.945  27.915  27.594  1.00  0.00     0.031 A 
ATOM     56  C   UNL A   1      41.486  29.819  29.504  1.00  0.00     0.031 A 
ATOM     57  C   UNL A   1      47.773  29.312  27.922  1.00  0.00     0.049 A 
ATOM     58  C   UNL A   1      42.621  30.801  29.514  1.00  0.00     0.074 A 
ATOM     59  C   UNL A   1      48.721  30.320  27.880  1.00  0.00     0.029 A 
ATOM     60  N   UNL A   1      46.592  29.895  28.357  1.00  0.00    -0.354 N 
ATOM     61  N   UNL A   1      43.869  30.613  29.158  1.00  0.00    -0.248 NA
ATOM     62  C   UNL A   1      42.319  32.168  29.959  1.00  0.00     0.031 C 
ATOM     63  C   UNL A   1      48.137  31.493  28.363  1.00  0.00     0.029 A 
ATOM     64  C   UNL A   1      46.800  31.240  28.627  1.00  0.00     0.049 A 
ATOM     65  H   UNL A   1      45.733  29.426  28.460  1.00  0.00     0.167 HD
ATOM     66  C   UNL A   1      44.499  31.840  29.320  1.00  0.00     0.074 A 
ATOM     67  C   UNL A   1      43.490  32.770  29.787  1.00  0.00     0.031 C 
ATOM     68  C   UNL A   1      45.798  32.161  29.103  1.00  0.00     0.031 A 
BRANCH  55  69
ATOM     69  C   UNL A   1      49.326  27.472  27.183  1.00  0.00    -0.014 A 
ATOM     70  C   UNL A   1      49.607  27.212  25.828  1.00  0.00     0.010 A 
ATOM     71  C   UNL A   1      50.289  27.145  28.153  1.00  0.00     0.010 A 
ATOM     72  C   UNL A   1      50.803  26.592  25.455  1.00  0.00     0.020 A 
ATOM     73  C   UNL A   1      51.499  26.549  27.782  1.00  0.00     0.020 A 
ATOM     74  C   UNL A   1      51.736  26.251  26.438  1.00  0.00     0.054 A 
BRANCH  74  75
ATOM     75  S   UNL A   1      53.255  25.392  25.942  1.00  0.00     0.124 S 
ATOM     76  O   UNL A   1      53.773  26.261  24.889  1.00  0.00    -0.237 OA
ATOM     77  O   UNL A   1      54.028  25.371  27.182  1.00  0.00    -0.237 OA
ATOM     78  O   UNL A   1      52.778  24.085  25.494  1.00  0.00    -0.744 OA
ENDBRANCH  74  75
ENDBRANCH  55  69
BRANCH  56  79
ATOM     79  C   UNL A   1      40.101  30.216  29.876  1.00  0.00    -0.014 A 
ATOM     80  C   UNL A   1      39.231  30.751  28.907  1.00  0.00     0.010 A 
ATOM     81  C   UNL A   1      39.680  30.157  31.215  1.00  0.00     0.010 A 
ATOM     82  C   UNL A   1      37.990  31.271  29.278  1.00  0.00     0.020 A 
ATOM     83  C   UNL A   1      38.424  30.647  31.585  1.00  0.00     0.020 A 
ATOM     84  C   UNL A   1      37.599  31.228  30.619  1.00  0.00     0.054 A 
BRANCH  84  85
ATOM     85  S   UNL A   1      36.007  31.958  31.086  1.00  0.00     0.124 S 
ATOM     86  O   UNL A   1      35.122  31.429  30.051  1.00  0.00    -0.237 OA
ATOM     87  O   UNL A   1      35.794  31.425  32.429  1.00  0.00    -0.237 OA
ATOM     88  O   UNL A   1      36.257  33.395  31.021  1.00  0.00    -0.744 OA
ENDBRANCH  84  85
ENDBRANCH  56  79
BRANCH  68  89
ATOM     89  C   UNL A   1      46.235  33.579  29.374  1.00  0.00    -0.014 A 
ATOM     90  C   UNL A   1      46.122  34.553  28.364  1.00  0.00     0.010 A 
ATOM     91  C   UNL A   1      46.879  33.915  30.578  1.00  0.00     0.010 A 
ATOM     92  C   UNL A   1      46.679  35.822  28.535  1.00  0.00     0.020 A 
ATOM     93  C   UNL A   1      47.410  35.194  30.767  1.00  0.00     0.020 A 
ATOM     94  C   UNL A   1      47.331  36.131  29.732  1.00  0.00     0.054 A 
BRANCH  94  95
ATOM     95  S   UNL A   1      48.087  37.770  29.921  1.00  0.00     0.124 S 
ATOM     96  O   UNL A   1      48.486  38.084  28.553  1.00  0.00    -0.237 OA
ATOM     97  O   UNL A   1      46.988  38.570  30.456  1.00  0.00    -0.237 OA
ATOM     98  O   UNL A   1      49.186  37.535  30.854  1.00  0.00    -0.744 OA
ENDBRANCH  94  95
ENDBRANCH  68  89
ENDBRANCH  42  43
ENDBRANCH  35  37
ENDBRANCH  34  35
ENDBRANCH  33  34
ENDBRANCH  32  33
ENDBRANCH  31  32
ENDBRANCH  30  31
ENDBRANCH   1  30
TORSDOF 25
ENDMDL
