MODEL 1
REMARK VINA RESULT:      -7.3      0.000      0.000
REMARK SMILES CC(C)[NH2+][C@@]1(C(=O)OCCOCCOCCOCCOC(=O)c2ccc(-c3c4nc(c(-c5ccc(S(=O)(=O)[O-])cc5)c5ccc([nH]5)c(-c5ccc(S(=O)(=O)[O-])cc5)c5nc(c(-c6ccc(S(=O)(=O)[O-])cc6)c6ccc3[nH]6)C=C5)C=C4)cc2)CCC[C@@H](Sc2nncn2C)C1
REMARK SMILES IDX 15 1 14 2 13 3 12 4 11 5 10 6 9 7 8 8 6 9 7 10 5 11 83 12
REMARK SMILES IDX 94 13 84 14 86 15 85 16 4 17 2 20 1 21 3 22 87 23 88 24
REMARK SMILES IDX 89 25 92 26 90 27 91 28 93 29 16 30 17 31 18 32 19 33 20 34
REMARK SMILES IDX 21 35 22 36 23 37 24 38 82 39 25 40 81 41 26 42 27 43 28 44
REMARK SMILES IDX 75 45 29 46 80 47 74 48 76 49 30 50 79 51 73 52 72 53 31 55
REMARK SMILES IDX 61 56 42 57 60 58 43 59 46 60 59 61 77 62 44 63 45 64 58 66
REMARK SMILES IDX 78 67 47 68 32 69 33 70 41 71 34 72 40 73 35 74 36 75 37 76
REMARK SMILES IDX 38 77 39 78 62 79 63 80 71 81 64 82 70 83 65 84 66 85 67 86
REMARK SMILES IDX 68 87 69 88 48 89 49 90 57 91 50 92 56 93 51 94 52 95 53 96
REMARK SMILES IDX 54 97 55 98
REMARK H PARENT 4 18 4 19 76 54 46 65
REMARK Flexibility Score: inf
ROOT
ATOM      1  C   UNL A   1      34.540  33.928  30.837  1.00  0.00     0.188 C 
ENDROOT
BRANCH   1   2
ATOM      2  O   UNL A   1      34.743  35.047  31.693  1.00  0.00    -0.377 OA
BRANCH   2   3
ATOM      3  C   UNL A   1      34.155  35.034  32.977  1.00  0.00     0.188 C 
BRANCH   3   4
ATOM      4  C   UNL A   1      34.908  34.249  34.055  1.00  0.00     0.188 C 
BRANCH   4   5
ATOM      5  O   UNL A   1      36.230  34.605  34.406  1.00  0.00    -0.376 OA
BRANCH   5   6
ATOM      6  C   UNL A   1      37.053  33.725  35.161  1.00  0.00     0.202 C 
BRANCH   6   7
ATOM      7  C   UNL A   1      38.493  34.058  35.592  1.00  0.00     0.261 C 
BRANCH   7   8
ATOM      8  O   UNL A   1      39.073  33.252  36.633  1.00  0.00    -0.459 OA
BRANCH   8   9
ATOM      9  C   UNL A   1      39.626  32.082  36.228  1.00  0.00     0.368 C 
ATOM     10  O   UNL A   1      38.963  31.061  36.041  1.00  0.00    -0.245 OA
BRANCH   9  11
ATOM     11  C   UNL A   1      41.193  32.111  36.058  1.00  0.00     0.195 C 
ATOM     12  C   UNL A   1      41.397  32.269  34.532  1.00  0.00     0.081 C 
ATOM     13  C   UNL A   1      42.035  30.903  36.535  1.00  0.00     0.096 C 
ATOM     14  C   UNL A   1      41.113  30.954  33.783  1.00  0.00     0.008 C 
ATOM     15  C   UNL A   1      41.861  29.593  35.775  1.00  0.00     0.061 C 
ATOM     16  C   UNL A   1      42.004  29.810  34.269  1.00  0.00     0.015 C 
BRANCH  11  17
ATOM     17  N   UNL A   1      41.600  33.277  36.895  1.00  0.00    -0.330 N 
ATOM     18  H   UNL A   1      40.736  33.753  37.153  1.00  0.00     0.347 HD
ATOM     19  H   UNL A   1      42.167  32.825  37.612  1.00  0.00     0.347 HD
BRANCH  17  20
ATOM     20  C   UNL A   1      42.504  34.316  36.424  1.00  0.00     0.176 C 
ATOM     21  C   UNL A   1      41.764  35.647  36.638  1.00  0.00     0.075 C 
ATOM     22  C   UNL A   1      43.838  34.388  37.165  1.00  0.00     0.075 C 
ENDBRANCH  17  20
ENDBRANCH  11  17
BRANCH  15  23
ATOM     23  S   UNL A   1      43.020  28.281  36.374  1.00  0.00    -0.082 SA
BRANCH  23  24
ATOM     24  C   UNL A   1      42.010  26.888  36.562  1.00  0.00     0.191 A 
ATOM     25  N   UNL A   1      40.973  26.764  37.361  1.00  0.00    -0.124 NA
ATOM     26  N   UNL A   1      42.159  25.739  35.841  1.00  0.00    -0.312 N 
ATOM     27  N   UNL A   1      40.489  25.480  37.230  1.00  0.00    -0.138 NA
ATOM     28  C   UNL A   1      41.213  24.879  36.315  1.00  0.00     0.226 A 
ATOM     29  C   UNL A   1      43.095  25.466  34.786  1.00  0.00     0.153 C 
ENDBRANCH  23  24
ENDBRANCH  15  23
ENDBRANCH   9  11
ENDBRANCH   8   9
ENDBRANCH   7   8
ENDBRANCH   6   7
ENDBRANCH   5   6
ENDBRANCH   4   5
ENDBRANCH   3   4
ENDBRANCH   2   3
ENDBRANCH   1   2
BRANCH   1  30
ATOM     30  C   UNL A   1      35.756  33.144  30.311  1.00  0.00     0.188 C 
BRANCH  30  31
ATOM     31  O   UNL A   1      35.958  33.231  28.907  1.00  0.00    -0.376 OA
BRANCH  31  32
ATOM     32  C   UNL A   1      34.833  33.112  28.047  1.00  0.00     0.202 C 
BRANCH  32  33
ATOM     33  C   UNL A   1      34.079  31.770  28.033  1.00  0.00     0.261 C 
BRANCH  33  34
ATOM     34  O   UNL A   1      34.575  30.774  27.122  1.00  0.00    -0.460 OA
BRANCH  34  35
ATOM     35  C   UNL A   1      34.888  29.561  27.625  1.00  0.00     0.338 C 
ATOM     36  O   UNL A   1      34.232  28.542  27.546  1.00  0.00    -0.246 OA
BRANCH  35  37
ATOM     37  C   UNL A   1      36.276  29.617  28.128  1.00  0.00     0.060 A 
ATOM     38  C   UNL A   1      37.296  29.938  27.225  1.00  0.00     0.016 A 
ATOM     39  C   UNL A   1      36.575  29.313  29.458  1.00  0.00     0.016 A 
ATOM     40  C   UNL A   1      38.626  29.895  27.636  1.00  0.00     0.010 A 
ATOM     41  C   UNL A   1      37.913  29.255  29.865  1.00  0.00     0.010 A 
ATOM     42  C   UNL A   1      38.946  29.502  28.943  1.00  0.00    -0.014 A 
BRANCH  42  43
ATOM     43  C   UNL A   1      40.359  29.181  29.264  1.00  0.00     0.031 A 
ATOM     44  C   UNL A   1      40.883  27.810  28.924  1.00  0.00     0.074 A 
ATOM     45  C   UNL A   1      41.185  30.120  29.761  1.00  0.00     0.049 A 
ATOM     46  N   UNL A   1      42.092  27.330  29.055  1.00  0.00    -0.248 NA
ATOM     47  C   UNL A   1      39.918  26.854  28.352  1.00  0.00     0.031 C 
ATOM     48  C   UNL A   1      40.808  31.495  30.086  1.00  0.00     0.029 A 
ATOM     49  N   UNL A   1      42.523  30.059  30.062  1.00  0.00    -0.354 N 
ATOM     50  C   UNL A   1      42.038  26.027  28.573  1.00  0.00     0.074 A 
ATOM     51  C   UNL A   1      40.667  25.774  28.186  1.00  0.00     0.031 C 
ATOM     52  C   UNL A   1      41.893  32.150  30.535  1.00  0.00     0.029 A 
ATOM     53  C   UNL A   1      43.033  31.236  30.555  1.00  0.00     0.049 A 
ATOM     54  H   UNL A   1      43.067  29.247  29.937  1.00  0.00     0.167 HD
ATOM     55  C   UNL A   1      43.040  25.126  28.444  1.00  0.00     0.031 A 
ATOM     56  C   UNL A   1      44.276  31.537  30.983  1.00  0.00     0.031 A 
ATOM     57  C   UNL A   1      44.402  25.371  28.842  1.00  0.00     0.049 A 
ATOM     58  C   UNL A   1      45.354  30.484  30.908  1.00  0.00     0.074 A 
ATOM     59  C   UNL A   1      45.489  24.517  28.762  1.00  0.00     0.029 A 
ATOM     60  N   UNL A   1      44.866  26.556  29.391  1.00  0.00    -0.354 N 
ATOM     61  N   UNL A   1      45.285  29.262  30.435  1.00  0.00    -0.248 NA
ATOM     62  C   UNL A   1      46.681  30.860  31.415  1.00  0.00     0.031 C 
ATOM     63  C   UNL A   1      46.598  25.166  29.316  1.00  0.00     0.029 A 
ATOM     64  C   UNL A   1      46.217  26.448  29.678  1.00  0.00     0.049 A 
ATOM     65  H   UNL A   1      44.316  27.356  29.555  1.00  0.00     0.167 HD
ATOM     66  C   UNL A   1      46.569  28.736  30.559  1.00  0.00     0.074 A 
ATOM     67  C   UNL A   1      47.396  29.784  31.121  1.00  0.00     0.031 C 
ATOM     68  C   UNL A   1      47.025  27.498  30.243  1.00  0.00     0.031 A 
BRANCH  55  69
ATOM     69  C   UNL A   1      42.705  23.779  27.860  1.00  0.00    -0.014 A 
ATOM     70  C   UNL A   1      43.049  23.457  26.535  1.00  0.00     0.010 A 
ATOM     71  C   UNL A   1      42.106  22.795  28.669  1.00  0.00     0.010 A 
ATOM     72  C   UNL A   1      42.789  22.182  26.025  1.00  0.00     0.020 A 
ATOM     73  C   UNL A   1      41.869  21.510  28.171  1.00  0.00     0.020 A 
ATOM     74  C   UNL A   1      42.207  21.214  26.849  1.00  0.00     0.054 A 
BRANCH  74  75
ATOM     75  S   UNL A   1      41.943  19.548  26.181  1.00  0.00     0.124 S 
ATOM     76  O   UNL A   1      40.494  19.524  25.994  1.00  0.00    -0.237 OA
ATOM     77  O   UNL A   1      42.735  19.570  24.953  1.00  0.00    -0.237 OA
ATOM     78  O   UNL A   1      42.449  18.668  27.230  1.00  0.00    -0.744 OA
ENDBRANCH  74  75
ENDBRANCH  55  69
BRANCH  56  79
ATOM     79  C   UNL A   1      44.576  32.881  31.557  1.00  0.00    -0.014 A 
ATOM     80  C   UNL A   1      45.006  33.942  30.738  1.00  0.00     0.010 A 
ATOM     81  C   UNL A   1      44.489  33.086  32.946  1.00  0.00     0.010 A 
ATOM     82  C   UNL A   1      45.389  35.163  31.302  1.00  0.00     0.020 A 
ATOM     83  C   UNL A   1      44.836  34.317  33.510  1.00  0.00     0.020 A 
ATOM     84  C   UNL A   1      45.306  35.340  32.686  1.00  0.00     0.054 A 
BRANCH  84  85
ATOM     85  S   UNL A   1      45.805  36.931  33.401  1.00  0.00     0.124 S 
ATOM     86  O   UNL A   1      46.768  36.517  34.417  1.00  0.00    -0.237 OA
ATOM     87  O   UNL A   1      46.361  37.634  32.248  1.00  0.00    -0.237 OA
ATOM     88  O   UNL A   1      44.552  37.482  33.912  1.00  0.00    -0.744 OA
ENDBRANCH  84  85
ENDBRANCH  56  79
BRANCH  68  89
ATOM     89  C   UNL A   1      48.492  27.227  30.464  1.00  0.00    -0.014 A 
ATOM     90  C   UNL A   1      48.944  26.524  31.596  1.00  0.00     0.010 A 
ATOM     91  C   UNL A   1      49.432  27.681  29.522  1.00  0.00     0.010 A 
ATOM     92  C   UNL A   1      50.312  26.339  31.815  1.00  0.00     0.020 A 
ATOM     93  C   UNL A   1      50.799  27.466  29.719  1.00  0.00     0.020 A 
ATOM     94  C   UNL A   1      51.231  26.821  30.878  1.00  0.00     0.054 A 
BRANCH  94  95
ATOM     95  S   UNL A   1      53.001  26.578  31.190  1.00  0.00     0.124 S 
ATOM     96  O   UNL A   1      53.459  26.025  29.919  1.00  0.00    -0.237 OA
ATOM     97  O   UNL A   1      53.463  27.931  31.492  1.00  0.00    -0.237 OA
ATOM     98  O   UNL A   1      53.030  25.650  32.319  1.00  0.00    -0.744 OA
ENDBRANCH  94  95
ENDBRANCH  68  89
ENDBRANCH  42  43
ENDBRANCH  35  37
ENDBRANCH  34  35
ENDBRANCH  33  34
ENDBRANCH  32  33
ENDBRANCH  31  32
ENDBRANCH  30  31
ENDBRANCH   1  30
TORSDOF 27
ENDMDL
MODEL 2
REMARK VINA RESULT:      -7.2      4.177     11.253
REMARK SMILES CC(C)[NH2+][C@@]1(C(=O)OCCOCCOCCOCCOC(=O)c2ccc(-c3c4nc(c(-c5ccc(S(=O)(=O)[O-])cc5)c5ccc([nH]5)c(-c5ccc(S(=O)(=O)[O-])cc5)c5nc(c(-c6ccc(S(=O)(=O)[O-])cc6)c6ccc3[nH]6)C=C5)C=C4)cc2)CCC[C@@H](Sc2nncn2C)C1
REMARK SMILES IDX 15 1 14 2 13 3 12 4 11 5 10 6 9 7 8 8 6 9 7 10 5 11 83 12
REMARK SMILES IDX 94 13 84 14 86 15 85 16 4 17 2 20 1 21 3 22 87 23 88 24
REMARK SMILES IDX 89 25 92 26 90 27 91 28 93 29 16 30 17 31 18 32 19 33 20 34
REMARK SMILES IDX 21 35 22 36 23 37 24 38 82 39 25 40 81 41 26 42 27 43 28 44
REMARK SMILES IDX 75 45 29 46 80 47 74 48 76 49 30 50 79 51 73 52 72 53 31 55
REMARK SMILES IDX 61 56 42 57 60 58 43 59 46 60 59 61 77 62 44 63 45 64 58 66
REMARK SMILES IDX 78 67 47 68 32 69 33 70 41 71 34 72 40 73 35 74 36 75 37 76
REMARK SMILES IDX 38 77 39 78 62 79 63 80 71 81 64 82 70 83 65 84 66 85 67 86
REMARK SMILES IDX 68 87 69 88 48 89 49 90 57 91 50 92 56 93 51 94 52 95 53 96
REMARK SMILES IDX 54 97 55 98
REMARK H PARENT 4 18 4 19 76 54 46 65
REMARK Flexibility Score: inf
ROOT
ATOM      1  C   UNL A   1      36.782  30.249  29.146  1.00  0.00     0.188 C 
ENDROOT
BRANCH   1   2
ATOM      2  O   UNL A   1      35.748  29.434  28.604  1.00  0.00    -0.377 OA
BRANCH   2   3
ATOM      3  C   UNL A   1      35.313  29.681  27.283  1.00  0.00     0.188 C 
BRANCH   3   4
ATOM      4  C   UNL A   1      33.920  30.299  27.136  1.00  0.00     0.188 C 
BRANCH   4   5
ATOM      5  O   UNL A   1      32.949  29.685  26.311  1.00  0.00    -0.376 OA
BRANCH   5   6
ATOM      6  C   UNL A   1      32.737  28.280  26.347  1.00  0.00     0.202 C 
BRANCH   6   7
ATOM      7  C   UNL A   1      31.406  27.625  26.759  1.00  0.00     0.261 C 
BRANCH   7   8
ATOM      8  O   UNL A   1      30.659  26.947  25.732  1.00  0.00    -0.459 OA
BRANCH   8   9
ATOM      9  C   UNL A   1      30.637  25.595  25.821  1.00  0.00     0.368 C 
ATOM     10  O   UNL A   1      29.967  24.994  26.662  1.00  0.00    -0.245 OA
BRANCH   9  11
ATOM     11  C   UNL A   1      31.571  24.844  24.797  1.00  0.00     0.195 C 
ATOM     12  C   UNL A   1      30.740  23.610  24.373  1.00  0.00     0.081 C 
ATOM     13  C   UNL A   1      32.965  24.353  25.253  1.00  0.00     0.096 C 
ATOM     14  C   UNL A   1      30.711  22.539  25.478  1.00  0.00     0.008 C 
ATOM     15  C   UNL A   1      33.003  23.231  26.285  1.00  0.00     0.061 C 
ATOM     16  C   UNL A   1      32.115  22.063  25.856  1.00  0.00     0.015 C 
BRANCH  11  17
ATOM     17  N   UNL A   1      31.801  25.870  23.738  1.00  0.00    -0.330 N 
ATOM     18  H   UNL A   1      31.073  25.722  23.039  1.00  0.00     0.347 HD
ATOM     19  H   UNL A   1      31.812  26.730  24.287  1.00  0.00     0.347 HD
BRANCH  17  20
ATOM     20  C   UNL A   1      33.049  25.982  22.998  1.00  0.00     0.176 C 
ATOM     21  C   UNL A   1      32.788  25.331  21.630  1.00  0.00     0.075 C 
ATOM     22  C   UNL A   1      33.525  27.415  22.760  1.00  0.00     0.075 C 
ENDBRANCH  17  20
ENDBRANCH  11  17
BRANCH  15  23
ATOM     23  S   UNL A   1      34.728  22.664  26.637  1.00  0.00    -0.082 SA
BRANCH  23  24
ATOM     24  C   UNL A   1      35.540  22.834  25.119  1.00  0.00     0.191 A 
ATOM     25  N   UNL A   1      35.083  22.496  23.933  1.00  0.00    -0.124 NA
ATOM     26  N   UNL A   1      36.773  23.401  24.977  1.00  0.00    -0.312 N 
ATOM     27  N   UNL A   1      36.068  22.760  23.007  1.00  0.00    -0.138 NA
ATOM     28  C   UNL A   1      37.076  23.303  23.651  1.00  0.00     0.226 A 
ATOM     29  C   UNL A   1      37.598  24.002  25.988  1.00  0.00     0.153 C 
ENDBRANCH  23  24
ENDBRANCH  15  23
ENDBRANCH   9  11
ENDBRANCH   8   9
ENDBRANCH   7   8
ENDBRANCH   6   7
ENDBRANCH   5   6
ENDBRANCH   4   5
ENDBRANCH   3   4
ENDBRANCH   2   3
ENDBRANCH   1   2
BRANCH   1  30
ATOM     30  C   UNL A   1      36.838  31.745  28.786  1.00  0.00     0.188 C 
BRANCH  30  31
ATOM     31  O   UNL A   1      35.806  32.534  29.360  1.00  0.00    -0.376 OA
BRANCH  31  32
ATOM     32  C   UNL A   1      36.162  33.573  30.261  1.00  0.00     0.202 C 
BRANCH  32  33
ATOM     33  C   UNL A   1      36.206  33.236  31.762  1.00  0.00     0.261 C 
BRANCH  33  34
ATOM     34  O   UNL A   1      37.491  32.869  32.293  1.00  0.00    -0.460 OA
BRANCH  34  35
ATOM     35  C   UNL A   1      37.734  31.559  32.505  1.00  0.00     0.338 C 
ATOM     36  O   UNL A   1      36.935  30.710  32.846  1.00  0.00    -0.246 OA
BRANCH  35  37
ATOM     37  C   UNL A   1      39.111  31.268  32.056  1.00  0.00     0.060 A 
ATOM     38  C   UNL A   1      39.542  31.815  30.842  1.00  0.00     0.016 A 
ATOM     39  C   UNL A   1      39.951  30.432  32.796  1.00  0.00     0.016 A 
ATOM     40  C   UNL A   1      40.794  31.477  30.334  1.00  0.00     0.010 A 
ATOM     41  C   UNL A   1      41.202  30.082  32.276  1.00  0.00     0.010 A 
ATOM     42  C   UNL A   1      41.610  30.568  31.021  1.00  0.00    -0.014 A 
BRANCH  42  43
ATOM     43  C   UNL A   1      42.792  30.004  30.323  1.00  0.00     0.031 A 
ATOM     44  C   UNL A   1      44.069  30.804  30.304  1.00  0.00     0.074 A 
ATOM     45  C   UNL A   1      42.758  28.764  29.799  1.00  0.00     0.049 A 
ATOM     46  N   UNL A   1      45.237  30.485  29.810  1.00  0.00    -0.248 NA
ATOM     47  C   UNL A   1      44.026  32.136  30.930  1.00  0.00     0.031 C 
ATOM     48  C   UNL A   1      41.597  27.875  29.798  1.00  0.00     0.029 A 
ATOM     49  N   UNL A   1      43.741  28.033  29.180  1.00  0.00    -0.354 N 
ATOM     50  C   UNL A   1      46.070  31.566  30.077  1.00  0.00     0.074 A 
ATOM     51  C   UNL A   1      45.263  32.570  30.736  1.00  0.00     0.031 C 
ATOM     52  C   UNL A   1      41.938  26.714  29.213  1.00  0.00     0.029 A 
ATOM     53  C   UNL A   1      43.330  26.786  28.773  1.00  0.00     0.049 A 
ATOM     54  H   UNL A   1      44.656  28.370  29.039  1.00  0.00     0.167 HD
ATOM     55  C   UNL A   1      47.390  31.708  29.815  1.00  0.00     0.031 A 
ATOM     56  C   UNL A   1      43.998  25.819  28.113  1.00  0.00     0.031 A 
ATOM     57  C   UNL A   1      48.191  30.715  29.146  1.00  0.00     0.049 A 
ATOM     58  C   UNL A   1      45.447  26.040  27.757  1.00  0.00     0.074 A 
ATOM     59  C   UNL A   1      49.537  30.769  28.825  1.00  0.00     0.029 A 
ATOM     60  N   UNL A   1      47.723  29.490  28.698  1.00  0.00    -0.354 N 
ATOM     61  N   UNL A   1      46.220  27.064  28.031  1.00  0.00    -0.248 NA
ATOM     62  C   UNL A   1      46.116  24.962  27.013  1.00  0.00     0.031 C 
ATOM     63  C   UNL A   1      49.869  29.600  28.132  1.00  0.00     0.029 A 
ATOM     64  C   UNL A   1      48.747  28.789  28.082  1.00  0.00     0.049 A 
ATOM     65  H   UNL A   1      46.799  29.166  28.801  1.00  0.00     0.167 HD
ATOM     66  C   UNL A   1      47.475  26.740  27.520  1.00  0.00     0.074 A 
ATOM     67  C   UNL A   1      47.361  25.412  26.950  1.00  0.00     0.031 C 
ATOM     68  C   UNL A   1      48.617  27.471  27.515  1.00  0.00     0.031 A 
BRANCH  55  69
ATOM     69  C   UNL A   1      48.059  32.989  30.239  1.00  0.00    -0.014 A 
ATOM     70  C   UNL A   1      48.111  34.099  29.378  1.00  0.00     0.010 A 
ATOM     71  C   UNL A   1      48.576  33.110  31.542  1.00  0.00     0.010 A 
ATOM     72  C   UNL A   1      48.678  35.303  29.806  1.00  0.00     0.020 A 
ATOM     73  C   UNL A   1      49.120  34.319  31.984  1.00  0.00     0.020 A 
ATOM     74  C   UNL A   1      49.173  35.407  31.110  1.00  0.00     0.054 A 
BRANCH  74  75
ATOM     75  S   UNL A   1      49.842  37.001  31.660  1.00  0.00     0.124 S 
ATOM     76  O   UNL A   1      49.698  36.904  33.110  1.00  0.00    -0.237 OA
ATOM     77  O   UNL A   1      51.214  36.959  31.161  1.00  0.00    -0.237 OA
ATOM     78  O   UNL A   1      48.976  37.983  31.013  1.00  0.00    -0.744 OA
ENDBRANCH  74  75
ENDBRANCH  55  69
BRANCH  56  79
ATOM     79  C   UNL A   1      43.306  24.561  27.707  1.00  0.00    -0.014 A 
ATOM     80  C   UNL A   1      42.570  24.490  26.510  1.00  0.00     0.010 A 
ATOM     81  C   UNL A   1      43.334  23.440  28.557  1.00  0.00     0.010 A 
ATOM     82  C   UNL A   1      41.836  23.341  26.196  1.00  0.00     0.020 A 
ATOM     83  C   UNL A   1      42.631  22.278  28.229  1.00  0.00     0.020 A 
ATOM     84  C   UNL A   1      41.868  22.244  27.062  1.00  0.00     0.054 A 
BRANCH  84  85
ATOM     85  S   UNL A   1      40.912  20.761  26.639  1.00  0.00     0.124 S 
ATOM     86  O   UNL A   1      39.700  21.337  26.064  1.00  0.00    -0.237 OA
ATOM     87  O   UNL A   1      41.795  20.074  25.700  1.00  0.00    -0.237 OA
ATOM     88  O   UNL A   1      40.739  20.090  27.925  1.00  0.00    -0.744 OA
ENDBRANCH  84  85
ENDBRANCH  56  79
BRANCH  68  89
ATOM     89  C   UNL A   1      49.840  26.833  26.907  1.00  0.00    -0.014 A 
ATOM     90  C   UNL A   1      50.726  26.062  27.682  1.00  0.00     0.010 A 
ATOM     91  C   UNL A   1      50.105  27.004  25.536  1.00  0.00     0.010 A 
ATOM     92  C   UNL A   1      51.887  25.532  27.113  1.00  0.00     0.020 A 
ATOM     93  C   UNL A   1      51.246  26.445  24.955  1.00  0.00     0.020 A 
ATOM     94  C   UNL A   1      52.144  25.735  25.754  1.00  0.00     0.054 A 
BRANCH  94  95
ATOM     95  S   UNL A   1      53.663  25.047  25.041  1.00  0.00     0.124 S 
ATOM     96  O   UNL A   1      54.693  25.653  25.880  1.00  0.00    -0.237 OA
ATOM     97  O   UNL A   1      53.476  23.608  25.214  1.00  0.00    -0.237 OA
ATOM     98  O   UNL A   1      53.636  25.510  23.655  1.00  0.00    -0.744 OA
ENDBRANCH  94  95
ENDBRANCH  68  89
ENDBRANCH  42  43
ENDBRANCH  35  37
ENDBRANCH  34  35
ENDBRANCH  33  34
ENDBRANCH  32  33
ENDBRANCH  31  32
ENDBRANCH  30  31
ENDBRANCH   1  30
TORSDOF 27
ENDMDL
MODEL 3
REMARK VINA RESULT:      -7.0      5.296     11.750
REMARK SMILES CC(C)[NH2+][C@@]1(C(=O)OCCOCCOCCOCCOC(=O)c2ccc(-c3c4nc(c(-c5ccc(S(=O)(=O)[O-])cc5)c5ccc([nH]5)c(-c5ccc(S(=O)(=O)[O-])cc5)c5nc(c(-c6ccc(S(=O)(=O)[O-])cc6)c6ccc3[nH]6)C=C5)C=C4)cc2)CCC[C@@H](Sc2nncn2C)C1
REMARK SMILES IDX 15 1 14 2 13 3 12 4 11 5 10 6 9 7 8 8 6 9 7 10 5 11 83 12
REMARK SMILES IDX 94 13 84 14 86 15 85 16 4 17 2 20 1 21 3 22 87 23 88 24
REMARK SMILES IDX 89 25 92 26 90 27 91 28 93 29 16 30 17 31 18 32 19 33 20 34
REMARK SMILES IDX 21 35 22 36 23 37 24 38 82 39 25 40 81 41 26 42 27 43 28 44
REMARK SMILES IDX 75 45 29 46 80 47 74 48 76 49 30 50 79 51 73 52 72 53 31 55
REMARK SMILES IDX 61 56 42 57 60 58 43 59 46 60 59 61 77 62 44 63 45 64 58 66
REMARK SMILES IDX 78 67 47 68 32 69 33 70 41 71 34 72 40 73 35 74 36 75 37 76
REMARK SMILES IDX 38 77 39 78 62 79 63 80 71 81 64 82 70 83 65 84 66 85 67 86
REMARK SMILES IDX 68 87 69 88 48 89 49 90 57 91 50 92 56 93 51 94 52 95 53 96
REMARK SMILES IDX 54 97 55 98
REMARK H PARENT 4 18 4 19 76 54 46 65
REMARK Flexibility Score: inf
ROOT
ATOM      1  C   UNL A   1      38.562  23.270  25.579  1.00  0.00     0.188 C 
ENDROOT
BRANCH   1   2
ATOM      2  O   UNL A   1      37.278  23.846  25.363  1.00  0.00    -0.377 OA
BRANCH   2   3
ATOM      3  C   UNL A   1      36.238  23.542  26.269  1.00  0.00     0.188 C 
BRANCH   3   4
ATOM      4  C   UNL A   1      35.261  22.448  25.831  1.00  0.00     0.188 C 
BRANCH   4   5
ATOM      5  O   UNL A   1      34.879  21.428  26.732  1.00  0.00    -0.376 OA
BRANCH   5   6
ATOM      6  C   UNL A   1      33.941  21.678  27.771  1.00  0.00     0.202 C 
BRANCH   6   7
ATOM      7  C   UNL A   1      32.656  22.505  27.584  1.00  0.00     0.261 C 
BRANCH   7   8
ATOM      8  O   UNL A   1      32.193  22.707  26.236  1.00  0.00    -0.459 OA
BRANCH   8   9
ATOM      9  C   UNL A   1      31.392  23.784  26.049  1.00  0.00     0.368 C 
ATOM     10  O   UNL A   1      30.549  24.139  26.873  1.00  0.00    -0.245 OA
BRANCH   9  11
ATOM     11  C   UNL A   1      31.586  24.527  24.672  1.00  0.00     0.195 C 
ATOM     12  C   UNL A   1      32.601  25.649  24.995  1.00  0.00     0.081 C 
ATOM     13  C   UNL A   1      30.365  25.169  23.971  1.00  0.00     0.096 C 
ATOM     14  C   UNL A   1      31.944  26.799  25.781  1.00  0.00     0.008 C 
ATOM     15  C   UNL A   1      29.722  26.369  24.658  1.00  0.00     0.061 C 
ATOM     16  C   UNL A   1      30.772  27.420  25.020  1.00  0.00     0.015 C 
BRANCH  11  17
ATOM     17  N   UNL A   1      32.078  23.443  23.772  1.00  0.00    -0.330 N 
ATOM     18  H   UNL A   1      32.459  22.721  24.384  1.00  0.00     0.347 HD
ATOM     19  H   UNL A   1      31.247  23.250  23.213  1.00  0.00     0.347 HD
BRANCH  17  20
ATOM     20  C   UNL A   1      33.079  23.660  22.739  1.00  0.00     0.176 C 
ATOM     21  C   UNL A   1      34.345  22.931  23.219  1.00  0.00     0.075 C 
ATOM     22  C   UNL A   1      32.707  23.112  21.362  1.00  0.00     0.075 C 
ENDBRANCH  17  20
ENDBRANCH  11  17
BRANCH  15  23
ATOM     23  S   UNL A   1      28.361  27.105  23.646  1.00  0.00    -0.082 SA
BRANCH  23  24
ATOM     24  C   UNL A   1      29.128  28.404  22.798  1.00  0.00     0.191 A 
ATOM     25  N   UNL A   1      30.208  28.334  22.051  1.00  0.00    -0.124 NA
ATOM     26  N   UNL A   1      28.650  29.682  22.774  1.00  0.00    -0.312 N 
ATOM     27  N   UNL A   1      30.497  29.605  21.605  1.00  0.00    -0.138 NA
ATOM     28  C   UNL A   1      29.553  30.402  22.049  1.00  0.00     0.226 A 
ATOM     29  C   UNL A   1      27.444  30.192  23.365  1.00  0.00     0.153 C 
ENDBRANCH  23  24
ENDBRANCH  15  23
ENDBRANCH   9  11
ENDBRANCH   8   9
ENDBRANCH   7   8
ENDBRANCH   6   7
ENDBRANCH   5   6
ENDBRANCH   4   5
ENDBRANCH   3   4
ENDBRANCH   2   3
ENDBRANCH   1   2
BRANCH   1  30
ATOM     30  C   UNL A   1      38.668  21.839  26.138  1.00  0.00     0.188 C 
BRANCH  30  31
ATOM     31  O   UNL A   1      38.171  20.825  25.277  1.00  0.00    -0.376 OA
BRANCH  31  32
ATOM     32  C   UNL A   1      38.668  19.502  25.421  1.00  0.00     0.202 C 
BRANCH  32  33
ATOM     33  C   UNL A   1      40.194  19.305  25.418  1.00  0.00     0.261 C 
BRANCH  33  34
ATOM     34  O   UNL A   1      40.882  19.662  26.631  1.00  0.00    -0.460 OA
BRANCH  34  35
ATOM     35  C   UNL A   1      42.191  19.974  26.543  1.00  0.00     0.338 C 
ATOM     36  O   UNL A   1      43.075  19.304  26.048  1.00  0.00    -0.246 OA
BRANCH  35  37
ATOM     37  C   UNL A   1      42.359  21.377  26.975  1.00  0.00     0.060 A 
ATOM     38  C   UNL A   1      42.236  22.386  26.013  1.00  0.00     0.016 A 
ATOM     39  C   UNL A   1      42.678  21.693  28.298  1.00  0.00     0.016 A 
ATOM     40  C   UNL A   1      42.493  23.711  26.358  1.00  0.00     0.010 A 
ATOM     41  C   UNL A   1      42.951  23.022  28.639  1.00  0.00     0.010 A 
ATOM     42  C   UNL A   1      42.903  24.030  27.660  1.00  0.00    -0.014 A 
BRANCH  42  43
ATOM     43  C   UNL A   1      43.450  25.385  27.921  1.00  0.00     0.031 A 
ATOM     44  C   UNL A   1      44.897  25.654  27.597  1.00  0.00     0.074 A 
ATOM     45  C   UNL A   1      42.653  26.382  28.349  1.00  0.00     0.049 A 
ATOM     46  N   UNL A   1      45.570  26.772  27.683  1.00  0.00    -0.248 NA
ATOM     47  C   UNL A   1      45.689  24.514  27.102  1.00  0.00     0.031 C 
ATOM     48  C   UNL A   1      41.228  26.257  28.651  1.00  0.00     0.029 A 
ATOM     49  N   UNL A   1      42.932  27.705  28.586  1.00  0.00    -0.354 N 
ATOM     50  C   UNL A   1      46.856  26.475  27.244  1.00  0.00     0.074 A 
ATOM     51  C   UNL A   1      46.883  25.063  26.932  1.00  0.00     0.031 C 
ATOM     52  C   UNL A   1      40.755  27.458  29.026  1.00  0.00     0.029 A 
ATOM     53  C   UNL A   1      41.847  28.430  29.018  1.00  0.00     0.049 A 
ATOM     54  H   UNL A   1      43.826  28.098  28.458  1.00  0.00     0.167 HD
ATOM     55  C   UNL A   1      47.915  27.305  27.093  1.00  0.00     0.031 A 
ATOM     56  C   UNL A   1      41.751  29.726  29.376  1.00  0.00     0.031 A 
ATOM     57  C   UNL A   1      47.894  28.708  27.416  1.00  0.00     0.049 A 
ATOM     58  C   UNL A   1      42.971  30.607  29.280  1.00  0.00     0.074 A 
ATOM     59  C   UNL A   1      48.920  29.631  27.309  1.00  0.00     0.029 A 
ATOM     60  N   UNL A   1      46.792  29.391  27.907  1.00  0.00    -0.354 N 
ATOM     61  N   UNL A   1      44.174  30.311  28.847  1.00  0.00    -0.248 NA
ATOM     62  C   UNL A   1      42.812  32.004  29.709  1.00  0.00     0.031 C 
ATOM     63  C   UNL A   1      48.456  30.860  27.789  1.00  0.00     0.029 A 
ATOM     64  C   UNL A   1      47.120  30.719  28.130  1.00  0.00     0.049 A 
ATOM     65  H   UNL A   1      45.908  28.992  28.073  1.00  0.00     0.167 HD
ATOM     66  C   UNL A   1      44.906  31.494  28.924  1.00  0.00     0.074 A 
ATOM     67  C   UNL A   1      44.000  32.513  29.414  1.00  0.00     0.031 C 
ATOM     68  C   UNL A   1      46.209  31.719  28.623  1.00  0.00     0.031 A 
BRANCH  55  69
ATOM     69  C   UNL A   1      49.199  26.719  26.567  1.00  0.00    -0.014 A 
ATOM     70  C   UNL A   1      49.566  26.872  25.218  1.00  0.00     0.010 A 
ATOM     71  C   UNL A   1      50.086  26.072  27.447  1.00  0.00     0.010 A 
ATOM     72  C   UNL A   1      50.790  26.379  24.756  1.00  0.00     0.020 A 
ATOM     73  C   UNL A   1      51.322  25.601  26.996  1.00  0.00     0.020 A 
ATOM     74  C   UNL A   1      51.663  25.752  25.651  1.00  0.00     0.054 A 
BRANCH  74  75
ATOM     75  S   UNL A   1      53.272  25.182  25.037  1.00  0.00     0.124 S 
ATOM     76  O   UNL A   1      53.211  25.564  23.628  1.00  0.00    -0.237 OA
ATOM     77  O   UNL A   1      54.213  25.944  25.854  1.00  0.00    -0.237 OA
ATOM     78  O   UNL A   1      53.252  23.744  25.292  1.00  0.00    -0.744 OA
ENDBRANCH  74  75
ENDBRANCH  55  69
BRANCH  56  79
ATOM     79  C   UNL A   1      40.464  30.276  29.893  1.00  0.00    -0.014 A 
ATOM     80  C   UNL A   1      39.461  30.728  29.016  1.00  0.00     0.010 A 
ATOM     81  C   UNL A   1      40.264  30.405  31.280  1.00  0.00     0.010 A 
ATOM     82  C   UNL A   1      38.307  31.343  29.515  1.00  0.00     0.020 A 
ATOM     83  C   UNL A   1      39.096  30.985  31.783  1.00  0.00     0.020 A 
ATOM     84  C   UNL A   1      38.135  31.471  30.895  1.00  0.00     0.054 A 
BRANCH  84  85
ATOM     85  S   UNL A   1      36.632  32.268  31.525  1.00  0.00     0.124 S 
ATOM     86  O   UNL A   1      36.024  32.776  30.299  1.00  0.00    -0.237 OA
ATOM     87  O   UNL A   1      35.933  31.159  32.168  1.00  0.00    -0.237 OA
ATOM     88  O   UNL A   1      37.144  33.286  32.439  1.00  0.00    -0.744 OA
ENDBRANCH  84  85
ENDBRANCH  56  79
BRANCH  68  89
ATOM     89  C   UNL A   1      46.718  33.130  28.781  1.00  0.00    -0.014 A 
ATOM     90  C   UNL A   1      47.294  33.570  29.987  1.00  0.00     0.010 A 
ATOM     91  C   UNL A   1      46.621  34.028  27.703  1.00  0.00     0.010 A 
ATOM     92  C   UNL A   1      47.700  34.899  30.133  1.00  0.00     0.020 A 
ATOM     93  C   UNL A   1      47.061  35.349  27.833  1.00  0.00     0.020 A 
ATOM     94  C   UNL A   1      47.572  35.783  29.057  1.00  0.00     0.054 A 
BRANCH  94  95
ATOM     95  S   UNL A   1      48.097  37.505  29.275  1.00  0.00     0.124 S 
ATOM     96  O   UNL A   1      49.448  37.482  28.721  1.00  0.00    -0.237 OA
ATOM     97  O   UNL A   1      47.108  38.243  28.494  1.00  0.00    -0.237 OA
ATOM     98  O   UNL A   1      48.020  37.710  30.720  1.00  0.00    -0.744 OA
ENDBRANCH  94  95
ENDBRANCH  68  89
ENDBRANCH  42  43
ENDBRANCH  35  37
ENDBRANCH  34  35
ENDBRANCH  33  34
ENDBRANCH  32  33
ENDBRANCH  31  32
ENDBRANCH  30  31
ENDBRANCH   1  30
TORSDOF 27
ENDMDL
