MODEL 1
REMARK VINA RESULT:      -9.0      0.000      0.000
REMARK SMILES O=C(OCCOCCOCCOCCOC(=O)c1ccc([C@H]2Nc3ccc(Cl)cc3[C@@H]3C=CC[C@@H]23)cc1)c1ccc(-c2c3nc(c(-c4ccc(S(=O)(=O)[O-])cc4)c4ccc([nH]4)c(-c4ccc(S(=O)(=O)[O-])cc4)c4nc(c(-c5ccc(S(=O)(=O)[O-])cc5)c5ccc2[nH]5)C=C4)C=C3)cc1
REMARK SMILES IDX 8 1 7 2 6 3 5 4 4 5 3 6 2 7 1 8 38 9 39 10 97 11 40 12 96 13
REMARK SMILES IDX 41 14 42 15 43 16 90 17 44 18 95 19 89 20 91 21 45 22 94 23
REMARK SMILES IDX 88 24 87 25 46 27 76 28 57 29 75 30 58 31 61 32 74 33 92 34
REMARK SMILES IDX 59 35 60 36 73 38 93 39 62 40 47 41 48 42 56 43 49 44 55 45
REMARK SMILES IDX 50 46 51 47 52 48 53 49 54 50 77 51 78 52 86 53 79 54 85 55
REMARK SMILES IDX 80 56 81 57 82 58 83 59 84 60 63 61 64 62 72 63 65 64 71 65
REMARK SMILES IDX 66 66 67 67 68 68 69 69 70 70 9 71 10 72 11 73 12 74 13 75
REMARK SMILES IDX 14 76 15 77 16 78 17 79 18 80 19 81 37 82 20 83 36 84 21 85
REMARK SMILES IDX 22 86 23 87 35 88 24 89 31 91 34 92 25 93 30 94 32 95 33 96
REMARK SMILES IDX 26 97 29 98 27 99 28 100
REMARK H PARENT 91 26 61 37 23 90
REMARK Flexibility Score: inf
ROOT
ATOM      1  C   UNL A   1      36.989  29.692  28.090  1.00  0.00     0.188 C 
ENDROOT
BRANCH   1   2
ATOM      2  C   UNL A   1      37.983  30.631  28.773  1.00  0.00     0.188 C 
BRANCH   2   3
ATOM      3  O   UNL A   1      38.742  29.956  29.771  1.00  0.00    -0.376 OA
BRANCH   3   4
ATOM      4  C   UNL A   1      38.606  30.389  31.121  1.00  0.00     0.202 C 
BRANCH   4   5
ATOM      5  C   UNL A   1      37.488  31.394  31.405  1.00  0.00     0.261 C 
BRANCH   5   6
ATOM      6  O   UNL A   1      37.930  32.620  32.005  1.00  0.00    -0.460 OA
BRANCH   6   7
ATOM      7  C   UNL A   1      38.182  33.814  31.415  1.00  0.00     0.338 C 
ATOM      8  O   UNL A   1      37.272  34.642  31.367  1.00  0.00    -0.246 OA
BRANCH   7   9
ATOM      9  C   UNL A   1      39.493  34.190  30.809  1.00  0.00     0.060 A 
ATOM     10  C   UNL A   1      39.676  34.620  29.497  1.00  0.00     0.016 A 
ATOM     11  C   UNL A   1      40.610  34.202  31.659  1.00  0.00     0.016 A 
ATOM     12  C   UNL A   1      40.920  34.953  28.997  1.00  0.00     0.010 A 
ATOM     13  C   UNL A   1      41.869  34.575  31.180  1.00  0.00     0.010 A 
ATOM     14  C   UNL A   1      42.026  34.913  29.832  1.00  0.00    -0.014 A 
BRANCH  14  15
ATOM     15  C   UNL A   1      43.344  35.020  29.193  1.00  0.00     0.031 A 
ATOM     16  C   UNL A   1      44.043  33.740  28.856  1.00  0.00     0.074 A 
ATOM     17  C   UNL A   1      43.795  36.217  28.779  1.00  0.00     0.049 A 
ATOM     18  N   UNL A   1      45.232  33.554  28.360  1.00  0.00    -0.248 NA
ATOM     19  C   UNL A   1      43.290  32.494  29.102  1.00  0.00     0.031 C 
ATOM     20  C   UNL A   1      43.072  37.488  28.910  1.00  0.00     0.029 A 
ATOM     21  N   UNL A   1      44.949  36.557  28.130  1.00  0.00    -0.354 N 
ATOM     22  C   UNL A   1      45.390  32.176  28.285  1.00  0.00     0.074 A 
ATOM     23  C   UNL A   1      44.179  31.569  28.782  1.00  0.00     0.031 C 
ATOM     24  C   UNL A   1      43.797  38.465  28.344  1.00  0.00     0.029 A 
ATOM     25  C   UNL A   1      45.065  37.906  27.893  1.00  0.00     0.049 A 
ATOM     26  H   UNL A   1      45.630  35.900  27.860  1.00  0.00     0.167 HD
ATOM     27  C   UNL A   1      46.467  31.488  27.846  1.00  0.00     0.031 A 
ATOM     28  C   UNL A   1      46.110  38.604  27.410  1.00  0.00     0.031 A 
ATOM     29  C   UNL A   1      47.652  32.141  27.365  1.00  0.00     0.049 A 
ATOM     30  C   UNL A   1      47.347  37.826  27.047  1.00  0.00     0.074 A 
ATOM     31  C   UNL A   1      48.846  31.582  26.960  1.00  0.00     0.029 A 
ATOM     32  N   UNL A   1      47.779  33.519  27.227  1.00  0.00    -0.354 N 
ATOM     33  N   UNL A   1      47.535  36.525  27.068  1.00  0.00    -0.248 NA
ATOM     34  C   UNL A   1      48.514  38.601  26.614  1.00  0.00     0.031 C 
ATOM     35  C   UNL A   1      49.717  32.627  26.633  1.00  0.00     0.029 A 
ATOM     36  C   UNL A   1      49.041  33.832  26.764  1.00  0.00     0.049 A 
ATOM     37  H   UNL A   1      47.072  34.175  27.429  1.00  0.00     0.167 HD
ATOM     38  C   UNL A   1      48.835  36.322  26.629  1.00  0.00     0.074 A 
ATOM     39  C   UNL A   1      49.378  37.635  26.332  1.00  0.00     0.031 C 
ATOM     40  C   UNL A   1      49.526  35.163  26.482  1.00  0.00     0.031 A 
BRANCH  27  41
ATOM     41  C   UNL A   1      46.428  29.991  27.977  1.00  0.00    -0.014 A 
ATOM     42  C   UNL A   1      46.853  29.335  29.147  1.00  0.00     0.010 A 
ATOM     43  C   UNL A   1      45.993  29.221  26.883  1.00  0.00     0.010 A 
ATOM     44  C   UNL A   1      46.886  27.937  29.202  1.00  0.00     0.020 A 
ATOM     45  C   UNL A   1      45.995  27.825  26.945  1.00  0.00     0.020 A 
ATOM     46  C   UNL A   1      46.457  27.192  28.099  1.00  0.00     0.054 A 
BRANCH  46  47
ATOM     47  S   UNL A   1      46.498  25.381  28.201  1.00  0.00     0.124 S 
ATOM     48  O   UNL A   1      45.105  25.064  28.501  1.00  0.00    -0.237 OA
ATOM     49  O   UNL A   1      46.956  24.998  26.868  1.00  0.00    -0.237 OA
ATOM     50  O   UNL A   1      47.444  25.116  29.282  1.00  0.00    -0.744 OA
ENDBRANCH  46  47
ENDBRANCH  27  41
BRANCH  28  51
ATOM     51  C   UNL A   1      46.054  40.091  27.325  1.00  0.00    -0.014 A 
ATOM     52  C   UNL A   1      45.766  40.743  26.115  1.00  0.00     0.010 A 
ATOM     53  C   UNL A   1      46.290  40.873  28.475  1.00  0.00     0.010 A 
ATOM     54  C   UNL A   1      45.735  42.141  26.050  1.00  0.00     0.020 A 
ATOM     55  C   UNL A   1      46.227  42.268  28.423  1.00  0.00     0.020 A 
ATOM     56  C   UNL A   1      45.963  42.895  27.205  1.00  0.00     0.054 A 
BRANCH  56  57
ATOM     57  S   UNL A   1      45.888  44.705  27.103  1.00  0.00     0.124 S 
ATOM     58  O   UNL A   1      47.290  45.057  26.904  1.00  0.00    -0.237 OA
ATOM     59  O   UNL A   1      45.011  44.919  25.955  1.00  0.00    -0.237 OA
ATOM     60  O   UNL A   1      45.321  45.098  28.392  1.00  0.00    -0.744 OA
ENDBRANCH  56  57
ENDBRANCH  28  51
BRANCH  40  61
ATOM     61  C   UNL A   1      50.920  35.269  25.935  1.00  0.00    -0.014 A 
ATOM     62  C   UNL A   1      52.035  35.334  26.788  1.00  0.00     0.010 A 
ATOM     63  C   UNL A   1      51.111  35.225  24.542  1.00  0.00     0.010 A 
ATOM     64  C   UNL A   1      53.322  35.381  26.252  1.00  0.00     0.020 A 
ATOM     65  C   UNL A   1      52.397  35.238  24.006  1.00  0.00     0.020 A 
ATOM     66  C   UNL A   1      53.494  35.329  24.864  1.00  0.00     0.054 A 
BRANCH  66  67
ATOM     67  S   UNL A   1      55.178  35.333  24.197  1.00  0.00     0.124 S 
ATOM     68  O   UNL A   1      55.051  34.437  23.050  1.00  0.00    -0.237 OA
ATOM     69  O   UNL A   1      55.389  36.742  23.875  1.00  0.00    -0.237 OA
ATOM     70  O   UNL A   1      55.989  34.823  25.299  1.00  0.00    -0.744 OA
ENDBRANCH  66  67
ENDBRANCH  40  61
ENDBRANCH  14  15
ENDBRANCH   7   9
ENDBRANCH   6   7
ENDBRANCH   5   6
ENDBRANCH   4   5
ENDBRANCH   3   4
ENDBRANCH   2   3
ENDBRANCH   1   2
BRANCH   1  71
ATOM     71  O   UNL A   1      35.984  30.325  27.299  1.00  0.00    -0.377 OA
BRANCH  71  72
ATOM     72  C   UNL A   1      34.639  29.900  27.515  1.00  0.00     0.188 C 
BRANCH  72  73
ATOM     73  C   UNL A   1      34.129  28.634  26.781  1.00  0.00     0.188 C 
BRANCH  73  74
ATOM     74  O   UNL A   1      32.867  28.802  26.163  1.00  0.00    -0.376 OA
BRANCH  74  75
ATOM     75  C   UNL A   1      32.837  29.611  24.996  1.00  0.00     0.202 C 
BRANCH  75  76
ATOM     76  C   UNL A   1      32.854  28.931  23.610  1.00  0.00     0.261 C 
BRANCH  76  77
ATOM     77  O   UNL A   1      32.638  27.502  23.565  1.00  0.00    -0.460 OA
BRANCH  77  78
ATOM     78  C   UNL A   1      33.128  26.785  22.518  1.00  0.00     0.338 C 
ATOM     79  O   UNL A   1      33.910  27.167  21.683  1.00  0.00    -0.246 OA
BRANCH  78  80
ATOM     80  C   UNL A   1      32.693  25.362  22.690  1.00  0.00     0.060 A 
ATOM     81  C   UNL A   1      33.539  24.327  22.265  1.00  0.00     0.016 A 
ATOM     82  C   UNL A   1      31.516  25.039  23.363  1.00  0.00     0.016 A 
ATOM     83  C   UNL A   1      33.262  22.985  22.597  1.00  0.00     0.007 A 
ATOM     84  C   UNL A   1      31.214  23.693  23.636  1.00  0.00     0.007 A 
ATOM     85  C   UNL A   1      32.115  22.648  23.334  1.00  0.00    -0.025 A 
BRANCH  85  86
ATOM     86  C   UNL A   1      31.878  21.269  23.972  1.00  0.00     0.114 C 
ATOM     87  N   UNL A   1      32.156  20.110  23.074  1.00  0.00    -0.378 N 
ATOM     88  C   UNL A   1      32.702  21.070  25.262  1.00  0.00     0.031 C 
ATOM     89  C   UNL A   1      33.031  19.083  23.473  1.00  0.00     0.038 A 
ATOM     90  H   UNL A   1      31.722  20.062  22.191  1.00  0.00     0.161 HD
ATOM     91  C   UNL A   1      34.151  20.803  24.817  1.00  0.00     0.049 C 
ATOM     92  C   UNL A   1      32.766  22.064  26.416  1.00  0.00     0.034 C 
ATOM     93  C   UNL A   1      32.804  17.748  23.129  1.00  0.00     0.027 A 
ATOM     94  C   UNL A   1      34.089  19.369  24.381  1.00  0.00    -0.016 A 
ATOM     95  C   UNL A   1      34.952  21.273  25.976  1.00  0.00    -0.023 C 
ATOM     96  C   UNL A   1      34.212  22.019  26.805  1.00  0.00    -0.030 C 
ATOM     97  C   UNL A   1      33.594  16.727  23.683  1.00  0.00     0.022 A 
ATOM     98  C   UNL A   1      34.901  18.357  24.901  1.00  0.00     0.027 A 
ATOM     99  C   UNL A   1      34.636  17.037  24.560  1.00  0.00     0.041 A 
ATOM    100  Cl  UNL A   1      35.564  15.772  25.271  1.00  0.00    -0.084 Cl
ENDBRANCH  85  86
ENDBRANCH  78  80
ENDBRANCH  77  78
ENDBRANCH  76  77
ENDBRANCH  75  76
ENDBRANCH  74  75
ENDBRANCH  73  74
ENDBRANCH  72  73
ENDBRANCH  71  72
ENDBRANCH   1  71
TORSDOF 24
ENDMDL
MODEL 2
REMARK VINA RESULT:      -8.7      9.391     16.517
REMARK SMILES O=C(OCCOCCOCCOCCOC(=O)c1ccc([C@H]2Nc3ccc(Cl)cc3[C@@H]3C=CC[C@@H]23)cc1)c1ccc(-c2c3nc(c(-c4ccc(S(=O)(=O)[O-])cc4)c4ccc([nH]4)c(-c4ccc(S(=O)(=O)[O-])cc4)c4nc(c(-c5ccc(S(=O)(=O)[O-])cc5)c5ccc2[nH]5)C=C4)C=C3)cc1
REMARK SMILES IDX 8 1 7 2 6 3 5 4 4 5 3 6 2 7 1 8 38 9 39 10 97 11 40 12 96 13
REMARK SMILES IDX 41 14 42 15 43 16 90 17 44 18 95 19 89 20 91 21 45 22 94 23
REMARK SMILES IDX 88 24 87 25 46 27 76 28 57 29 75 30 58 31 61 32 74 33 92 34
REMARK SMILES IDX 59 35 60 36 73 38 93 39 62 40 47 41 48 42 56 43 49 44 55 45
REMARK SMILES IDX 50 46 51 47 52 48 53 49 54 50 77 51 78 52 86 53 79 54 85 55
REMARK SMILES IDX 80 56 81 57 82 58 83 59 84 60 63 61 64 62 72 63 65 64 71 65
REMARK SMILES IDX 66 66 67 67 68 68 69 69 70 70 9 71 10 72 11 73 12 74 13 75
REMARK SMILES IDX 14 76 15 77 16 78 17 79 18 80 19 81 37 82 20 83 36 84 21 85
REMARK SMILES IDX 22 86 23 87 35 88 24 89 31 91 34 92 25 93 30 94 32 95 33 96
REMARK SMILES IDX 26 97 29 98 27 99 28 100
REMARK H PARENT 91 26 61 37 23 90
REMARK Flexibility Score: inf
ROOT
ATOM      1  C   UNL A   1      50.660  27.192  36.046  1.00  0.00     0.188 C 
ENDROOT
BRANCH   1   2
ATOM      2  C   UNL A   1      51.289  28.380  36.771  1.00  0.00     0.188 C 
BRANCH   2   3
ATOM      3  O   UNL A   1      51.592  28.068  38.127  1.00  0.00    -0.376 OA
BRANCH   3   4
ATOM      4  C   UNL A   1      50.516  27.696  38.984  1.00  0.00     0.202 C 
BRANCH   4   5
ATOM      5  C   UNL A   1      49.377  28.707  39.125  1.00  0.00     0.261 C 
BRANCH   5   6
ATOM      6  O   UNL A   1      48.137  28.144  39.579  1.00  0.00    -0.460 OA
BRANCH   6   7
ATOM      7  C   UNL A   1      47.283  27.323  38.919  1.00  0.00     0.338 C 
ATOM      8  O   UNL A   1      47.354  26.114  39.138  1.00  0.00    -0.246 OA
BRANCH   7   9
ATOM      9  C   UNL A   1      46.264  27.790  37.934  1.00  0.00     0.060 A 
ATOM     10  C   UNL A   1      46.544  28.486  36.761  1.00  0.00     0.016 A 
ATOM     11  C   UNL A   1      44.933  27.413  38.165  1.00  0.00     0.016 A 
ATOM     12  C   UNL A   1      45.552  28.891  35.889  1.00  0.00     0.010 A 
ATOM     13  C   UNL A   1      43.921  27.779  37.272  1.00  0.00     0.010 A 
ATOM     14  C   UNL A   1      44.233  28.556  36.151  1.00  0.00    -0.014 A 
BRANCH  14  15
ATOM     15  C   UNL A   1      43.205  29.227  35.345  1.00  0.00     0.031 A 
ATOM     16  C   UNL A   1      42.551  30.434  35.942  1.00  0.00     0.074 A 
ATOM     17  C   UNL A   1      43.009  28.860  34.066  1.00  0.00     0.049 A 
ATOM     18  N   UNL A   1      41.575  31.159  35.478  1.00  0.00    -0.248 NA
ATOM     19  C   UNL A   1      43.082  30.896  37.240  1.00  0.00     0.031 C 
ATOM     20  C   UNL A   1      43.750  27.807  33.363  1.00  0.00     0.029 A 
ATOM     21  N   UNL A   1      42.157  29.356  33.119  1.00  0.00    -0.354 N 
ATOM     22  C   UNL A   1      41.340  32.127  36.447  1.00  0.00     0.074 A 
ATOM     23  C   UNL A   1      42.273  31.903  37.524  1.00  0.00     0.031 C 
ATOM     24  C   UNL A   1      43.327  27.749  32.090  1.00  0.00     0.029 A 
ATOM     25  C   UNL A   1      42.232  28.695  31.916  1.00  0.00     0.049 A 
ATOM     26  H   UNL A   1      41.549  30.113  33.282  1.00  0.00     0.167 HD
ATOM     27  C   UNL A   1      40.411  33.107  36.430  1.00  0.00     0.031 A 
ATOM     28  C   UNL A   1      41.459  28.817  30.822  1.00  0.00     0.031 A 
ATOM     29  C   UNL A   1      39.501  33.285  35.333  1.00  0.00     0.049 A 
ATOM     30  C   UNL A   1      40.347  29.831  30.876  1.00  0.00     0.074 A 
ATOM     31  C   UNL A   1      38.461  34.183  35.206  1.00  0.00     0.029 A 
ATOM     32  N   UNL A   1      39.536  32.534  34.164  1.00  0.00    -0.354 N 
ATOM     33  N   UNL A   1      40.059  30.684  31.834  1.00  0.00    -0.248 NA
ATOM     34  C   UNL A   1      39.449  29.892  29.719  1.00  0.00     0.031 C 
ATOM     35  C   UNL A   1      37.828  33.933  33.984  1.00  0.00     0.029 A 
ATOM     36  C   UNL A   1      38.520  32.931  33.317  1.00  0.00     0.049 A 
ATOM     37  H   UNL A   1      40.190  31.823  33.968  1.00  0.00     0.167 HD
ATOM     38  C   UNL A   1      38.958  31.400  31.387  1.00  0.00     0.074 A 
ATOM     39  C   UNL A   1      38.647  30.891  30.064  1.00  0.00     0.031 C 
ATOM     40  C   UNL A   1      38.261  32.388  32.005  1.00  0.00     0.031 A 
BRANCH  27  41
ATOM     41  C   UNL A   1      40.285  33.958  37.663  1.00  0.00    -0.014 A 
ATOM     42  C   UNL A   1      41.004  35.158  37.817  1.00  0.00     0.010 A 
ATOM     43  C   UNL A   1      39.458  33.520  38.713  1.00  0.00     0.010 A 
ATOM     44  C   UNL A   1      40.930  35.879  39.013  1.00  0.00     0.020 A 
ATOM     45  C   UNL A   1      39.357  34.252  39.898  1.00  0.00     0.020 A 
ATOM     46  C   UNL A   1      40.108  35.419  40.047  1.00  0.00     0.054 A 
BRANCH  46  47
ATOM     47  S   UNL A   1      40.021  36.379  41.584  1.00  0.00     0.124 S 
ATOM     48  O   UNL A   1      38.616  36.231  41.954  1.00  0.00    -0.237 OA
ATOM     49  O   UNL A   1      40.973  35.684  42.447  1.00  0.00    -0.237 OA
ATOM     50  O   UNL A   1      40.419  37.724  41.176  1.00  0.00    -0.744 OA
ENDBRANCH  46  47
ENDBRANCH  27  41
BRANCH  28  51
ATOM     51  C   UNL A   1      41.658  27.920  29.649  1.00  0.00    -0.014 A 
ATOM     52  C   UNL A   1      42.634  28.196  28.676  1.00  0.00     0.010 A 
ATOM     53  C   UNL A   1      40.862  26.766  29.499  1.00  0.00     0.010 A 
ATOM     54  C   UNL A   1      42.795  27.351  27.571  1.00  0.00     0.020 A 
ATOM     55  C   UNL A   1      41.042  25.901  28.416  1.00  0.00     0.020 A 
ATOM     56  C   UNL A   1      42.000  26.207  27.450  1.00  0.00     0.054 A 
BRANCH  56  57
ATOM     57  S   UNL A   1      42.248  25.111  26.025  1.00  0.00     0.124 S 
ATOM     58  O   UNL A   1      41.217  24.101  26.236  1.00  0.00    -0.237 OA
ATOM     59  O   UNL A   1      42.032  26.011  24.895  1.00  0.00    -0.237 OA
ATOM     60  O   UNL A   1      43.624  24.645  26.187  1.00  0.00    -0.744 OA
ENDBRANCH  56  57
ENDBRANCH  28  51
BRANCH  40  61
ATOM     61  C   UNL A   1      37.132  33.005  31.233  1.00  0.00    -0.014 A 
ATOM     62  C   UNL A   1      37.372  33.813  30.108  1.00  0.00     0.010 A 
ATOM     63  C   UNL A   1      35.808  32.703  31.601  1.00  0.00     0.010 A 
ATOM     64  C   UNL A   1      36.302  34.333  29.380  1.00  0.00     0.020 A 
ATOM     65  C   UNL A   1      34.738  33.193  30.855  1.00  0.00     0.020 A 
ATOM     66  C   UNL A   1      34.992  34.015  29.756  1.00  0.00     0.054 A 
BRANCH  66  67
ATOM     67  S   UNL A   1      33.622  34.655  28.759  1.00  0.00     0.124 S 
ATOM     68  O   UNL A   1      33.377  33.549  27.837  1.00  0.00    -0.237 OA
ATOM     69  O   UNL A   1      32.581  34.884  29.758  1.00  0.00    -0.237 OA
ATOM     70  O   UNL A   1      34.171  35.864  28.151  1.00  0.00    -0.744 OA
ENDBRANCH  66  67
ENDBRANCH  40  61
ENDBRANCH  14  15
ENDBRANCH   7   9
ENDBRANCH   6   7
ENDBRANCH   5   6
ENDBRANCH   4   5
ENDBRANCH   3   4
ENDBRANCH   2   3
ENDBRANCH   1   2
BRANCH   1  71
ATOM     71  O   UNL A   1      51.360  26.731  34.891  1.00  0.00    -0.377 OA
BRANCH  71  72
ATOM     72  C   UNL A   1      52.552  25.982  35.122  1.00  0.00     0.188 C 
BRANCH  72  73
ATOM     73  C   UNL A   1      52.764  24.657  34.347  1.00  0.00     0.188 C 
BRANCH  73  74
ATOM     74  O   UNL A   1      52.896  23.522  35.182  1.00  0.00    -0.376 OA
BRANCH  74  75
ATOM     75  C   UNL A   1      54.154  22.862  35.157  1.00  0.00     0.202 C 
BRANCH  75  76
ATOM     76  C   UNL A   1      54.194  21.330  34.969  1.00  0.00     0.261 C 
BRANCH  76  77
ATOM     77  O   UNL A   1      53.453  20.774  33.858  1.00  0.00    -0.460 OA
BRANCH  77  78
ATOM     78  C   UNL A   1      52.785  19.601  34.022  1.00  0.00     0.338 C 
ATOM     79  O   UNL A   1      53.225  18.490  33.865  1.00  0.00    -0.246 OA
BRANCH  78  80
ATOM     80  C   UNL A   1      51.455  19.911  34.638  1.00  0.00     0.060 A 
ATOM     81  C   UNL A   1      51.214  19.553  35.973  1.00  0.00     0.016 A 
ATOM     82  C   UNL A   1      50.490  20.646  33.951  1.00  0.00     0.016 A 
ATOM     83  C   UNL A   1      50.063  20.011  36.647  1.00  0.00     0.007 A 
ATOM     84  C   UNL A   1      49.315  21.045  34.612  1.00  0.00     0.007 A 
ATOM     85  C   UNL A   1      49.114  20.809  35.990  1.00  0.00    -0.025 A 
BRANCH  85  86
ATOM     86  C   UNL A   1      47.988  21.573  36.708  1.00  0.00     0.114 C 
ATOM     87  N   UNL A   1      47.684  22.918  36.137  1.00  0.00    -0.378 N 
ATOM     88  C   UNL A   1      46.669  20.772  36.748  1.00  0.00     0.031 C 
ATOM     89  C   UNL A   1      46.373  23.260  35.758  1.00  0.00     0.038 A 
ATOM     90  H   UNL A   1      48.409  23.575  36.026  1.00  0.00     0.161 HD
ATOM     91  C   UNL A   1      46.061  20.863  35.337  1.00  0.00     0.049 C 
ATOM     92  C   UNL A   1      46.546  19.320  37.194  1.00  0.00     0.034 C 
ATOM     93  C   UNL A   1      45.871  24.552  35.929  1.00  0.00     0.027 A 
ATOM     94  C   UNL A   1      45.472  22.242  35.334  1.00  0.00    -0.016 A 
ATOM     95  C   UNL A   1      45.247  19.624  35.240  1.00  0.00    -0.023 C 
ATOM     96  C   UNL A   1      45.567  18.758  36.209  1.00  0.00    -0.030 C 
ATOM     97  C   UNL A   1      44.511  24.821  35.703  1.00  0.00     0.022 A 
ATOM     98  C   UNL A   1      44.128  22.519  35.070  1.00  0.00     0.027 A 
ATOM     99  C   UNL A   1      43.651  23.808  35.273  1.00  0.00     0.041 A 
ATOM    100  Cl  UNL A   1      41.976  24.141  35.049  1.00  0.00    -0.084 Cl
ENDBRANCH  85  86
ENDBRANCH  78  80
ENDBRANCH  77  78
ENDBRANCH  76  77
ENDBRANCH  75  76
ENDBRANCH  74  75
ENDBRANCH  73  74
ENDBRANCH  72  73
ENDBRANCH  71  72
ENDBRANCH   1  71
TORSDOF 24
ENDMDL
MODEL 3
REMARK VINA RESULT:      -8.7      7.611     15.481
REMARK SMILES O=C(OCCOCCOCCOCCOC(=O)c1ccc([C@H]2Nc3ccc(Cl)cc3[C@@H]3C=CC[C@@H]23)cc1)c1ccc(-c2c3nc(c(-c4ccc(S(=O)(=O)[O-])cc4)c4ccc([nH]4)c(-c4ccc(S(=O)(=O)[O-])cc4)c4nc(c(-c5ccc(S(=O)(=O)[O-])cc5)c5ccc2[nH]5)C=C4)C=C3)cc1
REMARK SMILES IDX 8 1 7 2 6 3 5 4 4 5 3 6 2 7 1 8 38 9 39 10 97 11 40 12 96 13
REMARK SMILES IDX 41 14 42 15 43 16 90 17 44 18 95 19 89 20 91 21 45 22 94 23
REMARK SMILES IDX 88 24 87 25 46 27 76 28 57 29 75 30 58 31 61 32 74 33 92 34
REMARK SMILES IDX 59 35 60 36 73 38 93 39 62 40 47 41 48 42 56 43 49 44 55 45
REMARK SMILES IDX 50 46 51 47 52 48 53 49 54 50 77 51 78 52 86 53 79 54 85 55
REMARK SMILES IDX 80 56 81 57 82 58 83 59 84 60 63 61 64 62 72 63 65 64 71 65
REMARK SMILES IDX 66 66 67 67 68 68 69 69 70 70 9 71 10 72 11 73 12 74 13 75
REMARK SMILES IDX 14 76 15 77 16 78 17 79 18 80 19 81 37 82 20 83 36 84 21 85
REMARK SMILES IDX 22 86 23 87 35 88 24 89 31 91 34 92 25 93 30 94 32 95 33 96
REMARK SMILES IDX 26 97 29 98 27 99 28 100
REMARK H PARENT 91 26 61 37 23 90
REMARK Flexibility Score: inf
ROOT
ATOM      1  C   UNL A   1      46.349  24.378  27.770  1.00  0.00     0.188 C 
ENDROOT
BRANCH   1   2
ATOM      2  C   UNL A   1      45.262  24.612  26.722  1.00  0.00     0.188 C 
BRANCH   2   3
ATOM      3  O   UNL A   1      44.352  23.519  26.657  1.00  0.00    -0.376 OA
BRANCH   3   4
ATOM      4  C   UNL A   1      43.550  23.386  25.488  1.00  0.00     0.202 C 
BRANCH   4   5
ATOM      5  C   UNL A   1      42.059  23.126  25.711  1.00  0.00     0.261 C 
BRANCH   5   6
ATOM      6  O   UNL A   1      41.369  24.180  26.398  1.00  0.00    -0.460 OA
BRANCH   6   7
ATOM      7  C   UNL A   1      41.526  25.521  26.276  1.00  0.00     0.338 C 
ATOM      8  O   UNL A   1      41.902  25.966  25.192  1.00  0.00    -0.246 OA
BRANCH   7   9
ATOM      9  C   UNL A   1      41.281  26.498  27.377  1.00  0.00     0.060 A 
ATOM     10  C   UNL A   1      41.966  27.698  27.553  1.00  0.00     0.016 A 
ATOM     11  C   UNL A   1      40.211  26.227  28.245  1.00  0.00     0.016 A 
ATOM     12  C   UNL A   1      41.689  28.559  28.596  1.00  0.00     0.010 A 
ATOM     13  C   UNL A   1      39.891  27.108  29.282  1.00  0.00     0.010 A 
ATOM     14  C   UNL A   1      40.663  28.258  29.478  1.00  0.00    -0.014 A 
BRANCH  14  15
ATOM     15  C   UNL A   1      40.585  29.062  30.705  1.00  0.00     0.031 A 
ATOM     16  C   UNL A   1      39.496  30.087  30.780  1.00  0.00     0.074 A 
ATOM     17  C   UNL A   1      41.352  28.748  31.764  1.00  0.00     0.049 A 
ATOM     18  N   UNL A   1      39.253  30.967  31.707  1.00  0.00    -0.248 NA
ATOM     19  C   UNL A   1      38.540  30.116  29.655  1.00  0.00     0.031 C 
ATOM     20  C   UNL A   1      42.306  27.634  31.819  1.00  0.00     0.029 A 
ATOM     21  N   UNL A   1      41.424  29.309  33.008  1.00  0.00    -0.354 N 
ATOM     22  C   UNL A   1      38.153  31.686  31.256  1.00  0.00     0.074 A 
ATOM     23  C   UNL A   1      37.772  31.143  29.974  1.00  0.00     0.031 C 
ATOM     24  C   UNL A   1      42.856  27.588  33.043  1.00  0.00     0.029 A 
ATOM     25  C   UNL A   1      42.359  28.715  33.822  1.00  0.00     0.049 A 
ATOM     26  H   UNL A   1      40.861  30.064  33.293  1.00  0.00     0.167 HD
ATOM     27  C   UNL A   1      37.532  32.719  31.865  1.00  0.00     0.031 A 
ATOM     28  C   UNL A   1      42.793  29.086  35.041  1.00  0.00     0.031 A 
ATOM     29  C   UNL A   1      37.955  33.226  33.140  1.00  0.00     0.049 A 
ATOM     30  C   UNL A   1      42.173  30.318  35.645  1.00  0.00     0.074 A 
ATOM     31  C   UNL A   1      37.473  34.309  33.846  1.00  0.00     0.029 A 
ATOM     32  N   UNL A   1      38.973  32.664  33.902  1.00  0.00    -0.354 N 
ATOM     33  N   UNL A   1      41.196  31.061  35.174  1.00  0.00    -0.248 NA
ATOM     34  C   UNL A   1      42.716  30.772  36.928  1.00  0.00     0.031 C 
ATOM     35  C   UNL A   1      38.243  34.439  35.007  1.00  0.00     0.029 A 
ATOM     36  C   UNL A   1      39.154  33.392  35.060  1.00  0.00     0.049 A 
ATOM     37  H   UNL A   1      39.491  31.864  33.651  1.00  0.00     0.167 HD
ATOM     38  C   UNL A   1      40.991  32.061  36.114  1.00  0.00     0.074 A 
ATOM     39  C   UNL A   1      41.935  31.812  37.189  1.00  0.00     0.031 C 
ATOM     40  C   UNL A   1      40.109  33.093  36.100  1.00  0.00     0.031 A 
BRANCH  27  41
ATOM     41  C   UNL A   1      36.430  33.403  31.106  1.00  0.00    -0.014 A 
ATOM     42  C   UNL A   1      36.639  33.965  29.833  1.00  0.00     0.010 A 
ATOM     43  C   UNL A   1      35.162  33.524  31.704  1.00  0.00     0.010 A 
ATOM     44  C   UNL A   1      35.615  34.671  29.194  1.00  0.00     0.020 A 
ATOM     45  C   UNL A   1      34.127  34.202  31.056  1.00  0.00     0.020 A 
ATOM     46  C   UNL A   1      34.365  34.786  29.811  1.00  0.00     0.054 A 
BRANCH  46  47
ATOM     47  S   UNL A   1      33.050  35.697  28.955  1.00  0.00     0.124 S 
ATOM     48  O   UNL A   1      32.368  34.630  28.228  1.00  0.00    -0.237 OA
ATOM     49  O   UNL A   1      32.298  36.283  30.062  1.00  0.00    -0.237 OA
ATOM     50  O   UNL A   1      33.776  36.653  28.122  1.00  0.00    -0.744 OA
ENDBRANCH  46  47
ENDBRANCH  27  41
BRANCH  28  51
ATOM     51  C   UNL A   1      43.899  28.345  35.710  1.00  0.00    -0.014 A 
ATOM     52  C   UNL A   1      45.241  28.719  35.530  1.00  0.00     0.010 A 
ATOM     53  C   UNL A   1      43.609  27.246  36.544  1.00  0.00     0.010 A 
ATOM     54  C   UNL A   1      46.269  28.001  36.152  1.00  0.00     0.020 A 
ATOM     55  C   UNL A   1      44.630  26.546  37.194  1.00  0.00     0.020 A 
ATOM     56  C   UNL A   1      45.956  26.919  36.983  1.00  0.00     0.054 A 
BRANCH  56  57
ATOM     57  S   UNL A   1      47.303  26.022  37.802  1.00  0.00     0.124 S 
ATOM     58  O   UNL A   1      47.026  26.277  39.211  1.00  0.00    -0.237 OA
ATOM     59  O   UNL A   1      47.086  24.649  37.352  1.00  0.00    -0.237 OA
ATOM     60  O   UNL A   1      48.510  26.659  37.276  1.00  0.00    -0.744 OA
ENDBRANCH  56  57
ENDBRANCH  28  51
BRANCH  40  61
ATOM     61  C   UNL A   1      40.099  33.992  37.303  1.00  0.00    -0.014 A 
ATOM     62  C   UNL A   1      40.733  35.245  37.281  1.00  0.00     0.010 A 
ATOM     63  C   UNL A   1      39.374  33.598  38.442  1.00  0.00     0.010 A 
ATOM     64  C   UNL A   1      40.665  36.081  38.396  1.00  0.00     0.020 A 
ATOM     65  C   UNL A   1      39.275  34.446  39.543  1.00  0.00     0.020 A 
ATOM     66  C   UNL A   1      39.932  35.677  39.518  1.00  0.00     0.054 A 
BRANCH  66  67
ATOM     67  S   UNL A   1      39.810  36.806  40.929  1.00  0.00     0.124 S 
ATOM     68  O   UNL A   1      38.921  36.074  41.827  1.00  0.00    -0.237 OA
ATOM     69  O   UNL A   1      41.199  36.916  41.370  1.00  0.00    -0.237 OA
ATOM     70  O   UNL A   1      39.248  38.024  40.351  1.00  0.00    -0.744 OA
ENDBRANCH  66  67
ENDBRANCH  40  61
ENDBRANCH  14  15
ENDBRANCH   7   9
ENDBRANCH   6   7
ENDBRANCH   5   6
ENDBRANCH   4   5
ENDBRANCH   3   4
ENDBRANCH   2   3
ENDBRANCH   1   2
BRANCH   1  71
ATOM     71  O   UNL A   1      47.622  24.956  27.481  1.00  0.00    -0.377 OA
BRANCH  71  72
ATOM     72  C   UNL A   1      48.473  25.219  28.597  1.00  0.00     0.188 C 
BRANCH  72  73
ATOM     73  C   UNL A   1      48.654  26.683  29.068  1.00  0.00     0.188 C 
BRANCH  73  74
ATOM     74  O   UNL A   1      48.396  27.644  28.061  1.00  0.00    -0.376 OA
BRANCH  74  75
ATOM     75  C   UNL A   1      47.184  28.375  28.180  1.00  0.00     0.202 C 
BRANCH  75  76
ATOM     76  C   UNL A   1      46.096  28.207  27.097  1.00  0.00     0.261 C 
BRANCH  76  77
ATOM     77  O   UNL A   1      45.130  29.273  26.951  1.00  0.00    -0.460 OA
BRANCH  77  78
ATOM     78  C   UNL A   1      45.549  30.502  26.548  1.00  0.00     0.338 C 
ATOM     79  O   UNL A   1      46.356  30.745  25.686  1.00  0.00    -0.246 OA
BRANCH  78  80
ATOM     80  C   UNL A   1      44.682  31.526  27.214  1.00  0.00     0.060 A 
ATOM     81  C   UNL A   1      44.061  31.215  28.433  1.00  0.00     0.016 A 
ATOM     82  C   UNL A   1      44.565  32.820  26.708  1.00  0.00     0.016 A 
ATOM     83  C   UNL A   1      43.414  32.214  29.190  1.00  0.00     0.007 A 
ATOM     84  C   UNL A   1      43.864  33.795  27.437  1.00  0.00     0.007 A 
ATOM     85  C   UNL A   1      43.347  33.538  28.727  1.00  0.00    -0.025 A 
BRANCH  85  86
ATOM     86  C   UNL A   1      42.914  34.731  29.595  1.00  0.00     0.114 C 
ATOM     87  N   UNL A   1      42.154  34.365  30.826  1.00  0.00    -0.378 N 
ATOM     88  C   UNL A   1      44.110  35.606  30.027  1.00  0.00     0.031 C 
ATOM     89  C   UNL A   1      42.567  34.820  32.090  1.00  0.00     0.038 A 
ATOM     90  H   UNL A   1      41.352  33.797  30.752  1.00  0.00     0.161 HD
ATOM     91  C   UNL A   1      44.832  34.836  31.148  1.00  0.00     0.049 C 
ATOM     92  C   UNL A   1      45.186  36.136  29.086  1.00  0.00     0.034 C 
ATOM     93  C   UNL A   1      41.648  35.169  33.083  1.00  0.00     0.027 A 
ATOM     94  C   UNL A   1      43.944  35.090  32.329  1.00  0.00    -0.016 A 
ATOM     95  C   UNL A   1      46.229  35.330  31.050  1.00  0.00    -0.023 C 
ATOM     96  C   UNL A   1      46.437  35.973  29.895  1.00  0.00    -0.030 C 
ATOM     97  C   UNL A   1      42.083  35.781  34.270  1.00  0.00     0.022 A 
ATOM     98  C   UNL A   1      44.381  35.664  33.527  1.00  0.00     0.027 A 
ATOM     99  C   UNL A   1      43.441  36.022  34.486  1.00  0.00     0.041 A 
ATOM    100  Cl  UNL A   1      43.955  36.820  35.923  1.00  0.00    -0.084 Cl
ENDBRANCH  85  86
ENDBRANCH  78  80
ENDBRANCH  77  78
ENDBRANCH  76  77
ENDBRANCH  75  76
ENDBRANCH  74  75
ENDBRANCH  73  74
ENDBRANCH  72  73
ENDBRANCH  71  72
ENDBRANCH   1  71
TORSDOF 24
ENDMDL
