MODEL 1
REMARK VINA RESULT:      -8.8      0.000      0.000
REMARK SMILES C/C(=N\NC(N)=S)c1nnn(-c2ccc(C(=O)OCCOCCOCCOCCOC(=O)c3ccc(-c4c5nc(c(-c6ccc(S(=O)(=O)[O-])cc6)c6ccc([nH]6)c(-c6ccc(S(=O)(=O)[O-])cc6)c6nc(c(-c7ccc(S(=O)(=O)[O-])cc7)c7ccc4[nH]7)C=C6)C=C5)cc3)cc2)c1C
REMARK SMILES IDX 23 1 22 2 21 3 20 4 19 5 18 6 16 7 17 8 15 9 12 10 13 11
REMARK SMILES IDX 94 12 14 13 93 14 11 15 8 16 9 17 95 18 10 19 96 20 2 21
REMARK SMILES IDX 1 22 3 23 4 24 5 26 7 27 6 28 24 31 25 32 26 33 27 34 28 35
REMARK SMILES IDX 29 36 30 37 31 38 32 39 33 40 34 41 92 42 35 43 91 44 36 45
REMARK SMILES IDX 37 46 38 47 85 48 39 49 90 50 84 51 86 52 40 53 89 54 83 55
REMARK SMILES IDX 82 56 41 58 71 59 52 60 70 61 53 62 56 63 69 64 87 65 54 66
REMARK SMILES IDX 55 67 68 69 88 70 57 71 42 72 43 73 51 74 44 75 50 76 45 77
REMARK SMILES IDX 46 78 47 79 48 80 49 81 72 82 73 83 81 84 74 85 80 86 75 87
REMARK SMILES IDX 76 88 77 89 78 90 79 91 58 92 59 93 67 94 60 95 66 96 61 97
REMARK SMILES IDX 62 98 63 99 64 100 65 101
REMARK H PARENT 4 25 6 29 6 30 86 57 56 68
REMARK Flexibility Score: inf
ROOT
ATOM      1  C   UNL A   1      37.828  20.073  24.807  1.00  0.00     0.188 C 
ENDROOT
BRANCH   1   2
ATOM      2  C   UNL A   1      36.998  21.351  24.559  1.00  0.00     0.188 C 
BRANCH   2   3
ATOM      3  O   UNL A   1      36.147  21.889  25.559  1.00  0.00    -0.376 OA
BRANCH   3   4
ATOM      4  C   UNL A   1      35.070  21.176  26.139  1.00  0.00     0.202 C 
BRANCH   4   5
ATOM      5  C   UNL A   1      33.744  20.851  25.435  1.00  0.00     0.261 C 
BRANCH   5   6
ATOM      6  O   UNL A   1      32.549  21.061  26.175  1.00  0.00    -0.460 OA
BRANCH   6   7
ATOM      7  C   UNL A   1      32.375  22.307  26.664  1.00  0.00     0.338 C 
ATOM      8  O   UNL A   1      32.538  22.684  27.809  1.00  0.00    -0.246 OA
BRANCH   7   9
ATOM      9  C   UNL A   1      32.097  23.208  25.523  1.00  0.00     0.060 A 
ATOM     10  C   UNL A   1      31.442  25.049  23.575  1.00  0.00     0.067 A 
ATOM     11  C   UNL A   1      32.531  25.316  24.412  1.00  0.00     0.029 A 
ATOM     12  C   UNL A   1      30.796  23.807  23.593  1.00  0.00     0.029 A 
ATOM     13  C   UNL A   1      32.836  24.395  25.412  1.00  0.00     0.018 A 
ATOM     14  C   UNL A   1      31.128  22.879  24.570  1.00  0.00     0.018 A 
BRANCH  10  15
ATOM     15  N   UNL A   1      30.803  26.131  22.940  1.00  0.00    -0.217 N 
ATOM     16  C   UNL A   1      29.720  28.003  22.693  1.00  0.00     0.132 A 
ATOM     17  N   UNL A   1      30.651  27.900  21.694  1.00  0.00    -0.128 NA
ATOM     18  C   UNL A   1      29.804  26.901  23.518  1.00  0.00     0.071 A 
ATOM     19  N   UNL A   1      31.352  26.792  21.896  1.00  0.00    -0.061 NA
ATOM     20  C   UNL A   1      29.209  26.664  24.857  1.00  0.00     0.069 C 
BRANCH  16  21
ATOM     21  C   UNL A   1      29.009  29.235  22.979  1.00  0.00     0.087 C 
ATOM     22  C   UNL A   1      27.509  29.137  22.918  1.00  0.00     0.071 C 
ATOM     23  N   UNL A   1      29.751  30.266  23.251  1.00  0.00    -0.176 NA
BRANCH  23  24
ATOM     24  N   UNL A   1      29.232  31.479  23.595  1.00  0.00    -0.254 N 
ATOM     25  H   UNL A   1      29.067  31.609  24.558  1.00  0.00     0.193 HD
BRANCH  24  26
ATOM     26  C   UNL A   1      28.904  32.552  22.792  1.00  0.00     0.184 C 
ATOM     27  S   UNL A   1      28.115  32.597  21.329  1.00  0.00    -0.040 S 
BRANCH  26  28
ATOM     28  N   UNL A   1      29.318  33.740  23.335  1.00  0.00    -0.375 N 
ATOM     29  H   UNL A   1      28.758  34.544  23.245  1.00  0.00     0.159 HD
ATOM     30  H   UNL A   1      30.176  33.789  23.816  1.00  0.00     0.159 HD
ENDBRANCH  26  28
ENDBRANCH  24  26
ENDBRANCH  23  24
ENDBRANCH  16  21
ENDBRANCH  10  15
ENDBRANCH   7   9
ENDBRANCH   6   7
ENDBRANCH   5   6
ENDBRANCH   4   5
ENDBRANCH   3   4
ENDBRANCH   2   3
ENDBRANCH   1   2
BRANCH   1  31
ATOM     31  O   UNL A   1      39.147  20.311  25.260  1.00  0.00    -0.377 OA
BRANCH  31  32
ATOM     32  C   UNL A   1      39.892  19.182  25.714  1.00  0.00     0.188 C 
BRANCH  32  33
ATOM     33  C   UNL A   1      41.328  19.363  26.276  1.00  0.00     0.188 C 
BRANCH  33  34
ATOM     34  O   UNL A   1      42.355  19.468  25.304  1.00  0.00    -0.376 OA
BRANCH  34  35
ATOM     35  C   UNL A   1      43.673  19.887  25.601  1.00  0.00     0.202 C 
BRANCH  35  36
ATOM     36  C   UNL A   1      44.691  19.951  24.470  1.00  0.00     0.261 C 
BRANCH  36  37
ATOM     37  O   UNL A   1      44.907  21.256  23.977  1.00  0.00    -0.460 OA
BRANCH  37  38
ATOM     38  C   UNL A   1      44.167  22.204  24.586  1.00  0.00     0.338 C 
ATOM     39  O   UNL A   1      42.993  22.454  24.404  1.00  0.00    -0.246 OA
BRANCH  38  40
ATOM     40  C   UNL A   1      45.074  23.009  25.402  1.00  0.00     0.060 A 
ATOM     41  C   UNL A   1      45.152  22.654  26.746  1.00  0.00     0.016 A 
ATOM     42  C   UNL A   1      45.419  24.283  24.927  1.00  0.00     0.016 A 
ATOM     43  C   UNL A   1      45.290  23.672  27.655  1.00  0.00     0.010 A 
ATOM     44  C   UNL A   1      45.514  25.300  25.835  1.00  0.00     0.010 A 
ATOM     45  C   UNL A   1      45.350  24.987  27.180  1.00  0.00    -0.014 A 
BRANCH  45  46
ATOM     46  C   UNL A   1      45.400  26.055  28.144  1.00  0.00     0.031 A 
ATOM     47  C   UNL A   1      44.093  26.726  28.238  1.00  0.00     0.074 A 
ATOM     48  C   UNL A   1      46.480  26.308  28.906  1.00  0.00     0.049 A 
ATOM     49  N   UNL A   1      43.756  27.837  27.672  1.00  0.00    -0.248 NA
ATOM     50  C   UNL A   1      42.955  25.947  28.762  1.00  0.00     0.031 C 
ATOM     51  C   UNL A   1      47.702  25.513  29.054  1.00  0.00     0.029 A 
ATOM     52  N   UNL A   1      46.660  27.305  29.806  1.00  0.00    -0.354 N 
ATOM     53  C   UNL A   1      42.432  28.027  28.034  1.00  0.00     0.074 A 
ATOM     54  C   UNL A   1      41.935  26.735  28.425  1.00  0.00     0.031 C 
ATOM     55  C   UNL A   1      48.367  25.927  30.161  1.00  0.00     0.029 A 
ATOM     56  C   UNL A   1      47.689  27.087  30.715  1.00  0.00     0.049 A 
ATOM     57  H   UNL A   1      46.106  28.119  29.815  1.00  0.00     0.167 HD
ATOM     58  C   UNL A   1      41.979  29.270  28.351  1.00  0.00     0.031 A 
ATOM     59  C   UNL A   1      47.895  27.776  31.871  1.00  0.00     0.031 A 
ATOM     60  C   UNL A   1      42.891  30.293  27.895  1.00  0.00     0.049 A 
ATOM     61  C   UNL A   1      47.144  29.054  31.754  1.00  0.00     0.074 A 
ATOM     62  C   UNL A   1      43.425  30.644  26.671  1.00  0.00     0.029 A 
ATOM     63  N   UNL A   1      43.707  30.855  28.848  1.00  0.00    -0.354 N 
ATOM     64  N   UNL A   1      47.466  29.997  30.912  1.00  0.00    -0.248 NA
ATOM     65  C   UNL A   1      45.765  29.081  32.218  1.00  0.00     0.031 C 
ATOM     66  C   UNL A   1      44.770  31.025  26.947  1.00  0.00     0.029 A 
ATOM     67  C   UNL A   1      44.968  30.968  28.329  1.00  0.00     0.049 A 
ATOM     68  H   UNL A   1      43.431  31.130  29.752  1.00  0.00     0.167 HD
ATOM     69  C   UNL A   1      46.255  30.440  30.398  1.00  0.00     0.074 A 
ATOM     70  C   UNL A   1      45.240  29.906  31.307  1.00  0.00     0.031 C 
ATOM     71  C   UNL A   1      46.174  30.942  29.129  1.00  0.00     0.031 A 
BRANCH  58  72
ATOM     72  C   UNL A   1      41.009  29.513  29.484  1.00  0.00    -0.014 A 
ATOM     73  C   UNL A   1      41.400  29.143  30.784  1.00  0.00     0.010 A 
ATOM     74  C   UNL A   1      39.643  29.816  29.291  1.00  0.00     0.010 A 
ATOM     75  C   UNL A   1      40.460  29.006  31.813  1.00  0.00     0.020 A 
ATOM     76  C   UNL A   1      38.706  29.729  30.319  1.00  0.00     0.020 A 
ATOM     77  C   UNL A   1      39.118  29.292  31.567  1.00  0.00     0.054 A 
BRANCH  77  78
ATOM     78  S   UNL A   1      37.902  29.044  32.879  1.00  0.00     0.124 S 
ATOM     79  O   UNL A   1      36.731  29.722  32.334  1.00  0.00    -0.237 OA
ATOM     80  O   UNL A   1      37.822  27.587  32.946  1.00  0.00    -0.237 OA
ATOM     81  O   UNL A   1      38.517  29.684  34.040  1.00  0.00    -0.744 OA
ENDBRANCH  77  78
ENDBRANCH  58  72
BRANCH  59  82
ATOM     82  C   UNL A   1      48.393  27.278  33.182  1.00  0.00    -0.014 A 
ATOM     83  C   UNL A   1      49.056  28.144  34.076  1.00  0.00     0.010 A 
ATOM     84  C   UNL A   1      47.952  26.038  33.686  1.00  0.00     0.010 A 
ATOM     85  C   UNL A   1      49.195  27.819  35.438  1.00  0.00     0.020 A 
ATOM     86  C   UNL A   1      48.095  25.702  35.039  1.00  0.00     0.020 A 
ATOM     87  C   UNL A   1      48.688  26.607  35.916  1.00  0.00     0.054 A 
BRANCH  87  88
ATOM     88  S   UNL A   1      48.682  26.280  37.706  1.00  0.00     0.124 S 
ATOM     89  O   UNL A   1      48.970  27.597  38.266  1.00  0.00    -0.237 OA
ATOM     90  O   UNL A   1      47.329  25.779  37.934  1.00  0.00    -0.237 OA
ATOM     91  O   UNL A   1      49.742  25.288  37.877  1.00  0.00    -0.744 OA
ENDBRANCH  87  88
ENDBRANCH  59  82
BRANCH  71  92
ATOM     92  C   UNL A   1      47.454  31.339  28.430  1.00  0.00    -0.014 A 
ATOM     93  C   UNL A   1      48.324  30.446  27.775  1.00  0.00     0.010 A 
ATOM     94  C   UNL A   1      47.719  32.717  28.342  1.00  0.00     0.010 A 
ATOM     95  C   UNL A   1      49.455  30.923  27.091  1.00  0.00     0.020 A 
ATOM     96  C   UNL A   1      48.827  33.198  27.646  1.00  0.00     0.020 A 
ATOM     97  C   UNL A   1      49.702  32.298  27.038  1.00  0.00     0.054 A 
BRANCH  97  98
ATOM     98  S   UNL A   1      51.164  32.919  26.162  1.00  0.00     0.124 S 
ATOM     99  O   UNL A   1      51.168  32.113  24.943  1.00  0.00    -0.237 OA
ATOM    100  O   UNL A   1      50.856  34.336  25.980  1.00  0.00    -0.237 OA
ATOM    101  O   UNL A   1      52.264  32.646  27.084  1.00  0.00    -0.744 OA
ENDBRANCH  97  98
ENDBRANCH  71  92
ENDBRANCH  45  46
ENDBRANCH  38  40
ENDBRANCH  37  38
ENDBRANCH  36  37
ENDBRANCH  35  36
ENDBRANCH  34  35
ENDBRANCH  33  34
ENDBRANCH  32  33
ENDBRANCH  31  32
ENDBRANCH   1  31
TORSDOF 28
ENDMDL
MODEL 2
REMARK VINA RESULT:      -8.7      3.629      7.828
REMARK SMILES C/C(=N\NC(N)=S)c1nnn(-c2ccc(C(=O)OCCOCCOCCOCCOC(=O)c3ccc(-c4c5nc(c(-c6ccc(S(=O)(=O)[O-])cc6)c6ccc([nH]6)c(-c6ccc(S(=O)(=O)[O-])cc6)c6nc(c(-c7ccc(S(=O)(=O)[O-])cc7)c7ccc4[nH]7)C=C6)C=C5)cc3)cc2)c1C
REMARK SMILES IDX 23 1 22 2 21 3 20 4 19 5 18 6 16 7 17 8 15 9 12 10 13 11
REMARK SMILES IDX 94 12 14 13 93 14 11 15 8 16 9 17 95 18 10 19 96 20 2 21
REMARK SMILES IDX 1 22 3 23 4 24 5 26 7 27 6 28 24 31 25 32 26 33 27 34 28 35
REMARK SMILES IDX 29 36 30 37 31 38 32 39 33 40 34 41 92 42 35 43 91 44 36 45
REMARK SMILES IDX 37 46 38 47 85 48 39 49 90 50 84 51 86 52 40 53 89 54 83 55
REMARK SMILES IDX 82 56 41 58 71 59 52 60 70 61 53 62 56 63 69 64 87 65 54 66
REMARK SMILES IDX 55 67 68 69 88 70 57 71 42 72 43 73 51 74 44 75 50 76 45 77
REMARK SMILES IDX 46 78 47 79 48 80 49 81 72 82 73 83 81 84 74 85 80 86 75 87
REMARK SMILES IDX 76 88 77 89 78 90 79 91 58 92 59 93 67 94 60 95 66 96 61 97
REMARK SMILES IDX 62 98 63 99 64 100 65 101
REMARK H PARENT 4 25 6 29 6 30 86 57 56 68
REMARK Flexibility Score: inf
ROOT
ATOM      1  C   UNL A   1      38.577  20.840  25.413  1.00  0.00     0.188 C 
ENDROOT
BRANCH   1   2
ATOM      2  C   UNL A   1      37.802  22.174  25.491  1.00  0.00     0.188 C 
BRANCH   2   3
ATOM      3  O   UNL A   1      36.390  22.206  25.621  1.00  0.00    -0.376 OA
BRANCH   3   4
ATOM      4  C   UNL A   1      35.500  22.091  24.526  1.00  0.00     0.202 C 
BRANCH   4   5
ATOM      5  C   UNL A   1      35.173  23.214  23.529  1.00  0.00     0.261 C 
BRANCH   5   6
ATOM      6  O   UNL A   1      33.846  23.268  23.026  1.00  0.00    -0.460 OA
BRANCH   6   7
ATOM      7  C   UNL A   1      32.872  23.368  23.955  1.00  0.00     0.338 C 
ATOM      8  O   UNL A   1      32.220  22.467  24.446  1.00  0.00    -0.246 OA
BRANCH   7   9
ATOM      9  C   UNL A   1      32.824  24.775  24.413  1.00  0.00     0.060 A 
ATOM     10  C   UNL A   1      33.011  27.381  25.300  1.00  0.00     0.067 A 
ATOM     11  C   UNL A   1      33.315  27.103  23.963  1.00  0.00     0.029 A 
ATOM     12  C   UNL A   1      32.456  26.407  26.139  1.00  0.00     0.029 A 
ATOM     13  C   UNL A   1      33.248  25.781  23.531  1.00  0.00     0.018 A 
ATOM     14  C   UNL A   1      32.358  25.097  25.691  1.00  0.00     0.018 A 
BRANCH  10  15
ATOM     15  N   UNL A   1      33.550  28.544  25.883  1.00  0.00    -0.217 N 
ATOM     16  C   UNL A   1      33.637  30.476  26.881  1.00  0.00     0.132 A 
ATOM     17  N   UNL A   1      34.681  29.708  27.322  1.00  0.00    -0.128 NA
ATOM     18  C   UNL A   1      32.883  29.757  25.978  1.00  0.00     0.071 A 
ATOM     19  N   UNL A   1      34.577  28.510  26.762  1.00  0.00    -0.061 NA
ATOM     20  C   UNL A   1      31.535  30.036  25.423  1.00  0.00     0.069 C 
BRANCH  16  21
ATOM     21  C   UNL A   1      33.247  31.715  27.528  1.00  0.00     0.087 C 
ATOM     22  C   UNL A   1      31.953  32.311  27.042  1.00  0.00     0.071 C 
ATOM     23  N   UNL A   1      34.057  32.155  28.443  1.00  0.00    -0.176 NA
BRANCH  23  24
ATOM     24  N   UNL A   1      33.802  33.274  29.178  1.00  0.00    -0.254 N 
ATOM     25  H   UNL A   1      33.365  33.116  30.047  1.00  0.00     0.193 HD
BRANCH  24  26
ATOM     26  C   UNL A   1      34.068  34.596  28.885  1.00  0.00     0.184 C 
ATOM     27  S   UNL A   1      33.277  35.981  29.356  1.00  0.00    -0.040 S 
BRANCH  26  28
ATOM     28  N   UNL A   1      35.167  34.728  28.076  1.00  0.00    -0.375 N 
ATOM     29  H   UNL A   1      35.767  33.961  27.933  1.00  0.00     0.159 HD
ATOM     30  H   UNL A   1      35.355  35.589  27.639  1.00  0.00     0.159 HD
ENDBRANCH  26  28
ENDBRANCH  24  26
ENDBRANCH  23  24
ENDBRANCH  16  21
ENDBRANCH  10  15
ENDBRANCH   7   9
ENDBRANCH   6   7
ENDBRANCH   5   6
ENDBRANCH   4   5
ENDBRANCH   3   4
ENDBRANCH   2   3
ENDBRANCH   1   2
BRANCH   1  31
ATOM     31  O   UNL A   1      39.792  20.826  26.138  1.00  0.00    -0.377 OA
BRANCH  31  32
ATOM     32  C   UNL A   1      40.542  19.613  26.126  1.00  0.00     0.188 C 
BRANCH  32  33
ATOM     33  C   UNL A   1      42.080  19.638  26.334  1.00  0.00     0.188 C 
BRANCH  33  34
ATOM     34  O   UNL A   1      42.811  20.407  25.392  1.00  0.00    -0.376 OA
BRANCH  34  35
ATOM     35  C   UNL A   1      43.752  21.399  25.755  1.00  0.00     0.202 C 
BRANCH  35  36
ATOM     36  C   UNL A   1      43.981  22.569  24.807  1.00  0.00     0.261 C 
BRANCH  36  37
ATOM     37  O   UNL A   1      42.864  23.423  24.683  1.00  0.00    -0.460 OA
BRANCH  37  38
ATOM     38  C   UNL A   1      42.358  23.841  25.861  1.00  0.00     0.338 C 
ATOM     39  O   UNL A   1      41.485  23.312  26.518  1.00  0.00    -0.246 OA
BRANCH  38  40
ATOM     40  C   UNL A   1      42.932  25.156  26.142  1.00  0.00     0.060 A 
ATOM     41  C   UNL A   1      43.802  25.215  27.226  1.00  0.00     0.016 A 
ATOM     42  C   UNL A   1      42.260  26.280  25.639  1.00  0.00     0.016 A 
ATOM     43  C   UNL A   1      43.766  26.350  27.997  1.00  0.00     0.010 A 
ATOM     44  C   UNL A   1      42.193  27.392  26.429  1.00  0.00     0.010 A 
ATOM     45  C   UNL A   1      42.871  27.367  27.643  1.00  0.00    -0.014 A 
BRANCH  45  46
ATOM     46  C   UNL A   1      42.772  28.514  28.509  1.00  0.00     0.031 A 
ATOM     47  C   UNL A   1      43.647  29.597  28.030  1.00  0.00     0.074 A 
ATOM     48  C   UNL A   1      41.913  28.583  29.542  1.00  0.00     0.049 A 
ATOM     49  N   UNL A   1      44.817  29.898  28.485  1.00  0.00    -0.248 NA
ATOM     50  C   UNL A   1      43.329  30.215  26.730  1.00  0.00     0.031 C 
ATOM     51  C   UNL A   1      40.834  27.658  29.900  1.00  0.00     0.029 A 
ATOM     52  N   UNL A   1      41.763  29.582  30.446  1.00  0.00    -0.354 N 
ATOM     53  C   UNL A   1      45.240  30.954  27.695  1.00  0.00     0.074 A 
ATOM     54  C   UNL A   1      44.450  30.895  26.494  1.00  0.00     0.031 C 
ATOM     55  C   UNL A   1      40.001  28.269  30.777  1.00  0.00     0.029 A 
ATOM     56  C   UNL A   1      40.557  29.564  31.136  1.00  0.00     0.049 A 
ATOM     57  H   UNL A   1      42.454  30.266  30.601  1.00  0.00     0.167 HD
ATOM     58  C   UNL A   1      45.912  32.000  28.248  1.00  0.00     0.031 A 
ATOM     59  C   UNL A   1      40.042  30.585  31.875  1.00  0.00     0.031 A 
ATOM     60  C   UNL A   1      46.418  31.663  29.558  1.00  0.00     0.049 A 
ATOM     61  C   UNL A   1      41.169  31.502  32.192  1.00  0.00     0.074 A 
ATOM     62  C   UNL A   1      47.248  30.680  30.057  1.00  0.00     0.029 A 
ATOM     63  N   UNL A   1      45.711  32.154  30.632  1.00  0.00    -0.354 N 
ATOM     64  N   UNL A   1      42.155  31.177  32.980  1.00  0.00    -0.248 NA
ATOM     65  C   UNL A   1      41.451  32.584  31.260  1.00  0.00     0.031 C 
ATOM     66  C   UNL A   1      46.689  30.325  31.319  1.00  0.00     0.029 A 
ATOM     67  C   UNL A   1      45.598  31.162  31.567  1.00  0.00     0.049 A 
ATOM     68  H   UNL A   1      45.348  33.065  30.713  1.00  0.00     0.167 HD
ATOM     69  C   UNL A   1      43.288  31.674  32.353  1.00  0.00     0.074 A 
ATOM     70  C   UNL A   1      42.784  32.612  31.349  1.00  0.00     0.031 C 
ATOM     71  C   UNL A   1      44.501  31.061  32.505  1.00  0.00     0.031 A 
BRANCH  58  72
ATOM     72  C   UNL A   1      45.669  33.431  27.829  1.00  0.00    -0.014 A 
ATOM     73  C   UNL A   1      46.771  34.304  27.776  1.00  0.00     0.010 A 
ATOM     74  C   UNL A   1      44.386  34.019  27.765  1.00  0.00     0.010 A 
ATOM     75  C   UNL A   1      46.595  35.693  27.743  1.00  0.00     0.020 A 
ATOM     76  C   UNL A   1      44.199  35.397  27.685  1.00  0.00     0.020 A 
ATOM     77  C   UNL A   1      45.308  36.227  27.707  1.00  0.00     0.054 A 
BRANCH  77  78
ATOM     78  S   UNL A   1      45.088  38.019  27.738  1.00  0.00     0.124 S 
ATOM     79  O   UNL A   1      46.292  38.480  27.056  1.00  0.00    -0.237 OA
ATOM     80  O   UNL A   1      43.837  38.184  27.004  1.00  0.00    -0.237 OA
ATOM     81  O   UNL A   1      45.014  38.330  29.164  1.00  0.00    -0.744 OA
ENDBRANCH  77  78
ENDBRANCH  58  72
BRANCH  59  82
ATOM     82  C   UNL A   1      38.623  31.004  32.032  1.00  0.00    -0.014 A 
ATOM     83  C   UNL A   1      37.991  30.948  33.291  1.00  0.00     0.010 A 
ATOM     84  C   UNL A   1      37.984  31.745  31.018  1.00  0.00     0.010 A 
ATOM     85  C   UNL A   1      36.813  31.673  33.549  1.00  0.00     0.020 A 
ATOM     86  C   UNL A   1      36.806  32.463  31.263  1.00  0.00     0.020 A 
ATOM     87  C   UNL A   1      36.241  32.449  32.537  1.00  0.00     0.054 A 
BRANCH  87  88
ATOM     88  S   UNL A   1      34.843  33.546  32.927  1.00  0.00     0.124 S 
ATOM     89  O   UNL A   1      33.741  32.917  32.204  1.00  0.00    -0.237 OA
ATOM     90  O   UNL A   1      34.771  33.466  34.383  1.00  0.00    -0.237 OA
ATOM     91  O   UNL A   1      35.268  34.843  32.402  1.00  0.00    -0.744 OA
ENDBRANCH  87  88
ENDBRANCH  59  82
BRANCH  71  92
ATOM     92  C   UNL A   1      44.666  30.065  33.630  1.00  0.00    -0.014 A 
ATOM     93  C   UNL A   1      44.458  28.677  33.513  1.00  0.00     0.010 A 
ATOM     94  C   UNL A   1      45.173  30.566  34.842  1.00  0.00     0.010 A 
ATOM     95  C   UNL A   1      44.708  27.823  34.601  1.00  0.00     0.020 A 
ATOM     96  C   UNL A   1      45.444  29.722  35.917  1.00  0.00     0.020 A 
ATOM     97  C   UNL A   1      45.194  28.355  35.799  1.00  0.00     0.054 A 
BRANCH  97  98
ATOM     98  S   UNL A   1      45.513  27.258  37.208  1.00  0.00     0.124 S 
ATOM     99  O   UNL A   1      45.319  25.932  36.627  1.00  0.00    -0.237 OA
ATOM    100  O   UNL A   1      46.887  27.591  37.575  1.00  0.00    -0.237 OA
ATOM    101  O   UNL A   1      44.506  27.653  38.192  1.00  0.00    -0.744 OA
ENDBRANCH  97  98
ENDBRANCH  71  92
ENDBRANCH  45  46
ENDBRANCH  38  40
ENDBRANCH  37  38
ENDBRANCH  36  37
ENDBRANCH  35  36
ENDBRANCH  34  35
ENDBRANCH  33  34
ENDBRANCH  32  33
ENDBRANCH  31  32
ENDBRANCH   1  31
TORSDOF 28
ENDMDL
MODEL 3
REMARK VINA RESULT:      -8.4      3.734      9.706
REMARK SMILES C/C(=N\NC(N)=S)c1nnn(-c2ccc(C(=O)OCCOCCOCCOCCOC(=O)c3ccc(-c4c5nc(c(-c6ccc(S(=O)(=O)[O-])cc6)c6ccc([nH]6)c(-c6ccc(S(=O)(=O)[O-])cc6)c6nc(c(-c7ccc(S(=O)(=O)[O-])cc7)c7ccc4[nH]7)C=C6)C=C5)cc3)cc2)c1C
REMARK SMILES IDX 23 1 22 2 21 3 20 4 19 5 18 6 16 7 17 8 15 9 12 10 13 11
REMARK SMILES IDX 94 12 14 13 93 14 11 15 8 16 9 17 95 18 10 19 96 20 2 21
REMARK SMILES IDX 1 22 3 23 4 24 5 26 7 27 6 28 24 31 25 32 26 33 27 34 28 35
REMARK SMILES IDX 29 36 30 37 31 38 32 39 33 40 34 41 92 42 35 43 91 44 36 45
REMARK SMILES IDX 37 46 38 47 85 48 39 49 90 50 84 51 86 52 40 53 89 54 83 55
REMARK SMILES IDX 82 56 41 58 71 59 52 60 70 61 53 62 56 63 69 64 87 65 54 66
REMARK SMILES IDX 55 67 68 69 88 70 57 71 42 72 43 73 51 74 44 75 50 76 45 77
REMARK SMILES IDX 46 78 47 79 48 80 49 81 72 82 73 83 81 84 74 85 80 86 75 87
REMARK SMILES IDX 76 88 77 89 78 90 79 91 58 92 59 93 67 94 60 95 66 96 61 97
REMARK SMILES IDX 62 98 63 99 64 100 65 101
REMARK H PARENT 4 25 6 29 6 30 86 57 56 68
REMARK Flexibility Score: inf
ROOT
ATOM      1  C   UNL A   1      38.230  29.218  30.829  1.00  0.00     0.188 C 
ENDROOT
BRANCH   1   2
ATOM      2  C   UNL A   1      37.961  29.101  32.345  1.00  0.00     0.188 C 
BRANCH   2   3
ATOM      3  O   UNL A   1      37.777  30.250  33.157  1.00  0.00    -0.376 OA
BRANCH   3   4
ATOM      4  C   UNL A   1      38.844  31.023  33.673  1.00  0.00     0.202 C 
BRANCH   4   5
ATOM      5  C   UNL A   1      38.971  32.549  33.549  1.00  0.00     0.261 C 
BRANCH   5   6
ATOM      6  O   UNL A   1      38.144  33.193  32.590  1.00  0.00    -0.460 OA
BRANCH   6   7
ATOM      7  C   UNL A   1      38.598  33.176  31.319  1.00  0.00     0.338 C 
ATOM      8  O   UNL A   1      39.754  33.185  30.945  1.00  0.00    -0.246 OA
BRANCH   7   9
ATOM      9  C   UNL A   1      37.435  32.982  30.424  1.00  0.00     0.060 A 
ATOM     10  C   UNL A   1      35.320  32.349  28.769  1.00  0.00     0.067 A 
ATOM     11  C   UNL A   1      35.154  32.214  30.151  1.00  0.00     0.029 A 
ATOM     12  C   UNL A   1      36.461  32.953  28.227  1.00  0.00     0.029 A 
ATOM     13  C   UNL A   1      36.236  32.507  30.978  1.00  0.00     0.018 A 
ATOM     14  C   UNL A   1      37.523  33.276  29.061  1.00  0.00     0.018 A 
BRANCH  10  15
ATOM     15  N   UNL A   1      34.487  31.599  27.917  1.00  0.00    -0.217 N 
ATOM     16  C   UNL A   1      33.503  29.876  27.021  1.00  0.00     0.132 A 
ATOM     17  N   UNL A   1      32.615  30.919  27.057  1.00  0.00    -0.128 NA
ATOM     18  C   UNL A   1      34.700  30.270  27.581  1.00  0.00     0.071 A 
ATOM     19  N   UNL A   1      33.202  31.939  27.670  1.00  0.00    -0.061 NA
ATOM     20  C   UNL A   1      35.868  29.458  28.006  1.00  0.00     0.069 C 
BRANCH  16  21
ATOM     21  C   UNL A   1      33.101  28.514  26.728  1.00  0.00     0.087 C 
ATOM     22  C   UNL A   1      31.695  28.161  27.130  1.00  0.00     0.071 C 
ATOM     23  N   UNL A   1      33.999  27.769  26.157  1.00  0.00    -0.176 NA
BRANCH  23  24
ATOM     24  N   UNL A   1      33.756  26.485  25.769  1.00  0.00    -0.254 N 
ATOM     25  H   UNL A   1      33.651  25.836  26.503  1.00  0.00     0.193 HD
BRANCH  24  26
ATOM     26  C   UNL A   1      33.635  25.961  24.498  1.00  0.00     0.184 C 
ATOM     27  S   UNL A   1      34.057  24.464  23.909  1.00  0.00    -0.040 S 
BRANCH  26  28
ATOM     28  N   UNL A   1      33.074  26.858  23.628  1.00  0.00    -0.375 N 
ATOM     29  H   UNL A   1      32.453  26.546  22.931  1.00  0.00     0.159 HD
ATOM     30  H   UNL A   1      33.290  27.815  23.701  1.00  0.00     0.159 HD
ENDBRANCH  26  28
ENDBRANCH  24  26
ENDBRANCH  23  24
ENDBRANCH  16  21
ENDBRANCH  10  15
ENDBRANCH   7   9
ENDBRANCH   6   7
ENDBRANCH   5   6
ENDBRANCH   4   5
ENDBRANCH   3   4
ENDBRANCH   2   3
ENDBRANCH   1   2
BRANCH   1  31
ATOM     31  O   UNL A   1      38.213  27.984  30.135  1.00  0.00    -0.377 OA
BRANCH  31  32
ATOM     32  C   UNL A   1      39.385  27.636  29.400  1.00  0.00     0.188 C 
BRANCH  32  33
ATOM     33  C   UNL A   1      39.577  26.190  28.868  1.00  0.00     0.188 C 
BRANCH  33  34
ATOM     34  O   UNL A   1      39.276  25.999  27.495  1.00  0.00    -0.376 OA
BRANCH  34  35
ATOM     35  C   UNL A   1      39.947  25.066  26.669  1.00  0.00     0.202 C 
BRANCH  35  36
ATOM     36  C   UNL A   1      39.697  23.581  26.895  1.00  0.00     0.261 C 
BRANCH  36  37
ATOM     37  O   UNL A   1      40.852  22.865  27.277  1.00  0.00    -0.460 OA
BRANCH  37  38
ATOM     38  C   UNL A   1      41.471  22.237  26.257  1.00  0.00     0.338 C 
ATOM     39  O   UNL A   1      41.073  21.277  25.631  1.00  0.00    -0.246 OA
BRANCH  38  40
ATOM     40  C   UNL A   1      42.809  22.814  26.137  1.00  0.00     0.060 A 
ATOM     41  C   UNL A   1      43.629  22.673  27.252  1.00  0.00     0.016 A 
ATOM     42  C   UNL A   1      43.004  23.807  25.165  1.00  0.00     0.016 A 
ATOM     43  C   UNL A   1      44.466  23.718  27.550  1.00  0.00     0.010 A 
ATOM     44  C   UNL A   1      43.807  24.865  25.484  1.00  0.00     0.010 A 
ATOM     45  C   UNL A   1      44.448  24.844  26.719  1.00  0.00    -0.014 A 
BRANCH  45  46
ATOM     46  C   UNL A   1      45.260  25.975  27.090  1.00  0.00     0.031 A 
ATOM     47  C   UNL A   1      46.629  25.816  26.571  1.00  0.00     0.074 A 
ATOM     48  C   UNL A   1      44.773  27.051  27.733  1.00  0.00     0.049 A 
ATOM     49  N   UNL A   1      47.660  25.410  27.233  1.00  0.00    -0.248 NA
ATOM     50  C   UNL A   1      46.816  25.822  25.107  1.00  0.00     0.031 C 
ATOM     51  C   UNL A   1      43.377  27.386  28.030  1.00  0.00     0.029 A 
ATOM     52  N   UNL A   1      45.444  28.144  28.171  1.00  0.00    -0.354 N 
ATOM     53  C   UNL A   1      48.691  25.402  26.307  1.00  0.00     0.074 A 
ATOM     54  C   UNL A   1      48.064  25.367  25.012  1.00  0.00     0.031 C 
ATOM     55  C   UNL A   1      43.300  28.697  28.365  1.00  0.00     0.029 A 
ATOM     56  C   UNL A   1      44.643  29.250  28.431  1.00  0.00     0.049 A 
ATOM     57  H   UNL A   1      46.420  28.154  28.295  1.00  0.00     0.167 HD
ATOM     58  C   UNL A   1      49.937  25.815  26.664  1.00  0.00     0.031 A 
ATOM     59  C   UNL A   1      45.076  30.529  28.605  1.00  0.00     0.031 A 
ATOM     60  C   UNL A   1      50.085  25.855  28.100  1.00  0.00     0.049 A 
ATOM     61  C   UNL A   1      46.526  30.456  28.928  1.00  0.00     0.074 A 
ATOM     62  C   UNL A   1      49.943  24.935  29.119  1.00  0.00     0.029 A 
ATOM     63  N   UNL A   1      50.012  27.097  28.688  1.00  0.00    -0.354 N 
ATOM     64  N   UNL A   1      46.985  29.948  30.039  1.00  0.00    -0.248 NA
ATOM     65  C   UNL A   1      47.475  30.495  27.826  1.00  0.00     0.031 C 
ATOM     66  C   UNL A   1      49.355  25.659  30.196  1.00  0.00     0.029 A 
ATOM     67  C   UNL A   1      49.244  26.998  29.816  1.00  0.00     0.049 A 
ATOM     68  H   UNL A   1      50.441  27.917  28.353  1.00  0.00     0.167 HD
ATOM     69  C   UNL A   1      48.092  29.204  29.656  1.00  0.00     0.074 A 
ATOM     70  C   UNL A   1      48.400  29.654  28.298  1.00  0.00     0.031 C 
ATOM     71  C   UNL A   1      48.466  28.092  30.358  1.00  0.00     0.031 A 
BRANCH  58  72
ATOM     72  C   UNL A   1      50.808  26.642  25.747  1.00  0.00    -0.014 A 
ATOM     73  C   UNL A   1      50.363  27.928  25.389  1.00  0.00     0.010 A 
ATOM     74  C   UNL A   1      51.886  26.111  25.005  1.00  0.00     0.010 A 
ATOM     75  C   UNL A   1      50.914  28.608  24.296  1.00  0.00     0.020 A 
ATOM     76  C   UNL A   1      52.473  26.798  23.944  1.00  0.00     0.020 A 
ATOM     77  C   UNL A   1      51.960  28.031  23.577  1.00  0.00     0.054 A 
BRANCH  77  78
ATOM     78  S   UNL A   1      52.615  28.882  22.126  1.00  0.00     0.124 S 
ATOM     79  O   UNL A   1      54.036  28.562  22.208  1.00  0.00    -0.237 OA
ATOM     80  O   UNL A   1      51.879  28.241  21.040  1.00  0.00    -0.237 OA
ATOM     81  O   UNL A   1      52.269  30.281  22.365  1.00  0.00    -0.744 OA
ENDBRANCH  77  78
ENDBRANCH  58  72
BRANCH  59  82
ATOM     82  C   UNL A   1      44.432  31.802  28.180  1.00  0.00    -0.014 A 
ATOM     83  C   UNL A   1      43.816  32.647  29.126  1.00  0.00     0.010 A 
ATOM     84  C   UNL A   1      44.688  32.336  26.902  1.00  0.00     0.010 A 
ATOM     85  C   UNL A   1      43.545  33.996  28.831  1.00  0.00     0.020 A 
ATOM     86  C   UNL A   1      44.412  33.676  26.597  1.00  0.00     0.020 A 
ATOM     87  C   UNL A   1      43.870  34.509  27.573  1.00  0.00     0.054 A 
BRANCH  87  88
ATOM     88  S   UNL A   1      43.713  36.295  27.262  1.00  0.00     0.124 S 
ATOM     89  O   UNL A   1      42.632  36.348  26.283  1.00  0.00    -0.237 OA
ATOM     90  O   UNL A   1      43.393  36.822  28.587  1.00  0.00    -0.237 OA
ATOM     91  O   UNL A   1      45.031  36.672  26.753  1.00  0.00    -0.744 OA
ENDBRANCH  87  88
ENDBRANCH  59  82
BRANCH  71  92
ATOM     92  C   UNL A   1      47.891  27.888  31.741  1.00  0.00    -0.014 A 
ATOM     93  C   UNL A   1      48.442  28.411  32.927  1.00  0.00     0.010 A 
ATOM     94  C   UNL A   1      46.655  27.221  31.814  1.00  0.00     0.010 A 
ATOM     95  C   UNL A   1      47.792  28.226  34.159  1.00  0.00     0.020 A 
ATOM     96  C   UNL A   1      45.994  27.054  33.030  1.00  0.00     0.020 A 
ATOM     97  C   UNL A   1      46.573  27.541  34.201  1.00  0.00     0.054 A 
BRANCH  97  98
ATOM     98  S   UNL A   1      45.732  27.294  35.789  1.00  0.00     0.124 S 
ATOM     99  O   UNL A   1      44.537  26.548  35.402  1.00  0.00    -0.237 OA
ATOM    100  O   UNL A   1      46.718  26.548  36.566  1.00  0.00    -0.237 OA
ATOM    101  O   UNL A   1      45.482  28.654  36.265  1.00  0.00    -0.744 OA
ENDBRANCH  97  98
ENDBRANCH  71  92
ENDBRANCH  45  46
ENDBRANCH  38  40
ENDBRANCH  37  38
ENDBRANCH  36  37
ENDBRANCH  35  36
ENDBRANCH  34  35
ENDBRANCH  33  34
ENDBRANCH  32  33
ENDBRANCH  31  32
ENDBRANCH   1  31
TORSDOF 28
ENDMDL
