MODEL 1
REMARK VINA RESULT:      -9.5      0.000      0.000
REMARK SMILES O=C(Cn1nc(C(=O)OCCOCCOCCOCCOC(=O)c2ccc(-c3c4nc(c(-c5ccc(S(=O)(=O)[O-])cc5)c5ccc([nH]5)c(-c5ccc(S(=O)(=O)[O-])cc5)c5nc(c(-c6ccc(S(=O)(=O)[O-])cc6)c6ccc3[nH]6)C=C5)C=C4)cc2)c2ccccc2c1=O)Nc1ccc2c(c1)C(=O)c1ccccc1C2=O
REMARK SMILES IDX 15 1 14 2 13 3 12 4 11 5 10 6 9 7 7 8 8 9 6 10 4 11 5 12
REMARK SMILES IDX 90 13 89 14 91 15 84 16 88 17 85 18 87 19 86 20 3 21 2 22
REMARK SMILES IDX 1 23 92 24 93 26 94 27 98 28 95 29 97 30 96 31 99 32 107 33
REMARK SMILES IDX 100 34 101 35 106 36 108 37 102 38 105 39 103 40 104 41
REMARK SMILES IDX 16 42 17 43 18 44 19 45 20 46 21 47 22 48 23 49 24 50 25 51
REMARK SMILES IDX 83 52 26 53 82 54 27 55 28 56 29 57 76 58 30 59 81 60 75 61
REMARK SMILES IDX 77 62 31 63 80 64 74 65 73 66 32 68 62 69 43 70 61 71 44 72
REMARK SMILES IDX 47 73 60 74 78 75 45 76 46 77 59 79 79 80 48 81 33 82 34 83
REMARK SMILES IDX 42 84 35 85 41 86 36 87 37 88 38 89 39 90 40 91 63 92 64 93
REMARK SMILES IDX 72 94 65 95 71 96 66 97 67 98 68 99 69 100 70 101 49 102
REMARK SMILES IDX 50 103 58 104 51 105 57 106 52 107 53 108 54 109 55 110
REMARK SMILES IDX 56 111
REMARK H PARENT 92 25 77 67 47 78
REMARK Flexibility Score: inf
ROOT
ATOM      1  O   UNL A   1      40.400  26.492  28.693  1.00  0.00    -0.377 OA
ENDROOT
BRANCH   1   2
ATOM      2  C   UNL A   1      41.700  26.908  28.325  1.00  0.00     0.188 C 
BRANCH   2   3
ATOM      3  C   UNL A   1      42.843  26.188  29.071  1.00  0.00     0.188 C 
BRANCH   3   4
ATOM      4  O   UNL A   1      44.220  26.410  28.781  1.00  0.00    -0.376 OA
BRANCH   4   5
ATOM      5  C   UNL A   1      44.932  25.542  27.912  1.00  0.00     0.202 C 
BRANCH   5   6
ATOM      6  C   UNL A   1      44.696  25.691  26.406  1.00  0.00     0.261 C 
BRANCH   6   7
ATOM      7  O   UNL A   1      43.623  24.884  25.905  1.00  0.00    -0.458 OA
BRANCH   7   8
ATOM      8  C   UNL A   1      43.974  23.889  25.066  1.00  0.00     0.359 C 
ATOM      9  O   UNL A   1      44.808  23.906  24.189  1.00  0.00    -0.244 OA
BRANCH   8  10
ATOM     10  C   UNL A   1      43.253  22.602  25.469  1.00  0.00     0.176 A 
ATOM     11  N   UNL A   1      41.356  21.561  26.332  1.00  0.00    -0.219 N 
ATOM     12  N   UNL A   1      42.066  22.704  25.996  1.00  0.00    -0.161 NA
ATOM     13  C   UNL A   1      41.876  20.275  26.171  1.00  0.00     0.275 A 
ATOM     14  C   UNL A   1      43.239  20.171  25.615  1.00  0.00     0.051 A 
ATOM     15  O   UNL A   1      41.279  19.249  26.483  1.00  0.00    -0.267 OA
ATOM     16  C   UNL A   1      43.936  21.318  25.259  1.00  0.00     0.022 A 
ATOM     17  C   UNL A   1      43.845  18.914  25.477  1.00  0.00     0.014 A 
ATOM     18  C   UNL A   1      45.247  21.217  24.773  1.00  0.00     0.011 A 
ATOM     19  C   UNL A   1      45.153  18.815  25.004  1.00  0.00     0.001 A 
ATOM     20  C   UNL A   1      45.856  19.967  24.657  1.00  0.00     0.001 A 
BRANCH  11  21
ATOM     21  C   UNL A   1      40.008  21.685  26.949  1.00  0.00     0.248 C 
BRANCH  21  22
ATOM     22  C   UNL A   1      38.816  22.090  26.061  1.00  0.00     0.246 C 
ATOM     23  O   UNL A   1      38.413  23.245  25.978  1.00  0.00    -0.273 OA
ATOM     24  N   UNL A   1      38.396  21.039  25.291  1.00  0.00    -0.324 N 
ATOM     25  H   UNL A   1      39.025  20.288  25.195  1.00  0.00     0.169 HD
BRANCH  24  26
ATOM     26  C   UNL A   1      37.175  20.914  24.630  1.00  0.00     0.042 A 
ATOM     27  C   UNL A   1      36.302  19.887  24.971  1.00  0.00     0.027 A 
ATOM     28  C   UNL A   1      36.701  22.101  24.073  1.00  0.00     0.039 A 
ATOM     29  C   UNL A   1      34.928  20.148  24.949  1.00  0.00     0.015 A 
ATOM     30  C   UNL A   1      35.338  22.354  24.059  1.00  0.00     0.036 A 
ATOM     31  C   UNL A   1      34.460  21.421  24.598  1.00  0.00     0.034 A 
ATOM     32  C   UNL A   1      34.906  23.729  23.772  1.00  0.00     0.194 C 
ATOM     33  C   UNL A   1      33.158  21.892  25.122  1.00  0.00     0.194 C 
ATOM     34  O   UNL A   1      35.556  24.462  23.037  1.00  0.00    -0.289 OA
ATOM     35  C   UNL A   1      33.776  24.243  24.557  1.00  0.00     0.034 A 
ATOM     36  C   UNL A   1      32.950  23.355  25.241  1.00  0.00     0.034 A 
ATOM     37  O   UNL A   1      32.361  21.132  25.654  1.00  0.00    -0.289 OA
ATOM     38  C   UNL A   1      33.669  25.624  24.768  1.00  0.00     0.013 A 
ATOM     39  C   UNL A   1      32.029  23.846  26.170  1.00  0.00     0.013 A 
ATOM     40  C   UNL A   1      32.767  26.107  25.714  1.00  0.00     0.001 A 
ATOM     41  C   UNL A   1      31.954  25.218  26.420  1.00  0.00     0.001 A 
ENDBRANCH  24  26
ENDBRANCH  21  22
ENDBRANCH  11  21
ENDBRANCH   8  10
ENDBRANCH   7   8
ENDBRANCH   6   7
ENDBRANCH   5   6
ENDBRANCH   4   5
ENDBRANCH   3   4
ENDBRANCH   2   3
ENDBRANCH   1   2
BRANCH   1  42
ATOM     42  C   UNL A   1      39.778  27.272  29.707  1.00  0.00     0.188 C 
BRANCH  42  43
ATOM     43  C   UNL A   1      38.687  28.241  29.229  1.00  0.00     0.188 C 
BRANCH  43  44
ATOM     44  O   UNL A   1      37.752  28.544  30.272  1.00  0.00    -0.376 OA
BRANCH  44  45
ATOM     45  C   UNL A   1      38.175  28.193  31.589  1.00  0.00     0.202 C 
BRANCH  45  46
ATOM     46  C   UNL A   1      37.436  28.957  32.695  1.00  0.00     0.261 C 
BRANCH  46  47
ATOM     47  O   UNL A   1      37.329  30.378  32.502  1.00  0.00    -0.460 OA
BRANCH  47  48
ATOM     48  C   UNL A   1      37.998  31.194  33.350  1.00  0.00     0.338 C 
ATOM     49  O   UNL A   1      37.710  31.435  34.507  1.00  0.00    -0.246 OA
BRANCH  48  50
ATOM     50  C   UNL A   1      39.276  31.564  32.695  1.00  0.00     0.060 A 
ATOM     51  C   UNL A   1      39.311  31.967  31.356  1.00  0.00     0.016 A 
ATOM     52  C   UNL A   1      40.467  31.447  33.424  1.00  0.00     0.016 A 
ATOM     53  C   UNL A   1      40.535  32.270  30.753  1.00  0.00     0.010 A 
ATOM     54  C   UNL A   1      41.692  31.736  32.814  1.00  0.00     0.010 A 
ATOM     55  C   UNL A   1      41.734  32.167  31.479  1.00  0.00    -0.014 A 
BRANCH  55  56
ATOM     56  C   UNL A   1      42.995  32.693  30.899  1.00  0.00     0.031 A 
ATOM     57  C   UNL A   1      43.945  31.835  30.116  1.00  0.00     0.074 A 
ATOM     58  C   UNL A   1      43.265  34.002  31.076  1.00  0.00     0.049 A 
ATOM     59  N   UNL A   1      45.047  32.194  29.509  1.00  0.00    -0.248 NA
ATOM     60  C   UNL A   1      43.627  30.405  29.989  1.00  0.00     0.031 C 
ATOM     61  C   UNL A   1      42.407  34.941  31.801  1.00  0.00     0.029 A 
ATOM     62  N   UNL A   1      44.318  34.772  30.648  1.00  0.00    -0.354 N 
ATOM     63  C   UNL A   1      45.545  31.046  28.904  1.00  0.00     0.074 A 
ATOM     64  C   UNL A   1      44.643  29.969  29.250  1.00  0.00     0.031 C 
ATOM     65  C   UNL A   1      42.956  36.164  31.748  1.00  0.00     0.029 A 
ATOM     66  C   UNL A   1      44.214  36.094  31.007  1.00  0.00     0.049 A 
ATOM     67  H   UNL A   1      45.076  34.411  30.134  1.00  0.00     0.167 HD
ATOM     68  C   UNL A   1      46.644  30.918  28.124  1.00  0.00     0.031 A 
ATOM     69  C   UNL A   1      45.024  37.144  30.766  1.00  0.00     0.031 A 
ATOM     70  C   UNL A   1      47.559  31.982  27.815  1.00  0.00     0.049 A 
ATOM     71  C   UNL A   1      46.260  36.956  29.935  1.00  0.00     0.074 A 
ATOM     72  C   UNL A   1      48.729  31.901  27.077  1.00  0.00     0.029 A 
ATOM     73  N   UNL A   1      47.423  33.299  28.212  1.00  0.00    -0.354 N 
ATOM     74  N   UNL A   1      46.695  35.865  29.356  1.00  0.00    -0.248 NA
ATOM     75  C   UNL A   1      47.108  38.136  29.711  1.00  0.00     0.031 C 
ATOM     76  C   UNL A   1      49.311  33.168  27.041  1.00  0.00     0.029 A 
ATOM     77  C   UNL A   1      48.486  34.042  27.729  1.00  0.00     0.049 A 
ATOM     78  H   UNL A   1      46.682  33.655  28.754  1.00  0.00     0.167 HD
ATOM     79  C   UNL A   1      47.851  36.232  28.678  1.00  0.00     0.074 A 
ATOM     80  C   UNL A   1      48.049  37.645  28.911  1.00  0.00     0.031 C 
ATOM     81  C   UNL A   1      48.669  35.455  27.931  1.00  0.00     0.031 A 
BRANCH  68  82
ATOM     82  C   UNL A   1      46.961  29.589  27.504  1.00  0.00    -0.014 A 
ATOM     83  C   UNL A   1      47.781  28.672  28.182  1.00  0.00     0.010 A 
ATOM     84  C   UNL A   1      46.623  29.353  26.160  1.00  0.00     0.010 A 
ATOM     85  C   UNL A   1      48.250  27.527  27.530  1.00  0.00     0.020 A 
ATOM     86  C   UNL A   1      47.087  28.207  25.507  1.00  0.00     0.020 A 
ATOM     87  C   UNL A   1      47.899  27.300  26.197  1.00  0.00     0.054 A 
BRANCH  87  88
ATOM     88  S   UNL A   1      48.439  25.787  25.359  1.00  0.00     0.124 S 
ATOM     89  O   UNL A   1      47.540  25.729  24.210  1.00  0.00    -0.237 OA
ATOM     90  O   UNL A   1      49.844  26.046  25.047  1.00  0.00    -0.237 OA
ATOM     91  O   UNL A   1      48.226  24.762  26.379  1.00  0.00    -0.744 OA
ENDBRANCH  87  88
ENDBRANCH  68  82
BRANCH  69  92
ATOM     92  C   UNL A   1      44.637  38.482  31.283  1.00  0.00    -0.014 A 
ATOM     93  C   UNL A   1      45.099  38.918  32.539  1.00  0.00     0.010 A 
ATOM     94  C   UNL A   1      43.728  39.279  30.569  1.00  0.00     0.010 A 
ATOM     95  C   UNL A   1      44.619  40.106  33.094  1.00  0.00     0.020 A 
ATOM     96  C   UNL A   1      43.264  40.481  31.110  1.00  0.00     0.020 A 
ATOM     97  C   UNL A   1      43.691  40.871  32.382  1.00  0.00     0.054 A 
BRANCH  97  98
ATOM     98  S   UNL A   1      43.035  42.380  33.146  1.00  0.00     0.124 S 
ATOM     99  O   UNL A   1      41.902  41.860  33.907  1.00  0.00    -0.237 OA
ATOM    100  O   UNL A   1      44.165  42.852  33.942  1.00  0.00    -0.237 OA
ATOM    101  O   UNL A   1      42.690  43.219  32.002  1.00  0.00    -0.744 OA
ENDBRANCH  97  98
ENDBRANCH  69  92
BRANCH  81 102
ATOM    102  C   UNL A   1      49.869  36.074  27.270  1.00  0.00    -0.014 A 
ATOM    103  C   UNL A   1      49.808  36.415  25.906  1.00  0.00     0.010 A 
ATOM    104  C   UNL A   1      51.106  36.117  27.936  1.00  0.00     0.010 A 
ATOM    105  C   UNL A   1      50.972  36.738  25.204  1.00  0.00     0.020 A 
ATOM    106  C   UNL A   1      52.269  36.461  27.243  1.00  0.00     0.020 A 
ATOM    107  C   UNL A   1      52.198  36.739  25.874  1.00  0.00     0.054 A 
BRANCH 107 108
ATOM    108  S   UNL A   1      53.711  37.080  24.931  1.00  0.00     0.124 S 
ATOM    109  O   UNL A   1      53.932  35.815  24.237  1.00  0.00    -0.237 OA
ATOM    110  O   UNL A   1      53.316  38.204  24.085  1.00  0.00    -0.237 OA
ATOM    111  O   UNL A   1      54.692  37.403  25.966  1.00  0.00    -0.744 OA
ENDBRANCH 107 108
ENDBRANCH  81 102
ENDBRANCH  55  56
ENDBRANCH  48  50
ENDBRANCH  47  48
ENDBRANCH  46  47
ENDBRANCH  45  46
ENDBRANCH  44  45
ENDBRANCH  43  44
ENDBRANCH  42  43
ENDBRANCH   1  42
TORSDOF 26
ENDMDL
MODEL 2
REMARK VINA RESULT:      -9.3      5.259      9.709
REMARK SMILES O=C(Cn1nc(C(=O)OCCOCCOCCOCCOC(=O)c2ccc(-c3c4nc(c(-c5ccc(S(=O)(=O)[O-])cc5)c5ccc([nH]5)c(-c5ccc(S(=O)(=O)[O-])cc5)c5nc(c(-c6ccc(S(=O)(=O)[O-])cc6)c6ccc3[nH]6)C=C5)C=C4)cc2)c2ccccc2c1=O)Nc1ccc2c(c1)C(=O)c1ccccc1C2=O
REMARK SMILES IDX 15 1 14 2 13 3 12 4 11 5 10 6 9 7 7 8 8 9 6 10 4 11 5 12
REMARK SMILES IDX 90 13 89 14 91 15 84 16 88 17 85 18 87 19 86 20 3 21 2 22
REMARK SMILES IDX 1 23 92 24 93 26 94 27 98 28 95 29 97 30 96 31 99 32 107 33
REMARK SMILES IDX 100 34 101 35 106 36 108 37 102 38 105 39 103 40 104 41
REMARK SMILES IDX 16 42 17 43 18 44 19 45 20 46 21 47 22 48 23 49 24 50 25 51
REMARK SMILES IDX 83 52 26 53 82 54 27 55 28 56 29 57 76 58 30 59 81 60 75 61
REMARK SMILES IDX 77 62 31 63 80 64 74 65 73 66 32 68 62 69 43 70 61 71 44 72
REMARK SMILES IDX 47 73 60 74 78 75 45 76 46 77 59 79 79 80 48 81 33 82 34 83
REMARK SMILES IDX 42 84 35 85 41 86 36 87 37 88 38 89 39 90 40 91 63 92 64 93
REMARK SMILES IDX 72 94 65 95 71 96 66 97 67 98 68 99 69 100 70 101 49 102
REMARK SMILES IDX 50 103 58 104 51 105 57 106 52 107 53 108 54 109 55 110
REMARK SMILES IDX 56 111
REMARK H PARENT 92 25 77 67 47 78
REMARK Flexibility Score: inf
ROOT
ATOM      1  O   UNL A   1      45.547  23.516  35.834  1.00  0.00    -0.377 OA
ENDROOT
BRANCH   1   2
ATOM      2  C   UNL A   1      44.792  23.811  34.676  1.00  0.00     0.188 C 
BRANCH   2   3
ATOM      3  C   UNL A   1      45.068  25.200  34.063  1.00  0.00     0.188 C 
BRANCH   3   4
ATOM      4  O   UNL A   1      45.574  25.380  32.743  1.00  0.00    -0.376 OA
BRANCH   4   5
ATOM      5  C   UNL A   1      44.799  25.020  31.609  1.00  0.00     0.202 C 
BRANCH   5   6
ATOM      6  C   UNL A   1      45.491  25.031  30.243  1.00  0.00     0.261 C 
BRANCH   6   7
ATOM      7  O   UNL A   1      45.098  26.123  29.403  1.00  0.00    -0.458 OA
BRANCH   7   8
ATOM      8  C   UNL A   1      44.862  25.821  28.111  1.00  0.00     0.359 C 
ATOM      9  O   UNL A   1      45.661  25.523  27.252  1.00  0.00    -0.244 OA
BRANCH   8  10
ATOM     10  C   UNL A   1      43.354  25.747  27.869  1.00  0.00     0.176 A 
ATOM     11  N   UNL A   1      41.392  24.491  27.849  1.00  0.00    -0.219 N 
ATOM     12  N   UNL A   1      42.766  24.593  28.010  1.00  0.00    -0.161 NA
ATOM     13  C   UNL A   1      40.591  25.577  27.492  1.00  0.00     0.275 A 
ATOM     14  C   UNL A   1      41.272  26.871  27.291  1.00  0.00     0.051 A 
ATOM     15  O   UNL A   1      39.377  25.509  27.319  1.00  0.00    -0.267 OA
ATOM     16  C   UNL A   1      42.644  26.973  27.476  1.00  0.00     0.022 A 
ATOM     17  C   UNL A   1      40.537  27.992  26.879  1.00  0.00     0.014 A 
ATOM     18  C   UNL A   1      43.293  28.193  27.241  1.00  0.00     0.011 A 
ATOM     19  C   UNL A   1      41.185  29.203  26.634  1.00  0.00     0.001 A 
ATOM     20  C   UNL A   1      42.563  29.302  26.810  1.00  0.00     0.001 A 
BRANCH  11  21
ATOM     21  C   UNL A   1      40.729  23.167  27.994  1.00  0.00     0.248 C 
BRANCH  21  22
ATOM     22  C   UNL A   1      40.175  22.469  26.738  1.00  0.00     0.246 C 
ATOM     23  O   UNL A   1      40.888  21.857  25.950  1.00  0.00    -0.273 OA
ATOM     24  N   UNL A   1      38.807  22.501  26.719  1.00  0.00    -0.324 N 
ATOM     25  H   UNL A   1      38.363  22.702  27.575  1.00  0.00     0.169 HD
BRANCH  24  26
ATOM     26  C   UNL A   1      37.973  22.283  25.624  1.00  0.00     0.042 A 
ATOM     27  C   UNL A   1      37.709  20.984  25.200  1.00  0.00     0.027 A 
ATOM     28  C   UNL A   1      37.067  23.313  25.380  1.00  0.00     0.039 A 
ATOM     29  C   UNL A   1      36.429  20.690  24.719  1.00  0.00     0.015 A 
ATOM     30  C   UNL A   1      35.799  23.013  24.907  1.00  0.00     0.036 A 
ATOM     31  C   UNL A   1      35.446  21.688  24.680  1.00  0.00     0.034 A 
ATOM     32  C   UNL A   1      34.782  24.072  24.972  1.00  0.00     0.194 C 
ATOM     33  C   UNL A   1      34.016  21.310  24.764  1.00  0.00     0.194 C 
ATOM     34  O   UNL A   1      35.083  25.254  24.871  1.00  0.00    -0.289 OA
ATOM     35  C   UNL A   1      33.426  23.661  25.361  1.00  0.00     0.034 A 
ATOM     36  C   UNL A   1      33.067  22.317  25.294  1.00  0.00     0.034 A 
ATOM     37  O   UNL A   1      33.644  20.154  24.626  1.00  0.00    -0.289 OA
ATOM     38  C   UNL A   1      32.585  24.594  25.980  1.00  0.00     0.013 A 
ATOM     39  C   UNL A   1      31.870  21.893  25.880  1.00  0.00     0.013 A 
ATOM     40  C   UNL A   1      31.407  24.163  26.586  1.00  0.00     0.001 A 
ATOM     41  C   UNL A   1      31.055  22.813  26.543  1.00  0.00     0.001 A 
ENDBRANCH  24  26
ENDBRANCH  21  22
ENDBRANCH  11  21
ENDBRANCH   8  10
ENDBRANCH   7   8
ENDBRANCH   6   7
ENDBRANCH   5   6
ENDBRANCH   4   5
ENDBRANCH   3   4
ENDBRANCH   2   3
ENDBRANCH   1   2
BRANCH   1  42
ATOM     42  C   UNL A   1      45.039  24.064  37.045  1.00  0.00     0.188 C 
BRANCH  42  43
ATOM     43  C   UNL A   1      45.830  25.245  37.627  1.00  0.00     0.188 C 
BRANCH  43  44
ATOM     44  O   UNL A   1      46.022  25.111  39.040  1.00  0.00    -0.376 OA
BRANCH  44  45
ATOM     45  C   UNL A   1      45.036  25.751  39.851  1.00  0.00     0.202 C 
BRANCH  45  46
ATOM     46  C   UNL A   1      45.596  26.888  40.715  1.00  0.00     0.261 C 
BRANCH  46  47
ATOM     47  O   UNL A   1      45.027  28.187  40.475  1.00  0.00    -0.460 OA
BRANCH  47  48
ATOM     48  C   UNL A   1      45.860  29.201  40.141  1.00  0.00     0.338 C 
ATOM     49  O   UNL A   1      46.442  29.946  40.906  1.00  0.00    -0.246 OA
BRANCH  48  50
ATOM     50  C   UNL A   1      46.121  29.101  38.684  1.00  0.00     0.060 A 
ATOM     51  C   UNL A   1      47.391  29.361  38.159  1.00  0.00     0.016 A 
ATOM     52  C   UNL A   1      45.056  28.798  37.827  1.00  0.00     0.016 A 
ATOM     53  C   UNL A   1      47.598  29.299  36.778  1.00  0.00     0.010 A 
ATOM     54  C   UNL A   1      45.262  28.752  36.444  1.00  0.00     0.010 A 
ATOM     55  C   UNL A   1      46.539  28.985  35.910  1.00  0.00    -0.014 A 
BRANCH  55  56
ATOM     56  C   UNL A   1      46.815  28.714  34.477  1.00  0.00     0.031 A 
ATOM     57  C   UNL A   1      46.249  29.555  33.371  1.00  0.00     0.074 A 
ATOM     58  C   UNL A   1      47.628  27.679  34.183  1.00  0.00     0.049 A 
ATOM     59  N   UNL A   1      46.467  29.453  32.085  1.00  0.00    -0.248 NA
ATOM     60  C   UNL A   1      45.333  30.644  33.742  1.00  0.00     0.031 C 
ATOM     61  C   UNL A   1      48.255  26.802  35.174  1.00  0.00     0.029 A 
ATOM     62  N   UNL A   1      48.081  27.202  32.978  1.00  0.00    -0.354 N 
ATOM     63  C   UNL A   1      45.741  30.478  31.489  1.00  0.00     0.074 A 
ATOM     64  C   UNL A   1      45.044  31.167  32.554  1.00  0.00     0.031 C 
ATOM     65  C   UNL A   1      49.029  25.909  34.539  1.00  0.00     0.029 A 
ATOM     66  C   UNL A   1      48.936  26.133  33.098  1.00  0.00     0.049 A 
ATOM     67  H   UNL A   1      47.817  27.588  32.112  1.00  0.00     0.167 HD
ATOM     68  C   UNL A   1      45.680  30.811  30.179  1.00  0.00     0.031 A 
ATOM     69  C   UNL A   1      49.588  25.412  32.163  1.00  0.00     0.031 A 
ATOM     70  C   UNL A   1      46.342  30.101  29.120  1.00  0.00     0.049 A 
ATOM     71  C   UNL A   1      49.461  25.781  30.714  1.00  0.00     0.074 A 
ATOM     72  C   UNL A   1      46.270  30.355  27.760  1.00  0.00     0.029 A 
ATOM     73  N   UNL A   1      47.185  29.017  29.284  1.00  0.00    -0.354 N 
ATOM     74  N   UNL A   1      48.786  26.769  30.181  1.00  0.00    -0.248 NA
ATOM     75  C   UNL A   1      50.189  24.955  29.740  1.00  0.00     0.031 C 
ATOM     76  C   UNL A   1      47.056  29.412  27.099  1.00  0.00     0.029 A 
ATOM     77  C   UNL A   1      47.643  28.594  28.049  1.00  0.00     0.049 A 
ATOM     78  H   UNL A   1      47.422  28.609  30.148  1.00  0.00     0.167 HD
ATOM     79  C   UNL A   1      49.029  26.699  28.814  1.00  0.00     0.074 A 
ATOM     80  C   UNL A   1      49.917  25.577  28.599  1.00  0.00     0.031 C 
ATOM     81  C   UNL A   1      48.552  27.499  27.834  1.00  0.00     0.031 A 
BRANCH  68  82
ATOM     82  C   UNL A   1      44.886  32.013  29.756  1.00  0.00    -0.014 A 
ATOM     83  C   UNL A   1      43.529  31.879  29.419  1.00  0.00     0.010 A 
ATOM     84  C   UNL A   1      45.550  33.223  29.486  1.00  0.00     0.010 A 
ATOM     85  C   UNL A   1      42.839  32.943  28.829  1.00  0.00     0.020 A 
ATOM     86  C   UNL A   1      44.861  34.289  28.900  1.00  0.00     0.020 A 
ATOM     87  C   UNL A   1      43.509  34.141  28.574  1.00  0.00     0.054 A 
BRANCH  87  88
ATOM     88  S   UNL A   1      42.612  35.553  27.875  1.00  0.00     0.124 S 
ATOM     89  O   UNL A   1      43.403  36.687  28.344  1.00  0.00    -0.237 OA
ATOM     90  O   UNL A   1      42.654  35.310  26.434  1.00  0.00    -0.237 OA
ATOM     91  O   UNL A   1      41.286  35.418  28.474  1.00  0.00    -0.744 OA
ENDBRANCH  87  88
ENDBRANCH  68  82
BRANCH  69  92
ATOM     92  C   UNL A   1      50.468  24.299  32.603  1.00  0.00    -0.014 A 
ATOM     93  C   UNL A   1      49.912  23.128  33.152  1.00  0.00     0.010 A 
ATOM     94  C   UNL A   1      51.864  24.446  32.566  1.00  0.00     0.010 A 
ATOM     95  C   UNL A   1      50.737  22.146  33.702  1.00  0.00     0.020 A 
ATOM     96  C   UNL A   1      52.694  23.453  33.093  1.00  0.00     0.020 A 
ATOM     97  C   UNL A   1      52.123  22.323  33.685  1.00  0.00     0.054 A 
BRANCH  97  98
ATOM     98  S   UNL A   1      53.174  21.064  34.458  1.00  0.00     0.124 S 
ATOM     99  O   UNL A   1      54.511  21.544  34.121  1.00  0.00    -0.237 OA
ATOM    100  O   UNL A   1      52.806  21.162  35.867  1.00  0.00    -0.237 OA
ATOM    101  O   UNL A   1      52.767  19.827  33.796  1.00  0.00    -0.744 OA
ENDBRANCH  97  98
ENDBRANCH  69  92
BRANCH  81 102
ATOM    102  C   UNL A   1      48.964  27.244  26.410  1.00  0.00    -0.014 A 
ATOM    103  C   UNL A   1      50.065  27.939  25.875  1.00  0.00     0.010 A 
ATOM    104  C   UNL A   1      48.141  26.491  25.555  1.00  0.00     0.010 A 
ATOM    105  C   UNL A   1      50.307  27.927  24.499  1.00  0.00     0.020 A 
ATOM    106  C   UNL A   1      48.394  26.459  24.181  1.00  0.00     0.020 A 
ATOM    107  C   UNL A   1      49.456  27.203  23.659  1.00  0.00     0.054 A 
BRANCH 107 108
ATOM    108  S   UNL A   1      49.735  27.265  21.867  1.00  0.00     0.124 S 
ATOM    109  O   UNL A   1      51.160  26.966  21.766  1.00  0.00    -0.237 OA
ATOM    110  O   UNL A   1      48.836  26.228  21.366  1.00  0.00    -0.237 OA
ATOM    111  O   UNL A   1      49.356  28.631  21.510  1.00  0.00    -0.744 OA
ENDBRANCH 107 108
ENDBRANCH  81 102
ENDBRANCH  55  56
ENDBRANCH  48  50
ENDBRANCH  47  48
ENDBRANCH  46  47
ENDBRANCH  45  46
ENDBRANCH  44  45
ENDBRANCH  43  44
ENDBRANCH  42  43
ENDBRANCH   1  42
TORSDOF 26
ENDMDL
MODEL 3
REMARK VINA RESULT:      -9.3      5.185     13.612
REMARK SMILES O=C(Cn1nc(C(=O)OCCOCCOCCOCCOC(=O)c2ccc(-c3c4nc(c(-c5ccc(S(=O)(=O)[O-])cc5)c5ccc([nH]5)c(-c5ccc(S(=O)(=O)[O-])cc5)c5nc(c(-c6ccc(S(=O)(=O)[O-])cc6)c6ccc3[nH]6)C=C5)C=C4)cc2)c2ccccc2c1=O)Nc1ccc2c(c1)C(=O)c1ccccc1C2=O
REMARK SMILES IDX 15 1 14 2 13 3 12 4 11 5 10 6 9 7 7 8 8 9 6 10 4 11 5 12
REMARK SMILES IDX 90 13 89 14 91 15 84 16 88 17 85 18 87 19 86 20 3 21 2 22
REMARK SMILES IDX 1 23 92 24 93 26 94 27 98 28 95 29 97 30 96 31 99 32 107 33
REMARK SMILES IDX 100 34 101 35 106 36 108 37 102 38 105 39 103 40 104 41
REMARK SMILES IDX 16 42 17 43 18 44 19 45 20 46 21 47 22 48 23 49 24 50 25 51
REMARK SMILES IDX 83 52 26 53 82 54 27 55 28 56 29 57 76 58 30 59 81 60 75 61
REMARK SMILES IDX 77 62 31 63 80 64 74 65 73 66 32 68 62 69 43 70 61 71 44 72
REMARK SMILES IDX 47 73 60 74 78 75 45 76 46 77 59 79 79 80 48 81 33 82 34 83
REMARK SMILES IDX 42 84 35 85 41 86 36 87 37 88 38 89 39 90 40 91 63 92 64 93
REMARK SMILES IDX 72 94 65 95 71 96 66 97 67 98 68 99 69 100 70 101 49 102
REMARK SMILES IDX 50 103 58 104 51 105 57 106 52 107 53 108 54 109 55 110
REMARK SMILES IDX 56 111
REMARK H PARENT 92 25 77 67 47 78
REMARK Flexibility Score: inf
ROOT
ATOM      1  O   UNL A   1      45.948  26.922  30.081  1.00  0.00    -0.377 OA
ENDROOT
BRANCH   1   2
ATOM      2  C   UNL A   1      47.158  26.462  29.513  1.00  0.00     0.188 C 
BRANCH   2   3
ATOM      3  C   UNL A   1      47.910  27.508  28.664  1.00  0.00     0.188 C 
BRANCH   3   4
ATOM      4  O   UNL A   1      47.336  28.140  27.522  1.00  0.00    -0.376 OA
BRANCH   4   5
ATOM      5  C   UNL A   1      46.575  29.331  27.653  1.00  0.00     0.202 C 
BRANCH   5   6
ATOM      6  C   UNL A   1      46.913  30.497  26.719  1.00  0.00     0.261 C 
BRANCH   6   7
ATOM      7  O   UNL A   1      47.458  31.639  27.391  1.00  0.00    -0.458 OA
BRANCH   7   8
ATOM      8  C   UNL A   1      48.469  32.269  26.760  1.00  0.00     0.359 C 
ATOM      9  O   UNL A   1      49.518  31.805  26.375  1.00  0.00    -0.244 OA
BRANCH   8  10
ATOM     10  C   UNL A   1      48.052  33.704  26.433  1.00  0.00     0.176 A 
ATOM     11  N   UNL A   1      46.443  35.385  26.517  1.00  0.00    -0.219 N 
ATOM     12  N   UNL A   1      46.846  34.079  26.750  1.00  0.00    -0.161 NA
ATOM     13  C   UNL A   1      47.266  36.331  25.904  1.00  0.00     0.275 A 
ATOM     14  C   UNL A   1      48.616  35.885  25.507  1.00  0.00     0.051 A 
ATOM     15  O   UNL A   1      46.925  37.486  25.663  1.00  0.00    -0.267 OA
ATOM     16  C   UNL A   1      49.023  34.582  25.765  1.00  0.00     0.022 A 
ATOM     17  C   UNL A   1      49.477  36.767  24.839  1.00  0.00     0.014 A 
ATOM     18  C   UNL A   1      50.289  34.150  25.347  1.00  0.00     0.011 A 
ATOM     19  C   UNL A   1      50.732  36.333  24.413  1.00  0.00     0.001 A 
ATOM     20  C   UNL A   1      51.136  35.023  24.662  1.00  0.00     0.001 A 
BRANCH  11  21
ATOM     21  C   UNL A   1      45.058  35.802  26.865  1.00  0.00     0.248 C 
BRANCH  21  22
ATOM     22  C   UNL A   1      44.423  35.266  28.162  1.00  0.00     0.246 C 
ATOM     23  O   UNL A   1      44.256  35.963  29.157  1.00  0.00    -0.273 OA
ATOM     24  N   UNL A   1      43.948  33.994  27.988  1.00  0.00    -0.324 N 
ATOM     25  H   UNL A   1      43.826  33.696  27.057  1.00  0.00     0.169 HD
BRANCH  24  26
ATOM     26  C   UNL A   1      43.620  33.073  28.982  1.00  0.00     0.042 A 
ATOM     27  C   UNL A   1      44.595  32.220  29.489  1.00  0.00     0.027 A 
ATOM     28  C   UNL A   1      42.512  33.429  29.750  1.00  0.00     0.039 A 
ATOM     29  C   UNL A   1      44.556  31.901  30.850  1.00  0.00     0.015 A 
ATOM     30  C   UNL A   1      42.484  33.113  31.099  1.00  0.00     0.036 A 
ATOM     31  C   UNL A   1      43.559  32.443  31.671  1.00  0.00     0.034 A 
ATOM     32  C   UNL A   1      41.471  33.780  31.931  1.00  0.00     0.194 C 
ATOM     33  C   UNL A   1      43.820  32.626  33.117  1.00  0.00     0.194 C 
ATOM     34  O   UNL A   1      40.384  34.107  31.473  1.00  0.00    -0.289 OA
ATOM     35  C   UNL A   1      41.897  34.209  33.269  1.00  0.00     0.034 A 
ATOM     36  C   UNL A   1      43.055  33.676  33.829  1.00  0.00     0.034 A 
ATOM     37  O   UNL A   1      44.778  32.106  33.672  1.00  0.00    -0.289 OA
ATOM     38  C   UNL A   1      41.244  35.291  33.874  1.00  0.00     0.013 A 
ATOM     39  C   UNL A   1      43.587  34.249  34.988  1.00  0.00     0.013 A 
ATOM     40  C   UNL A   1      41.793  35.876  35.013  1.00  0.00     0.001 A 
ATOM     41  C   UNL A   1      42.968  35.361  35.565  1.00  0.00     0.001 A 
ENDBRANCH  24  26
ENDBRANCH  21  22
ENDBRANCH  11  21
ENDBRANCH   8  10
ENDBRANCH   7   8
ENDBRANCH   6   7
ENDBRANCH   5   6
ENDBRANCH   4   5
ENDBRANCH   3   4
ENDBRANCH   2   3
ENDBRANCH   1   2
BRANCH   1  42
ATOM     42  C   UNL A   1      44.764  26.401  29.489  1.00  0.00     0.188 C 
BRANCH  42  43
ATOM     43  C   UNL A   1      44.949  25.690  28.141  1.00  0.00     0.188 C 
BRANCH  43  44
ATOM     44  O   UNL A   1      43.839  25.915  27.264  1.00  0.00    -0.376 OA
BRANCH  44  45
ATOM     45  C   UNL A   1      43.345  24.755  26.597  1.00  0.00     0.202 C 
BRANCH  45  46
ATOM     46  C   UNL A   1      42.317  25.068  25.501  1.00  0.00     0.261 C 
BRANCH  46  47
ATOM     47  O   UNL A   1      41.384  26.119  25.808  1.00  0.00    -0.460 OA
BRANCH  47  48
ATOM     48  C   UNL A   1      40.264  25.802  26.499  1.00  0.00     0.338 C 
ATOM     49  O   UNL A   1      39.540  24.843  26.310  1.00  0.00    -0.246 OA
BRANCH  48  50
ATOM     50  C   UNL A   1      40.198  26.701  27.676  1.00  0.00     0.060 A 
ATOM     51  C   UNL A   1      39.426  26.369  28.795  1.00  0.00     0.016 A 
ATOM     52  C   UNL A   1      40.877  27.925  27.630  1.00  0.00     0.016 A 
ATOM     53  C   UNL A   1      39.349  27.255  29.874  1.00  0.00     0.010 A 
ATOM     54  C   UNL A   1      40.786  28.817  28.704  1.00  0.00     0.010 A 
ATOM     55  C   UNL A   1      40.036  28.481  29.842  1.00  0.00    -0.014 A 
BRANCH  55  56
ATOM     56  C   UNL A   1      40.122  29.311  31.069  1.00  0.00     0.031 A 
ATOM     57  C   UNL A   1      39.116  30.375  31.398  1.00  0.00     0.074 A 
ATOM     58  C   UNL A   1      41.138  29.065  31.920  1.00  0.00     0.049 A 
ATOM     59  N   UNL A   1      39.051  31.124  32.469  1.00  0.00    -0.248 NA
ATOM     60  C   UNL A   1      38.051  30.635  30.417  1.00  0.00     0.031 C 
ATOM     61  C   UNL A   1      42.166  28.042  31.719  1.00  0.00     0.029 A 
ATOM     62  N   UNL A   1      41.466  29.636  33.124  1.00  0.00    -0.354 N 
ATOM     63  C   UNL A   1      37.927  31.926  32.311  1.00  0.00     0.074 A 
ATOM     64  C   UNL A   1      37.361  31.598  31.020  1.00  0.00     0.031 C 
ATOM     65  C   UNL A   1      42.995  28.042  32.773  1.00  0.00     0.029 A 
ATOM     66  C   UNL A   1      42.575  29.078  33.714  1.00  0.00     0.049 A 
ATOM     67  H   UNL A   1      40.955  30.375  33.526  1.00  0.00     0.167 HD
ATOM     68  C   UNL A   1      37.417  32.835  33.174  1.00  0.00     0.031 A 
ATOM     69  C   UNL A   1      43.187  29.351  34.883  1.00  0.00     0.031 A 
ATOM     70  C   UNL A   1      38.003  33.185  34.438  1.00  0.00     0.049 A 
ATOM     71  C   UNL A   1      42.621  30.399  35.795  1.00  0.00     0.074 A 
ATOM     72  C   UNL A   1      37.564  34.147  35.334  1.00  0.00     0.029 A 
ATOM     73  N   UNL A   1      39.132  32.607  34.988  1.00  0.00    -0.354 N 
ATOM     74  N   UNL A   1      41.543  31.126  35.632  1.00  0.00    -0.248 NA
ATOM     75  C   UNL A   1      43.336  30.658  37.054  1.00  0.00     0.031 C 
ATOM     76  C   UNL A   1      38.439  34.163  36.419  1.00  0.00     0.029 A 
ATOM     77  C   UNL A   1      39.402  33.189  36.214  1.00  0.00     0.049 A 
ATOM     78  H   UNL A   1      39.662  31.890  34.570  1.00  0.00     0.167 HD
ATOM     79  C   UNL A   1      41.437  31.908  36.775  1.00  0.00     0.074 A 
ATOM     80  C   UNL A   1      42.554  31.565  37.628  1.00  0.00     0.031 C 
ATOM     81  C   UNL A   1      40.493  32.827  37.080  1.00  0.00     0.031 A 
BRANCH  68  82
ATOM     82  C   UNL A   1      36.138  33.543  32.833  1.00  0.00    -0.014 A 
ATOM     83  C   UNL A   1      36.163  34.703  32.041  1.00  0.00     0.010 A 
ATOM     84  C   UNL A   1      34.947  33.176  33.485  1.00  0.00     0.010 A 
ATOM     85  C   UNL A   1      35.011  35.482  31.892  1.00  0.00     0.020 A 
ATOM     86  C   UNL A   1      33.794  33.952  33.334  1.00  0.00     0.020 A 
ATOM     87  C   UNL A   1      33.834  35.102  32.538  1.00  0.00     0.054 A 
BRANCH  87  88
ATOM     88  S   UNL A   1      32.314  36.060  32.299  1.00  0.00     0.124 S 
ATOM     89  O   UNL A   1      31.276  35.055  32.505  1.00  0.00    -0.237 OA
ATOM     90  O   UNL A   1      32.396  37.099  33.325  1.00  0.00    -0.237 OA
ATOM     91  O   UNL A   1      32.457  36.550  30.929  1.00  0.00    -0.744 OA
ENDBRANCH  87  88
ENDBRANCH  68  82
BRANCH  69  92
ATOM     92  C   UNL A   1      44.384  28.559  35.266  1.00  0.00    -0.014 A 
ATOM     93  C   UNL A   1      44.244  27.382  36.026  1.00  0.00     0.010 A 
ATOM     94  C   UNL A   1      45.671  29.030  34.959  1.00  0.00     0.010 A 
ATOM     95  C   UNL A   1      45.371  26.719  36.515  1.00  0.00     0.020 A 
ATOM     96  C   UNL A   1      46.802  28.355  35.425  1.00  0.00     0.020 A 
ATOM     97  C   UNL A   1      46.643  27.220  36.225  1.00  0.00     0.054 A 
BRANCH  97  98
ATOM     98  S   UNL A   1      48.091  26.377  36.918  1.00  0.00     0.124 S 
ATOM     99  O   UNL A   1      48.866  26.080  35.716  1.00  0.00    -0.237 OA
ATOM    100  O   UNL A   1      48.660  27.392  37.800  1.00  0.00    -0.237 OA
ATOM    101  O   UNL A   1      47.519  25.217  37.596  1.00  0.00    -0.744 OA
ENDBRANCH  97  98
ENDBRANCH  69  92
BRANCH  81 102
ATOM    102  C   UNL A   1      40.569  33.552  38.395  1.00  0.00    -0.014 A 
ATOM    103  C   UNL A   1      41.267  34.771  38.473  1.00  0.00     0.010 A 
ATOM    104  C   UNL A   1      40.140  32.926  39.579  1.00  0.00     0.010 A 
ATOM    105  C   UNL A   1      41.582  35.329  39.714  1.00  0.00     0.020 A 
ATOM    106  C   UNL A   1      40.435  33.493  40.822  1.00  0.00     0.020 A 
ATOM    107  C   UNL A   1      41.180  34.674  40.882  1.00  0.00     0.054 A 
BRANCH 107 108
ATOM    108  S   UNL A   1      41.668  35.367  42.486  1.00  0.00     0.124 S 
ATOM    109  O   UNL A   1      42.581  36.436  42.095  1.00  0.00    -0.237 OA
ATOM    110  O   UNL A   1      40.392  35.801  43.050  1.00  0.00    -0.237 OA
ATOM    111  O   UNL A   1      42.289  34.235  43.172  1.00  0.00    -0.744 OA
ENDBRANCH 107 108
ENDBRANCH  81 102
ENDBRANCH  55  56
ENDBRANCH  48  50
ENDBRANCH  47  48
ENDBRANCH  46  47
ENDBRANCH  45  46
ENDBRANCH  44  45
ENDBRANCH  43  44
ENDBRANCH  42  43
ENDBRANCH   1  42
TORSDOF 26
ENDMDL
