MODEL 1
REMARK VINA RESULT:      -8.0      0.000      0.000
REMARK SMILES COc1cccc([C@H]2CC(c3ccc(S(C)(=O)=O)cc3)=NN2c2ccc(C(=O)OCCOCCOCCOCCOC(=O)c3ccc(-c4c5nc(c(-c6ccc(S(=O)(=O)[O-])cc6)c6ccc([nH]6)c(-c6ccc(S(=O)(=O)[O-])cc6)c6nc(c(-c7ccc(S(=O)(=O)[O-])cc7)c7ccc4[nH]7)C=C6)C=C5)cc3)cc2)c1
REMARK SMILES IDX 35 1 34 2 33 3 32 4 31 5 30 6 29 7 27 8 28 9 26 10 23 11
REMARK SMILES IDX 24 12 105 13 25 14 104 15 22 16 8 17 9 18 10 19 21 20 7 21
REMARK SMILES IDX 3 22 4 23 106 24 5 25 6 26 2 27 1 28 11 29 12 30 20 31 13 32
REMARK SMILES IDX 19 33 14 34 15 35 16 36 17 37 18 38 36 39 37 40 38 41 39 42
REMARK SMILES IDX 40 43 41 44 42 45 43 46 44 47 45 48 103 49 46 50 102 51
REMARK SMILES IDX 47 52 48 53 49 54 96 55 50 56 101 57 95 58 97 59 51 60
REMARK SMILES IDX 100 61 94 62 93 63 52 65 82 66 63 67 81 68 64 69 67 70 80 71
REMARK SMILES IDX 98 72 65 73 66 74 79 76 99 77 68 78 53 79 54 80 62 81 55 82
REMARK SMILES IDX 61 83 56 84 57 85 58 86 59 87 60 88 83 89 84 90 92 91 85 92
REMARK SMILES IDX 91 93 86 94 87 95 88 96 89 97 90 98 69 99 70 100 78 101
REMARK SMILES IDX 71 102 77 103 72 104 73 105 74 106 75 107 76 108
REMARK H PARENT 97 64 67 75
REMARK Flexibility Score: inf
ROOT
ATOM      1  O   UNL A   1      36.604  34.941  34.103  1.00  0.00    -0.377 OA
ENDROOT
BRANCH   1   2
ATOM      2  C   UNL A   1      36.508  33.778  34.913  1.00  0.00     0.188 C 
BRANCH   2   3
ATOM      3  C   UNL A   1      37.278  32.498  34.518  1.00  0.00     0.188 C 
BRANCH   3   4
ATOM      4  O   UNL A   1      36.547  31.611  33.691  1.00  0.00    -0.376 OA
BRANCH   4   5
ATOM      5  C   UNL A   1      36.969  31.399  32.357  1.00  0.00     0.202 C 
BRANCH   5   6
ATOM      6  C   UNL A   1      36.044  30.655  31.382  1.00  0.00     0.261 C 
BRANCH   6   7
ATOM      7  O   UNL A   1      36.428  29.319  31.039  1.00  0.00    -0.460 OA
BRANCH   7   8
ATOM      8  C   UNL A   1      37.491  28.800  31.692  1.00  0.00     0.338 C 
ATOM      9  O   UNL A   1      37.559  28.535  32.880  1.00  0.00    -0.246 OA
BRANCH   8  10
ATOM     10  C   UNL A   1      38.497  28.394  30.681  1.00  0.00     0.060 A 
ATOM     11  C   UNL A   1      40.341  27.627  28.700  1.00  0.00     0.060 A 
ATOM     12  C   UNL A   1      39.154  28.283  28.352  1.00  0.00     0.029 A 
ATOM     13  C   UNL A   1      40.625  27.440  30.063  1.00  0.00     0.029 A 
ATOM     14  C   UNL A   1      38.219  28.632  29.331  1.00  0.00     0.018 A 
ATOM     15  C   UNL A   1      39.722  27.838  31.053  1.00  0.00     0.018 A 
BRANCH  11  16
ATOM     16  N   UNL A   1      41.172  27.088  27.720  1.00  0.00    -0.257 N 
ATOM     17  C   UNL A   1      42.059  27.939  26.922  1.00  0.00     0.144 C 
ATOM     18  C   UNL A   1      42.890  26.918  26.142  1.00  0.00     0.091 C 
ATOM     19  C   UNL A   1      42.396  25.641  26.765  1.00  0.00     0.071 C 
ATOM     20  N   UNL A   1      41.463  25.759  27.658  1.00  0.00    -0.176 NA
BRANCH  17  21
ATOM     21  C   UNL A   1      42.914  28.864  27.784  1.00  0.00    -0.019 A 
ATOM     22  C   UNL A   1      44.921  29.335  29.087  1.00  0.00     0.119 A 
ATOM     23  C   UNL A   1      44.398  30.574  29.449  1.00  0.00     0.046 A 
ATOM     24  C   UNL A   1      44.172  28.474  28.280  1.00  0.00     0.052 A 
ATOM     25  C   UNL A   1      43.148  30.972  28.979  1.00  0.00     0.004 A 
ATOM     26  C   UNL A   1      42.412  30.124  28.149  1.00  0.00     0.006 A 
BRANCH  22  27
ATOM     27  O   UNL A   1      46.137  29.020  29.628  1.00  0.00    -0.497 OA
ATOM     28  C   UNL A   1      46.068  28.472  30.941  1.00  0.00     0.278 C 
ENDBRANCH  22  27
ENDBRANCH  17  21
BRANCH  19  29
ATOM     29  C   UNL A   1      42.928  24.351  26.310  1.00  0.00    -0.002 A 
ATOM     30  C   UNL A   1      43.078  24.125  24.938  1.00  0.00     0.011 A 
ATOM     31  C   UNL A   1      43.328  23.390  27.243  1.00  0.00     0.011 A 
ATOM     32  C   UNL A   1      43.656  22.934  24.491  1.00  0.00     0.021 A 
ATOM     33  C   UNL A   1      43.882  22.188  26.797  1.00  0.00     0.021 A 
ATOM     34  C   UNL A   1      44.047  21.968  25.425  1.00  0.00     0.067 A 
BRANCH  34  35
ATOM     35  S   UNL A   1      44.807  20.464  24.856  1.00  0.00     0.175 S 
ATOM     36  C   UNL A   1      43.772  19.171  25.487  1.00  0.00     0.163 C 
ATOM     37  O   UNL A   1      44.711  20.465  23.409  1.00  0.00    -0.224 OA
ATOM     38  O   UNL A   1      46.096  20.347  25.516  1.00  0.00    -0.224 OA
ENDBRANCH  34  35
ENDBRANCH  19  29
ENDBRANCH  11  16
ENDBRANCH   8  10
ENDBRANCH   7   8
ENDBRANCH   6   7
ENDBRANCH   5   6
ENDBRANCH   4   5
ENDBRANCH   3   4
ENDBRANCH   2   3
ENDBRANCH   1   2
BRANCH   1  39
ATOM     39  C   UNL A   1      35.956  34.993  32.836  1.00  0.00     0.188 C 
BRANCH  39  40
ATOM     40  C   UNL A   1      34.606  34.277  32.589  1.00  0.00     0.188 C 
BRANCH  40  41
ATOM     41  O   UNL A   1      33.525  35.144  32.291  1.00  0.00    -0.376 OA
BRANCH  41  42
ATOM     42  C   UNL A   1      33.429  35.653  30.976  1.00  0.00     0.202 C 
BRANCH  42  43
ATOM     43  C   UNL A   1      33.486  34.647  29.819  1.00  0.00     0.261 C 
BRANCH  43  44
ATOM     44  O   UNL A   1      34.694  34.624  29.047  1.00  0.00    -0.460 OA
BRANCH  44  45
ATOM     45  C   UNL A   1      35.203  33.417  28.719  1.00  0.00     0.338 C 
ATOM     46  O   UNL A   1      34.632  32.514  28.129  1.00  0.00    -0.246 OA
BRANCH  45  47
ATOM     47  C   UNL A   1      36.643  33.445  29.041  1.00  0.00     0.060 A 
ATOM     48  C   UNL A   1      37.451  32.352  28.698  1.00  0.00     0.016 A 
ATOM     49  C   UNL A   1      37.194  34.565  29.667  1.00  0.00     0.016 A 
ATOM     50  C   UNL A   1      38.812  32.365  29.010  1.00  0.00     0.010 A 
ATOM     51  C   UNL A   1      38.549  34.568  29.999  1.00  0.00     0.010 A 
ATOM     52  C   UNL A   1      39.357  33.455  29.703  1.00  0.00    -0.014 A 
BRANCH  52  53
ATOM     53  C   UNL A   1      40.707  33.360  30.307  1.00  0.00     0.031 A 
ATOM     54  C   UNL A   1      41.768  34.307  29.811  1.00  0.00     0.074 A 
ATOM     55  C   UNL A   1      40.995  32.454  31.257  1.00  0.00     0.049 A 
ATOM     56  N   UNL A   1      43.040  34.353  30.102  1.00  0.00    -0.248 NA
ATOM     57  C   UNL A   1      41.330  35.336  28.852  1.00  0.00     0.031 C 
ATOM     58  C   UNL A   1      40.043  31.519  31.855  1.00  0.00     0.029 A 
ATOM     59  N   UNL A   1      42.186  32.163  31.874  1.00  0.00    -0.354 N 
ATOM     60  C   UNL A   1      43.560  35.400  29.349  1.00  0.00     0.074 A 
ATOM     61  C   UNL A   1      42.471  35.946  28.571  1.00  0.00     0.031 C 
ATOM     62  C   UNL A   1      40.692  30.747  32.744  1.00  0.00     0.029 A 
ATOM     63  C   UNL A   1      42.112  31.102  32.745  1.00  0.00     0.049 A 
ATOM     64  H   UNL A   1      43.016  32.666  31.708  1.00  0.00     0.167 HD
ATOM     65  C   UNL A   1      44.830  35.866  29.311  1.00  0.00     0.031 A 
ATOM     66  C   UNL A   1      43.082  30.471  33.436  1.00  0.00     0.031 A 
ATOM     67  C   UNL A   1      45.913  35.306  30.074  1.00  0.00     0.049 A 
ATOM     68  C   UNL A   1      44.507  30.953  33.314  1.00  0.00     0.074 A 
ATOM     69  C   UNL A   1      47.235  35.711  30.116  1.00  0.00     0.029 A 
ATOM     70  N   UNL A   1      45.801  34.215  30.923  1.00  0.00    -0.354 N 
ATOM     71  N   UNL A   1      44.983  31.954  32.611  1.00  0.00    -0.248 NA
ATOM     72  C   UNL A   1      45.525  30.222  34.083  1.00  0.00     0.031 C 
ATOM     73  C   UNL A   1      47.936  34.823  30.937  1.00  0.00     0.029 A 
ATOM     74  C   UNL A   1      47.036  33.914  31.470  1.00  0.00     0.049 A 
ATOM     75  H   UNL A   1      44.967  33.727  31.109  1.00  0.00     0.167 HD
ATOM     76  C   UNL A   1      46.348  31.997  32.884  1.00  0.00     0.074 A 
ATOM     77  C   UNL A   1      46.618  30.926  33.821  1.00  0.00     0.031 C 
ATOM     78  C   UNL A   1      47.290  32.849  32.408  1.00  0.00     0.031 A 
BRANCH  65  79
ATOM     79  C   UNL A   1      45.124  37.012  28.378  1.00  0.00    -0.014 A 
ATOM     80  C   UNL A   1      45.772  36.806  27.146  1.00  0.00     0.010 A 
ATOM     81  C   UNL A   1      44.715  38.313  28.726  1.00  0.00     0.010 A 
ATOM     82  C   UNL A   1      46.038  37.885  26.298  1.00  0.00     0.020 A 
ATOM     83  C   UNL A   1      44.950  39.389  27.867  1.00  0.00     0.020 A 
ATOM     84  C   UNL A   1      45.625  39.171  26.665  1.00  0.00     0.054 A 
BRANCH  84  85
ATOM     85  S   UNL A   1      45.961  40.546  25.533  1.00  0.00     0.124 S 
ATOM     86  O   UNL A   1      46.681  39.878  24.451  1.00  0.00    -0.237 OA
ATOM     87  O   UNL A   1      44.620  41.018  25.197  1.00  0.00    -0.237 OA
ATOM     88  O   UNL A   1      46.761  41.469  26.334  1.00  0.00    -0.744 OA
ENDBRANCH  84  85
ENDBRANCH  65  79
BRANCH  66  89
ATOM     89  C   UNL A   1      42.748  29.297  34.292  1.00  0.00    -0.014 A 
ATOM     90  C   UNL A   1      42.641  28.009  33.738  1.00  0.00     0.010 A 
ATOM     91  C   UNL A   1      42.527  29.465  35.672  1.00  0.00     0.010 A 
ATOM     92  C   UNL A   1      42.305  26.916  34.543  1.00  0.00     0.020 A 
ATOM     93  C   UNL A   1      42.222  28.371  36.486  1.00  0.00     0.020 A 
ATOM     94  C   UNL A   1      42.102  27.103  35.913  1.00  0.00     0.054 A 
BRANCH  94  95
ATOM     95  S   UNL A   1      41.720  25.660  36.945  1.00  0.00     0.124 S 
ATOM     96  O   UNL A   1      42.938  25.520  37.736  1.00  0.00    -0.237 OA
ATOM     97  O   UNL A   1      40.536  26.102  37.677  1.00  0.00    -0.237 OA
ATOM     98  O   UNL A   1      41.481  24.596  35.971  1.00  0.00    -0.744 OA
ENDBRANCH  94  95
ENDBRANCH  66  89
BRANCH  78  99
ATOM     99  C   UNL A   1      48.697  32.702  32.930  1.00  0.00    -0.014 A 
ATOM    100  C   UNL A   1      49.113  33.327  34.119  1.00  0.00     0.010 A 
ATOM    101  C   UNL A   1      49.598  31.862  32.247  1.00  0.00     0.010 A 
ATOM    102  C   UNL A   1      50.414  33.139  34.598  1.00  0.00     0.020 A 
ATOM    103  C   UNL A   1      50.886  31.645  32.740  1.00  0.00     0.020 A 
ATOM    104  C   UNL A   1      51.290  32.296  33.907  1.00  0.00     0.054 A 
BRANCH 104 105
ATOM    105  S   UNL A   1      52.956  32.030  34.577  1.00  0.00     0.124 S 
ATOM    106  O   UNL A   1      53.740  31.811  33.366  1.00  0.00    -0.237 OA
ATOM    107  O   UNL A   1      53.220  33.284  35.280  1.00  0.00    -0.237 OA
ATOM    108  O   UNL A   1      52.801  30.860  35.440  1.00  0.00    -0.744 OA
ENDBRANCH 104 105
ENDBRANCH  78  99
ENDBRANCH  52  53
ENDBRANCH  45  47
ENDBRANCH  44  45
ENDBRANCH  43  44
ENDBRANCH  42  43
ENDBRANCH  41  42
ENDBRANCH  40  41
ENDBRANCH  39  40
ENDBRANCH   1  39
TORSDOF 28
ENDMDL
MODEL 2
REMARK VINA RESULT:      -6.8      3.889      4.807
REMARK SMILES COc1cccc([C@H]2CC(c3ccc(S(C)(=O)=O)cc3)=NN2c2ccc(C(=O)OCCOCCOCCOCCOC(=O)c3ccc(-c4c5nc(c(-c6ccc(S(=O)(=O)[O-])cc6)c6ccc([nH]6)c(-c6ccc(S(=O)(=O)[O-])cc6)c6nc(c(-c7ccc(S(=O)(=O)[O-])cc7)c7ccc4[nH]7)C=C6)C=C5)cc3)cc2)c1
REMARK SMILES IDX 35 1 34 2 33 3 32 4 31 5 30 6 29 7 27 8 28 9 26 10 23 11
REMARK SMILES IDX 24 12 105 13 25 14 104 15 22 16 8 17 9 18 10 19 21 20 7 21
REMARK SMILES IDX 3 22 4 23 106 24 5 25 6 26 2 27 1 28 11 29 12 30 20 31 13 32
REMARK SMILES IDX 19 33 14 34 15 35 16 36 17 37 18 38 36 39 37 40 38 41 39 42
REMARK SMILES IDX 40 43 41 44 42 45 43 46 44 47 45 48 103 49 46 50 102 51
REMARK SMILES IDX 47 52 48 53 49 54 96 55 50 56 101 57 95 58 97 59 51 60
REMARK SMILES IDX 100 61 94 62 93 63 52 65 82 66 63 67 81 68 64 69 67 70 80 71
REMARK SMILES IDX 98 72 65 73 66 74 79 76 99 77 68 78 53 79 54 80 62 81 55 82
REMARK SMILES IDX 61 83 56 84 57 85 58 86 59 87 60 88 83 89 84 90 92 91 85 92
REMARK SMILES IDX 91 93 86 94 87 95 88 96 89 97 90 98 69 99 70 100 78 101
REMARK SMILES IDX 71 102 77 103 72 104 73 105 74 106 75 107 76 108
REMARK H PARENT 97 64 67 75
REMARK Flexibility Score: inf
ROOT
ATOM      1  O   UNL A   1      36.681  34.209  33.703  1.00  0.00    -0.377 OA
ENDROOT
BRANCH   1   2
ATOM      2  C   UNL A   1      36.571  33.373  34.846  1.00  0.00     0.188 C 
BRANCH   2   3
ATOM      3  C   UNL A   1      37.675  32.337  35.151  1.00  0.00     0.188 C 
BRANCH   3   4
ATOM      4  O   UNL A   1      37.478  31.076  34.536  1.00  0.00    -0.376 OA
BRANCH   4   5
ATOM      5  C   UNL A   1      38.357  30.661  33.509  1.00  0.00     0.202 C 
BRANCH   5   6
ATOM      6  C   UNL A   1      38.115  29.315  32.807  1.00  0.00     0.261 C 
BRANCH   6   7
ATOM      7  O   UNL A   1      39.196  28.378  32.844  1.00  0.00    -0.460 OA
BRANCH   7   8
ATOM      8  C   UNL A   1      40.425  28.846  32.533  1.00  0.00     0.338 C 
ATOM      9  O   UNL A   1      41.161  29.499  33.252  1.00  0.00    -0.246 OA
BRANCH   8  10
ATOM     10  C   UNL A   1      40.831  28.244  31.240  1.00  0.00     0.060 A 
ATOM     11  C   UNL A   1      41.514  27.080  28.771  1.00  0.00     0.060 A 
ATOM     12  C   UNL A   1      40.203  27.506  29.020  1.00  0.00     0.029 A 
ATOM     13  C   UNL A   1      42.491  27.326  29.750  1.00  0.00     0.029 A 
ATOM     14  C   UNL A   1      39.853  28.051  30.258  1.00  0.00     0.018 A 
ATOM     15  C   UNL A   1      42.162  27.922  30.970  1.00  0.00     0.018 A 
BRANCH  11  16
ATOM     16  N   UNL A   1      41.821  26.345  27.628  1.00  0.00    -0.257 N 
ATOM     17  C   UNL A   1      42.079  27.007  26.345  1.00  0.00     0.144 C 
ATOM     18  C   UNL A   1      42.549  25.849  25.461  1.00  0.00     0.091 C 
ATOM     19  C   UNL A   1      42.600  24.741  26.477  1.00  0.00     0.071 C 
ATOM     20  N   UNL A   1      42.219  25.044  27.680  1.00  0.00    -0.176 NA
BRANCH  17  21
ATOM     21  C   UNL A   1      43.114  28.123  26.461  1.00  0.00    -0.019 A 
ATOM     22  C   UNL A   1      45.421  28.913  26.516  1.00  0.00     0.119 A 
ATOM     23  C   UNL A   1      44.974  30.205  26.779  1.00  0.00     0.046 A 
ATOM     24  C   UNL A   1      44.497  27.872  26.383  1.00  0.00     0.052 A 
ATOM     25  C   UNL A   1      43.609  30.470  26.873  1.00  0.00     0.004 A 
ATOM     26  C   UNL A   1      42.685  29.437  26.711  1.00  0.00     0.006 A 
BRANCH  22  27
ATOM     27  O   UNL A   1      46.778  28.746  26.479  1.00  0.00    -0.497 OA
ATOM     28  C   UNL A   1      47.259  27.690  27.304  1.00  0.00     0.278 C 
ENDBRANCH  22  27
ENDBRANCH  17  21
BRANCH  19  29
ATOM     29  C   UNL A   1      43.008  23.392  26.069  1.00  0.00    -0.002 A 
ATOM     30  C   UNL A   1      44.040  23.250  25.135  1.00  0.00     0.011 A 
ATOM     31  C   UNL A   1      42.409  22.272  26.651  1.00  0.00     0.011 A 
ATOM     32  C   UNL A   1      44.494  21.973  24.794  1.00  0.00     0.021 A 
ATOM     33  C   UNL A   1      42.845  20.994  26.293  1.00  0.00     0.021 A 
ATOM     34  C   UNL A   1      43.886  20.852  25.369  1.00  0.00     0.067 A 
BRANCH  34  35
ATOM     35  S   UNL A   1      44.485  19.228  24.955  1.00  0.00     0.175 S 
ATOM     36  C   UNL A   1      44.791  19.295  23.211  1.00  0.00     0.163 C 
ATOM     37  O   UNL A   1      45.753  19.061  25.639  1.00  0.00    -0.224 OA
ATOM     38  O   UNL A   1      43.395  18.292  25.168  1.00  0.00    -0.224 OA
ENDBRANCH  34  35
ENDBRANCH  19  29
ENDBRANCH  11  16
ENDBRANCH   8  10
ENDBRANCH   7   8
ENDBRANCH   6   7
ENDBRANCH   5   6
ENDBRANCH   4   5
ENDBRANCH   3   4
ENDBRANCH   2   3
ENDBRANCH   1   2
BRANCH   1  39
ATOM     39  C   UNL A   1      36.417  33.692  32.403  1.00  0.00     0.188 C 
BRANCH  39  40
ATOM     40  C   UNL A   1      35.204  32.770  32.132  1.00  0.00     0.188 C 
BRANCH  40  41
ATOM     41  O   UNL A   1      34.144  33.384  31.420  1.00  0.00    -0.376 OA
BRANCH  41  42
ATOM     42  C   UNL A   1      34.359  33.705  30.060  1.00  0.00     0.202 C 
BRANCH  42  43
ATOM     43  C   UNL A   1      34.976  32.622  29.164  1.00  0.00     0.261 C 
BRANCH  43  44
ATOM     44  O   UNL A   1      36.307  32.866  28.688  1.00  0.00    -0.460 OA
BRANCH  44  45
ATOM     45  C   UNL A   1      37.231  31.903  28.895  1.00  0.00     0.338 C 
ATOM     46  O   UNL A   1      37.176  30.740  28.528  1.00  0.00    -0.246 OA
BRANCH  45  47
ATOM     47  C   UNL A   1      38.415  32.552  29.492  1.00  0.00     0.060 A 
ATOM     48  C   UNL A   1      39.383  31.768  30.134  1.00  0.00     0.016 A 
ATOM     49  C   UNL A   1      38.572  33.936  29.397  1.00  0.00     0.016 A 
ATOM     50  C   UNL A   1      40.500  32.374  30.712  1.00  0.00     0.010 A 
ATOM     51  C   UNL A   1      39.677  34.543  29.994  1.00  0.00     0.010 A 
ATOM     52  C   UNL A   1      40.628  33.769  30.684  1.00  0.00    -0.014 A 
BRANCH  52  53
ATOM     53  C   UNL A   1      41.628  34.449  31.541  1.00  0.00     0.031 A 
ATOM     54  C   UNL A   1      42.939  34.846  30.915  1.00  0.00     0.074 A 
ATOM     55  C   UNL A   1      41.394  34.696  32.842  1.00  0.00     0.049 A 
ATOM     56  N   UNL A   1      44.005  35.352  31.473  1.00  0.00    -0.248 NA
ATOM     57  C   UNL A   1      43.060  34.635  29.462  1.00  0.00     0.031 C 
ATOM     58  C   UNL A   1      40.148  34.407  33.549  1.00  0.00     0.029 A 
ATOM     59  N   UNL A   1      42.210  35.236  33.803  1.00  0.00    -0.354 N 
ATOM     60  C   UNL A   1      44.931  35.503  30.447  1.00  0.00     0.074 A 
ATOM     61  C   UNL A   1      44.308  35.012  29.238  1.00  0.00     0.031 C 
ATOM     62  C   UNL A   1      40.288  34.760  34.839  1.00  0.00     0.029 A 
ATOM     63  C   UNL A   1      41.647  35.256  35.057  1.00  0.00     0.049 A 
ATOM     64  H   UNL A   1      43.115  35.575  33.614  1.00  0.00     0.167 HD
ATOM     65  C   UNL A   1      46.185  36.006  30.506  1.00  0.00     0.031 A 
ATOM     66  C   UNL A   1      42.178  35.605  36.247  1.00  0.00     0.031 A 
ATOM     67  C   UNL A   1      46.805  36.475  31.716  1.00  0.00     0.049 A 
ATOM     68  C   UNL A   1      43.608  36.084  36.304  1.00  0.00     0.074 A 
ATOM     69  C   UNL A   1      48.068  37.014  31.882  1.00  0.00     0.029 A 
ATOM     70  N   UNL A   1      46.211  36.454  32.969  1.00  0.00    -0.354 N 
ATOM     71  N   UNL A   1      44.468  36.237  35.324  1.00  0.00    -0.248 NA
ATOM     72  C   UNL A   1      44.137  36.443  37.628  1.00  0.00     0.031 C 
ATOM     73  C   UNL A   1      48.262  37.255  33.245  1.00  0.00     0.029 A 
ATOM     74  C   UNL A   1      47.092  36.942  33.918  1.00  0.00     0.049 A 
ATOM     75  H   UNL A   1      45.297  36.138  33.155  1.00  0.00     0.167 HD
ATOM     76  C   UNL A   1      45.625  36.746  35.908  1.00  0.00     0.074 A 
ATOM     77  C   UNL A   1      45.351  36.881  37.324  1.00  0.00     0.031 C 
ATOM     78  C   UNL A   1      46.804  37.078  35.324  1.00  0.00     0.031 A 
BRANCH  65  79
ATOM     79  C   UNL A   1      46.987  36.031  29.230  1.00  0.00    -0.014 A 
ATOM     80  C   UNL A   1      46.806  37.044  28.270  1.00  0.00     0.010 A 
ATOM     81  C   UNL A   1      47.962  35.042  29.004  1.00  0.00     0.010 A 
ATOM     82  C   UNL A   1      47.558  37.043  27.092  1.00  0.00     0.020 A 
ATOM     83  C   UNL A   1      48.739  35.057  27.843  1.00  0.00     0.020 A 
ATOM     84  C   UNL A   1      48.521  36.049  26.887  1.00  0.00     0.054 A 
BRANCH  84  85
ATOM     85  S   UNL A   1      49.500  36.091  25.361  1.00  0.00     0.124 S 
ATOM     86  O   UNL A   1      48.863  37.180  24.624  1.00  0.00    -0.237 OA
ATOM     87  O   UNL A   1      50.846  36.369  25.854  1.00  0.00    -0.237 OA
ATOM     88  O   UNL A   1      49.310  34.760  24.790  1.00  0.00    -0.744 OA
ENDBRANCH  84  85
ENDBRANCH  65  79
BRANCH  66  89
ATOM     89  C   UNL A   1      41.363  35.495  37.490  1.00  0.00    -0.014 A 
ATOM     90  C   UNL A   1      40.471  36.518  37.859  1.00  0.00     0.010 A 
ATOM     91  C   UNL A   1      41.481  34.363  38.318  1.00  0.00     0.010 A 
ATOM     92  C   UNL A   1      39.725  36.418  39.037  1.00  0.00     0.020 A 
ATOM     93  C   UNL A   1      40.715  34.245  39.481  1.00  0.00     0.020 A 
ATOM     94  C   UNL A   1      39.849  35.280  39.839  1.00  0.00     0.054 A 
BRANCH  94  95
ATOM     95  S   UNL A   1      38.831  35.150  41.336  1.00  0.00     0.124 S 
ATOM     96  O   UNL A   1      39.672  34.337  42.207  1.00  0.00    -0.237 OA
ATOM     97  O   UNL A   1      38.673  36.548  41.730  1.00  0.00    -0.237 OA
ATOM     98  O   UNL A   1      37.608  34.502  40.863  1.00  0.00    -0.744 OA
ENDBRANCH  94  95
ENDBRANCH  66  89
BRANCH  78  99
ATOM     99  C   UNL A   1      47.877  37.674  36.199  1.00  0.00    -0.014 A 
ATOM    100  C   UNL A   1      48.983  36.920  36.629  1.00  0.00     0.010 A 
ATOM    101  C   UNL A   1      47.807  39.040  36.537  1.00  0.00     0.010 A 
ATOM    102  C   UNL A   1      49.983  37.514  37.407  1.00  0.00     0.020 A 
ATOM    103  C   UNL A   1      48.819  39.644  37.285  1.00  0.00     0.020 A 
ATOM    104  C   UNL A   1      49.896  38.873  37.727  1.00  0.00     0.054 A 
BRANCH 104 105
ATOM    105  S   UNL A   1      51.231  39.629  38.695  1.00  0.00     0.124 S 
ATOM    106  O   UNL A   1      50.619  40.880  39.133  1.00  0.00    -0.237 OA
ATOM    107  O   UNL A   1      51.463  38.640  39.746  1.00  0.00    -0.237 OA
ATOM    108  O   UNL A   1      52.321  39.773  37.732  1.00  0.00    -0.744 OA
ENDBRANCH 104 105
ENDBRANCH  78  99
ENDBRANCH  52  53
ENDBRANCH  45  47
ENDBRANCH  44  45
ENDBRANCH  43  44
ENDBRANCH  42  43
ENDBRANCH  41  42
ENDBRANCH  40  41
ENDBRANCH  39  40
ENDBRANCH   1  39
TORSDOF 28
ENDMDL
MODEL 3
REMARK VINA RESULT:      -6.5      4.158     10.444
REMARK SMILES COc1cccc([C@H]2CC(c3ccc(S(C)(=O)=O)cc3)=NN2c2ccc(C(=O)OCCOCCOCCOCCOC(=O)c3ccc(-c4c5nc(c(-c6ccc(S(=O)(=O)[O-])cc6)c6ccc([nH]6)c(-c6ccc(S(=O)(=O)[O-])cc6)c6nc(c(-c7ccc(S(=O)(=O)[O-])cc7)c7ccc4[nH]7)C=C6)C=C5)cc3)cc2)c1
REMARK SMILES IDX 35 1 34 2 33 3 32 4 31 5 30 6 29 7 27 8 28 9 26 10 23 11
REMARK SMILES IDX 24 12 105 13 25 14 104 15 22 16 8 17 9 18 10 19 21 20 7 21
REMARK SMILES IDX 3 22 4 23 106 24 5 25 6 26 2 27 1 28 11 29 12 30 20 31 13 32
REMARK SMILES IDX 19 33 14 34 15 35 16 36 17 37 18 38 36 39 37 40 38 41 39 42
REMARK SMILES IDX 40 43 41 44 42 45 43 46 44 47 45 48 103 49 46 50 102 51
REMARK SMILES IDX 47 52 48 53 49 54 96 55 50 56 101 57 95 58 97 59 51 60
REMARK SMILES IDX 100 61 94 62 93 63 52 65 82 66 63 67 81 68 64 69 67 70 80 71
REMARK SMILES IDX 98 72 65 73 66 74 79 76 99 77 68 78 53 79 54 80 62 81 55 82
REMARK SMILES IDX 61 83 56 84 57 85 58 86 59 87 60 88 83 89 84 90 92 91 85 92
REMARK SMILES IDX 91 93 86 94 87 95 88 96 89 97 90 98 69 99 70 100 78 101
REMARK SMILES IDX 71 102 77 103 72 104 73 105 74 106 75 107 76 108
REMARK H PARENT 97 64 67 75
REMARK Flexibility Score: inf
ROOT
ATOM      1  O   UNL A   1      48.956  30.859  28.243  1.00  0.00    -0.377 OA
ENDROOT
BRANCH   1   2
ATOM      2  C   UNL A   1      48.271  29.617  28.327  1.00  0.00     0.188 C 
BRANCH   2   3
ATOM      3  C   UNL A   1      46.820  29.502  27.809  1.00  0.00     0.188 C 
BRANCH   3   4
ATOM      4  O   UNL A   1      46.711  29.383  26.403  1.00  0.00    -0.376 OA
BRANCH   4   5
ATOM      5  C   UNL A   1      47.064  28.164  25.779  1.00  0.00     0.202 C 
BRANCH   5   6
ATOM      6  C   UNL A   1      46.005  27.391  24.978  1.00  0.00     0.261 C 
BRANCH   6   7
ATOM      7  O   UNL A   1      44.643  27.776  25.192  1.00  0.00    -0.460 OA
BRANCH   7   8
ATOM      8  C   UNL A   1      43.952  27.091  26.131  1.00  0.00     0.338 C 
ATOM      9  O   UNL A   1      43.873  25.880  26.239  1.00  0.00    -0.246 OA
BRANCH   8  10
ATOM     10  C   UNL A   1      43.480  28.059  27.150  1.00  0.00     0.060 A 
ATOM     11  C   UNL A   1      42.586  29.830  29.145  1.00  0.00     0.060 A 
ATOM     12  C   UNL A   1      43.265  28.655  29.488  1.00  0.00     0.029 A 
ATOM     13  C   UNL A   1      42.440  30.142  27.783  1.00  0.00     0.029 A 
ATOM     14  C   UNL A   1      43.678  27.755  28.501  1.00  0.00     0.018 A 
ATOM     15  C   UNL A   1      42.900  29.276  26.787  1.00  0.00     0.018 A 
BRANCH  11  16
ATOM     16  N   UNL A   1      41.987  30.620  30.123  1.00  0.00    -0.257 N 
ATOM     17  C   UNL A   1      42.747  31.647  30.843  1.00  0.00     0.144 C 
ATOM     18  C   UNL A   1      41.660  32.363  31.649  1.00  0.00     0.091 C 
ATOM     19  C   UNL A   1      40.434  31.674  31.115  1.00  0.00     0.071 C 
ATOM     20  N   UNL A   1      40.635  30.729  30.249  1.00  0.00    -0.176 NA
BRANCH  17  21
ATOM     21  C   UNL A   1      43.500  32.583  29.901  1.00  0.00    -0.019 A 
ATOM     22  C   UNL A   1      43.589  34.509  28.407  1.00  0.00     0.119 A 
ATOM     23  C   UNL A   1      44.914  34.213  28.101  1.00  0.00     0.046 A 
ATOM     24  C   UNL A   1      42.877  33.684  29.283  1.00  0.00     0.052 A 
ATOM     25  C   UNL A   1      45.544  33.119  28.692  1.00  0.00     0.004 A 
ATOM     26  C   UNL A   1      44.842  32.312  29.589  1.00  0.00     0.006 A 
BRANCH  22  27
ATOM     27  O   UNL A   1      43.048  35.580  27.749  1.00  0.00    -0.497 OA
ATOM     28  C   UNL A   1      42.904  35.389  26.345  1.00  0.00     0.278 C 
ENDBRANCH  22  27
ENDBRANCH  17  21
BRANCH  19  29
ATOM     29  C   UNL A   1      39.107  32.044  31.621  1.00  0.00    -0.002 A 
ATOM     30  C   UNL A   1      38.994  33.131  32.494  1.00  0.00     0.011 A 
ATOM     31  C   UNL A   1      37.973  31.351  31.188  1.00  0.00     0.011 A 
ATOM     32  C   UNL A   1      37.731  33.546  32.923  1.00  0.00     0.021 A 
ATOM     33  C   UNL A   1      36.712  31.749  31.637  1.00  0.00     0.021 A 
ATOM     34  C   UNL A   1      36.597  32.845  32.498  1.00  0.00     0.067 A 
BRANCH  34  35
ATOM     35  S   UNL A   1      34.987  33.391  33.024  1.00  0.00     0.175 S 
ATOM     36  C   UNL A   1      34.942  35.114  32.609  1.00  0.00     0.163 C 
ATOM     37  O   UNL A   1      34.018  32.695  32.202  1.00  0.00    -0.224 OA
ATOM     38  O   UNL A   1      34.943  33.293  34.473  1.00  0.00    -0.224 OA
ENDBRANCH  34  35
ENDBRANCH  19  29
ENDBRANCH  11  16
ENDBRANCH   8  10
ENDBRANCH   7   8
ENDBRANCH   6   7
ENDBRANCH   5   6
ENDBRANCH   4   5
ENDBRANCH   3   4
ENDBRANCH   2   3
ENDBRANCH   1   2
BRANCH   1  39
ATOM     39  C   UNL A   1      49.535  31.280  27.012  1.00  0.00     0.188 C 
BRANCH  39  40
ATOM     40  C   UNL A   1      50.362  32.584  26.913  1.00  0.00     0.188 C 
BRANCH  40  41
ATOM     41  O   UNL A   1      51.538  32.598  27.703  1.00  0.00    -0.376 OA
BRANCH  41  42
ATOM     42  C   UNL A   1      52.632  33.370  27.248  1.00  0.00     0.202 C 
BRANCH  42  43
ATOM     43  C   UNL A   1      52.869  34.730  27.918  1.00  0.00     0.261 C 
BRANCH  43  44
ATOM     44  O   UNL A   1      51.766  35.288  28.645  1.00  0.00    -0.460 OA
BRANCH  44  45
ATOM     45  C   UNL A   1      51.900  35.417  29.983  1.00  0.00     0.338 C 
ATOM     46  O   UNL A   1      52.802  35.982  30.580  1.00  0.00    -0.246 OA
BRANCH  45  47
ATOM     47  C   UNL A   1      50.661  34.905  30.600  1.00  0.00     0.060 A 
ATOM     48  C   UNL A   1      49.523  34.707  29.806  1.00  0.00     0.016 A 
ATOM     49  C   UNL A   1      50.636  34.602  31.963  1.00  0.00     0.016 A 
ATOM     50  C   UNL A   1      48.343  34.235  30.384  1.00  0.00     0.010 A 
ATOM     51  C   UNL A   1      49.451  34.152  32.544  1.00  0.00     0.010 A 
ATOM     52  C   UNL A   1      48.290  33.998  31.764  1.00  0.00    -0.014 A 
BRANCH  52  53
ATOM     53  C   UNL A   1      46.986  33.794  32.442  1.00  0.00     0.031 A 
ATOM     54  C   UNL A   1      46.236  35.014  32.906  1.00  0.00     0.074 A 
ATOM     55  C   UNL A   1      46.486  32.565  32.655  1.00  0.00     0.049 A 
ATOM     56  N   UNL A   1      45.139  35.094  33.609  1.00  0.00    -0.248 NA
ATOM     57  C   UNL A   1      46.809  36.318  32.529  1.00  0.00     0.031 C 
ATOM     58  C   UNL A   1      47.091  31.312  32.208  1.00  0.00     0.029 A 
ATOM     59  N   UNL A   1      45.352  32.173  33.321  1.00  0.00    -0.354 N 
ATOM     60  C   UNL A   1      44.899  36.454  33.777  1.00  0.00     0.074 A 
ATOM     61  C   UNL A   1      45.978  37.159  33.123  1.00  0.00     0.031 C 
ATOM     62  C   UNL A   1      46.328  30.287  32.626  1.00  0.00     0.029 A 
ATOM     63  C   UNL A   1      45.208  30.808  33.408  1.00  0.00     0.049 A 
ATOM     64  H   UNL A   1      44.703  32.808  33.702  1.00  0.00     0.167 HD
ATOM     65  C   UNL A   1      43.871  37.059  34.416  1.00  0.00     0.031 A 
ATOM     66  C   UNL A   1      44.295  30.068  34.069  1.00  0.00     0.031 A 
ATOM     67  C   UNL A   1      42.811  36.350  35.081  1.00  0.00     0.049 A 
ATOM     68  C   UNL A   1      43.205  30.763  34.848  1.00  0.00     0.074 A 
ATOM     69  C   UNL A   1      41.717  36.869  35.749  1.00  0.00     0.029 A 
ATOM     70  N   UNL A   1      42.716  34.969  35.169  1.00  0.00    -0.354 N 
ATOM     71  N   UNL A   1      42.980  32.049  34.985  1.00  0.00    -0.248 NA
ATOM     72  C   UNL A   1      42.243  29.907  35.556  1.00  0.00     0.031 C 
ATOM     73  C   UNL A   1      40.998  35.805  36.299  1.00  0.00     0.029 A 
ATOM     74  C   UNL A   1      41.599  34.619  35.906  1.00  0.00     0.049 A 
ATOM     75  H   UNL A   1      43.351  34.333  34.767  1.00  0.00     0.167 HD
ATOM     76  C   UNL A   1      41.829  32.154  35.762  1.00  0.00     0.074 A 
ATOM     77  C   UNL A   1      41.402  30.802  36.057  1.00  0.00     0.031 C 
ATOM     78  C   UNL A   1      41.181  33.268  36.187  1.00  0.00     0.031 A 
BRANCH  65  79
ATOM     79  C   UNL A   1      43.872  38.565  34.466  1.00  0.00    -0.014 A 
ATOM     80  C   UNL A   1      44.430  39.263  35.552  1.00  0.00     0.010 A 
ATOM     81  C   UNL A   1      43.333  39.294  33.389  1.00  0.00     0.010 A 
ATOM     82  C   UNL A   1      44.414  40.660  35.578  1.00  0.00     0.020 A 
ATOM     83  C   UNL A   1      43.346  40.692  33.396  1.00  0.00     0.020 A 
ATOM     84  C   UNL A   1      43.872  41.366  34.499  1.00  0.00     0.054 A 
BRANCH  84  85
ATOM     85  S   UNL A   1      43.891  43.178  34.549  1.00  0.00     0.124 S 
ATOM     86  O   UNL A   1      44.852  43.440  35.618  1.00  0.00    -0.237 OA
ATOM     87  O   UNL A   1      44.337  43.530  33.203  1.00  0.00    -0.237 OA
ATOM     88  O   UNL A   1      42.507  43.532  34.856  1.00  0.00    -0.744 OA
ENDBRANCH  84  85
ENDBRANCH  65  79
BRANCH  66  89
ATOM     89  C   UNL A   1      44.380  28.580  34.045  1.00  0.00    -0.014 A 
ATOM     90  C   UNL A   1      45.087  27.883  35.042  1.00  0.00     0.010 A 
ATOM     91  C   UNL A   1      43.757  27.849  33.016  1.00  0.00     0.010 A 
ATOM     92  C   UNL A   1      45.182  26.489  35.001  1.00  0.00     0.020 A 
ATOM     93  C   UNL A   1      43.822  26.454  32.989  1.00  0.00     0.020 A 
ATOM     94  C   UNL A   1      44.545  25.782  33.977  1.00  0.00     0.054 A 
BRANCH  94  95
ATOM     95  S   UNL A   1      44.638  23.970  33.977  1.00  0.00     0.124 S 
ATOM     96  O   UNL A   1      44.544  23.660  32.554  1.00  0.00    -0.237 OA
ATOM     97  O   UNL A   1      45.938  23.722  34.596  1.00  0.00    -0.237 OA
ATOM     98  O   UNL A   1      43.486  23.568  34.782  1.00  0.00    -0.744 OA
ENDBRANCH  94  95
ENDBRANCH  66  89
BRANCH  78  99
ATOM     99  C   UNL A   1      39.907  33.082  36.971  1.00  0.00    -0.014 A 
ATOM    100  C   UNL A   1      38.672  32.867  36.334  1.00  0.00     0.010 A 
ATOM    101  C   UNL A   1      39.965  33.054  38.378  1.00  0.00     0.010 A 
ATOM    102  C   UNL A   1      37.514  32.659  37.091  1.00  0.00     0.020 A 
ATOM    103  C   UNL A   1      38.817  32.813  39.136  1.00  0.00     0.020 A 
ATOM    104  C   UNL A   1      37.595  32.629  38.487  1.00  0.00     0.054 A 
BRANCH 104 105
ATOM    105  S   UNL A   1      36.087  32.307  39.443  1.00  0.00     0.124 S 
ATOM    106  O   UNL A   1      36.028  30.848  39.437  1.00  0.00    -0.237 OA
ATOM    107  O   UNL A   1      36.392  32.920  40.734  1.00  0.00    -0.237 OA
ATOM    108  O   UNL A   1      35.039  32.976  38.675  1.00  0.00    -0.744 OA
ENDBRANCH 104 105
ENDBRANCH  78  99
ENDBRANCH  52  53
ENDBRANCH  45  47
ENDBRANCH  44  45
ENDBRANCH  43  44
ENDBRANCH  42  43
ENDBRANCH  41  42
ENDBRANCH  40  41
ENDBRANCH  39  40
ENDBRANCH   1  39
TORSDOF 28
ENDMDL
