MODEL 1
REMARK VINA RESULT:     -10.0      0.000      0.000
REMARK SMILES Cc1ccc(C[C@@H](Cc2cc(F)cc(Br)c2)C(=O)OCCOCCOCCOCCOC(=O)c2ccc(-c3c4nc(c(-c5ccc(S(=O)(=O)[O-])cc5)c5ccc([nH]5)c(-c5ccc(S(=O)(=O)[O-])cc5)c5nc(c(-c6ccc(S(=O)(=O)[O-])cc6)c6ccc3[nH]6)C=C5)C=C4)cc2)cc1
REMARK SMILES IDX 26 1 25 2 24 3 23 4 22 5 21 6 20 7 19 8 17 9 18 10 7 11 6 12
REMARK SMILES IDX 5 13 1 14 2 15 3 16 95 17 4 18 94 19 8 20 9 21 10 22 16 23
REMARK SMILES IDX 11 24 14 25 12 26 13 27 15 28 27 29 28 30 29 31 30 32 31 33
REMARK SMILES IDX 32 34 33 35 34 36 35 37 93 38 36 39 92 40 37 41 38 42 39 43
REMARK SMILES IDX 86 44 40 45 91 46 85 47 87 48 41 49 90 50 84 51 83 52 42 54
REMARK SMILES IDX 72 55 53 56 71 57 54 58 57 59 70 60 88 61 55 62 56 63 69 65
REMARK SMILES IDX 89 66 58 67 43 68 44 69 52 70 45 71 51 72 46 73 47 74 48 75
REMARK SMILES IDX 49 76 50 77 73 78 74 79 82 80 75 81 81 82 76 83 77 84 78 85
REMARK SMILES IDX 79 86 80 87 59 88 60 89 68 90 61 91 67 92 62 93 63 94 64 95
REMARK SMILES IDX 65 96 66 97
REMARK H PARENT 87 53 57 64
REMARK Flexibility Score: inf
ROOT
ATOM      1  C   UNL A   1      33.393  29.272  25.086  1.00  0.00     0.188 C 
ENDROOT
BRANCH   1   2
ATOM      2  O   UNL A   1      32.112  29.043  24.562  1.00  0.00    -0.377 OA
BRANCH   2   3
ATOM      3  C   UNL A   1      31.555  27.753  24.494  1.00  0.00     0.188 C 
BRANCH   3   4
ATOM      4  C   UNL A   1      30.949  27.079  25.727  1.00  0.00     0.188 C 
BRANCH   4   5
ATOM      5  O   UNL A   1      31.570  25.915  26.256  1.00  0.00    -0.376 OA
BRANCH   5   6
ATOM      6  C   UNL A   1      31.081  24.663  25.791  1.00  0.00     0.202 C 
BRANCH   6   7
ATOM      7  C   UNL A   1      31.868  23.995  24.661  1.00  0.00     0.261 C 
BRANCH   7   8
ATOM      8  O   UNL A   1      31.714  22.546  24.674  1.00  0.00    -0.463 OA
BRANCH   8   9
ATOM      9  C   UNL A   1      32.165  21.882  23.583  1.00  0.00     0.309 C 
ATOM     10  O   UNL A   1      32.199  22.376  22.460  1.00  0.00    -0.252 OA
BRANCH   9  11
ATOM     11  C   UNL A   1      32.619  20.438  23.830  1.00  0.00     0.108 C 
BRANCH  11  12
ATOM     12  C   UNL A   1      32.023  19.324  22.919  1.00  0.00     0.051 C 
BRANCH  12  13
ATOM     13  C   UNL A   1      32.516  17.997  23.476  1.00  0.00    -0.047 A 
ATOM     14  C   UNL A   1      35.549  15.743  25.439  1.00  0.00     0.044 C 
ATOM     15  C   UNL A   1      34.363  16.346  24.748  1.00  0.00    -0.051 A 
ATOM     16  C   UNL A   1      34.357  16.451  23.352  1.00  0.00     0.004 A 
ATOM     17  C   UNL A   1      33.327  16.931  25.486  1.00  0.00     0.004 A 
ATOM     18  C   UNL A   1      33.409  17.241  22.712  1.00  0.00     0.004 A 
ATOM     19  C   UNL A   1      32.392  17.745  24.850  1.00  0.00     0.004 A 
ENDBRANCH  12  13
ENDBRANCH  11  12
BRANCH  11  20
ATOM     20  C   UNL A   1      34.177  20.295  24.110  1.00  0.00     0.051 C 
BRANCH  20  21
ATOM     21  C   UNL A   1      34.840  21.304  25.007  1.00  0.00    -0.043 A 
ATOM     22  C   UNL A   1      35.694  22.354  24.623  1.00  0.00     0.043 A 
ATOM     23  C   UNL A   1      34.551  21.206  26.334  1.00  0.00     0.019 A 
ATOM     24  C   UNL A   1      36.047  23.367  25.539  1.00  0.00     0.124 A 
ATOM     25  C   UNL A   1      34.637  22.356  27.068  1.00  0.00     0.021 A 
ATOM     26  F   UNL A   1      36.876  24.352  25.172  1.00  0.00    -0.207 F 
ATOM     27  C   UNL A   1      35.436  23.431  26.765  1.00  0.00     0.055 A 
ATOM     28  Br  UNL A   1      33.066  22.540  27.971  1.00  0.00    -0.051 Br
ENDBRANCH  20  21
ENDBRANCH  11  20
ENDBRANCH   9  11
ENDBRANCH   8   9
ENDBRANCH   7   8
ENDBRANCH   6   7
ENDBRANCH   5   6
ENDBRANCH   4   5
ENDBRANCH   3   4
ENDBRANCH   2   3
ENDBRANCH   1   2
BRANCH   1  29
ATOM     29  C   UNL A   1      33.414  29.682  26.563  1.00  0.00     0.188 C 
BRANCH  29  30
ATOM     30  O   UNL A   1      34.526  29.316  27.355  1.00  0.00    -0.376 OA
BRANCH  30  31
ATOM     31  C   UNL A   1      35.368  30.389  27.770  1.00  0.00     0.202 C 
BRANCH  31  32
ATOM     32  C   UNL A   1      36.904  30.201  27.985  1.00  0.00     0.261 C 
BRANCH  32  33
ATOM     33  O   UNL A   1      37.360  29.112  28.829  1.00  0.00    -0.460 OA
BRANCH  33  34
ATOM     34  C   UNL A   1      38.548  28.473  28.541  1.00  0.00     0.338 C 
ATOM     35  O   UNL A   1      39.221  28.566  27.549  1.00  0.00    -0.246 OA
BRANCH  34  36
ATOM     36  C   UNL A   1      39.069  27.931  29.842  1.00  0.00     0.060 A 
ATOM     37  C   UNL A   1      38.331  27.874  31.021  1.00  0.00     0.016 A 
ATOM     38  C   UNL A   1      40.447  27.786  29.914  1.00  0.00     0.016 A 
ATOM     39  C   UNL A   1      38.995  28.028  32.252  1.00  0.00     0.010 A 
ATOM     40  C   UNL A   1      41.083  28.151  31.088  1.00  0.00     0.010 A 
ATOM     41  C   UNL A   1      40.334  28.451  32.230  1.00  0.00    -0.014 A 
BRANCH  41  42
ATOM     42  C   UNL A   1      40.803  29.662  32.986  1.00  0.00     0.031 A 
ATOM     43  C   UNL A   1      41.787  29.594  34.118  1.00  0.00     0.074 A 
ATOM     44  C   UNL A   1      40.517  30.833  32.365  1.00  0.00     0.049 A 
ATOM     45  N   UNL A   1      42.161  30.563  34.895  1.00  0.00    -0.248 NA
ATOM     46  C   UNL A   1      42.436  28.333  34.484  1.00  0.00     0.031 C 
ATOM     47  C   UNL A   1      41.079  32.156  32.462  1.00  0.00     0.029 A 
ATOM     48  N   UNL A   1      39.421  31.062  31.555  1.00  0.00    -0.354 N 
ATOM     49  C   UNL A   1      43.154  30.082  35.750  1.00  0.00     0.074 A 
ATOM     50  C   UNL A   1      43.354  28.710  35.377  1.00  0.00     0.031 C 
ATOM     51  C   UNL A   1      40.191  33.078  32.072  1.00  0.00     0.029 A 
ATOM     52  C   UNL A   1      39.021  32.376  31.718  1.00  0.00     0.049 A 
ATOM     53  H   UNL A   1      38.996  30.400  30.963  1.00  0.00     0.167 HD
ATOM     54  C   UNL A   1      43.664  30.829  36.771  1.00  0.00     0.031 A 
ATOM     55  C   UNL A   1      37.799  32.638  32.203  1.00  0.00     0.031 A 
ATOM     56  C   UNL A   1      42.691  31.840  37.211  1.00  0.00     0.049 A 
ATOM     57  C   UNL A   1      37.731  32.744  33.809  1.00  0.00     0.074 A 
ATOM     58  C   UNL A   1      42.752  33.163  37.595  1.00  0.00     0.029 A 
ATOM     59  N   UNL A   1      41.309  31.498  37.239  1.00  0.00    -0.354 N 
ATOM     60  N   UNL A   1      38.605  32.266  34.715  1.00  0.00    -0.248 NA
ATOM     61  C   UNL A   1      36.710  33.547  34.497  1.00  0.00     0.031 C 
ATOM     62  C   UNL A   1      41.422  33.623  37.746  1.00  0.00     0.029 A 
ATOM     63  C   UNL A   1      40.516  32.623  37.338  1.00  0.00     0.049 A 
ATOM     64  H   UNL A   1      40.963  30.577  37.193  1.00  0.00     0.167 HD
ATOM     65  C   UNL A   1      38.303  32.723  36.041  1.00  0.00     0.074 A 
ATOM     66  C   UNL A   1      37.085  33.505  35.794  1.00  0.00     0.031 C 
ATOM     67  C   UNL A   1      39.024  32.676  37.263  1.00  0.00     0.031 A 
BRANCH  54  68
ATOM     68  C   UNL A   1      45.103  30.685  37.329  1.00  0.00    -0.014 A 
ATOM     69  C   UNL A   1      46.220  30.836  36.472  1.00  0.00     0.010 A 
ATOM     70  C   UNL A   1      45.450  30.325  38.650  1.00  0.00     0.010 A 
ATOM     71  C   UNL A   1      47.562  30.682  36.886  1.00  0.00     0.020 A 
ATOM     72  C   UNL A   1      46.790  30.164  39.089  1.00  0.00     0.020 A 
ATOM     73  C   UNL A   1      47.843  30.359  38.204  1.00  0.00     0.054 A 
BRANCH  73  74
ATOM     74  S   UNL A   1      49.578  30.242  38.738  1.00  0.00     0.124 S 
ATOM     75  O   UNL A   1      49.511  30.650  40.139  1.00  0.00    -0.237 OA
ATOM     76  O   UNL A   1      49.882  28.832  38.510  1.00  0.00    -0.237 OA
ATOM     77  O   UNL A   1      50.277  31.174  37.856  1.00  0.00    -0.744 OA
ENDBRANCH  73  74
ENDBRANCH  54  68
BRANCH  55  78
ATOM     78  C   UNL A   1      36.999  32.509  30.870  1.00  0.00    -0.014 A 
ATOM     79  C   UNL A   1      35.617  32.118  31.047  1.00  0.00     0.010 A 
ATOM     80  C   UNL A   1      37.173  33.489  29.847  1.00  0.00     0.010 A 
ATOM     81  C   UNL A   1      34.518  32.815  30.462  1.00  0.00     0.020 A 
ATOM     82  C   UNL A   1      36.064  34.157  29.221  1.00  0.00     0.020 A 
ATOM     83  C   UNL A   1      34.745  33.852  29.566  1.00  0.00     0.054 A 
BRANCH  83  84
ATOM     84  S   UNL A   1      33.343  34.904  29.001  1.00  0.00     0.124 S 
ATOM     85  O   UNL A   1      34.024  36.076  28.464  1.00  0.00    -0.237 OA
ATOM     86  O   UNL A   1      32.669  34.069  28.008  1.00  0.00    -0.237 OA
ATOM     87  O   UNL A   1      32.584  35.130  30.227  1.00  0.00    -0.744 OA
ENDBRANCH  83  84
ENDBRANCH  55  78
BRANCH  67  88
ATOM     88  C   UNL A   1      38.452  32.989  38.689  1.00  0.00    -0.014 A 
ATOM     89  C   UNL A   1      38.702  34.136  39.445  1.00  0.00     0.010 A 
ATOM     90  C   UNL A   1      37.473  32.106  39.255  1.00  0.00     0.010 A 
ATOM     91  C   UNL A   1      38.064  34.347  40.690  1.00  0.00     0.020 A 
ATOM     92  C   UNL A   1      36.849  32.285  40.487  1.00  0.00     0.020 A 
ATOM     93  C   UNL A   1      37.143  33.423  41.200  1.00  0.00     0.054 A 
BRANCH  93  94
ATOM     94  S   UNL A   1      36.217  33.783  42.711  1.00  0.00     0.124 S 
ATOM     95  O   UNL A   1      36.428  32.571  43.497  1.00  0.00    -0.237 OA
ATOM     96  O   UNL A   1      36.887  34.982  43.205  1.00  0.00    -0.237 OA
ATOM     97  O   UNL A   1      34.847  33.992  42.245  1.00  0.00    -0.744 OA
ENDBRANCH  93  94
ENDBRANCH  67  88
ENDBRANCH  41  42
ENDBRANCH  34  36
ENDBRANCH  33  34
ENDBRANCH  32  33
ENDBRANCH  31  32
ENDBRANCH  30  31
ENDBRANCH  29  30
ENDBRANCH   1  29
TORSDOF 27
ENDMDL
MODEL 2
REMARK VINA RESULT:      -9.5      4.246      8.813
REMARK SMILES Cc1ccc(C[C@@H](Cc2cc(F)cc(Br)c2)C(=O)OCCOCCOCCOCCOC(=O)c2ccc(-c3c4nc(c(-c5ccc(S(=O)(=O)[O-])cc5)c5ccc([nH]5)c(-c5ccc(S(=O)(=O)[O-])cc5)c5nc(c(-c6ccc(S(=O)(=O)[O-])cc6)c6ccc3[nH]6)C=C5)C=C4)cc2)cc1
REMARK SMILES IDX 26 1 25 2 24 3 23 4 22 5 21 6 20 7 19 8 17 9 18 10 7 11 6 12
REMARK SMILES IDX 5 13 1 14 2 15 3 16 95 17 4 18 94 19 8 20 9 21 10 22 16 23
REMARK SMILES IDX 11 24 14 25 12 26 13 27 15 28 27 29 28 30 29 31 30 32 31 33
REMARK SMILES IDX 32 34 33 35 34 36 35 37 93 38 36 39 92 40 37 41 38 42 39 43
REMARK SMILES IDX 86 44 40 45 91 46 85 47 87 48 41 49 90 50 84 51 83 52 42 54
REMARK SMILES IDX 72 55 53 56 71 57 54 58 57 59 70 60 88 61 55 62 56 63 69 65
REMARK SMILES IDX 89 66 58 67 43 68 44 69 52 70 45 71 51 72 46 73 47 74 48 75
REMARK SMILES IDX 49 76 50 77 73 78 74 79 82 80 75 81 81 82 76 83 77 84 78 85
REMARK SMILES IDX 79 86 80 87 59 88 60 89 68 90 61 91 67 92 62 93 63 94 64 95
REMARK SMILES IDX 65 96 66 97
REMARK H PARENT 87 53 57 64
REMARK Flexibility Score: inf
ROOT
ATOM      1  C   UNL A   1      33.788  32.800  28.005  1.00  0.00     0.188 C 
ENDROOT
BRANCH   1   2
ATOM      2  O   UNL A   1      34.371  31.599  27.575  1.00  0.00    -0.377 OA
BRANCH   2   3
ATOM      3  C   UNL A   1      33.620  30.419  27.427  1.00  0.00     0.188 C 
BRANCH   3   4
ATOM      4  C   UNL A   1      32.355  30.379  26.567  1.00  0.00     0.188 C 
BRANCH   4   5
ATOM      5  O   UNL A   1      31.694  29.138  26.362  1.00  0.00    -0.376 OA
BRANCH   5   6
ATOM      6  C   UNL A   1      31.823  28.169  27.395  1.00  0.00     0.202 C 
BRANCH   6   7
ATOM      7  C   UNL A   1      31.952  26.709  26.953  1.00  0.00     0.261 C 
BRANCH   7   8
ATOM      8  O   UNL A   1      30.694  26.185  26.436  1.00  0.00    -0.463 OA
BRANCH   8   9
ATOM      9  C   UNL A   1      30.645  24.849  26.212  1.00  0.00     0.309 C 
ATOM     10  O   UNL A   1      30.213  24.044  27.031  1.00  0.00    -0.252 OA
BRANCH   9  11
ATOM     11  C   UNL A   1      31.194  24.387  24.857  1.00  0.00     0.108 C 
BRANCH  11  12
ATOM     12  C   UNL A   1      30.423  24.824  23.575  1.00  0.00     0.051 C 
BRANCH  12  13
ATOM     13  C   UNL A   1      30.256  26.334  23.662  1.00  0.00    -0.047 A 
ATOM     14  C   UNL A   1      29.478  30.053  21.742  1.00  0.00     0.044 C 
ATOM     15  C   UNL A   1      29.763  28.864  22.607  1.00  0.00    -0.051 A 
ATOM     16  C   UNL A   1      31.077  28.393  22.723  1.00  0.00     0.004 A 
ATOM     17  C   UNL A   1      28.718  28.134  23.186  1.00  0.00     0.004 A 
ATOM     18  C   UNL A   1      31.328  27.148  23.289  1.00  0.00     0.004 A 
ATOM     19  C   UNL A   1      28.964  26.874  23.728  1.00  0.00     0.004 A 
ENDBRANCH  12  13
ENDBRANCH  11  12
BRANCH  11  20
ATOM     20  C   UNL A   1      32.775  24.486  24.738  1.00  0.00     0.051 C 
BRANCH  20  21
ATOM     21  C   UNL A   1      33.601  23.296  25.146  1.00  0.00    -0.043 A 
ATOM     22  C   UNL A   1      33.451  21.966  24.713  1.00  0.00     0.043 A 
ATOM     23  C   UNL A   1      34.628  23.546  26.004  1.00  0.00     0.019 A 
ATOM     24  C   UNL A   1      34.444  21.002  24.989  1.00  0.00     0.124 A 
ATOM     25  C   UNL A   1      35.694  22.691  25.955  1.00  0.00     0.021 A 
ATOM     26  F   UNL A   1      34.285  19.734  24.590  1.00  0.00    -0.207 F 
ATOM     27  C   UNL A   1      35.641  21.384  25.540  1.00  0.00     0.055 A 
ATOM     28  Br  UNL A   1      37.194  23.707  25.767  1.00  0.00    -0.051 Br
ENDBRANCH  20  21
ENDBRANCH  11  20
ENDBRANCH   9  11
ENDBRANCH   8   9
ENDBRANCH   7   8
ENDBRANCH   6   7
ENDBRANCH   5   6
ENDBRANCH   4   5
ENDBRANCH   3   4
ENDBRANCH   2   3
ENDBRANCH   1   2
BRANCH   1  29
ATOM     29  C   UNL A   1      34.718  34.017  27.946  1.00  0.00     0.188 C 
BRANCH  29  30
ATOM     30  O   UNL A   1      34.483  35.097  28.828  1.00  0.00    -0.376 OA
BRANCH  30  31
ATOM     31  C   UNL A   1      33.725  34.787  29.996  1.00  0.00     0.202 C 
BRANCH  31  32
ATOM     32  C   UNL A   1      34.378  34.140  31.258  1.00  0.00     0.261 C 
BRANCH  32  33
ATOM     33  O   UNL A   1      35.662  33.479  31.116  1.00  0.00    -0.460 OA
BRANCH  33  34
ATOM     34  C   UNL A   1      35.959  32.383  31.901  1.00  0.00     0.338 C 
ATOM     35  O   UNL A   1      35.573  32.138  33.012  1.00  0.00    -0.246 OA
BRANCH  34  36
ATOM     36  C   UNL A   1      36.542  31.345  30.983  1.00  0.00     0.060 A 
ATOM     37  C   UNL A   1      36.805  30.029  31.353  1.00  0.00     0.016 A 
ATOM     38  C   UNL A   1      37.123  31.838  29.824  1.00  0.00     0.016 A 
ATOM     39  C   UNL A   1      37.898  29.361  30.771  1.00  0.00     0.010 A 
ATOM     40  C   UNL A   1      38.318  31.280  29.403  1.00  0.00     0.010 A 
ATOM     41  C   UNL A   1      38.804  30.118  30.010  1.00  0.00    -0.014 A 
BRANCH  41  42
ATOM     42  C   UNL A   1      40.278  30.134  30.304  1.00  0.00     0.031 A 
ATOM     43  C   UNL A   1      41.291  29.411  29.465  1.00  0.00     0.074 A 
ATOM     44  C   UNL A   1      40.644  31.099  31.183  1.00  0.00     0.049 A 
ATOM     45  N   UNL A   1      42.559  29.276  29.704  1.00  0.00    -0.248 NA
ATOM     46  C   UNL A   1      40.902  28.726  28.230  1.00  0.00     0.031 C 
ATOM     47  C   UNL A   1      41.898  31.753  31.453  1.00  0.00     0.029 A 
ATOM     48  N   UNL A   1      39.857  31.586  32.210  1.00  0.00    -0.354 N 
ATOM     49  C   UNL A   1      43.140  28.612  28.623  1.00  0.00     0.074 A 
ATOM     50  C   UNL A   1      42.075  28.384  27.690  1.00  0.00     0.031 C 
ATOM     51  C   UNL A   1      41.920  32.244  32.698  1.00  0.00     0.029 A 
ATOM     52  C   UNL A   1      40.677  31.912  33.275  1.00  0.00     0.049 A 
ATOM     53  H   UNL A   1      38.878  31.683  32.187  1.00  0.00     0.167 HD
ATOM     54  C   UNL A   1      44.444  28.209  28.629  1.00  0.00     0.031 A 
ATOM     55  C   UNL A   1      40.527  31.272  34.443  1.00  0.00     0.031 A 
ATOM     56  C   UNL A   1      44.919  28.006  30.006  1.00  0.00     0.049 A 
ATOM     57  C   UNL A   1      41.403  29.928  34.582  1.00  0.00     0.074 A 
ATOM     58  C   UNL A   1      46.082  28.276  30.696  1.00  0.00     0.029 A 
ATOM     59  N   UNL A   1      44.027  27.447  30.966  1.00  0.00    -0.354 N 
ATOM     60  N   UNL A   1      41.957  29.188  33.604  1.00  0.00    -0.248 NA
ATOM     61  C   UNL A   1      41.837  29.408  35.887  1.00  0.00     0.031 C 
ATOM     62  C   UNL A   1      45.845  27.977  32.060  1.00  0.00     0.029 A 
ATOM     63  C   UNL A   1      44.492  27.635  32.252  1.00  0.00     0.049 A 
ATOM     64  H   UNL A   1      43.186  26.986  30.741  1.00  0.00     0.167 HD
ATOM     65  C   UNL A   1      42.823  28.171  34.127  1.00  0.00     0.074 A 
ATOM     66  C   UNL A   1      42.662  28.386  35.571  1.00  0.00     0.031 C 
ATOM     67  C   UNL A   1      43.771  27.307  33.520  1.00  0.00     0.031 A 
BRANCH  54  68
ATOM     68  C   UNL A   1      45.325  28.070  27.361  1.00  0.00    -0.014 A 
ATOM     69  C   UNL A   1      45.847  26.807  26.988  1.00  0.00     0.010 A 
ATOM     70  C   UNL A   1      45.756  29.127  26.529  1.00  0.00     0.010 A 
ATOM     71  C   UNL A   1      46.689  26.597  25.873  1.00  0.00     0.020 A 
ATOM     72  C   UNL A   1      46.601  28.941  25.405  1.00  0.00     0.020 A 
ATOM     73  C   UNL A   1      47.053  27.669  25.073  1.00  0.00     0.054 A 
BRANCH  73  74
ATOM     74  S   UNL A   1      48.073  27.368  23.598  1.00  0.00     0.124 S 
ATOM     75  O   UNL A   1      47.334  28.065  22.549  1.00  0.00    -0.237 OA
ATOM     76  O   UNL A   1      49.350  27.971  23.971  1.00  0.00    -0.237 OA
ATOM     77  O   UNL A   1      48.091  25.912  23.478  1.00  0.00    -0.744 OA
ENDBRANCH  73  74
ENDBRANCH  54  68
BRANCH  55  78
ATOM     78  C   UNL A   1      39.358  32.132  35.018  1.00  0.00    -0.014 A 
ATOM     79  C   UNL A   1      38.236  31.355  35.498  1.00  0.00     0.010 A 
ATOM     80  C   UNL A   1      39.653  33.256  35.847  1.00  0.00     0.010 A 
ATOM     81  C   UNL A   1      37.652  31.526  36.790  1.00  0.00     0.020 A 
ATOM     82  C   UNL A   1      39.029  33.455  37.127  1.00  0.00     0.020 A 
ATOM     83  C   UNL A   1      38.069  32.564  37.613  1.00  0.00     0.054 A 
BRANCH  83  84
ATOM     84  S   UNL A   1      37.494  32.639  39.361  1.00  0.00     0.124 S 
ATOM     85  O   UNL A   1      38.165  31.492  39.963  1.00  0.00    -0.237 OA
ATOM     86  O   UNL A   1      37.965  33.945  39.819  1.00  0.00    -0.237 OA
ATOM     87  O   UNL A   1      36.044  32.520  39.238  1.00  0.00    -0.744 OA
ENDBRANCH  83  84
ENDBRANCH  55  78
BRANCH  67  88
ATOM     88  C   UNL A   1      44.458  26.067  34.190  1.00  0.00    -0.014 A 
ATOM     89  C   UNL A   1      45.578  26.094  35.024  1.00  0.00     0.010 A 
ATOM     90  C   UNL A   1      43.837  24.779  34.070  1.00  0.00     0.010 A 
ATOM     91  C   UNL A   1      46.064  24.915  35.638  1.00  0.00     0.020 A 
ATOM     92  C   UNL A   1      44.310  23.605  34.650  1.00  0.00     0.020 A 
ATOM     93  C   UNL A   1      45.426  23.683  35.448  1.00  0.00     0.054 A 
BRANCH  93  94
ATOM     94  S   UNL A   1      45.960  22.219  36.366  1.00  0.00     0.124 S 
ATOM     95  O   UNL A   1      47.382  22.155  36.043  1.00  0.00    -0.237 OA
ATOM     96  O   UNL A   1      45.640  22.584  37.743  1.00  0.00    -0.237 OA
ATOM     97  O   UNL A   1      45.148  21.137  35.812  1.00  0.00    -0.744 OA
ENDBRANCH  93  94
ENDBRANCH  67  88
ENDBRANCH  41  42
ENDBRANCH  34  36
ENDBRANCH  33  34
ENDBRANCH  32  33
ENDBRANCH  31  32
ENDBRANCH  30  31
ENDBRANCH  29  30
ENDBRANCH   1  29
TORSDOF 27
ENDMDL
MODEL 3
REMARK VINA RESULT:      -9.3      4.968      9.039
REMARK SMILES Cc1ccc(C[C@@H](Cc2cc(F)cc(Br)c2)C(=O)OCCOCCOCCOCCOC(=O)c2ccc(-c3c4nc(c(-c5ccc(S(=O)(=O)[O-])cc5)c5ccc([nH]5)c(-c5ccc(S(=O)(=O)[O-])cc5)c5nc(c(-c6ccc(S(=O)(=O)[O-])cc6)c6ccc3[nH]6)C=C5)C=C4)cc2)cc1
REMARK SMILES IDX 26 1 25 2 24 3 23 4 22 5 21 6 20 7 19 8 17 9 18 10 7 11 6 12
REMARK SMILES IDX 5 13 1 14 2 15 3 16 95 17 4 18 94 19 8 20 9 21 10 22 16 23
REMARK SMILES IDX 11 24 14 25 12 26 13 27 15 28 27 29 28 30 29 31 30 32 31 33
REMARK SMILES IDX 32 34 33 35 34 36 35 37 93 38 36 39 92 40 37 41 38 42 39 43
REMARK SMILES IDX 86 44 40 45 91 46 85 47 87 48 41 49 90 50 84 51 83 52 42 54
REMARK SMILES IDX 72 55 53 56 71 57 54 58 57 59 70 60 88 61 55 62 56 63 69 65
REMARK SMILES IDX 89 66 58 67 43 68 44 69 52 70 45 71 51 72 46 73 47 74 48 75
REMARK SMILES IDX 49 76 50 77 73 78 74 79 82 80 75 81 81 82 76 83 77 84 78 85
REMARK SMILES IDX 79 86 80 87 59 88 60 89 68 90 61 91 67 92 62 93 63 94 64 95
REMARK SMILES IDX 65 96 66 97
REMARK H PARENT 87 53 57 64
REMARK Flexibility Score: inf
ROOT
ATOM      1  C   UNL A   1      31.551  29.159  23.671  1.00  0.00     0.188 C 
ENDROOT
BRANCH   1   2
ATOM      2  O   UNL A   1      31.165  27.819  23.516  1.00  0.00    -0.377 OA
BRANCH   2   3
ATOM      3  C   UNL A   1      31.802  26.963  22.600  1.00  0.00     0.188 C 
BRANCH   3   4
ATOM      4  C   UNL A   1      33.319  26.765  22.612  1.00  0.00     0.188 C 
BRANCH   4   5
ATOM      5  O   UNL A   1      33.855  25.494  22.272  1.00  0.00    -0.376 OA
BRANCH   5   6
ATOM      6  C   UNL A   1      32.941  24.530  21.766  1.00  0.00     0.202 C 
BRANCH   6   7
ATOM      7  C   UNL A   1      33.314  23.059  21.966  1.00  0.00     0.261 C 
BRANCH   7   8
ATOM      8  O   UNL A   1      34.127  22.863  23.159  1.00  0.00    -0.463 OA
BRANCH   8   9
ATOM      9  C   UNL A   1      33.732  21.876  24.001  1.00  0.00     0.309 C 
ATOM     10  O   UNL A   1      32.891  21.034  23.705  1.00  0.00    -0.252 OA
BRANCH   9  11
ATOM     11  C   UNL A   1      34.393  21.887  25.385  1.00  0.00     0.108 C 
BRANCH  11  12
ATOM     12  C   UNL A   1      33.504  21.542  26.617  1.00  0.00     0.051 C 
BRANCH  12  13
ATOM     13  C   UNL A   1      32.663  22.777  26.905  1.00  0.00    -0.047 A 
ATOM     14  C   UNL A   1      29.898  25.724  25.566  1.00  0.00     0.044 C 
ATOM     15  C   UNL A   1      30.858  24.789  26.236  1.00  0.00    -0.051 A 
ATOM     16  C   UNL A   1      32.235  25.010  26.116  1.00  0.00     0.004 A 
ATOM     17  C   UNL A   1      30.402  23.623  26.861  1.00  0.00     0.004 A 
ATOM     18  C   UNL A   1      33.140  24.022  26.490  1.00  0.00     0.004 A 
ATOM     19  C   UNL A   1      31.303  22.620  27.211  1.00  0.00     0.004 A 
ENDBRANCH  12  13
ENDBRANCH  11  12
BRANCH  11  20
ATOM     20  C   UNL A   1      35.837  21.223  25.411  1.00  0.00     0.051 C 
BRANCH  20  21
ATOM     21  C   UNL A   1      37.030  22.110  25.642  1.00  0.00    -0.043 A 
ATOM     22  C   UNL A   1      37.040  23.393  26.218  1.00  0.00     0.043 A 
ATOM     23  C   UNL A   1      38.238  21.593  25.282  1.00  0.00     0.019 A 
ATOM     24  C   UNL A   1      38.254  24.005  26.594  1.00  0.00     0.124 A 
ATOM     25  C   UNL A   1      39.332  22.062  25.954  1.00  0.00     0.021 A 
ATOM     26  F   UNL A   1      38.256  25.234  27.125  1.00  0.00    -0.207 F 
ATOM     27  C   UNL A   1      39.426  23.294  26.553  1.00  0.00     0.055 A 
ATOM     28  Br  UNL A   1      40.250  20.614  26.569  1.00  0.00    -0.051 Br
ENDBRANCH  20  21
ENDBRANCH  11  20
ENDBRANCH   9  11
ENDBRANCH   8   9
ENDBRANCH   7   8
ENDBRANCH   6   7
ENDBRANCH   5   6
ENDBRANCH   4   5
ENDBRANCH   3   4
ENDBRANCH   2   3
ENDBRANCH   1   2
BRANCH   1  29
ATOM     29  C   UNL A   1      32.800  29.368  24.533  1.00  0.00     0.188 C 
BRANCH  29  30
ATOM     30  O   UNL A   1      32.939  28.617  25.722  1.00  0.00    -0.376 OA
BRANCH  30  31
ATOM     31  C   UNL A   1      32.751  29.341  26.936  1.00  0.00     0.202 C 
BRANCH  31  32
ATOM     32  C   UNL A   1      33.904  30.160  27.599  1.00  0.00     0.261 C 
BRANCH  32  33
ATOM     33  O   UNL A   1      35.158  29.488  27.888  1.00  0.00    -0.460 OA
BRANCH  33  34
ATOM     34  C   UNL A   1      36.010  30.010  28.839  1.00  0.00     0.338 C 
ATOM     35  O   UNL A   1      35.740  30.712  29.776  1.00  0.00    -0.246 OA
BRANCH  34  36
ATOM     36  C   UNL A   1      37.294  29.234  28.734  1.00  0.00     0.060 A 
ATOM     37  C   UNL A   1      37.830  28.462  29.761  1.00  0.00     0.016 A 
ATOM     38  C   UNL A   1      38.110  29.582  27.668  1.00  0.00     0.016 A 
ATOM     39  C   UNL A   1      39.228  28.355  29.877  1.00  0.00     0.010 A 
ATOM     40  C   UNL A   1      39.474  29.665  27.888  1.00  0.00     0.010 A 
ATOM     41  C   UNL A   1      40.022  29.207  29.090  1.00  0.00    -0.014 A 
BRANCH  41  42
ATOM     42  C   UNL A   1      41.063  30.110  29.690  1.00  0.00     0.031 A 
ATOM     43  C   UNL A   1      40.738  31.208  30.659  1.00  0.00     0.074 A 
ATOM     44  C   UNL A   1      42.330  29.652  29.536  1.00  0.00     0.049 A 
ATOM     45  N   UNL A   1      41.548  32.101  31.137  1.00  0.00    -0.248 NA
ATOM     46  C   UNL A   1      39.376  31.396  31.164  1.00  0.00     0.031 C 
ATOM     47  C   UNL A   1      43.559  29.914  30.240  1.00  0.00     0.029 A 
ATOM     48  N   UNL A   1      42.783  28.895  28.472  1.00  0.00    -0.354 N 
ATOM     49  C   UNL A   1      40.852  32.870  32.071  1.00  0.00     0.074 A 
ATOM     50  C   UNL A   1      39.528  32.318  32.118  1.00  0.00     0.031 C 
ATOM     51  C   UNL A   1      44.616  29.661  29.460  1.00  0.00     0.029 A 
ATOM     52  C   UNL A   1      44.099  29.235  28.219  1.00  0.00     0.049 A 
ATOM     53  H   UNL A   1      42.256  28.226  27.977  1.00  0.00     0.167 HD
ATOM     54  C   UNL A   1      41.397  33.975  32.660  1.00  0.00     0.031 A 
ATOM     55  C   UNL A   1      44.428  29.768  27.034  1.00  0.00     0.031 A 
ATOM     56  C   UNL A   1      42.441  34.558  31.804  1.00  0.00     0.049 A 
ATOM     57  C   UNL A   1      44.326  31.374  26.977  1.00  0.00     0.074 A 
ATOM     58  C   UNL A   1      43.687  35.111  32.012  1.00  0.00     0.029 A 
ATOM     59  N   UNL A   1      42.252  34.560  30.393  1.00  0.00    -0.354 N 
ATOM     60  N   UNL A   1      43.640  32.197  27.792  1.00  0.00    -0.248 NA
ATOM     61  C   UNL A   1      45.138  32.177  26.051  1.00  0.00     0.031 C 
ATOM     62  C   UNL A   1      44.266  35.341  30.740  1.00  0.00     0.029 A 
ATOM     63  C   UNL A   1      43.435  34.817  29.729  1.00  0.00     0.049 A 
ATOM     64  H   UNL A   1      41.389  34.398  29.948  1.00  0.00     0.167 HD
ATOM     65  C   UNL A   1      43.947  33.575  27.542  1.00  0.00     0.074 A 
ATOM     66  C   UNL A   1      44.884  33.452  26.419  1.00  0.00     0.031 C 
ATOM     67  C   UNL A   1      43.660  34.770  28.252  1.00  0.00     0.031 A 
BRANCH  54  68
ATOM     68  C   UNL A   1      41.023  34.488  34.074  1.00  0.00    -0.014 A 
ATOM     69  C   UNL A   1      41.886  34.251  35.172  1.00  0.00     0.010 A 
ATOM     70  C   UNL A   1      39.819  35.134  34.432  1.00  0.00     0.010 A 
ATOM     71  C   UNL A   1      41.606  34.647  36.499  1.00  0.00     0.020 A 
ATOM     72  C   UNL A   1      39.515  35.540  35.757  1.00  0.00     0.020 A 
ATOM     73  C   UNL A   1      40.421  35.307  36.785  1.00  0.00     0.054 A 
BRANCH  73  74
ATOM     74  S   UNL A   1      40.113  35.879  38.483  1.00  0.00     0.124 S 
ATOM     75  O   UNL A   1      39.095  34.944  38.957  1.00  0.00    -0.237 OA
ATOM     76  O   UNL A   1      41.427  35.741  39.105  1.00  0.00    -0.237 OA
ATOM     77  O   UNL A   1      39.654  37.255  38.309  1.00  0.00    -0.744 OA
ENDBRANCH  73  74
ENDBRANCH  54  68
BRANCH  55  78
ATOM     78  C   UNL A   1      44.565  28.441  26.225  1.00  0.00    -0.014 A 
ATOM     79  C   UNL A   1      45.498  27.495  26.798  1.00  0.00     0.010 A 
ATOM     80  C   UNL A   1      43.397  27.817  25.692  1.00  0.00     0.010 A 
ATOM     81  C   UNL A   1      45.181  26.125  27.049  1.00  0.00     0.020 A 
ATOM     82  C   UNL A   1      43.101  26.426  25.903  1.00  0.00     0.020 A 
ATOM     83  C   UNL A   1      43.969  25.599  26.620  1.00  0.00     0.054 A 
BRANCH  83  84
ATOM     84  S   UNL A   1      43.459  23.911  27.152  1.00  0.00     0.124 S 
ATOM     85  O   UNL A   1      42.521  24.191  28.234  1.00  0.00    -0.237 OA
ATOM     86  O   UNL A   1      42.863  23.339  25.946  1.00  0.00    -0.237 OA
ATOM     87  O   UNL A   1      44.720  23.299  27.561  1.00  0.00    -0.744 OA
ENDBRANCH  83  84
ENDBRANCH  55  78
BRANCH  67  88
ATOM     88  C   UNL A   1      43.842  36.233  27.718  1.00  0.00    -0.014 A 
ATOM     89  C   UNL A   1      42.831  37.181  27.545  1.00  0.00     0.010 A 
ATOM     90  C   UNL A   1      45.169  36.732  27.497  1.00  0.00     0.010 A 
ATOM     91  C   UNL A   1      43.127  38.501  27.130  1.00  0.00     0.020 A 
ATOM     92  C   UNL A   1      45.479  38.021  27.069  1.00  0.00     0.020 A 
ATOM     93  C   UNL A   1      44.446  38.911  26.898  1.00  0.00     0.054 A 
BRANCH  93  94
ATOM     94  S   UNL A   1      44.821  40.640  26.526  1.00  0.00     0.124 S 
ATOM     95  O   UNL A   1      45.442  40.544  25.208  1.00  0.00    -0.237 OA
ATOM     96  O   UNL A   1      43.498  41.257  26.559  1.00  0.00    -0.237 OA
ATOM     97  O   UNL A   1      45.717  41.048  27.607  1.00  0.00    -0.744 OA
ENDBRANCH  93  94
ENDBRANCH  67  88
ENDBRANCH  41  42
ENDBRANCH  34  36
ENDBRANCH  33  34
ENDBRANCH  32  33
ENDBRANCH  31  32
ENDBRANCH  30  31
ENDBRANCH  29  30
ENDBRANCH   1  29
TORSDOF 27
ENDMDL
