MODEL 1
REMARK VINA RESULT:      -8.4      0.000      0.000
REMARK SMILES O=C(OCCOCCOCCOCCOC(=O)[C@H]1[C@H]2C[C@@H]3[C@@H](OC(=O)[C@@H]31)[C@@H]2Sc1ccccc1)c1ccc(-c2c3nc(c(-c4ccc(S(=O)(=O)[O-])cc4)c4ccc([nH]4)c(-c4ccc(S(=O)(=O)[O-])cc4)c4nc(c(-c5ccc(S(=O)(=O)[O-])cc5)c5ccc2[nH]5)C=C4)C=C3)cc1
REMARK SMILES IDX 8 1 7 2 6 3 5 4 4 5 3 6 2 7 1 8 35 9 36 10 94 11 37 12 93 13
REMARK SMILES IDX 38 14 39 15 40 16 87 17 41 18 92 19 86 20 88 21 42 22 91 23
REMARK SMILES IDX 85 24 84 25 43 27 73 28 54 29 72 30 55 31 58 32 71 33 89 34
REMARK SMILES IDX 56 35 57 36 70 38 90 39 59 40 44 41 45 42 53 43 46 44 52 45
REMARK SMILES IDX 47 46 48 47 49 48 50 49 51 50 74 51 75 52 83 53 76 54 82 55
REMARK SMILES IDX 77 56 78 57 79 58 80 59 81 60 60 61 61 62 69 63 62 64 68 65
REMARK SMILES IDX 63 66 64 67 65 68 66 69 67 70 9 71 10 72 11 73 12 74 13 75
REMARK SMILES IDX 14 76 15 77 16 78 17 79 18 80 19 81 26 82 20 83 27 84 21 85
REMARK SMILES IDX 24 86 22 87 23 88 25 89 28 90 29 91 30 92 34 93 31 94 33 95
REMARK SMILES IDX 32 96
REMARK H PARENT 88 26 58 37
REMARK Flexibility Score: inf
ROOT
ATOM      1  C   UNL A   1      44.143  40.510  26.765  1.00  0.00     0.188 C 
ENDROOT
BRANCH   1   2
ATOM      2  C   UNL A   1      45.260  40.645  25.724  1.00  0.00     0.188 C 
BRANCH   2   3
ATOM      3  O   UNL A   1      46.484  41.102  26.291  1.00  0.00    -0.376 OA
BRANCH   3   4
ATOM      4  C   UNL A   1      47.329  40.176  26.979  1.00  0.00     0.202 C 
BRANCH   4   5
ATOM      5  C   UNL A   1      47.475  40.371  28.480  1.00  0.00     0.261 C 
BRANCH   5   6
ATOM      6  O   UNL A   1      46.321  40.029  29.256  1.00  0.00    -0.460 OA
BRANCH   6   7
ATOM      7  C   UNL A   1      46.159  39.109  30.231  1.00  0.00     0.338 C 
ATOM      8  O   UNL A   1      46.265  39.486  31.399  1.00  0.00    -0.246 OA
BRANCH   7   9
ATOM      9  C   UNL A   1      45.862  37.666  30.003  1.00  0.00     0.060 A 
ATOM     10  C   UNL A   1      45.564  37.073  28.777  1.00  0.00     0.016 A 
ATOM     11  C   UNL A   1      45.999  36.823  31.115  1.00  0.00     0.016 A 
ATOM     12  C   UNL A   1      45.354  35.717  28.638  1.00  0.00     0.010 A 
ATOM     13  C   UNL A   1      45.787  35.450  30.999  1.00  0.00     0.010 A 
ATOM     14  C   UNL A   1      45.429  34.912  29.759  1.00  0.00    -0.014 A 
BRANCH  14  15
ATOM     15  C   UNL A   1      44.840  33.580  29.636  1.00  0.00     0.031 A 
ATOM     16  C   UNL A   1      45.787  32.465  29.338  1.00  0.00     0.074 A 
ATOM     17  C   UNL A   1      43.551  33.381  29.949  1.00  0.00     0.049 A 
ATOM     18  N   UNL A   1      45.534  31.230  29.020  1.00  0.00    -0.248 NA
ATOM     19  C   UNL A   1      47.226  32.790  29.414  1.00  0.00     0.031 C 
ATOM     20  C   UNL A   1      42.636  34.402  30.468  1.00  0.00     0.029 A 
ATOM     21  N   UNL A   1      42.796  32.247  29.893  1.00  0.00    -0.354 N 
ATOM     22  C   UNL A   1      46.776  30.652  28.787  1.00  0.00     0.074 A 
ATOM     23  C   UNL A   1      47.782  31.659  29.015  1.00  0.00     0.031 C 
ATOM     24  C   UNL A   1      41.430  33.845  30.666  1.00  0.00     0.029 A 
ATOM     25  C   UNL A   1      41.476  32.465  30.202  1.00  0.00     0.049 A 
ATOM     26  H   UNL A   1      43.159  31.363  29.656  1.00  0.00     0.167 HD
ATOM     27  C   UNL A   1      47.028  29.388  28.384  1.00  0.00     0.031 A 
ATOM     28  C   UNL A   1      40.421  31.644  30.044  1.00  0.00     0.031 A 
ATOM     29  C   UNL A   1      45.971  28.444  28.158  1.00  0.00     0.049 A 
ATOM     30  C   UNL A   1      40.700  30.280  29.474  1.00  0.00     0.074 A 
ATOM     31  C   UNL A   1      46.044  27.154  27.676  1.00  0.00     0.029 A 
ATOM     32  N   UNL A   1      44.628  28.712  28.408  1.00  0.00    -0.354 N 
ATOM     33  N   UNL A   1      41.857  29.756  29.132  1.00  0.00    -0.248 NA
ATOM     34  C   UNL A   1      39.548  29.403  29.256  1.00  0.00     0.031 C 
ATOM     35  C   UNL A   1      44.737  26.665  27.576  1.00  0.00     0.029 A 
ATOM     36  C   UNL A   1      43.857  27.619  28.073  1.00  0.00     0.049 A 
ATOM     37  H   UNL A   1      44.279  29.558  28.771  1.00  0.00     0.167 HD
ATOM     38  C   UNL A   1      41.578  28.472  28.687  1.00  0.00     0.074 A 
ATOM     39  C   UNL A   1      40.139  28.304  28.805  1.00  0.00     0.031 C 
ATOM     40  C   UNL A   1      42.424  27.515  28.229  1.00  0.00     0.031 A 
BRANCH  27  41
ATOM     41  C   UNL A   1      48.455  29.050  28.051  1.00  0.00    -0.014 A 
ATOM     42  C   UNL A   1      48.930  29.026  26.726  1.00  0.00     0.010 A 
ATOM     43  C   UNL A   1      49.320  28.665  29.091  1.00  0.00     0.010 A 
ATOM     44  C   UNL A   1      50.220  28.563  26.445  1.00  0.00     0.020 A 
ATOM     45  C   UNL A   1      50.621  28.234  28.818  1.00  0.00     0.020 A 
ATOM     46  C   UNL A   1      51.055  28.162  27.494  1.00  0.00     0.054 A 
BRANCH  46  47
ATOM     47  S   UNL A   1      52.714  27.548  27.102  1.00  0.00     0.124 S 
ATOM     48  O   UNL A   1      52.748  27.674  25.647  1.00  0.00    -0.237 OA
ATOM     49  O   UNL A   1      53.579  28.472  27.831  1.00  0.00    -0.237 OA
ATOM     50  O   UNL A   1      52.706  26.177  27.606  1.00  0.00    -0.744 OA
ENDBRANCH  46  47
ENDBRANCH  27  41
BRANCH  28  51
ATOM     51  C   UNL A   1      39.050  32.132  30.353  1.00  0.00    -0.014 A 
ATOM     52  C   UNL A   1      38.337  32.920  29.435  1.00  0.00     0.010 A 
ATOM     53  C   UNL A   1      38.421  31.754  31.556  1.00  0.00     0.010 A 
ATOM     54  C   UNL A   1      37.023  33.318  29.713  1.00  0.00     0.020 A 
ATOM     55  C   UNL A   1      37.100  32.125  31.825  1.00  0.00     0.020 A 
ATOM     56  C   UNL A   1      36.411  32.911  30.902  1.00  0.00     0.054 A 
BRANCH  56  57
ATOM     57  S   UNL A   1      34.685  33.382  31.206  1.00  0.00     0.124 S 
ATOM     58  O   UNL A   1      34.255  32.367  32.162  1.00  0.00    -0.237 OA
ATOM     59  O   UNL A   1      34.818  34.737  31.736  1.00  0.00    -0.237 OA
ATOM     60  O   UNL A   1      34.068  33.298  29.884  1.00  0.00    -0.744 OA
ENDBRANCH  56  57
ENDBRANCH  28  51
BRANCH  40  61
ATOM     61  C   UNL A   1      41.823  26.182  27.893  1.00  0.00    -0.014 A 
ATOM     62  C   UNL A   1      41.021  26.005  26.754  1.00  0.00     0.010 A 
ATOM     63  C   UNL A   1      42.173  25.069  28.679  1.00  0.00     0.010 A 
ATOM     64  C   UNL A   1      40.570  24.730  26.411  1.00  0.00     0.020 A 
ATOM     65  C   UNL A   1      41.752  23.791  28.321  1.00  0.00     0.020 A 
ATOM     66  C   UNL A   1      40.947  23.631  27.192  1.00  0.00     0.054 A 
BRANCH  66  67
ATOM     67  S   UNL A   1      40.423  21.978  26.673  1.00  0.00     0.124 S 
ATOM     68  O   UNL A   1      39.122  22.247  26.068  1.00  0.00    -0.237 OA
ATOM     69  O   UNL A   1      41.480  21.586  25.744  1.00  0.00    -0.237 OA
ATOM     70  O   UNL A   1      40.385  21.218  27.921  1.00  0.00    -0.744 OA
ENDBRANCH  66  67
ENDBRANCH  40  61
ENDBRANCH  14  15
ENDBRANCH   7   9
ENDBRANCH   6   7
ENDBRANCH   5   6
ENDBRANCH   4   5
ENDBRANCH   3   4
ENDBRANCH   2   3
ENDBRANCH   1   2
BRANCH   1  71
ATOM     71  O   UNL A   1      43.236  39.422  26.612  1.00  0.00    -0.377 OA
BRANCH  71  72
ATOM     72  C   UNL A   1      41.869  39.777  26.495  1.00  0.00     0.188 C 
BRANCH  72  73
ATOM     73  C   UNL A   1      41.456  41.118  25.840  1.00  0.00     0.188 C 
BRANCH  73  74
ATOM     74  O   UNL A   1      41.299  41.192  24.441  1.00  0.00    -0.376 OA
BRANCH  74  75
ATOM     75  C   UNL A   1      41.940  42.141  23.603  1.00  0.00     0.202 C 
BRANCH  75  76
ATOM     76  C   UNL A   1      43.072  43.111  23.998  1.00  0.00     0.261 C 
BRANCH  76  77
ATOM     77  O   UNL A   1      44.250  43.062  23.202  1.00  0.00    -0.463 OA
BRANCH  77  78
ATOM     78  C   UNL A   1      44.804  44.263  22.909  1.00  0.00     0.310 C 
ATOM     79  O   UNL A   1      45.542  44.906  23.642  1.00  0.00    -0.252 OA
BRANCH  78  80
ATOM     80  C   UNL A   1      44.494  44.638  21.474  1.00  0.00     0.118 C 
ATOM     81  C   UNL A   1      45.707  45.140  20.683  1.00  0.00     0.022 C 
ATOM     82  C   UNL A   1      44.018  43.406  20.663  1.00  0.00     0.120 C 
ATOM     83  C   UNL A   1      46.360  43.799  20.356  1.00  0.00     0.014 C 
ATOM     84  C   UNL A   1      45.115  45.648  19.332  1.00  0.00     0.097 C 
ATOM     85  C   UNL A   1      45.145  43.241  19.653  1.00  0.00     0.047 C 
ATOM     86  C   UNL A   1      42.851  43.677  19.743  1.00  0.00     0.310 C 
ATOM     87  C   UNL A   1      44.737  44.310  18.637  1.00  0.00     0.194 C 
ATOM     88  O   UNL A   1      43.316  44.171  18.551  1.00  0.00    -0.461 OA
ATOM     89  O   UNL A   1      41.681  43.515  20.008  1.00  0.00    -0.252 OA
BRANCH  84  90
ATOM     90  S   UNL A   1      46.092  46.803  18.293  1.00  0.00    -0.119 SA
BRANCH  90  91
ATOM     91  C   UNL A   1      45.229  48.322  18.575  1.00  0.00     0.008 A 
ATOM     92  C   UNL A   1      44.652  48.999  17.497  1.00  0.00     0.015 A 
ATOM     93  C   UNL A   1      45.020  48.773  19.879  1.00  0.00     0.015 A 
ATOM     94  C   UNL A   1      43.794  50.070  17.730  1.00  0.00     0.001 A 
ATOM     95  C   UNL A   1      44.145  49.834  20.112  1.00  0.00     0.001 A 
ATOM     96  C   UNL A   1      43.521  50.470  19.038  1.00  0.00     0.000 A 
ENDBRANCH  90  91
ENDBRANCH  84  90
ENDBRANCH  78  80
ENDBRANCH  77  78
ENDBRANCH  76  77
ENDBRANCH  75  76
ENDBRANCH  74  75
ENDBRANCH  73  74
ENDBRANCH  72  73
ENDBRANCH  71  72
ENDBRANCH   1  71
TORSDOF 25
ENDMDL
MODEL 2
REMARK VINA RESULT:      -8.3     10.124     19.795
REMARK SMILES O=C(OCCOCCOCCOCCOC(=O)[C@H]1[C@H]2C[C@@H]3[C@@H](OC(=O)[C@@H]31)[C@@H]2Sc1ccccc1)c1ccc(-c2c3nc(c(-c4ccc(S(=O)(=O)[O-])cc4)c4ccc([nH]4)c(-c4ccc(S(=O)(=O)[O-])cc4)c4nc(c(-c5ccc(S(=O)(=O)[O-])cc5)c5ccc2[nH]5)C=C4)C=C3)cc1
REMARK SMILES IDX 8 1 7 2 6 3 5 4 4 5 3 6 2 7 1 8 35 9 36 10 94 11 37 12 93 13
REMARK SMILES IDX 38 14 39 15 40 16 87 17 41 18 92 19 86 20 88 21 42 22 91 23
REMARK SMILES IDX 85 24 84 25 43 27 73 28 54 29 72 30 55 31 58 32 71 33 89 34
REMARK SMILES IDX 56 35 57 36 70 38 90 39 59 40 44 41 45 42 53 43 46 44 52 45
REMARK SMILES IDX 47 46 48 47 49 48 50 49 51 50 74 51 75 52 83 53 76 54 82 55
REMARK SMILES IDX 77 56 78 57 79 58 80 59 81 60 60 61 61 62 69 63 62 64 68 65
REMARK SMILES IDX 63 66 64 67 65 68 66 69 67 70 9 71 10 72 11 73 12 74 13 75
REMARK SMILES IDX 14 76 15 77 16 78 17 79 18 80 19 81 26 82 20 83 27 84 21 85
REMARK SMILES IDX 24 86 22 87 23 88 25 89 28 90 29 91 30 92 34 93 31 94 33 95
REMARK SMILES IDX 32 96
REMARK H PARENT 88 26 58 37
REMARK Flexibility Score: inf
ROOT
ATOM      1  C   UNL A   1      43.802  23.663  30.299  1.00  0.00     0.188 C 
ENDROOT
BRANCH   1   2
ATOM      2  C   UNL A   1      43.943  24.430  28.981  1.00  0.00     0.188 C 
BRANCH   2   3
ATOM      3  O   UNL A   1      43.790  23.592  27.840  1.00  0.00    -0.376 OA
BRANCH   3   4
ATOM      4  C   UNL A   1      43.904  24.158  26.532  1.00  0.00     0.202 C 
BRANCH   4   5
ATOM      5  C   UNL A   1      42.713  23.974  25.604  1.00  0.00     0.261 C 
BRANCH   5   6
ATOM      6  O   UNL A   1      41.793  25.072  25.566  1.00  0.00    -0.460 OA
BRANCH   6   7
ATOM      7  C   UNL A   1      41.957  26.367  25.912  1.00  0.00     0.338 C 
ATOM      8  O   UNL A   1      42.212  27.172  25.016  1.00  0.00    -0.246 OA
BRANCH   7   9
ATOM      9  C   UNL A   1      41.853  26.899  27.301  1.00  0.00     0.060 A 
ATOM     10  C   UNL A   1      40.998  26.432  28.298  1.00  0.00     0.016 A 
ATOM     11  C   UNL A   1      42.779  27.893  27.652  1.00  0.00     0.016 A 
ATOM     12  C   UNL A   1      41.000  26.943  29.578  1.00  0.00     0.010 A 
ATOM     13  C   UNL A   1      42.796  28.426  28.941  1.00  0.00     0.010 A 
ATOM     14  C   UNL A   1      41.875  27.967  29.887  1.00  0.00    -0.014 A 
BRANCH  14  15
ATOM     15  C   UNL A   1      41.586  28.716  31.109  1.00  0.00     0.031 A 
ATOM     16  C   UNL A   1      40.383  29.600  31.071  1.00  0.00     0.074 A 
ATOM     17  C   UNL A   1      42.276  28.468  32.231  1.00  0.00     0.049 A 
ATOM     18  N   UNL A   1      39.984  30.488  31.933  1.00  0.00    -0.248 NA
ATOM     19  C   UNL A   1      39.504  29.460  29.892  1.00  0.00     0.031 C 
ATOM     20  C   UNL A   1      43.315  27.444  32.380  1.00  0.00     0.029 A 
ATOM     21  N   UNL A   1      42.193  29.048  33.463  1.00  0.00    -0.354 N 
ATOM     22  C   UNL A   1      38.852  31.061  31.368  1.00  0.00     0.074 A 
ATOM     23  C   UNL A   1      38.613  30.414  30.101  1.00  0.00     0.031 C 
ATOM     24  C   UNL A   1      43.786  27.483  33.637  1.00  0.00     0.029 A 
ATOM     25  C   UNL A   1      43.146  28.588  34.338  1.00  0.00     0.049 A 
ATOM     26  H   UNL A   1      41.519  29.724  33.700  1.00  0.00     0.167 HD
ATOM     27  C   UNL A   1      38.105  32.067  31.872  1.00  0.00     0.031 A 
ATOM     28  C   UNL A   1      43.498  29.076  35.541  1.00  0.00     0.031 A 
ATOM     29  C   UNL A   1      38.415  32.676  33.134  1.00  0.00     0.049 A 
ATOM     30  C   UNL A   1      42.741  30.278  36.036  1.00  0.00     0.074 A 
ATOM     31  C   UNL A   1      37.814  33.753  33.752  1.00  0.00     0.029 A 
ATOM     32  N   UNL A   1      39.436  32.241  33.973  1.00  0.00    -0.354 N 
ATOM     33  N   UNL A   1      41.744  30.913  35.459  1.00  0.00    -0.248 NA
ATOM     34  C   UNL A   1      43.154  30.841  37.323  1.00  0.00     0.031 C 
ATOM     35  C   UNL A   1      38.514  34.006  34.936  1.00  0.00     0.029 A 
ATOM     36  C   UNL A   1      39.498  33.037  35.097  1.00  0.00     0.049 A 
ATOM     37  H   UNL A   1      40.028  31.475  33.791  1.00  0.00     0.167 HD
ATOM     38  C   UNL A   1      41.385  31.932  36.328  1.00  0.00     0.074 A 
ATOM     39  C   UNL A   1      42.277  31.826  37.470  1.00  0.00     0.031 C 
ATOM     40  C   UNL A   1      40.408  32.867  36.207  1.00  0.00     0.031 A 
BRANCH  27  41
ATOM     41  C   UNL A   1      37.016  32.615  30.992  1.00  0.00    -0.014 A 
ATOM     42  C   UNL A   1      37.274  33.556  29.978  1.00  0.00     0.010 A 
ATOM     43  C   UNL A   1      35.685  32.237  31.247  1.00  0.00     0.010 A 
ATOM     44  C   UNL A   1      36.218  34.153  29.281  1.00  0.00     0.020 A 
ATOM     45  C   UNL A   1      34.629  32.805  30.530  1.00  0.00     0.020 A 
ATOM     46  C   UNL A   1      34.901  33.779  29.568  1.00  0.00     0.054 A 
BRANCH  46  47
ATOM     47  S   UNL A   1      33.549  34.582  28.665  1.00  0.00     0.124 S 
ATOM     48  O   UNL A   1      32.613  34.898  29.740  1.00  0.00    -0.237 OA
ATOM     49  O   UNL A   1      34.211  35.731  28.052  1.00  0.00    -0.237 OA
ATOM     50  O   UNL A   1      33.097  33.555  27.730  1.00  0.00    -0.744 OA
ENDBRANCH  46  47
ENDBRANCH  27  41
BRANCH  28  51
ATOM     51  C   UNL A   1      44.642  28.476  36.279  1.00  0.00    -0.014 A 
ATOM     52  C   UNL A   1      44.453  27.404  37.165  1.00  0.00     0.010 A 
ATOM     53  C   UNL A   1      45.953  28.941  36.047  1.00  0.00     0.010 A 
ATOM     54  C   UNL A   1      45.548  26.809  37.804  1.00  0.00     0.020 A 
ATOM     55  C   UNL A   1      47.052  28.333  36.659  1.00  0.00     0.020 A 
ATOM     56  C   UNL A   1      46.841  27.272  37.540  1.00  0.00     0.054 A 
BRANCH  56  57
ATOM     57  S   UNL A   1      48.248  26.438  38.326  1.00  0.00     0.124 S 
ATOM     58  O   UNL A   1      47.710  26.108  39.642  1.00  0.00    -0.237 OA
ATOM     59  O   UNL A   1      48.480  25.306  37.434  1.00  0.00    -0.237 OA
ATOM     60  O   UNL A   1      49.299  27.453  38.317  1.00  0.00    -0.744 OA
ENDBRANCH  56  57
ENDBRANCH  28  51
BRANCH  40  61
ATOM     61  C   UNL A   1      40.211  33.797  37.366  1.00  0.00    -0.014 A 
ATOM     62  C   UNL A   1      39.355  33.472  38.431  1.00  0.00     0.010 A 
ATOM     63  C   UNL A   1      40.994  34.964  37.433  1.00  0.00     0.010 A 
ATOM     64  C   UNL A   1      39.279  34.309  39.544  1.00  0.00     0.020 A 
ATOM     65  C   UNL A   1      40.946  35.784  38.557  1.00  0.00     0.020 A 
ATOM     66  C   UNL A   1      40.082  35.454  39.604  1.00  0.00     0.054 A 
BRANCH  66  67
ATOM     67  S   UNL A   1      40.032  36.472  41.099  1.00  0.00     0.124 S 
ATOM     68  O   UNL A   1      40.295  35.488  42.145  1.00  0.00    -0.237 OA
ATOM     69  O   UNL A   1      41.100  37.440  40.862  1.00  0.00    -0.237 OA
ATOM     70  O   UNL A   1      38.682  37.030  41.094  1.00  0.00    -0.744 OA
ENDBRANCH  66  67
ENDBRANCH  40  61
ENDBRANCH  14  15
ENDBRANCH   7   9
ENDBRANCH   6   7
ENDBRANCH   5   6
ENDBRANCH   4   5
ENDBRANCH   3   4
ENDBRANCH   2   3
ENDBRANCH   1   2
BRANCH   1  71
ATOM     71  O   UNL A   1      44.476  24.191  31.438  1.00  0.00    -0.377 OA
BRANCH  71  72
ATOM     72  C   UNL A   1      44.167  23.570  32.674  1.00  0.00     0.188 C 
BRANCH  72  73
ATOM     73  C   UNL A   1      45.065  23.793  33.916  1.00  0.00     0.188 C 
BRANCH  73  74
ATOM     74  O   UNL A   1      46.207  22.988  34.105  1.00  0.00    -0.376 OA
BRANCH  74  75
ATOM     75  C   UNL A   1      47.405  23.415  34.734  1.00  0.00     0.202 C 
BRANCH  75  76
ATOM     76  C   UNL A   1      48.738  22.644  34.807  1.00  0.00     0.261 C 
BRANCH  76  77
ATOM     77  O   UNL A   1      48.644  21.229  34.910  1.00  0.00    -0.463 OA
BRANCH  77  78
ATOM     78  C   UNL A   1      49.365  20.669  35.911  1.00  0.00     0.310 C 
ATOM     79  O   UNL A   1      50.563  20.825  36.099  1.00  0.00    -0.252 OA
BRANCH  78  80
ATOM     80  C   UNL A   1      48.444  19.931  36.860  1.00  0.00     0.118 C 
ATOM     81  C   UNL A   1      48.707  20.225  38.341  1.00  0.00     0.022 C 
ATOM     82  C   UNL A   1      46.969  20.365  36.662  1.00  0.00     0.120 C 
ATOM     83  C   UNL A   1      47.998  21.572  38.455  1.00  0.00     0.014 C 
ATOM     84  C   UNL A   1      47.797  19.218  39.111  1.00  0.00     0.097 C 
ATOM     85  C   UNL A   1      46.662  21.046  37.988  1.00  0.00     0.047 C 
ATOM     86  C   UNL A   1      45.975  19.229  36.691  1.00  0.00     0.310 C 
ATOM     87  C   UNL A   1      46.386  19.814  38.851  1.00  0.00     0.194 C 
ATOM     88  O   UNL A   1      45.628  18.959  37.990  1.00  0.00    -0.461 OA
ATOM     89  O   UNL A   1      45.558  18.620  35.731  1.00  0.00    -0.252 OA
BRANCH  84  90
ATOM     90  S   UNL A   1      48.157  18.834  40.870  1.00  0.00    -0.119 SA
BRANCH  90  91
ATOM     91  C   UNL A   1      46.612  18.145  41.387  1.00  0.00     0.008 A 
ATOM     92  C   UNL A   1      45.706  18.937  42.099  1.00  0.00     0.015 A 
ATOM     93  C   UNL A   1      46.250  16.860  40.979  1.00  0.00     0.015 A 
ATOM     94  C   UNL A   1      44.410  18.478  42.321  1.00  0.00     0.001 A 
ATOM     95  C   UNL A   1      44.945  16.410  41.185  1.00  0.00     0.001 A 
ATOM     96  C   UNL A   1      44.023  17.226  41.841  1.00  0.00     0.000 A 
ENDBRANCH  90  91
ENDBRANCH  84  90
ENDBRANCH  78  80
ENDBRANCH  77  78
ENDBRANCH  76  77
ENDBRANCH  75  76
ENDBRANCH  74  75
ENDBRANCH  73  74
ENDBRANCH  72  73
ENDBRANCH  71  72
ENDBRANCH   1  71
TORSDOF 25
ENDMDL
MODEL 3
REMARK VINA RESULT:      -8.3      9.787     18.407
REMARK SMILES O=C(OCCOCCOCCOCCOC(=O)[C@H]1[C@H]2C[C@@H]3[C@@H](OC(=O)[C@@H]31)[C@@H]2Sc1ccccc1)c1ccc(-c2c3nc(c(-c4ccc(S(=O)(=O)[O-])cc4)c4ccc([nH]4)c(-c4ccc(S(=O)(=O)[O-])cc4)c4nc(c(-c5ccc(S(=O)(=O)[O-])cc5)c5ccc2[nH]5)C=C4)C=C3)cc1
REMARK SMILES IDX 8 1 7 2 6 3 5 4 4 5 3 6 2 7 1 8 35 9 36 10 94 11 37 12 93 13
REMARK SMILES IDX 38 14 39 15 40 16 87 17 41 18 92 19 86 20 88 21 42 22 91 23
REMARK SMILES IDX 85 24 84 25 43 27 73 28 54 29 72 30 55 31 58 32 71 33 89 34
REMARK SMILES IDX 56 35 57 36 70 38 90 39 59 40 44 41 45 42 53 43 46 44 52 45
REMARK SMILES IDX 47 46 48 47 49 48 50 49 51 50 74 51 75 52 83 53 76 54 82 55
REMARK SMILES IDX 77 56 78 57 79 58 80 59 81 60 60 61 61 62 69 63 62 64 68 65
REMARK SMILES IDX 63 66 64 67 65 68 66 69 67 70 9 71 10 72 11 73 12 74 13 75
REMARK SMILES IDX 14 76 15 77 16 78 17 79 18 80 19 81 26 82 20 83 27 84 21 85
REMARK SMILES IDX 24 86 22 87 23 88 25 89 28 90 29 91 30 92 34 93 31 94 33 95
REMARK SMILES IDX 32 96
REMARK H PARENT 88 26 58 37
REMARK Flexibility Score: inf
ROOT
ATOM      1  C   UNL A   1      40.313  24.884  27.585  1.00  0.00     0.188 C 
ENDROOT
BRANCH   1   2
ATOM      2  C   UNL A   1      40.202  26.328  28.083  1.00  0.00     0.188 C 
BRANCH   2   3
ATOM      3  O   UNL A   1      39.830  27.236  27.051  1.00  0.00    -0.376 OA
BRANCH   3   4
ATOM      4  C   UNL A   1      40.324  28.577  27.084  1.00  0.00     0.202 C 
BRANCH   4   5
ATOM      5  C   UNL A   1      41.373  28.942  26.044  1.00  0.00     0.261 C 
BRANCH   5   6
ATOM      6  O   UNL A   1      42.717  29.026  26.535  1.00  0.00    -0.460 OA
BRANCH   6   7
ATOM      7  C   UNL A   1      43.327  29.983  27.265  1.00  0.00     0.338 C 
ATOM      8  O   UNL A   1      44.060  30.776  26.673  1.00  0.00    -0.246 OA
BRANCH   7   9
ATOM      9  C   UNL A   1      43.182  30.156  28.739  1.00  0.00     0.060 A 
ATOM     10  C   UNL A   1      42.753  29.184  29.641  1.00  0.00     0.016 A 
ATOM     11  C   UNL A   1      43.619  31.382  29.264  1.00  0.00     0.016 A 
ATOM     12  C   UNL A   1      42.698  29.404  31.001  1.00  0.00     0.010 A 
ATOM     13  C   UNL A   1      43.568  31.627  30.635  1.00  0.00     0.010 A 
ATOM     14  C   UNL A   1      43.070  30.641  31.492  1.00  0.00    -0.014 A 
BRANCH  14  15
ATOM     15  C   UNL A   1      42.645  30.948  32.857  1.00  0.00     0.031 A 
ATOM     16  C   UNL A   1      41.262  31.492  33.009  1.00  0.00     0.074 A 
ATOM     17  C   UNL A   1      43.407  30.587  33.898  1.00  0.00     0.049 A 
ATOM     18  N   UNL A   1      40.686  31.997  34.059  1.00  0.00    -0.248 NA
ATOM     19  C   UNL A   1      40.409  31.459  31.804  1.00  0.00     0.031 C 
ATOM     20  C   UNL A   1      44.668  29.843  33.811  1.00  0.00     0.029 A 
ATOM     21  N   UNL A   1      43.223  30.783  35.236  1.00  0.00    -0.354 N 
ATOM     22  C   UNL A   1      39.431  32.406  33.625  1.00  0.00     0.074 A 
ATOM     23  C   UNL A   1      39.320  32.079  32.225  1.00  0.00     0.031 C 
ATOM     24  C   UNL A   1      45.153  29.663  35.050  1.00  0.00     0.029 A 
ATOM     25  C   UNL A   1      44.285  30.355  35.993  1.00  0.00     0.049 A 
ATOM     26  H   UNL A   1      42.412  31.189  35.618  1.00  0.00     0.167 HD
ATOM     27  C   UNL A   1      38.478  33.032  34.348  1.00  0.00     0.031 A 
ATOM     28  C   UNL A   1      44.543  30.577  37.294  1.00  0.00     0.031 A 
ATOM     29  C   UNL A   1      38.668  33.343  35.736  1.00  0.00     0.049 A 
ATOM     30  C   UNL A   1      43.532  31.387  38.060  1.00  0.00     0.074 A 
ATOM     31  C   UNL A   1      37.842  34.040  36.593  1.00  0.00     0.029 A 
ATOM     32  N   UNL A   1      39.789  32.962  36.468  1.00  0.00    -0.354 N 
ATOM     33  N   UNL A   1      42.393  31.889  37.634  1.00  0.00    -0.248 NA
ATOM     34  C   UNL A   1      43.834  31.672  39.464  1.00  0.00     0.031 C 
ATOM     35  C   UNL A   1      38.494  34.133  37.827  1.00  0.00     0.029 A 
ATOM     36  C   UNL A   1      39.689  33.424  37.763  1.00  0.00     0.049 A 
ATOM     37  H   UNL A   1      40.544  32.439  36.113  1.00  0.00     0.167 HD
ATOM     38  C   UNL A   1      41.824  32.525  38.727  1.00  0.00     0.074 A 
ATOM     39  C   UNL A   1      42.749  32.341  39.833  1.00  0.00     0.031 C 
ATOM     40  C   UNL A   1      40.646  33.193  38.821  1.00  0.00     0.031 A 
BRANCH  27  41
ATOM     41  C   UNL A   1      37.262  33.512  33.604  1.00  0.00    -0.014 A 
ATOM     42  C   UNL A   1      37.298  34.633  32.755  1.00  0.00     0.010 A 
ATOM     43  C   UNL A   1      36.032  32.869  33.831  1.00  0.00     0.010 A 
ATOM     44  C   UNL A   1      36.117  35.138  32.198  1.00  0.00     0.020 A 
ATOM     45  C   UNL A   1      34.855  33.349  33.251  1.00  0.00     0.020 A 
ATOM     46  C   UNL A   1      34.901  34.496  32.457  1.00  0.00     0.054 A 
BRANCH  46  47
ATOM     47  S   UNL A   1      33.383  35.180  31.741  1.00  0.00     0.124 S 
ATOM     48  O   UNL A   1      33.646  36.616  31.792  1.00  0.00    -0.237 OA
ATOM     49  O   UNL A   1      33.366  34.593  30.404  1.00  0.00    -0.237 OA
ATOM     50  O   UNL A   1      32.332  34.709  32.639  1.00  0.00    -0.744 OA
ENDBRANCH  46  47
ENDBRANCH  27  41
BRANCH  28  51
ATOM     51  C   UNL A   1      45.821  30.100  37.889  1.00  0.00    -0.014 A 
ATOM     52  C   UNL A   1      46.936  30.948  37.989  1.00  0.00     0.010 A 
ATOM     53  C   UNL A   1      45.909  28.797  38.419  1.00  0.00     0.010 A 
ATOM     54  C   UNL A   1      48.111  30.504  38.609  1.00  0.00     0.020 A 
ATOM     55  C   UNL A   1      47.070  28.359  39.063  1.00  0.00     0.020 A 
ATOM     56  C   UNL A   1      48.167  29.215  39.149  1.00  0.00     0.054 A 
BRANCH  56  57
ATOM     57  S   UNL A   1      49.677  28.690  40.008  1.00  0.00     0.124 S 
ATOM     58  O   UNL A   1      50.598  28.470  38.897  1.00  0.00    -0.237 OA
ATOM     59  O   UNL A   1      49.971  29.842  40.857  1.00  0.00    -0.237 OA
ATOM     60  O   UNL A   1      49.264  27.487  40.726  1.00  0.00    -0.744 OA
ENDBRANCH  56  57
ENDBRANCH  28  51
BRANCH  40  61
ATOM     61  C   UNL A   1      40.263  33.708  40.177  1.00  0.00    -0.014 A 
ATOM     62  C   UNL A   1      40.705  34.958  40.638  1.00  0.00     0.010 A 
ATOM     63  C   UNL A   1      39.347  32.965  40.944  1.00  0.00     0.010 A 
ATOM     64  C   UNL A   1      40.241  35.454  41.856  1.00  0.00     0.020 A 
ATOM     65  C   UNL A   1      38.856  33.472  42.144  1.00  0.00     0.020 A 
ATOM     66  C   UNL A   1      39.312  34.713  42.596  1.00  0.00     0.054 A 
BRANCH  66  67
ATOM     67  S   UNL A   1      38.657  35.421  44.127  1.00  0.00     0.124 S 
ATOM     68  O   UNL A   1      39.171  34.496  45.134  1.00  0.00    -0.237 OA
ATOM     69  O   UNL A   1      39.248  36.756  44.139  1.00  0.00    -0.237 OA
ATOM     70  O   UNL A   1      37.209  35.388  43.933  1.00  0.00    -0.744 OA
ENDBRANCH  66  67
ENDBRANCH  40  61
ENDBRANCH  14  15
ENDBRANCH   7   9
ENDBRANCH   6   7
ENDBRANCH   5   6
ENDBRANCH   4   5
ENDBRANCH   3   4
ENDBRANCH   2   3
ENDBRANCH   1   2
BRANCH   1  71
ATOM     71  O   UNL A   1      41.337  24.073  28.155  1.00  0.00    -0.377 OA
BRANCH  71  72
ATOM     72  C   UNL A   1      41.969  23.170  27.264  1.00  0.00     0.188 C 
BRANCH  72  73
ATOM     73  C   UNL A   1      41.299  21.821  26.901  1.00  0.00     0.188 C 
BRANCH  73  74
ATOM     74  O   UNL A   1      40.321  21.780  25.886  1.00  0.00    -0.376 OA
BRANCH  74  75
ATOM     75  C   UNL A   1      38.921  21.868  26.106  1.00  0.00     0.202 C 
BRANCH  75  76
ATOM     76  C   UNL A   1      37.803  21.497  25.112  1.00  0.00     0.261 C 
BRANCH  76  77
ATOM     77  O   UNL A   1      36.555  21.117  25.680  1.00  0.00    -0.463 OA
BRANCH  77  78
ATOM     78  C   UNL A   1      35.600  22.077  25.681  1.00  0.00     0.310 C 
ATOM     79  O   UNL A   1      35.554  23.035  26.440  1.00  0.00    -0.252 OA
BRANCH  78  80
ATOM     80  C   UNL A   1      34.666  21.877  24.506  1.00  0.00     0.118 C 
ATOM     81  C   UNL A   1      33.701  20.697  24.667  1.00  0.00     0.022 C 
ATOM     82  C   UNL A   1      33.722  23.093  24.325  1.00  0.00     0.120 C 
ATOM     83  C   UNL A   1      32.665  21.349  25.579  1.00  0.00     0.014 C 
ATOM     84  C   UNL A   1      33.001  20.566  23.280  1.00  0.00     0.097 C 
ATOM     85  C   UNL A   1      32.361  22.482  24.627  1.00  0.00     0.047 C 
ATOM     86  C   UNL A   1      33.526  23.524  22.891  1.00  0.00     0.310 C 
ATOM     87  C   UNL A   1      32.076  21.815  23.280  1.00  0.00     0.194 C 
ATOM     88  O   UNL A   1      32.527  22.777  22.323  1.00  0.00    -0.461 OA
ATOM     89  O   UNL A   1      34.161  24.376  22.308  1.00  0.00    -0.252 OA
BRANCH  84  90
ATOM     90  S   UNL A   1      32.167  18.994  22.830  1.00  0.00    -0.119 SA
BRANCH  90  91
ATOM     91  C   UNL A   1      32.961  17.863  23.936  1.00  0.00     0.008 A 
ATOM     92  C   UNL A   1      32.281  17.414  25.071  1.00  0.00     0.015 A 
ATOM     93  C   UNL A   1      34.208  17.328  23.609  1.00  0.00     0.015 A 
ATOM     94  C   UNL A   1      32.805  16.368  25.825  1.00  0.00     0.001 A 
ATOM     95  C   UNL A   1      34.723  16.267  24.354  1.00  0.00     0.001 A 
ATOM     96  C   UNL A   1      34.013  15.778  25.451  1.00  0.00     0.000 A 
ENDBRANCH  90  91
ENDBRANCH  84  90
ENDBRANCH  78  80
ENDBRANCH  77  78
ENDBRANCH  76  77
ENDBRANCH  75  76
ENDBRANCH  74  75
ENDBRANCH  73  74
ENDBRANCH  72  73
ENDBRANCH  71  72
ENDBRANCH   1  71
TORSDOF 25
ENDMDL
