MODEL 1
REMARK VINA RESULT:     -10.9      0.000      0.000
REMARK SMILES Cc1cnn(C2(C(=O)OCCOCCOCCOCCOC(=O)c3ccc(-c4c5nc(c(-c6ccc(S(=O)(=O)[O-])cc6)c6ccc([nH]6)c(-c6ccc(S(=O)(=O)[O-])cc6)c6nc(c(-c7ccc(S(=O)(=O)[O-])cc7)c7ccc4[nH]7)C=C6)C=C5)cc3)CCN(C(=O)c3cc4ccccc4[nH]3)CC2)c1
REMARK SMILES IDX 16 1 15 2 14 3 13 4 12 5 11 6 10 7 9 8 7 9 8 10 6 11 84 12
REMARK SMILES IDX 99 13 85 14 98 15 86 16 87 17 88 18 5 19 1 20 2 21 3 22
REMARK SMILES IDX 100 23 4 24 89 25 90 26 97 27 91 28 96 29 92 31 95 32 93 33
REMARK SMILES IDX 94 34 17 35 18 36 19 37 20 38 21 39 22 40 23 41 24 42 25 43
REMARK SMILES IDX 83 44 26 45 82 46 27 47 28 48 29 49 76 50 30 51 81 52 75 53
REMARK SMILES IDX 77 54 31 55 80 56 74 57 73 58 32 60 62 61 43 62 61 63 44 64
REMARK SMILES IDX 47 65 60 66 78 67 45 68 46 69 59 71 79 72 48 73 33 74 34 75
REMARK SMILES IDX 42 76 35 77 41 78 36 79 37 80 38 81 39 82 40 83 63 84 64 85
REMARK SMILES IDX 72 86 65 87 71 88 66 89 67 90 68 91 69 92 70 93 49 94 50 95
REMARK SMILES IDX 58 96 51 97 57 98 52 99 53 100 54 101 55 102 56 103
REMARK H PARENT 97 30 77 59 47 70
REMARK Flexibility Score: inf
ROOT
ATOM      1  C   UNL A   1      42.053  19.204  27.033  1.00  0.00     0.188 C 
ENDROOT
BRANCH   1   2
ATOM      2  O   UNL A   1      40.917  20.034  26.847  1.00  0.00    -0.377 OA
BRANCH   2   3
ATOM      3  C   UNL A   1      40.035  19.621  25.820  1.00  0.00     0.188 C 
BRANCH   3   4
ATOM      4  C   UNL A   1      38.767  20.477  25.658  1.00  0.00     0.188 C 
BRANCH   4   5
ATOM      5  O   UNL A   1      38.859  21.898  25.701  1.00  0.00    -0.376 OA
BRANCH   5   6
ATOM      6  C   UNL A   1      37.701  22.671  25.426  1.00  0.00     0.202 C 
BRANCH   6   7
ATOM      7  C   UNL A   1      36.547  22.052  24.618  1.00  0.00     0.261 C 
BRANCH   7   8
ATOM      8  O   UNL A   1      35.460  21.478  25.378  1.00  0.00    -0.461 OA
BRANCH   8   9
ATOM      9  C   UNL A   1      34.622  22.354  26.003  1.00  0.00     0.334 C 
ATOM     10  O   UNL A   1      34.995  23.099  26.909  1.00  0.00    -0.249 OA
BRANCH   9  11
ATOM     11  C   UNL A   1      33.120  22.225  25.595  1.00  0.00     0.163 C 
ATOM     12  C   UNL A   1      32.078  22.369  26.735  1.00  0.00     0.064 C 
ATOM     13  C   UNL A   1      33.005  23.414  24.610  1.00  0.00     0.064 C 
ATOM     14  C   UNL A   1      30.690  22.793  26.270  1.00  0.00     0.123 C 
ATOM     15  C   UNL A   1      31.601  23.846  24.239  1.00  0.00     0.123 C 
ATOM     16  N   UNL A   1      30.748  23.959  25.414  1.00  0.00    -0.337 N 
ATOM     17  C   UNL A   1      30.012  25.093  25.749  1.00  0.00     0.270 C 
ATOM     18  O   UNL A   1      29.520  25.255  26.866  1.00  0.00    -0.267 OA
BRANCH  11  19
ATOM     19  N   UNL A   1      32.939  20.906  24.951  1.00  0.00    -0.255 N 
ATOM     20  C   UNL A   1      32.312  18.420  22.340  1.00  0.00     0.048 C 
ATOM     21  C   UNL A   1      32.557  19.237  23.546  1.00  0.00    -0.013 A 
ATOM     22  C   UNL A   1      32.691  18.795  24.873  1.00  0.00     0.138 A 
ATOM     23  C   UNL A   1      32.685  20.607  23.639  1.00  0.00     0.113 A 
ATOM     24  N   UNL A   1      32.839  19.805  25.727  1.00  0.00    -0.180 NA
ENDBRANCH  11  19
BRANCH  17  25
ATOM     25  C   UNL A   1      29.905  26.103  24.730  1.00  0.00     0.105 A 
ATOM     26  C   UNL A   1      30.883  26.902  24.163  1.00  0.00     0.042 A 
ATOM     27  N   UNL A   1      28.714  26.452  24.142  1.00  0.00    -0.351 N 
ATOM     28  C   UNL A   1      30.235  27.893  23.384  1.00  0.00     0.000 A 
ATOM     29  C   UNL A   1      28.871  27.606  23.409  1.00  0.00     0.046 A 
ATOM     30  H   UNL A   1      27.872  25.950  24.231  1.00  0.00     0.167 HD
ATOM     31  C   UNL A   1      30.681  29.029  22.686  1.00  0.00     0.010 A 
ATOM     32  C   UNL A   1      27.919  28.410  22.777  1.00  0.00     0.026 A 
ATOM     33  C   UNL A   1      29.742  29.850  22.054  1.00  0.00     0.001 A 
ATOM     34  C   UNL A   1      28.382  29.544  22.102  1.00  0.00     0.002 A 
ENDBRANCH  17  25
ENDBRANCH   9  11
ENDBRANCH   8   9
ENDBRANCH   7   8
ENDBRANCH   6   7
ENDBRANCH   5   6
ENDBRANCH   4   5
ENDBRANCH   3   4
ENDBRANCH   2   3
ENDBRANCH   1   2
BRANCH   1  35
ATOM     35  C   UNL A   1      42.747  18.657  25.768  1.00  0.00     0.188 C 
BRANCH  35  36
ATOM     36  O   UNL A   1      44.074  18.165  25.977  1.00  0.00    -0.376 OA
BRANCH  36  37
ATOM     37  C   UNL A   1      45.179  18.862  25.416  1.00  0.00     0.202 C 
BRANCH  37  38
ATOM     38  C   UNL A   1      44.838  20.213  24.778  1.00  0.00     0.261 C 
BRANCH  38  39
ATOM     39  O   UNL A   1      44.794  21.286  25.708  1.00  0.00    -0.460 OA
BRANCH  39  40
ATOM     40  C   UNL A   1      43.921  22.261  25.427  1.00  0.00     0.338 C 
ATOM     41  O   UNL A   1      42.741  22.125  25.082  1.00  0.00    -0.246 OA
BRANCH  40  42
ATOM     42  C   UNL A   1      44.572  23.559  25.548  1.00  0.00     0.060 A 
ATOM     43  C   UNL A   1      45.381  23.725  26.672  1.00  0.00     0.016 A 
ATOM     44  C   UNL A   1      44.097  24.641  24.786  1.00  0.00     0.016 A 
ATOM     45  C   UNL A   1      45.397  24.963  27.250  1.00  0.00     0.010 A 
ATOM     46  C   UNL A   1      44.116  25.882  25.363  1.00  0.00     0.010 A 
ATOM     47  C   UNL A   1      44.633  25.969  26.652  1.00  0.00    -0.014 A 
BRANCH  47  48
ATOM     48  C   UNL A   1      44.193  27.030  27.523  1.00  0.00     0.031 A 
ATOM     49  C   UNL A   1      45.093  28.182  27.588  1.00  0.00     0.074 A 
ATOM     50  C   UNL A   1      43.031  26.929  28.191  1.00  0.00     0.049 A 
ATOM     51  N   UNL A   1      45.800  28.574  28.591  1.00  0.00    -0.248 NA
ATOM     52  C   UNL A   1      45.344  28.896  26.331  1.00  0.00     0.031 C 
ATOM     53  C   UNL A   1      41.937  25.975  27.972  1.00  0.00     0.029 A 
ATOM     54  N   UNL A   1      42.530  27.766  29.133  1.00  0.00    -0.354 N 
ATOM     55  C   UNL A   1      46.469  29.702  28.145  1.00  0.00     0.074 A 
ATOM     56  C   UNL A   1      46.291  29.750  26.714  1.00  0.00     0.031 C 
ATOM     57  C   UNL A   1      40.821  26.450  28.567  1.00  0.00     0.029 A 
ATOM     58  C   UNL A   1      41.160  27.659  29.300  1.00  0.00     0.049 A 
ATOM     59  H   UNL A   1      43.088  28.392  29.648  1.00  0.00     0.167 HD
ATOM     60  C   UNL A   1      46.945  30.645  28.999  1.00  0.00     0.031 A 
ATOM     61  C   UNL A   1      40.363  28.587  29.882  1.00  0.00     0.031 A 
ATOM     62  C   UNL A   1      46.972  30.185  30.362  1.00  0.00     0.049 A 
ATOM     63  C   UNL A   1      41.233  29.458  30.720  1.00  0.00     0.074 A 
ATOM     64  C   UNL A   1      47.647  29.184  31.030  1.00  0.00     0.029 A 
ATOM     65  N   UNL A   1      45.926  30.558  31.176  1.00  0.00    -0.354 N 
ATOM     66  N   UNL A   1      41.863  29.042  31.784  1.00  0.00    -0.248 NA
ATOM     67  C   UNL A   1      41.753  30.687  30.139  1.00  0.00     0.031 C 
ATOM     68  C   UNL A   1      46.736  28.711  32.018  1.00  0.00     0.029 A 
ATOM     69  C   UNL A   1      45.562  29.461  31.918  1.00  0.00     0.049 A 
ATOM     70  H   UNL A   1      45.513  31.449  31.218  1.00  0.00     0.167 HD
ATOM     71  C   UNL A   1      43.084  29.708  31.769  1.00  0.00     0.074 A 
ATOM     72  C   UNL A   1      42.910  30.786  30.802  1.00  0.00     0.031 C 
ATOM     73  C   UNL A   1      44.203  29.155  32.327  1.00  0.00     0.031 A 
BRANCH  60  74
ATOM     74  C   UNL A   1      47.053  32.094  28.626  1.00  0.00    -0.014 A 
ATOM     75  C   UNL A   1      46.270  33.040  29.311  1.00  0.00     0.010 A 
ATOM     76  C   UNL A   1      47.716  32.527  27.457  1.00  0.00     0.010 A 
ATOM     77  C   UNL A   1      46.116  34.340  28.815  1.00  0.00     0.020 A 
ATOM     78  C   UNL A   1      47.612  33.831  26.984  1.00  0.00     0.020 A 
ATOM     79  C   UNL A   1      46.778  34.719  27.644  1.00  0.00     0.054 A 
BRANCH  79  80
ATOM     80  S   UNL A   1      46.471  36.354  26.936  1.00  0.00     0.124 S 
ATOM     81  O   UNL A   1      45.012  36.399  26.917  1.00  0.00    -0.237 OA
ATOM     82  O   UNL A   1      47.123  37.239  27.898  1.00  0.00    -0.237 OA
ATOM     83  O   UNL A   1      47.114  36.284  25.626  1.00  0.00    -0.744 OA
ENDBRANCH  79  80
ENDBRANCH  60  74
BRANCH  61  84
ATOM     84  C   UNL A   1      39.008  28.978  29.417  1.00  0.00    -0.014 A 
ATOM     85  C   UNL A   1      37.913  28.981  30.297  1.00  0.00     0.010 A 
ATOM     86  C   UNL A   1      38.836  29.595  28.158  1.00  0.00     0.010 A 
ATOM     87  C   UNL A   1      36.711  29.622  29.950  1.00  0.00     0.020 A 
ATOM     88  C   UNL A   1      37.639  30.219  27.798  1.00  0.00     0.020 A 
ATOM     89  C   UNL A   1      36.588  30.252  28.708  1.00  0.00     0.054 A 
BRANCH  89  90
ATOM     90  S   UNL A   1      35.102  31.226  28.335  1.00  0.00     0.124 S 
ATOM     91  O   UNL A   1      35.621  32.247  27.431  1.00  0.00    -0.237 OA
ATOM     92  O   UNL A   1      34.218  30.234  27.732  1.00  0.00    -0.237 OA
ATOM     93  O   UNL A   1      34.675  31.716  29.645  1.00  0.00    -0.744 OA
ENDBRANCH  89  90
ENDBRANCH  61  84
BRANCH  73  94
ATOM     94  C   UNL A   1      44.035  27.945  33.220  1.00  0.00    -0.014 A 
ATOM     95  C   UNL A   1      43.633  28.035  34.567  1.00  0.00     0.010 A 
ATOM     96  C   UNL A   1      44.110  26.670  32.629  1.00  0.00     0.010 A 
ATOM     97  C   UNL A   1      43.332  26.883  35.308  1.00  0.00     0.020 A 
ATOM     98  C   UNL A   1      43.794  25.518  33.358  1.00  0.00     0.020 A 
ATOM     99  C   UNL A   1      43.411  25.629  34.696  1.00  0.00     0.054 A 
BRANCH  99 100
ATOM    100  S   UNL A   1      42.939  24.150  35.635  1.00  0.00     0.124 S 
ATOM    101  O   UNL A   1      41.486  24.272  35.712  1.00  0.00    -0.237 OA
ATOM    102  O   UNL A   1      43.435  23.059  34.797  1.00  0.00    -0.237 OA
ATOM    103  O   UNL A   1      43.641  24.307  36.908  1.00  0.00    -0.744 OA
ENDBRANCH  99 100
ENDBRANCH  73  94
ENDBRANCH  47  48
ENDBRANCH  40  42
ENDBRANCH  39  40
ENDBRANCH  38  39
ENDBRANCH  37  38
ENDBRANCH  36  37
ENDBRANCH  35  36
ENDBRANCH   1  35
TORSDOF 25
ENDMDL
MODEL 2
REMARK VINA RESULT:      -9.0      6.133     13.397
REMARK SMILES Cc1cnn(C2(C(=O)OCCOCCOCCOCCOC(=O)c3ccc(-c4c5nc(c(-c6ccc(S(=O)(=O)[O-])cc6)c6ccc([nH]6)c(-c6ccc(S(=O)(=O)[O-])cc6)c6nc(c(-c7ccc(S(=O)(=O)[O-])cc7)c7ccc4[nH]7)C=C6)C=C5)cc3)CCN(C(=O)c3cc4ccccc4[nH]3)CC2)c1
REMARK SMILES IDX 16 1 15 2 14 3 13 4 12 5 11 6 10 7 9 8 7 9 8 10 6 11 84 12
REMARK SMILES IDX 99 13 85 14 98 15 86 16 87 17 88 18 5 19 1 20 2 21 3 22
REMARK SMILES IDX 100 23 4 24 89 25 90 26 97 27 91 28 96 29 92 31 95 32 93 33
REMARK SMILES IDX 94 34 17 35 18 36 19 37 20 38 21 39 22 40 23 41 24 42 25 43
REMARK SMILES IDX 83 44 26 45 82 46 27 47 28 48 29 49 76 50 30 51 81 52 75 53
REMARK SMILES IDX 77 54 31 55 80 56 74 57 73 58 32 60 62 61 43 62 61 63 44 64
REMARK SMILES IDX 47 65 60 66 78 67 45 68 46 69 59 71 79 72 48 73 33 74 34 75
REMARK SMILES IDX 42 76 35 77 41 78 36 79 37 80 38 81 39 82 40 83 63 84 64 85
REMARK SMILES IDX 72 86 65 87 71 88 66 89 67 90 68 91 69 92 70 93 49 94 50 95
REMARK SMILES IDX 58 96 51 97 57 98 52 99 53 100 54 101 55 102 56 103
REMARK H PARENT 97 30 77 59 47 70
REMARK Flexibility Score: inf
ROOT
ATOM      1  C   UNL A   1      44.168  36.446  28.618  1.00  0.00     0.188 C 
ENDROOT
BRANCH   1   2
ATOM      2  O   UNL A   1      44.980  35.710  27.715  1.00  0.00    -0.377 OA
BRANCH   2   3
ATOM      3  C   UNL A   1      46.225  35.287  28.238  1.00  0.00     0.188 C 
BRANCH   3   4
ATOM      4  C   UNL A   1      46.936  34.183  27.435  1.00  0.00     0.188 C 
BRANCH   4   5
ATOM      5  O   UNL A   1      47.041  32.869  27.974  1.00  0.00    -0.376 OA
BRANCH   5   6
ATOM      6  C   UNL A   1      46.819  31.756  27.122  1.00  0.00     0.202 C 
BRANCH   6   7
ATOM      7  C   UNL A   1      47.576  30.440  27.377  1.00  0.00     0.261 C 
BRANCH   7   8
ATOM      8  O   UNL A   1      47.102  29.273  26.670  1.00  0.00    -0.461 OA
BRANCH   8   9
ATOM      9  C   UNL A   1      48.033  28.563  25.970  1.00  0.00     0.334 C 
ATOM     10  O   UNL A   1      49.192  28.950  25.825  1.00  0.00    -0.249 OA
BRANCH   9  11
ATOM     11  C   UNL A   1      47.475  27.305  25.231  1.00  0.00     0.163 C 
ATOM     12  C   UNL A   1      48.097  25.939  25.624  1.00  0.00     0.064 C 
ATOM     13  C   UNL A   1      45.993  27.366  25.674  1.00  0.00     0.064 C 
ATOM     14  C   UNL A   1      47.207  24.736  25.340  1.00  0.00     0.123 C 
ATOM     15  C   UNL A   1      45.170  26.117  25.439  1.00  0.00     0.123 C 
ATOM     16  N   UNL A   1      45.875  24.921  25.878  1.00  0.00    -0.337 N 
ATOM     17  C   UNL A   1      45.356  23.977  26.762  1.00  0.00     0.270 C 
ATOM     18  O   UNL A   1      46.060  23.132  27.314  1.00  0.00    -0.267 OA
BRANCH  11  19
ATOM     19  N   UNL A   1      47.667  27.514  23.780  1.00  0.00    -0.255 N 
ATOM     20  C   UNL A   1      49.174  27.289  20.452  1.00  0.00     0.048 C 
ATOM     21  C   UNL A   1      48.417  27.541  21.695  1.00  0.00    -0.013 A 
ATOM     22  C   UNL A   1      47.304  28.379  21.871  1.00  0.00     0.138 A 
ATOM     23  C   UNL A   1      48.647  27.027  22.955  1.00  0.00     0.113 A 
ATOM     24  N   UNL A   1      46.905  28.425  23.140  1.00  0.00    -0.180 NA
ENDBRANCH  11  19
BRANCH  17  25
ATOM     25  C   UNL A   1      43.949  24.081  27.043  1.00  0.00     0.105 A 
ATOM     26  C   UNL A   1      42.878  23.406  26.483  1.00  0.00     0.042 A 
ATOM     27  N   UNL A   1      43.432  24.948  27.974  1.00  0.00    -0.351 N 
ATOM     28  C   UNL A   1      41.688  24.035  26.930  1.00  0.00     0.000 A 
ATOM     29  C   UNL A   1      42.064  25.019  27.843  1.00  0.00     0.046 A 
ATOM     30  H   UNL A   1      43.962  25.446  28.637  1.00  0.00     0.167 HD
ATOM     31  C   UNL A   1      40.327  23.879  26.614  1.00  0.00     0.010 A 
ATOM     32  C   UNL A   1      41.141  25.872  28.454  1.00  0.00     0.026 A 
ATOM     33  C   UNL A   1      39.391  24.728  27.211  1.00  0.00     0.001 A 
ATOM     34  C   UNL A   1      39.795  25.711  28.115  1.00  0.00     0.002 A 
ENDBRANCH  17  25
ENDBRANCH   9  11
ENDBRANCH   8   9
ENDBRANCH   7   8
ENDBRANCH   6   7
ENDBRANCH   5   6
ENDBRANCH   4   5
ENDBRANCH   3   4
ENDBRANCH   2   3
ENDBRANCH   1   2
BRANCH   1  35
ATOM     35  C   UNL A   1      44.707  36.652  30.049  1.00  0.00     0.188 C 
BRANCH  35  36
ATOM     36  O   UNL A   1      45.288  37.936  30.291  1.00  0.00    -0.376 OA
BRANCH  36  37
ATOM     37  C   UNL A   1      46.656  38.030  30.666  1.00  0.00     0.202 C 
BRANCH  37  38
ATOM     38  C   UNL A   1      46.972  37.562  32.090  1.00  0.00     0.261 C 
BRANCH  38  39
ATOM     39  O   UNL A   1      46.173  38.187  33.086  1.00  0.00    -0.460 OA
BRANCH  39  40
ATOM     40  C   UNL A   1      45.951  37.464  34.190  1.00  0.00     0.338 C 
ATOM     41  O   UNL A   1      46.793  36.857  34.863  1.00  0.00    -0.246 OA
BRANCH  40  42
ATOM     42  C   UNL A   1      44.525  37.450  34.494  1.00  0.00     0.060 A 
ATOM     43  C   UNL A   1      44.192  37.095  35.801  1.00  0.00     0.016 A 
ATOM     44  C   UNL A   1      43.597  37.426  33.439  1.00  0.00     0.016 A 
ATOM     45  C   UNL A   1      43.053  36.361  35.975  1.00  0.00     0.010 A 
ATOM     46  C   UNL A   1      42.454  36.694  33.614  1.00  0.00     0.010 A 
ATOM     47  C   UNL A   1      42.297  36.055  34.840  1.00  0.00    -0.014 A 
BRANCH  47  48
ATOM     48  C   UNL A   1      41.488  34.866  34.922  1.00  0.00     0.031 A 
ATOM     49  C   UNL A   1      41.990  33.727  34.153  1.00  0.00     0.074 A 
ATOM     50  C   UNL A   1      40.373  34.848  35.674  1.00  0.00     0.049 A 
ATOM     51  N   UNL A   1      41.464  33.189  33.107  1.00  0.00    -0.248 NA
ATOM     52  C   UNL A   1      43.321  33.223  34.512  1.00  0.00     0.031 C 
ATOM     53  C   UNL A   1      39.952  35.813  36.696  1.00  0.00     0.029 A 
ATOM     54  N   UNL A   1      39.441  33.868  35.769  1.00  0.00    -0.354 N 
ATOM     55  C   UNL A   1      42.318  32.152  32.764  1.00  0.00     0.074 A 
ATOM     56  C   UNL A   1      43.518  32.329  33.544  1.00  0.00     0.031 C 
ATOM     57  C   UNL A   1      39.006  35.239  37.473  1.00  0.00     0.029 A 
ATOM     58  C   UNL A   1      38.680  33.933  36.923  1.00  0.00     0.049 A 
ATOM     59  H   UNL A   1      39.318  33.174  35.081  1.00  0.00     0.167 HD
ATOM     60  C   UNL A   1      41.904  31.092  32.023  1.00  0.00     0.031 A 
ATOM     61  C   UNL A   1      37.951  32.916  37.444  1.00  0.00     0.031 A 
ATOM     62  C   UNL A   1      40.638  31.332  31.383  1.00  0.00     0.049 A 
ATOM     63  C   UNL A   1      37.714  31.934  36.352  1.00  0.00     0.074 A 
ATOM     64  C   UNL A   1      40.192  32.222  30.428  1.00  0.00     0.029 A 
ATOM     65  N   UNL A   1      39.513  30.825  31.995  1.00  0.00    -0.354 N 
ATOM     66  N   UNL A   1      36.982  32.183  35.300  1.00  0.00    -0.248 NA
ATOM     67  C   UNL A   1      38.636  30.817  36.206  1.00  0.00     0.031 C 
ATOM     68  C   UNL A   1      38.848  32.525  30.793  1.00  0.00     0.029 A 
ATOM     69  C   UNL A   1      38.536  31.787  31.938  1.00  0.00     0.049 A 
ATOM     70  H   UNL A   1      39.427  29.934  32.402  1.00  0.00     0.167 HD
ATOM     71  C   UNL A   1      37.625  31.541  34.247  1.00  0.00     0.074 A 
ATOM     72  C   UNL A   1      38.565  30.626  34.885  1.00  0.00     0.031 C 
ATOM     73  C   UNL A   1      37.536  32.010  32.966  1.00  0.00     0.031 A 
BRANCH  60  74
ATOM     74  C   UNL A   1      42.494  29.721  32.172  1.00  0.00    -0.014 A 
ATOM     75  C   UNL A   1      42.315  29.023  33.380  1.00  0.00     0.010 A 
ATOM     76  C   UNL A   1      43.430  29.197  31.254  1.00  0.00     0.010 A 
ATOM     77  C   UNL A   1      43.078  27.888  33.673  1.00  0.00     0.020 A 
ATOM     78  C   UNL A   1      44.156  28.038  31.513  1.00  0.00     0.020 A 
ATOM     79  C   UNL A   1      44.005  27.414  32.742  1.00  0.00     0.054 A 
BRANCH  79  80
ATOM     80  S   UNL A   1      45.081  26.029  33.178  1.00  0.00     0.124 S 
ATOM     81  O   UNL A   1      44.361  25.437  34.303  1.00  0.00    -0.237 OA
ATOM     82  O   UNL A   1      45.095  25.243  31.947  1.00  0.00    -0.237 OA
ATOM     83  O   UNL A   1      46.348  26.673  33.514  1.00  0.00    -0.744 OA
ENDBRANCH  79  80
ENDBRANCH  60  74
BRANCH  61  84
ATOM     84  C   UNL A   1      37.832  32.590  38.888  1.00  0.00    -0.014 A 
ATOM     85  C   UNL A   1      36.777  31.795  39.366  1.00  0.00     0.010 A 
ATOM     86  C   UNL A   1      38.903  32.853  39.771  1.00  0.00     0.010 A 
ATOM     87  C   UNL A   1      36.819  31.242  40.657  1.00  0.00     0.020 A 
ATOM     88  C   UNL A   1      38.945  32.322  41.062  1.00  0.00     0.020 A 
ATOM     89  C   UNL A   1      37.912  31.496  41.491  1.00  0.00     0.054 A 
BRANCH  89  90
ATOM     90  S   UNL A   1      38.044  30.641  43.087  1.00  0.00     0.124 S 
ATOM     91  O   UNL A   1      36.742  30.909  43.690  1.00  0.00    -0.237 OA
ATOM     92  O   UNL A   1      38.286  29.259  42.687  1.00  0.00    -0.237 OA
ATOM     93  O   UNL A   1      39.176  31.301  43.738  1.00  0.00    -0.744 OA
ENDBRANCH  89  90
ENDBRANCH  61  84
BRANCH  73  94
ATOM     94  C   UNL A   1      36.492  33.064  32.661  1.00  0.00    -0.014 A 
ATOM     95  C   UNL A   1      35.157  32.749  32.336  1.00  0.00     0.010 A 
ATOM     96  C   UNL A   1      36.825  34.412  32.885  1.00  0.00     0.010 A 
ATOM     97  C   UNL A   1      34.188  33.756  32.221  1.00  0.00     0.020 A 
ATOM     98  C   UNL A   1      35.859  35.419  32.790  1.00  0.00     0.020 A 
ATOM     99  C   UNL A   1      34.546  35.087  32.454  1.00  0.00     0.054 A 
BRANCH  99 100
ATOM    100  S   UNL A   1      33.269  36.376  32.386  1.00  0.00     0.124 S 
ATOM    101  O   UNL A   1      33.702  37.193  31.257  1.00  0.00    -0.237 OA
ATOM    102  O   UNL A   1      32.043  35.609  32.172  1.00  0.00    -0.237 OA
ATOM    103  O   UNL A   1      33.360  37.026  33.692  1.00  0.00    -0.744 OA
ENDBRANCH  99 100
ENDBRANCH  73  94
ENDBRANCH  47  48
ENDBRANCH  40  42
ENDBRANCH  39  40
ENDBRANCH  38  39
ENDBRANCH  37  38
ENDBRANCH  36  37
ENDBRANCH  35  36
ENDBRANCH   1  35
TORSDOF 25
ENDMDL
MODEL 3
REMARK VINA RESULT:      -8.7      8.181     16.067
REMARK SMILES Cc1cnn(C2(C(=O)OCCOCCOCCOCCOC(=O)c3ccc(-c4c5nc(c(-c6ccc(S(=O)(=O)[O-])cc6)c6ccc([nH]6)c(-c6ccc(S(=O)(=O)[O-])cc6)c6nc(c(-c7ccc(S(=O)(=O)[O-])cc7)c7ccc4[nH]7)C=C6)C=C5)cc3)CCN(C(=O)c3cc4ccccc4[nH]3)CC2)c1
REMARK SMILES IDX 16 1 15 2 14 3 13 4 12 5 11 6 10 7 9 8 7 9 8 10 6 11 84 12
REMARK SMILES IDX 99 13 85 14 98 15 86 16 87 17 88 18 5 19 1 20 2 21 3 22
REMARK SMILES IDX 100 23 4 24 89 25 90 26 97 27 91 28 96 29 92 31 95 32 93 33
REMARK SMILES IDX 94 34 17 35 18 36 19 37 20 38 21 39 22 40 23 41 24 42 25 43
REMARK SMILES IDX 83 44 26 45 82 46 27 47 28 48 29 49 76 50 30 51 81 52 75 53
REMARK SMILES IDX 77 54 31 55 80 56 74 57 73 58 32 60 62 61 43 62 61 63 44 64
REMARK SMILES IDX 47 65 60 66 78 67 45 68 46 69 59 71 79 72 48 73 33 74 34 75
REMARK SMILES IDX 42 76 35 77 41 78 36 79 37 80 38 81 39 82 40 83 63 84 64 85
REMARK SMILES IDX 72 86 65 87 71 88 66 89 67 90 68 91 69 92 70 93 49 94 50 95
REMARK SMILES IDX 58 96 51 97 57 98 52 99 53 100 54 101 55 102 56 103
REMARK H PARENT 97 30 77 59 47 70
REMARK Flexibility Score: inf
ROOT
ATOM      1  C   UNL A   1      44.259  36.075  28.318  1.00  0.00     0.188 C 
ENDROOT
BRANCH   1   2
ATOM      2  O   UNL A   1      45.229  35.967  27.287  1.00  0.00    -0.377 OA
BRANCH   2   3
ATOM      3  C   UNL A   1      46.001  34.781  27.313  1.00  0.00     0.188 C 
BRANCH   3   4
ATOM      4  C   UNL A   1      47.140  34.715  26.280  1.00  0.00     0.188 C 
BRANCH   4   5
ATOM      5  O   UNL A   1      48.168  35.700  26.293  1.00  0.00    -0.376 OA
BRANCH   5   6
ATOM      6  C   UNL A   1      48.330  36.511  27.446  1.00  0.00     0.202 C 
BRANCH   6   7
ATOM      7  C   UNL A   1      48.429  38.039  27.294  1.00  0.00     0.261 C 
BRANCH   7   8
ATOM      8  O   UNL A   1      47.192  38.781  27.396  1.00  0.00    -0.461 OA
BRANCH   8   9
ATOM      9  C   UNL A   1      46.544  39.051  26.228  1.00  0.00     0.334 C 
ATOM     10  O   UNL A   1      46.859  38.531  25.158  1.00  0.00    -0.249 OA
BRANCH   9  11
ATOM     11  C   UNL A   1      45.482  40.192  26.319  1.00  0.00     0.163 C 
ATOM     12  C   UNL A   1      44.004  39.781  26.088  1.00  0.00     0.064 C 
ATOM     13  C   UNL A   1      45.691  40.640  27.786  1.00  0.00     0.064 C 
ATOM     14  C   UNL A   1      42.983  40.726  26.710  1.00  0.00     0.123 C 
ATOM     15  C   UNL A   1      44.609  41.517  28.381  1.00  0.00     0.123 C 
ATOM     16  N   UNL A   1      43.280  40.991  28.101  1.00  0.00    -0.337 N 
ATOM     17  C   UNL A   1      42.313  40.734  29.070  1.00  0.00     0.270 C 
ATOM     18  O   UNL A   1      41.314  40.052  28.842  1.00  0.00    -0.267 OA
BRANCH  11  19
ATOM     19  N   UNL A   1      45.846  41.227  25.327  1.00  0.00    -0.255 N 
ATOM     20  C   UNL A   1      47.661  42.901  22.625  1.00  0.00     0.048 C 
ATOM     21  C   UNL A   1      46.809  42.433  23.738  1.00  0.00    -0.013 A 
ATOM     22  C   UNL A   1      45.779  43.134  24.387  1.00  0.00     0.138 A 
ATOM     23  C   UNL A   1      46.850  41.221  24.394  1.00  0.00     0.113 A 
ATOM     24  N   UNL A   1      45.256  42.439  25.395  1.00  0.00    -0.180 NA
ENDBRANCH  11  19
BRANCH  17  25
ATOM     25  C   UNL A   1      42.574  41.264  30.382  1.00  0.00     0.105 A 
ATOM     26  C   UNL A   1      42.958  40.615  31.543  1.00  0.00     0.042 A 
ATOM     27  N   UNL A   1      42.451  42.596  30.691  1.00  0.00    -0.351 N 
ATOM     28  C   UNL A   1      42.851  41.541  32.612  1.00  0.00     0.000 A 
ATOM     29  C   UNL A   1      42.503  42.771  32.055  1.00  0.00     0.046 A 
ATOM     30  H   UNL A   1      42.341  43.320  30.033  1.00  0.00     0.167 HD
ATOM     31  C   UNL A   1      42.985  41.437  34.007  1.00  0.00     0.010 A 
ATOM     32  C   UNL A   1      42.268  43.910  32.829  1.00  0.00     0.026 A 
ATOM     33  C   UNL A   1      42.746  42.565  34.798  1.00  0.00     0.001 A 
ATOM     34  C   UNL A   1      42.391  43.781  34.215  1.00  0.00     0.002 A 
ENDBRANCH  17  25
ENDBRANCH   9  11
ENDBRANCH   8   9
ENDBRANCH   7   8
ENDBRANCH   6   7
ENDBRANCH   5   6
ENDBRANCH   4   5
ENDBRANCH   3   4
ENDBRANCH   2   3
ENDBRANCH   1   2
BRANCH   1  35
ATOM     35  C   UNL A   1      44.347  37.304  29.248  1.00  0.00     0.188 C 
BRANCH  35  36
ATOM     36  O   UNL A   1      45.493  37.327  30.103  1.00  0.00    -0.376 OA
BRANCH  36  37
ATOM     37  C   UNL A   1      45.949  38.565  30.634  1.00  0.00     0.202 C 
BRANCH  37  38
ATOM     38  C   UNL A   1      46.903  38.446  31.827  1.00  0.00     0.261 C 
BRANCH  38  39
ATOM     39  O   UNL A   1      46.313  38.813  33.067  1.00  0.00    -0.460 OA
BRANCH  39  40
ATOM     40  C   UNL A   1      46.077  37.806  33.917  1.00  0.00     0.338 C 
ATOM     41  O   UNL A   1      46.905  37.005  34.368  1.00  0.00    -0.246 OA
BRANCH  40  42
ATOM     42  C   UNL A   1      44.655  37.746  34.231  1.00  0.00     0.060 A 
ATOM     43  C   UNL A   1      44.343  37.496  35.567  1.00  0.00     0.016 A 
ATOM     44  C   UNL A   1      43.727  37.579  33.189  1.00  0.00     0.016 A 
ATOM     45  C   UNL A   1      43.244  36.723  35.815  1.00  0.00     0.010 A 
ATOM     46  C   UNL A   1      42.624  36.808  33.437  1.00  0.00     0.010 A 
ATOM     47  C   UNL A   1      42.503  36.276  34.717  1.00  0.00    -0.014 A 
BRANCH  47  48
ATOM     48  C   UNL A   1      41.756  35.059  34.912  1.00  0.00     0.031 A 
ATOM     49  C   UNL A   1      42.355  33.868  34.308  1.00  0.00     0.074 A 
ATOM     50  C   UNL A   1      40.611  35.065  35.617  1.00  0.00     0.049 A 
ATOM     51  N   UNL A   1      41.908  33.179  33.316  1.00  0.00    -0.248 NA
ATOM     52  C   UNL A   1      43.693  33.491  34.778  1.00  0.00     0.031 C 
ATOM     53  C   UNL A   1      40.092  36.119  36.496  1.00  0.00     0.029 A 
ATOM     54  N   UNL A   1      39.730  34.050  35.794  1.00  0.00    -0.354 N 
ATOM     55  C   UNL A   1      42.831  32.161  33.136  1.00  0.00     0.074 A 
ATOM     56  C   UNL A   1      43.983  32.501  33.935  1.00  0.00     0.031 C 
ATOM     57  C   UNL A   1      39.144  35.587  37.300  1.00  0.00     0.029 A 
ATOM     58  C   UNL A   1      38.915  34.208  36.902  1.00  0.00     0.049 A 
ATOM     59  H   UNL A   1      39.677  33.273  35.192  1.00  0.00     0.167 HD
ATOM     60  C   UNL A   1      42.510  30.997  32.514  1.00  0.00     0.031 A 
ATOM     61  C   UNL A   1      38.219  33.219  37.514  1.00  0.00     0.031 A 
ATOM     62  C   UNL A   1      41.263  31.083  31.802  1.00  0.00     0.049 A 
ATOM     63  C   UNL A   1      38.086  32.100  36.542  1.00  0.00     0.074 A 
ATOM     64  C   UNL A   1      40.814  31.824  30.728  1.00  0.00     0.029 A 
ATOM     65  N   UNL A   1      40.141  30.587  32.427  1.00  0.00    -0.354 N 
ATOM     66  N   UNL A   1      37.391  32.178  35.439  1.00  0.00    -0.248 NA
ATOM     67  C   UNL A   1      39.073  31.031  36.570  1.00  0.00     0.031 C 
ATOM     68  C   UNL A   1      39.440  32.087  31.001  1.00  0.00     0.029 A 
ATOM     69  C   UNL A   1      39.116  31.475  32.214  1.00  0.00     0.049 A 
ATOM     70  H   UNL A   1      40.085  29.747  32.935  1.00  0.00     0.167 HD
ATOM     71  C   UNL A   1      38.115  31.454  34.499  1.00  0.00     0.074 A 
ATOM     72  C   UNL A   1      39.074  30.679  35.280  1.00  0.00     0.031 C 
ATOM     73  C   UNL A   1      38.059  31.760  33.168  1.00  0.00     0.031 A 
BRANCH  60  74
ATOM     74  C   UNL A   1      43.166  29.691  32.853  1.00  0.00    -0.014 A 
ATOM     75  C   UNL A   1      43.498  28.800  31.817  1.00  0.00     0.010 A 
ATOM     76  C   UNL A   1      43.240  29.203  34.176  1.00  0.00     0.010 A 
ATOM     77  C   UNL A   1      43.835  27.470  32.094  1.00  0.00     0.020 A 
ATOM     78  C   UNL A   1      43.625  27.897  34.465  1.00  0.00     0.020 A 
ATOM     79  C   UNL A   1      43.880  27.026  33.418  1.00  0.00     0.054 A 
BRANCH  79  80
ATOM     80  S   UNL A   1      44.184  25.278  33.763  1.00  0.00     0.124 S 
ATOM     81  O   UNL A   1      43.001  24.919  34.539  1.00  0.00    -0.237 OA
ATOM     82  O   UNL A   1      44.265  24.704  32.422  1.00  0.00    -0.237 OA
ATOM     83  O   UNL A   1      45.442  25.290  34.506  1.00  0.00    -0.744 OA
ENDBRANCH  79  80
ENDBRANCH  60  74
BRANCH  61  84
ATOM     84  C   UNL A   1      38.052  33.061  38.981  1.00  0.00    -0.014 A 
ATOM     85  C   UNL A   1      39.123  33.287  39.861  1.00  0.00     0.010 A 
ATOM     86  C   UNL A   1      36.762  32.932  39.543  1.00  0.00     0.010 A 
ATOM     87  C   UNL A   1      38.904  33.430  41.242  1.00  0.00     0.020 A 
ATOM     88  C   UNL A   1      36.537  33.056  40.916  1.00  0.00     0.020 A 
ATOM     89  C   UNL A   1      37.609  33.330  41.758  1.00  0.00     0.054 A 
BRANCH  89  90
ATOM     90  S   UNL A   1      37.310  33.688  43.513  1.00  0.00     0.124 S 
ATOM     91  O   UNL A   1      38.578  33.307  44.127  1.00  0.00    -0.237 OA
ATOM     92  O   UNL A   1      37.016  35.117  43.498  1.00  0.00    -0.237 OA
ATOM     93  O   UNL A   1      36.175  32.829  43.850  1.00  0.00    -0.744 OA
ENDBRANCH  89  90
ENDBRANCH  61  84
BRANCH  73  94
ATOM     94  C   UNL A   1      36.975  32.705  32.695  1.00  0.00    -0.014 A 
ATOM     95  C   UNL A   1      35.804  32.265  32.047  1.00  0.00     0.010 A 
ATOM     96  C   UNL A   1      37.060  34.056  33.078  1.00  0.00     0.010 A 
ATOM     97  C   UNL A   1      34.755  33.155  31.774  1.00  0.00     0.020 A 
ATOM     98  C   UNL A   1      36.010  34.944  32.825  1.00  0.00     0.020 A 
ATOM     99  C   UNL A   1      34.864  34.491  32.170  1.00  0.00     0.054 A 
BRANCH  99 100
ATOM    100  S   UNL A   1      33.469  35.618  31.889  1.00  0.00     0.124 S 
ATOM    101  O   UNL A   1      32.339  34.863  32.423  1.00  0.00    -0.237 OA
ATOM    102  O   UNL A   1      33.849  36.805  32.653  1.00  0.00    -0.237 OA
ATOM    103  O   UNL A   1      33.458  35.805  30.439  1.00  0.00    -0.744 OA
ENDBRANCH  99 100
ENDBRANCH  73  94
ENDBRANCH  47  48
ENDBRANCH  40  42
ENDBRANCH  39  40
ENDBRANCH  38  39
ENDBRANCH  37  38
ENDBRANCH  36  37
ENDBRANCH  35  36
ENDBRANCH   1  35
TORSDOF 25
ENDMDL
