MODEL 1
REMARK VINA RESULT:      -9.1      0.000      0.000
REMARK SMILES Cc1ccc(S(=O)(=O)N[C@H]2C=C[C@@H](C(=O)OCCOCCOCCOCCOC(=O)c3ccc(-c4c5nc(c(-c6ccc(S(=O)(=O)[O-])cc6)c6ccc([nH]6)c(-c6ccc(S(=O)(=O)[O-])cc6)c6nc(c(-c7ccc(S(=O)(=O)[O-])cc7)c7ccc4[nH]7)C=C6)C=C5)cc3)C2)c(C)c1
REMARK SMILES IDX 22 1 21 2 20 3 19 4 18 5 17 6 16 7 14 8 15 9 13 10 10 11
REMARK SMILES IDX 11 12 91 13 12 14 9 15 6 17 7 18 8 19 5 20 1 21 2 22 3 23
REMARK SMILES IDX 94 24 4 25 92 26 93 27 23 28 24 29 25 30 26 31 27 32 28 33
REMARK SMILES IDX 29 34 30 35 31 36 32 37 90 38 33 39 89 40 34 41 35 42 36 43
REMARK SMILES IDX 83 44 37 45 88 46 82 47 84 48 38 49 87 50 81 51 80 52 39 54
REMARK SMILES IDX 69 55 50 56 68 57 51 58 54 59 67 60 85 61 52 62 53 63 66 65
REMARK SMILES IDX 86 66 55 67 40 68 41 69 49 70 42 71 48 72 43 73 44 74 45 75
REMARK SMILES IDX 46 76 47 77 70 78 71 79 79 80 72 81 78 82 73 83 74 84 75 85
REMARK SMILES IDX 76 86 77 87 56 88 57 89 65 90 58 91 64 92 59 93 60 94 61 95
REMARK SMILES IDX 62 96 63 97
REMARK H PARENT 9 16 84 53 54 64
REMARK Flexibility Score: inf
ROOT
ATOM      1  O   UNL A   1      41.210  19.134  25.565  1.00  0.00    -0.377 OA
ENDROOT
BRANCH   1   2
ATOM      2  C   UNL A   1      40.034  19.705  26.097  1.00  0.00     0.188 C 
BRANCH   2   3
ATOM      3  C   UNL A   1      40.046  21.239  26.201  1.00  0.00     0.188 C 
BRANCH   3   4
ATOM      4  O   UNL A   1      38.854  21.965  26.482  1.00  0.00    -0.376 OA
BRANCH   4   5
ATOM      5  C   UNL A   1      38.050  22.461  25.415  1.00  0.00     0.202 C 
BRANCH   5   6
ATOM      6  C   UNL A   1      37.296  21.484  24.501  1.00  0.00     0.261 C 
BRANCH   6   7
ATOM      7  O   UNL A   1      35.902  21.336  24.814  1.00  0.00    -0.463 OA
BRANCH   7   8
ATOM      8  C   UNL A   1      35.050  22.210  24.226  1.00  0.00     0.312 C 
ATOM      9  O   UNL A   1      35.390  23.097  23.448  1.00  0.00    -0.252 OA
BRANCH   8  10
ATOM     10  C   UNL A   1      33.582  21.926  24.540  1.00  0.00     0.123 C 
ATOM     11  C   UNL A   1      31.395  23.056  24.638  1.00  0.00     0.093 C 
ATOM     12  C   UNL A   1      31.649  22.457  23.305  1.00  0.00    -0.011 C 
ATOM     13  C   UNL A   1      32.770  22.975  25.308  1.00  0.00     0.043 C 
ATOM     14  C   UNL A   1      32.819  21.812  23.257  1.00  0.00    -0.015 C 
BRANCH  11  15
ATOM     15  N   UNL A   1      30.942  24.432  24.663  1.00  0.00    -0.204 NA
ATOM     16  H   UNL A   1      30.728  24.660  23.692  1.00  0.00     0.142 HD
BRANCH  15  17
ATOM     17  S   UNL A   1      31.800  25.738  25.240  1.00  0.00     0.241 S 
ATOM     18  O   UNL A   1      33.112  25.678  24.640  1.00  0.00    -0.207 OA
ATOM     19  O   UNL A   1      31.602  25.733  26.672  1.00  0.00    -0.207 OA
BRANCH  17  20
ATOM     20  C   UNL A   1      30.945  27.174  24.612  1.00  0.00     0.085 A 
ATOM     21  C   UNL A   1      29.196  30.587  22.651  1.00  0.00     0.044 C 
ATOM     22  C   UNL A   1      29.778  29.388  23.340  1.00  0.00    -0.051 A 
ATOM     23  C   UNL A   1      29.408  28.094  22.970  1.00  0.00     0.005 A 
ATOM     24  C   UNL A   1      30.684  29.562  24.395  1.00  0.00     0.008 A 
ATOM     25  C   UNL A   1      29.980  26.994  23.607  1.00  0.00     0.022 A 
ATOM     26  C   UNL A   1      31.264  28.466  25.060  1.00  0.00    -0.031 A 
ATOM     27  C   UNL A   1      32.187  28.765  26.209  1.00  0.00     0.046 C 
ENDBRANCH  17  20
ENDBRANCH  15  17
ENDBRANCH  11  15
ENDBRANCH   8  10
ENDBRANCH   7   8
ENDBRANCH   6   7
ENDBRANCH   5   6
ENDBRANCH   4   5
ENDBRANCH   3   4
ENDBRANCH   2   3
ENDBRANCH   1   2
BRANCH   1  28
ATOM     28  C   UNL A   1      42.377  19.224  26.377  1.00  0.00     0.188 C 
BRANCH  28  29
ATOM     29  C   UNL A   1      43.367  18.046  26.310  1.00  0.00     0.188 C 
BRANCH  29  30
ATOM     30  O   UNL A   1      44.631  18.398  25.748  1.00  0.00    -0.376 OA
BRANCH  30  31
ATOM     31  C   UNL A   1      44.630  19.375  24.710  1.00  0.00     0.202 C 
BRANCH  31  32
ATOM     32  C   UNL A   1      45.417  20.662  25.008  1.00  0.00     0.261 C 
BRANCH  32  33
ATOM     33  O   UNL A   1      44.775  21.609  25.881  1.00  0.00    -0.460 OA
BRANCH  33  34
ATOM     34  C   UNL A   1      44.004  22.566  25.324  1.00  0.00     0.338 C 
ATOM     35  O   UNL A   1      43.519  22.561  24.208  1.00  0.00    -0.246 OA
BRANCH  34  36
ATOM     36  C   UNL A   1      43.664  23.544  26.377  1.00  0.00     0.060 A 
ATOM     37  C   UNL A   1      44.170  24.845  26.271  1.00  0.00     0.016 A 
ATOM     38  C   UNL A   1      42.866  23.179  27.464  1.00  0.00     0.016 A 
ATOM     39  C   UNL A   1      43.914  25.777  27.278  1.00  0.00     0.010 A 
ATOM     40  C   UNL A   1      42.628  24.106  28.480  1.00  0.00     0.010 A 
ATOM     41  C   UNL A   1      43.182  25.397  28.410  1.00  0.00    -0.014 A 
BRANCH  41  42
ATOM     42  C   UNL A   1      43.167  26.272  29.606  1.00  0.00     0.031 A 
ATOM     43  C   UNL A   1      42.074  27.302  29.719  1.00  0.00     0.074 A 
ATOM     44  C   UNL A   1      44.090  26.154  30.576  1.00  0.00     0.049 A 
ATOM     45  N   UNL A   1      41.879  28.206  30.643  1.00  0.00    -0.248 NA
ATOM     46  C   UNL A   1      41.068  27.310  28.643  1.00  0.00     0.031 C 
ATOM     47  C   UNL A   1      45.172  25.171  30.602  1.00  0.00     0.029 A 
ATOM     48  N   UNL A   1      44.267  26.883  31.727  1.00  0.00    -0.354 N 
ATOM     49  C   UNL A   1      40.732  28.890  30.262  1.00  0.00     0.074 A 
ATOM     50  C   UNL A   1      40.290  28.318  29.009  1.00  0.00     0.031 C 
ATOM     51  C   UNL A   1      45.912  25.371  31.708  1.00  0.00     0.029 A 
ATOM     52  C   UNL A   1      45.375  26.511  32.449  1.00  0.00     0.049 A 
ATOM     53  H   UNL A   1      43.656  27.602  32.007  1.00  0.00     0.167 HD
ATOM     54  C   UNL A   1      40.096  29.901  30.900  1.00  0.00     0.031 A 
ATOM     55  C   UNL A   1      45.909  27.049  33.565  1.00  0.00     0.031 A 
ATOM     56  C   UNL A   1      40.550  30.489  32.131  1.00  0.00     0.049 A 
ATOM     57  C   UNL A   1      45.232  28.231  34.213  1.00  0.00     0.074 A 
ATOM     58  C   UNL A   1      39.978  31.521  32.854  1.00  0.00     0.029 A 
ATOM     59  N   UNL A   1      41.694  30.105  32.814  1.00  0.00    -0.354 N 
ATOM     60  N   UNL A   1      44.133  28.852  33.855  1.00  0.00    -0.248 NA
ATOM     61  C   UNL A   1      45.866  28.779  35.422  1.00  0.00     0.031 C 
ATOM     62  C   UNL A   1      40.805  31.795  33.948  1.00  0.00     0.029 A 
ATOM     63  C   UNL A   1      41.858  30.895  33.938  1.00  0.00     0.049 A 
ATOM     64  H   UNL A   1      42.299  29.378  32.541  1.00  0.00     0.167 HD
ATOM     65  C   UNL A   1      43.932  29.848  34.806  1.00  0.00     0.074 A 
ATOM     66  C   UNL A   1      45.013  29.736  35.764  1.00  0.00     0.031 C 
ATOM     67  C   UNL A   1      42.941  30.771  34.883  1.00  0.00     0.031 A 
BRANCH  54  68
ATOM     68  C   UNL A   1      38.854  30.452  30.253  1.00  0.00    -0.014 A 
ATOM     69  C   UNL A   1      38.876  31.683  29.573  1.00  0.00     0.010 A 
ATOM     70  C   UNL A   1      37.655  29.720  30.308  1.00  0.00     0.010 A 
ATOM     71  C   UNL A   1      37.710  32.190  28.991  1.00  0.00     0.020 A 
ATOM     72  C   UNL A   1      36.494  30.210  29.704  1.00  0.00     0.020 A 
ATOM     73  C   UNL A   1      36.526  31.450  29.064  1.00  0.00     0.054 A 
BRANCH  73  74
ATOM     74  S   UNL A   1      35.032  32.123  28.285  1.00  0.00     0.124 S 
ATOM     75  O   UNL A   1      34.580  30.994  27.477  1.00  0.00    -0.237 OA
ATOM     76  O   UNL A   1      34.190  32.449  29.433  1.00  0.00    -0.237 OA
ATOM     77  O   UNL A   1      35.523  33.273  27.530  1.00  0.00    -0.744 OA
ENDBRANCH  73  74
ENDBRANCH  54  68
BRANCH  55  78
ATOM     78  C   UNL A   1      47.172  26.494  34.128  1.00  0.00    -0.014 A 
ATOM     79  C   UNL A   1      47.143  25.446  35.065  1.00  0.00     0.010 A 
ATOM     80  C   UNL A   1      48.414  27.023  33.734  1.00  0.00     0.010 A 
ATOM     81  C   UNL A   1      48.332  24.952  35.612  1.00  0.00     0.020 A 
ATOM     82  C   UNL A   1      49.606  26.513  34.256  1.00  0.00     0.020 A 
ATOM     83  C   UNL A   1      49.556  25.489  35.202  1.00  0.00     0.054 A 
BRANCH  83  84
ATOM     84  S   UNL A   1      51.088  24.802  35.895  1.00  0.00     0.124 S 
ATOM     85  O   UNL A   1      51.297  25.648  37.065  1.00  0.00    -0.237 OA
ATOM     86  O   UNL A   1      50.713  23.418  36.174  1.00  0.00    -0.237 OA
ATOM     87  O   UNL A   1      52.058  24.973  34.817  1.00  0.00    -0.744 OA
ENDBRANCH  83  84
ENDBRANCH  55  78
BRANCH  67  88
ATOM     88  C   UNL A   1      42.954  31.717  36.055  1.00  0.00    -0.014 A 
ATOM     89  C   UNL A   1      42.478  31.323  37.318  1.00  0.00     0.010 A 
ATOM     90  C   UNL A   1      43.519  32.998  35.905  1.00  0.00     0.010 A 
ATOM     91  C   UNL A   1      42.542  32.203  38.402  1.00  0.00     0.020 A 
ATOM     92  C   UNL A   1      43.610  33.870  36.993  1.00  0.00     0.020 A 
ATOM     93  C   UNL A   1      43.108  33.471  38.233  1.00  0.00     0.054 A 
BRANCH  93  94
ATOM     94  S   UNL A   1      43.227  34.574  39.669  1.00  0.00     0.124 S 
ATOM     95  O   UNL A   1      41.836  34.979  39.857  1.00  0.00    -0.237 OA
ATOM     96  O   UNL A   1      43.772  33.698  40.703  1.00  0.00    -0.237 OA
ATOM     97  O   UNL A   1      44.128  35.632  39.219  1.00  0.00    -0.744 OA
ENDBRANCH  93  94
ENDBRANCH  67  88
ENDBRANCH  41  42
ENDBRANCH  34  36
ENDBRANCH  33  34
ENDBRANCH  32  33
ENDBRANCH  31  32
ENDBRANCH  30  31
ENDBRANCH  29  30
ENDBRANCH  28  29
ENDBRANCH   1  28
TORSDOF 26
ENDMDL
MODEL 2
REMARK VINA RESULT:      -8.9      2.412      8.567
REMARK SMILES Cc1ccc(S(=O)(=O)N[C@H]2C=C[C@@H](C(=O)OCCOCCOCCOCCOC(=O)c3ccc(-c4c5nc(c(-c6ccc(S(=O)(=O)[O-])cc6)c6ccc([nH]6)c(-c6ccc(S(=O)(=O)[O-])cc6)c6nc(c(-c7ccc(S(=O)(=O)[O-])cc7)c7ccc4[nH]7)C=C6)C=C5)cc3)C2)c(C)c1
REMARK SMILES IDX 22 1 21 2 20 3 19 4 18 5 17 6 16 7 14 8 15 9 13 10 10 11
REMARK SMILES IDX 11 12 91 13 12 14 9 15 6 17 7 18 8 19 5 20 1 21 2 22 3 23
REMARK SMILES IDX 94 24 4 25 92 26 93 27 23 28 24 29 25 30 26 31 27 32 28 33
REMARK SMILES IDX 29 34 30 35 31 36 32 37 90 38 33 39 89 40 34 41 35 42 36 43
REMARK SMILES IDX 83 44 37 45 88 46 82 47 84 48 38 49 87 50 81 51 80 52 39 54
REMARK SMILES IDX 69 55 50 56 68 57 51 58 54 59 67 60 85 61 52 62 53 63 66 65
REMARK SMILES IDX 86 66 55 67 40 68 41 69 49 70 42 71 48 72 43 73 44 74 45 75
REMARK SMILES IDX 46 76 47 77 70 78 71 79 79 80 72 81 78 82 73 83 74 84 75 85
REMARK SMILES IDX 76 86 77 87 56 88 57 89 65 90 58 91 64 92 59 93 60 94 61 95
REMARK SMILES IDX 62 96 63 97
REMARK H PARENT 9 16 84 53 54 64
REMARK Flexibility Score: inf
ROOT
ATOM      1  O   UNL A   1      39.690  21.950  26.179  1.00  0.00    -0.377 OA
ENDROOT
BRANCH   1   2
ATOM      2  C   UNL A   1      38.341  22.175  25.829  1.00  0.00     0.188 C 
BRANCH   2   3
ATOM      3  C   UNL A   1      37.699  21.069  24.975  1.00  0.00     0.188 C 
BRANCH   3   4
ATOM      4  O   UNL A   1      36.312  20.772  25.081  1.00  0.00    -0.376 OA
BRANCH   4   5
ATOM      5  C   UNL A   1      35.346  21.815  24.973  1.00  0.00     0.202 C 
BRANCH   5   6
ATOM      6  C   UNL A   1      34.216  21.928  26.006  1.00  0.00     0.261 C 
BRANCH   6   7
ATOM      7  O   UNL A   1      33.386  23.090  25.851  1.00  0.00    -0.463 OA
BRANCH   7   8
ATOM      8  C   UNL A   1      32.142  22.886  25.354  1.00  0.00     0.312 C 
ATOM      9  O   UNL A   1      31.835  21.967  24.601  1.00  0.00    -0.252 OA
BRANCH   8  10
ATOM     10  C   UNL A   1      31.104  23.862  25.906  1.00  0.00     0.123 C 
ATOM     11  C   UNL A   1      30.676  26.278  26.124  1.00  0.00     0.093 C 
ATOM     12  C   UNL A   1      30.091  25.723  24.880  1.00  0.00    -0.011 C 
ATOM     13  C   UNL A   1      31.582  25.140  26.604  1.00  0.00     0.043 C 
ATOM     14  C   UNL A   1      30.289  24.405  24.774  1.00  0.00    -0.015 C 
BRANCH  11  15
ATOM     15  N   UNL A   1      31.468  27.484  25.996  1.00  0.00    -0.204 NA
ATOM     16  H   UNL A   1      31.003  28.173  26.587  1.00  0.00     0.142 HD
BRANCH  15  17
ATOM     17  S   UNL A   1      31.810  28.288  24.578  1.00  0.00     0.241 S 
ATOM     18  O   UNL A   1      32.909  29.182  24.855  1.00  0.00    -0.207 OA
ATOM     19  O   UNL A   1      30.537  28.756  24.078  1.00  0.00    -0.207 OA
BRANCH  17  20
ATOM     20  C   UNL A   1      32.368  27.024  23.447  1.00  0.00     0.085 A 
ATOM     21  C   UNL A   1      33.275  23.688  20.878  1.00  0.00     0.044 C 
ATOM     22  C   UNL A   1      32.962  24.868  21.750  1.00  0.00    -0.051 A 
ATOM     23  C   UNL A   1      31.970  25.782  21.397  1.00  0.00     0.005 A 
ATOM     24  C   UNL A   1      33.699  25.081  22.923  1.00  0.00     0.008 A 
ATOM     25  C   UNL A   1      31.679  26.858  22.234  1.00  0.00     0.022 A 
ATOM     26  C   UNL A   1      33.432  26.168  23.776  1.00  0.00    -0.031 A 
ATOM     27  C   UNL A   1      34.312  26.330  24.985  1.00  0.00     0.046 C 
ENDBRANCH  17  20
ENDBRANCH  15  17
ENDBRANCH  11  15
ENDBRANCH   8  10
ENDBRANCH   7   8
ENDBRANCH   6   7
ENDBRANCH   5   6
ENDBRANCH   4   5
ENDBRANCH   3   4
ENDBRANCH   2   3
ENDBRANCH   1   2
BRANCH   1  28
ATOM     28  C   UNL A   1      40.107  20.590  26.242  1.00  0.00     0.188 C 
BRANCH  28  29
ATOM     29  C   UNL A   1      41.611  20.329  26.443  1.00  0.00     0.188 C 
BRANCH  29  30
ATOM     30  O   UNL A   1      42.444  21.132  25.607  1.00  0.00    -0.376 OA
BRANCH  30  31
ATOM     31  C   UNL A   1      42.826  22.411  26.108  1.00  0.00     0.202 C 
BRANCH  31  32
ATOM     32  C   UNL A   1      43.073  23.495  25.046  1.00  0.00     0.261 C 
BRANCH  32  33
ATOM     33  O   UNL A   1      43.113  24.852  25.524  1.00  0.00    -0.460 OA
BRANCH  33  34
ATOM     34  C   UNL A   1      44.010  25.160  26.486  1.00  0.00     0.338 C 
ATOM     35  O   UNL A   1      45.193  24.878  26.504  1.00  0.00    -0.246 OA
BRANCH  34  36
ATOM     36  C   UNL A   1      43.359  26.091  27.429  1.00  0.00     0.060 A 
ATOM     37  C   UNL A   1      43.727  27.442  27.400  1.00  0.00     0.016 A 
ATOM     38  C   UNL A   1      42.405  25.635  28.343  1.00  0.00     0.016 A 
ATOM     39  C   UNL A   1      43.173  28.335  28.316  1.00  0.00     0.010 A 
ATOM     40  C   UNL A   1      41.866  26.527  29.273  1.00  0.00     0.010 A 
ATOM     41  C   UNL A   1      42.275  27.872  29.287  1.00  0.00    -0.014 A 
BRANCH  41  42
ATOM     42  C   UNL A   1      41.924  28.737  30.438  1.00  0.00     0.031 A 
ATOM     43  C   UNL A   1      42.747  28.619  31.694  1.00  0.00     0.074 A 
ATOM     44  C   UNL A   1      40.907  29.615  30.375  1.00  0.00     0.049 A 
ATOM     45  N   UNL A   1      42.606  29.233  32.839  1.00  0.00    -0.248 NA
ATOM     46  C   UNL A   1      43.883  27.682  31.647  1.00  0.00     0.031 C 
ATOM     47  C   UNL A   1      40.063  29.851  29.205  1.00  0.00     0.029 A 
ATOM     48  N   UNL A   1      40.408  30.466  31.330  1.00  0.00    -0.354 N 
ATOM     49  C   UNL A   1      43.630  28.758  33.648  1.00  0.00     0.074 A 
ATOM     50  C   UNL A   1      44.368  27.783  32.875  1.00  0.00     0.031 C 
ATOM     51  C   UNL A   1      39.136  30.775  29.518  1.00  0.00     0.029 A 
ATOM     52  C   UNL A   1      39.304  31.171  30.916  1.00  0.00     0.049 A 
ATOM     53  H   UNL A   1      40.805  30.561  32.226  1.00  0.00     0.167 HD
ATOM     54  C   UNL A   1      43.935  29.104  34.921  1.00  0.00     0.031 A 
ATOM     55  C   UNL A   1      38.505  32.018  31.597  1.00  0.00     0.031 A 
ATOM     56  C   UNL A   1      43.185  30.051  35.701  1.00  0.00     0.049 A 
ATOM     57  C   UNL A   1      38.813  32.325  33.041  1.00  0.00     0.074 A 
ATOM     58  C   UNL A   1      43.411  30.468  37.000  1.00  0.00     0.029 A 
ATOM     59  N   UNL A   1      42.055  30.721  35.255  1.00  0.00    -0.354 N 
ATOM     60  N   UNL A   1      39.800  31.888  33.787  1.00  0.00    -0.248 NA
ATOM     61  C   UNL A   1      37.901  33.248  33.734  1.00  0.00     0.031 C 
ATOM     62  C   UNL A   1      42.388  31.350  37.359  1.00  0.00     0.029 A 
ATOM     63  C   UNL A   1      41.559  31.529  36.263  1.00  0.00     0.049 A 
ATOM     64  H   UNL A   1      41.664  30.635  34.356  1.00  0.00     0.167 HD
ATOM     65  C   UNL A   1      39.640  32.499  35.026  1.00  0.00     0.074 A 
ATOM     66  C   UNL A   1      38.473  33.350  34.926  1.00  0.00     0.031 C 
ATOM     67  C   UNL A   1      40.394  32.371  36.148  1.00  0.00     0.031 A 
BRANCH  54  68
ATOM     68  C   UNL A   1      45.119  28.426  35.556  1.00  0.00    -0.014 A 
ATOM     69  C   UNL A   1      44.952  27.318  36.404  1.00  0.00     0.010 A 
ATOM     70  C   UNL A   1      46.418  28.891  35.283  1.00  0.00     0.010 A 
ATOM     71  C   UNL A   1      46.060  26.708  36.999  1.00  0.00     0.020 A 
ATOM     72  C   UNL A   1      47.531  28.268  35.854  1.00  0.00     0.020 A 
ATOM     73  C   UNL A   1      47.343  27.191  36.722  1.00  0.00     0.054 A 
BRANCH  73  74
ATOM     74  S   UNL A   1      48.765  26.371  37.494  1.00  0.00     0.124 S 
ATOM     75  O   UNL A   1      48.931  25.195  36.643  1.00  0.00    -0.237 OA
ATOM     76  O   UNL A   1      49.816  27.378  37.383  1.00  0.00    -0.237 OA
ATOM     77  O   UNL A   1      48.311  26.096  38.854  1.00  0.00    -0.744 OA
ENDBRANCH  73  74
ENDBRANCH  54  68
BRANCH  55  78
ATOM     78  C   UNL A   1      37.314  32.617  30.930  1.00  0.00    -0.014 A 
ATOM     79  C   UNL A   1      37.409  33.845  30.255  1.00  0.00     0.010 A 
ATOM     80  C   UNL A   1      36.071  31.959  30.981  1.00  0.00     0.010 A 
ATOM     81  C   UNL A   1      36.278  34.414  29.658  1.00  0.00     0.020 A 
ATOM     82  C   UNL A   1      34.946  32.510  30.361  1.00  0.00     0.020 A 
ATOM     83  C   UNL A   1      35.054  33.742  29.715  1.00  0.00     0.054 A 
BRANCH  83  84
ATOM     84  S   UNL A   1      33.612  34.480  28.897  1.00  0.00     0.124 S 
ATOM     85  O   UNL A   1      33.146  33.383  28.055  1.00  0.00    -0.237 OA
ATOM     86  O   UNL A   1      32.750  34.820  30.026  1.00  0.00    -0.237 OA
ATOM     87  O   UNL A   1      34.172  35.625  28.182  1.00  0.00    -0.744 OA
ENDBRANCH  83  84
ENDBRANCH  55  78
BRANCH  67  88
ATOM     88  C   UNL A   1      40.004  33.189  37.350  1.00  0.00    -0.014 A 
ATOM     89  C   UNL A   1      40.623  34.420  37.630  1.00  0.00     0.010 A 
ATOM     90  C   UNL A   1      38.951  32.750  38.175  1.00  0.00     0.010 A 
ATOM     91  C   UNL A   1      40.214  35.184  38.726  1.00  0.00     0.020 A 
ATOM     92  C   UNL A   1      38.520  33.525  39.256  1.00  0.00     0.020 A 
ATOM     93  C   UNL A   1      39.164  34.731  39.532  1.00  0.00     0.054 A 
BRANCH  93  94
ATOM     94  S   UNL A   1      38.617  35.766  40.918  1.00  0.00     0.124 S 
ATOM     95  O   UNL A   1      39.734  35.642  41.850  1.00  0.00    -0.237 OA
ATOM     96  O   UNL A   1      38.459  37.079  40.297  1.00  0.00    -0.237 OA
ATOM     97  O   UNL A   1      37.371  35.136  41.351  1.00  0.00    -0.744 OA
ENDBRANCH  93  94
ENDBRANCH  67  88
ENDBRANCH  41  42
ENDBRANCH  34  36
ENDBRANCH  33  34
ENDBRANCH  32  33
ENDBRANCH  31  32
ENDBRANCH  30  31
ENDBRANCH  29  30
ENDBRANCH  28  29
ENDBRANCH   1  28
TORSDOF 26
ENDMDL
MODEL 3
REMARK VINA RESULT:      -8.5      6.090      6.835
REMARK SMILES Cc1ccc(S(=O)(=O)N[C@H]2C=C[C@@H](C(=O)OCCOCCOCCOCCOC(=O)c3ccc(-c4c5nc(c(-c6ccc(S(=O)(=O)[O-])cc6)c6ccc([nH]6)c(-c6ccc(S(=O)(=O)[O-])cc6)c6nc(c(-c7ccc(S(=O)(=O)[O-])cc7)c7ccc4[nH]7)C=C6)C=C5)cc3)C2)c(C)c1
REMARK SMILES IDX 22 1 21 2 20 3 19 4 18 5 17 6 16 7 14 8 15 9 13 10 10 11
REMARK SMILES IDX 11 12 91 13 12 14 9 15 6 17 7 18 8 19 5 20 1 21 2 22 3 23
REMARK SMILES IDX 94 24 4 25 92 26 93 27 23 28 24 29 25 30 26 31 27 32 28 33
REMARK SMILES IDX 29 34 30 35 31 36 32 37 90 38 33 39 89 40 34 41 35 42 36 43
REMARK SMILES IDX 83 44 37 45 88 46 82 47 84 48 38 49 87 50 81 51 80 52 39 54
REMARK SMILES IDX 69 55 50 56 68 57 51 58 54 59 67 60 85 61 52 62 53 63 66 65
REMARK SMILES IDX 86 66 55 67 40 68 41 69 49 70 42 71 48 72 43 73 44 74 45 75
REMARK SMILES IDX 46 76 47 77 70 78 71 79 79 80 72 81 78 82 73 83 74 84 75 85
REMARK SMILES IDX 76 86 77 87 56 88 57 89 65 90 58 91 64 92 59 93 60 94 61 95
REMARK SMILES IDX 62 96 63 97
REMARK H PARENT 9 16 84 53 54 64
REMARK Flexibility Score: inf
ROOT
ATOM      1  O   UNL A   1      40.526  22.391  26.269  1.00  0.00    -0.377 OA
ENDROOT
BRANCH   1   2
ATOM      2  C   UNL A   1      39.123  22.241  26.205  1.00  0.00     0.188 C 
BRANCH   2   3
ATOM      3  C   UNL A   1      38.635  21.042  25.376  1.00  0.00     0.188 C 
BRANCH   3   4
ATOM      4  O   UNL A   1      37.469  21.137  24.565  1.00  0.00    -0.376 OA
BRANCH   4   5
ATOM      5  C   UNL A   1      36.896  22.410  24.281  1.00  0.00     0.202 C 
BRANCH   5   6
ATOM      6  C   UNL A   1      35.561  22.815  24.924  1.00  0.00     0.261 C 
BRANCH   6   7
ATOM      7  O   UNL A   1      34.406  22.223  24.310  1.00  0.00    -0.463 OA
BRANCH   7   8
ATOM      8  C   UNL A   1      33.922  21.096  24.884  1.00  0.00     0.312 C 
ATOM      9  O   UNL A   1      34.440  19.987  24.787  1.00  0.00    -0.252 OA
BRANCH   8  10
ATOM     10  C   UNL A   1      32.703  21.344  25.771  1.00  0.00     0.123 C 
ATOM     11  C   UNL A   1      31.464  23.181  26.849  1.00  0.00     0.093 C 
ATOM     12  C   UNL A   1      30.929  22.870  25.501  1.00  0.00    -0.011 C 
ATOM     13  C   UNL A   1      32.788  22.410  26.870  1.00  0.00     0.043 C 
ATOM     14  C   UNL A   1      31.575  21.849  24.926  1.00  0.00    -0.015 C 
BRANCH  11  15
ATOM     15  N   UNL A   1      31.729  24.574  27.143  1.00  0.00    -0.204 NA
ATOM     16  H   UNL A   1      31.605  24.662  28.152  1.00  0.00     0.142 HD
BRANCH  15  17
ATOM     17  S   UNL A   1      30.934  25.884  26.490  1.00  0.00     0.241 S 
ATOM     18  O   UNL A   1      31.401  27.055  27.194  1.00  0.00    -0.207 OA
ATOM     19  O   UNL A   1      29.538  25.511  26.448  1.00  0.00    -0.207 OA
BRANCH  17  20
ATOM     20  C   UNL A   1      31.490  25.972  24.796  1.00  0.00     0.085 A 
ATOM     21  C   UNL A   1      32.701  25.653  20.675  1.00  0.00     0.044 C 
ATOM     22  C   UNL A   1      32.264  25.788  22.103  1.00  0.00    -0.051 A 
ATOM     23  C   UNL A   1      30.912  25.877  22.438  1.00  0.00     0.005 A 
ATOM     24  C   UNL A   1      33.224  25.861  23.122  1.00  0.00     0.008 A 
ATOM     25  C   UNL A   1      30.527  25.977  23.774  1.00  0.00     0.022 A 
ATOM     26  C   UNL A   1      32.858  25.975  24.476  1.00  0.00    -0.031 A 
ATOM     27  C   UNL A   1      33.967  26.093  25.484  1.00  0.00     0.046 C 
ENDBRANCH  17  20
ENDBRANCH  15  17
ENDBRANCH  11  15
ENDBRANCH   8  10
ENDBRANCH   7   8
ENDBRANCH   6   7
ENDBRANCH   5   6
ENDBRANCH   4   5
ENDBRANCH   3   4
ENDBRANCH   2   3
ENDBRANCH   1   2
BRANCH   1  28
ATOM     28  C   UNL A   1      41.284  21.188  26.350  1.00  0.00     0.188 C 
BRANCH  28  29
ATOM     29  C   UNL A   1      42.818  21.329  26.352  1.00  0.00     0.188 C 
BRANCH  29  30
ATOM     30  O   UNL A   1      43.371  21.538  25.053  1.00  0.00    -0.376 OA
BRANCH  30  31
ATOM     31  C   UNL A   1      43.671  22.882  24.685  1.00  0.00     0.202 C 
BRANCH  31  32
ATOM     32  C   UNL A   1      45.015  23.091  23.966  1.00  0.00     0.261 C 
BRANCH  32  33
ATOM     33  O   UNL A   1      45.819  24.189  24.434  1.00  0.00    -0.460 OA
BRANCH  33  34
ATOM     34  C   UNL A   1      46.236  24.170  25.718  1.00  0.00     0.338 C 
ATOM     35  O   UNL A   1      46.889  23.300  26.264  1.00  0.00    -0.246 OA
BRANCH  34  36
ATOM     36  C   UNL A   1      45.944  25.491  26.309  1.00  0.00     0.060 A 
ATOM     37  C   UNL A   1      45.346  26.468  25.504  1.00  0.00     0.016 A 
ATOM     38  C   UNL A   1      46.269  25.769  27.639  1.00  0.00     0.016 A 
ATOM     39  C   UNL A   1      45.110  27.744  26.015  1.00  0.00     0.010 A 
ATOM     40  C   UNL A   1      46.050  27.052  28.143  1.00  0.00     0.010 A 
ATOM     41  C   UNL A   1      45.505  28.055  27.323  1.00  0.00    -0.014 A 
BRANCH  41  42
ATOM     42  C   UNL A   1      45.539  29.469  27.766  1.00  0.00     0.031 A 
ATOM     43  C   UNL A   1      44.328  30.023  28.469  1.00  0.00     0.074 A 
ATOM     44  C   UNL A   1      46.617  30.246  27.561  1.00  0.00     0.049 A 
ATOM     45  N   UNL A   1      44.104  31.234  28.907  1.00  0.00    -0.248 NA
ATOM     46  C   UNL A   1      43.222  29.080  28.711  1.00  0.00     0.031 C 
ATOM     47  C   UNL A   1      47.864  29.816  26.929  1.00  0.00     0.029 A 
ATOM     48  N   UNL A   1      46.827  31.570  27.859  1.00  0.00    -0.354 N 
ATOM     49  C   UNL A   1      42.837  31.201  29.473  1.00  0.00     0.074 A 
ATOM     50  C   UNL A   1      42.327  29.859  29.299  1.00  0.00     0.031 C 
ATOM     51  C   UNL A   1      48.704  30.865  26.870  1.00  0.00     0.029 A 
ATOM     52  C   UNL A   1      48.045  32.043  27.431  1.00  0.00     0.049 A 
ATOM     53  H   UNL A   1      46.169  32.126  28.333  1.00  0.00     0.167 HD
ATOM     54  C   UNL A   1      42.157  32.196  30.090  1.00  0.00     0.031 A 
ATOM     55  C   UNL A   1      48.555  33.291  27.466  1.00  0.00     0.031 A 
ATOM     56  C   UNL A   1      42.651  33.538  30.238  1.00  0.00     0.049 A 
ATOM     57  C   UNL A   1      47.745  34.405  28.081  1.00  0.00     0.074 A 
ATOM     58  C   UNL A   1      42.036  34.620  30.844  1.00  0.00     0.029 A 
ATOM     59  N   UNL A   1      43.875  33.985  29.764  1.00  0.00    -0.354 N 
ATOM     60  N   UNL A   1      46.557  34.353  28.636  1.00  0.00    -0.248 NA
ATOM     61  C   UNL A   1      48.350  35.745  28.081  1.00  0.00     0.031 C 
ATOM     62  C   UNL A   1      42.867  35.734  30.691  1.00  0.00     0.029 A 
ATOM     63  C   UNL A   1      44.024  35.332  30.044  1.00  0.00     0.049 A 
ATOM     64  H   UNL A   1      44.540  33.427  29.299  1.00  0.00     0.167 HD
ATOM     65  C   UNL A   1      46.284  35.647  29.070  1.00  0.00     0.074 A 
ATOM     66  C   UNL A   1      47.436  36.455  28.729  1.00  0.00     0.031 C 
ATOM     67  C   UNL A   1      45.179  36.123  29.698  1.00  0.00     0.031 A 
BRANCH  54  68
ATOM     68  C   UNL A   1      40.788  31.870  30.623  1.00  0.00    -0.014 A 
ATOM     69  C   UNL A   1      40.627  31.067  31.766  1.00  0.00     0.010 A 
ATOM     70  C   UNL A   1      39.648  32.391  29.985  1.00  0.00     0.010 A 
ATOM     71  C   UNL A   1      39.348  30.759  32.240  1.00  0.00     0.020 A 
ATOM     72  C   UNL A   1      38.369  32.108  30.471  1.00  0.00     0.020 A 
ATOM     73  C   UNL A   1      38.227  31.280  31.586  1.00  0.00     0.054 A 
BRANCH  73  74
ATOM     74  S   UNL A   1      36.581  30.879  32.232  1.00  0.00     0.124 S 
ATOM     75  O   UNL A   1      36.734  29.471  32.591  1.00  0.00    -0.237 OA
ATOM     76  O   UNL A   1      36.444  31.801  33.357  1.00  0.00    -0.237 OA
ATOM     77  O   UNL A   1      35.692  31.140  31.104  1.00  0.00    -0.744 OA
ENDBRANCH  73  74
ENDBRANCH  54  68
BRANCH  55  78
ATOM     78  C   UNL A   1      49.894  33.564  26.872  1.00  0.00    -0.014 A 
ATOM     79  C   UNL A   1      50.014  34.065  25.564  1.00  0.00     0.010 A 
ATOM     80  C   UNL A   1      51.062  33.312  27.616  1.00  0.00     0.010 A 
ATOM     81  C   UNL A   1      51.276  34.289  25.004  1.00  0.00     0.020 A 
ATOM     82  C   UNL A   1      52.324  33.562  27.071  1.00  0.00     0.020 A 
ATOM     83  C   UNL A   1      52.423  34.037  25.763  1.00  0.00     0.054 A 
BRANCH  83  84
ATOM     84  S   UNL A   1      54.049  34.377  25.028  1.00  0.00     0.124 S 
ATOM     85  O   UNL A   1      53.731  35.419  24.058  1.00  0.00    -0.237 OA
ATOM     86  O   UNL A   1      54.832  34.807  26.184  1.00  0.00    -0.237 OA
ATOM     87  O   UNL A   1      54.443  33.090  24.460  1.00  0.00    -0.744 OA
ENDBRANCH  83  84
ENDBRANCH  55  78
BRANCH  67  88
ATOM     88  C   UNL A   1      45.169  37.578  30.087  1.00  0.00    -0.014 A 
ATOM     89  C   UNL A   1      44.641  38.561  29.231  1.00  0.00     0.010 A 
ATOM     90  C   UNL A   1      45.632  37.957  31.362  1.00  0.00     0.010 A 
ATOM     91  C   UNL A   1      44.601  39.899  29.633  1.00  0.00     0.020 A 
ATOM     92  C   UNL A   1      45.568  39.290  31.777  1.00  0.00     0.020 A 
ATOM     93  C   UNL A   1      45.065  40.255  30.904  1.00  0.00     0.054 A 
BRANCH  93  94
ATOM     94  S   UNL A   1      44.954  41.991  31.420  1.00  0.00     0.124 S 
ATOM     95  O   UNL A   1      44.007  41.919  32.530  1.00  0.00    -0.237 OA
ATOM     96  O   UNL A   1      46.332  42.305  31.789  1.00  0.00    -0.237 OA
ATOM     97  O   UNL A   1      44.464  42.677  30.227  1.00  0.00    -0.744 OA
ENDBRANCH  93  94
ENDBRANCH  67  88
ENDBRANCH  41  42
ENDBRANCH  34  36
ENDBRANCH  33  34
ENDBRANCH  32  33
ENDBRANCH  31  32
ENDBRANCH  30  31
ENDBRANCH  29  30
ENDBRANCH  28  29
ENDBRANCH   1  28
TORSDOF 26
ENDMDL
