MODEL 1
REMARK VINA RESULT:      -7.4      0.000      0.000
REMARK SMILES CCCC1(CCC)CN(c2cncc(C(=O)OCCOCCOCCOCCOC(=O)c3ccc(-c4c5nc(c(-c6ccc(S(=O)(=O)[O-])cc6)c6ccc([nH]6)c(-c6ccc(S(=O)(=O)[O-])cc6)c6nc(c(-c7ccc(S(=O)(=O)[O-])cc7)c7ccc4[nH]7)C=C6)C=C5)cc3)c2)C1
REMARK SMILES IDX 23 1 22 2 21 3 20 4 19 5 18 6 17 7 15 8 16 9 14 10 10 11
REMARK SMILES IDX 11 12 92 13 12 14 13 15 9 16 4 17 8 18 93 19 3 20 2 21 1 22
REMARK SMILES IDX 5 23 6 24 7 25 24 26 25 27 26 28 27 29 28 30 29 31 30 32
REMARK SMILES IDX 31 33 32 34 33 35 91 36 34 37 90 38 35 39 36 40 37 41 84 42
REMARK SMILES IDX 38 43 89 44 83 45 85 46 39 47 88 48 82 49 81 50 40 52 70 53
REMARK SMILES IDX 51 54 69 55 52 56 55 57 68 58 86 59 53 60 54 61 67 63 87 64
REMARK SMILES IDX 56 65 41 66 42 67 50 68 43 69 49 70 44 71 45 72 46 73 47 74
REMARK SMILES IDX 48 75 71 76 72 77 80 78 73 79 79 80 74 81 75 82 76 83 77 84
REMARK SMILES IDX 78 85 57 86 58 87 66 88 59 89 65 90 60 91 61 92 62 93 63 94
REMARK SMILES IDX 64 95
REMARK H PARENT 85 51 55 62
REMARK Flexibility Score: inf
ROOT
ATOM      1  O   UNL A   1      40.427  30.099  31.517  1.00  0.00    -0.377 OA
ENDROOT
BRANCH   1   2
ATOM      2  C   UNL A   1      40.167  29.168  30.482  1.00  0.00     0.188 C 
BRANCH   2   3
ATOM      3  C   UNL A   1      38.701  29.047  30.017  1.00  0.00     0.188 C 
BRANCH   3   4
ATOM      4  O   UNL A   1      38.497  29.439  28.674  1.00  0.00    -0.376 OA
BRANCH   4   5
ATOM      5  C   UNL A   1      37.332  30.143  28.286  1.00  0.00     0.202 C 
BRANCH   5   6
ATOM      6  C   UNL A   1      37.092  31.620  28.639  1.00  0.00     0.261 C 
BRANCH   6   7
ATOM      7  O   UNL A   1      35.857  31.944  29.279  1.00  0.00    -0.460 OA
BRANCH   7   8
ATOM      8  C   UNL A   1      35.231  33.092  28.944  1.00  0.00     0.339 C 
ATOM      9  O   UNL A   1      35.672  34.223  29.015  1.00  0.00    -0.246 OA
BRANCH   8  10
ATOM     10  C   UNL A   1      33.984  32.706  28.258  1.00  0.00     0.080 A 
ATOM     11  C   UNL A   1      32.697  31.123  26.945  1.00  0.00     0.056 A 
ATOM     12  C   UNL A   1      31.789  32.152  26.724  1.00  0.00     0.136 A 
ATOM     13  C   UNL A   1      33.825  31.437  27.709  1.00  0.00     0.044 A 
ATOM     14  N   UNL A   1      31.902  33.404  27.249  1.00  0.00    -0.262 NA
ATOM     15  C   UNL A   1      32.995  33.645  28.020  1.00  0.00     0.126 A 
BRANCH  11  16
ATOM     16  N   UNL A   1      32.548  29.816  26.483  1.00  0.00    -0.369 N 
ATOM     17  C   UNL A   1      32.185  27.832  26.020  1.00  0.00     0.005 C 
ATOM     18  C   UNL A   1      32.069  29.216  25.283  1.00  0.00     0.125 C 
ATOM     19  C   UNL A   1      32.244  28.686  27.300  1.00  0.00     0.125 C 
BRANCH  17  20
ATOM     20  C   UNL A   1      30.940  26.941  25.864  1.00  0.00     0.010 C 
BRANCH  20  21
ATOM     21  C   UNL A   1      30.394  26.871  24.427  1.00  0.00    -0.003 C 
ATOM     22  C   UNL A   1      29.866  25.500  24.021  1.00  0.00     0.004 C 
ENDBRANCH  20  21
ENDBRANCH  17  20
BRANCH  17  23
ATOM     23  C   UNL A   1      33.529  27.141  25.660  1.00  0.00     0.010 C 
BRANCH  23  24
ATOM     24  C   UNL A   1      33.422  25.642  25.366  1.00  0.00    -0.003 C 
ATOM     25  C   UNL A   1      34.750  24.905  25.449  1.00  0.00     0.004 C 
ENDBRANCH  23  24
ENDBRANCH  17  23
ENDBRANCH  11  16
ENDBRANCH   8  10
ENDBRANCH   7   8
ENDBRANCH   6   7
ENDBRANCH   5   6
ENDBRANCH   4   5
ENDBRANCH   3   4
ENDBRANCH   2   3
ENDBRANCH   1   2
BRANCH   1  26
ATOM     26  C   UNL A   1      39.369  30.911  32.024  1.00  0.00     0.188 C 
BRANCH  26  27
ATOM     27  C   UNL A   1      38.689  30.660  33.395  1.00  0.00     0.188 C 
BRANCH  27  28
ATOM     28  O   UNL A   1      39.338  29.710  34.224  1.00  0.00    -0.376 OA
BRANCH  28  29
ATOM     29  C   UNL A   1      40.513  30.105  34.907  1.00  0.00     0.202 C 
BRANCH  29  30
ATOM     30  C   UNL A   1      41.003  29.183  36.031  1.00  0.00     0.261 C 
BRANCH  30  31
ATOM     31  O   UNL A   1      42.326  28.649  35.874  1.00  0.00    -0.460 OA
BRANCH  31  32
ATOM     32  C   UNL A   1      42.431  27.331  35.597  1.00  0.00     0.338 C 
ATOM     33  O   UNL A   1      41.917  26.408  36.209  1.00  0.00    -0.246 OA
BRANCH  32  34
ATOM     34  C   UNL A   1      43.130  27.203  34.303  1.00  0.00     0.060 A 
ATOM     35  C   UNL A   1      44.375  26.561  34.257  1.00  0.00     0.016 A 
ATOM     36  C   UNL A   1      42.547  27.703  33.138  1.00  0.00     0.016 A 
ATOM     37  C   UNL A   1      45.056  26.447  33.045  1.00  0.00     0.010 A 
ATOM     38  C   UNL A   1      43.240  27.607  31.928  1.00  0.00     0.010 A 
ATOM     39  C   UNL A   1      44.511  27.008  31.881  1.00  0.00    -0.014 A 
BRANCH  39  40
ATOM     40  C   UNL A   1      45.343  27.141  30.660  1.00  0.00     0.031 A 
ATOM     41  C   UNL A   1      45.244  26.064  29.613  1.00  0.00     0.074 A 
ATOM     42  C   UNL A   1      46.161  28.193  30.477  1.00  0.00     0.049 A 
ATOM     43  N   UNL A   1      45.913  25.928  28.498  1.00  0.00    -0.248 NA
ATOM     44  C   UNL A   1      44.262  24.995  29.859  1.00  0.00     0.031 C 
ATOM     45  C   UNL A   1      46.311  29.321  31.394  1.00  0.00     0.029 A 
ATOM     46  N   UNL A   1      47.032  28.474  29.453  1.00  0.00    -0.354 N 
ATOM     47  C   UNL A   1      45.444  24.756  27.917  1.00  0.00     0.074 A 
ATOM     48  C   UNL A   1      44.453  24.203  28.814  1.00  0.00     0.031 C 
ATOM     49  C   UNL A   1      47.228  30.170  30.896  1.00  0.00     0.029 A 
ATOM     50  C   UNL A   1      47.759  29.625  29.647  1.00  0.00     0.049 A 
ATOM     51  H   UNL A   1      47.126  27.906  28.655  1.00  0.00     0.167 HD
ATOM     52  C   UNL A   1      45.803  24.190  26.741  1.00  0.00     0.031 A 
ATOM     53  C   UNL A   1      48.756  30.162  28.914  1.00  0.00     0.031 A 
ATOM     54  C   UNL A   1      46.798  24.737  25.857  1.00  0.00     0.049 A 
ATOM     55  C   UNL A   1      49.194  29.471  27.646  1.00  0.00     0.074 A 
ATOM     56  C   UNL A   1      47.220  24.248  24.634  1.00  0.00     0.029 A 
ATOM     57  N   UNL A   1      47.532  25.887  26.103  1.00  0.00    -0.354 N 
ATOM     58  N   UNL A   1      48.721  28.377  27.095  1.00  0.00    -0.248 NA
ATOM     59  C   UNL A   1      50.296  30.091  26.896  1.00  0.00     0.031 C 
ATOM     60  C   UNL A   1      48.257  25.064  24.172  1.00  0.00     0.029 A 
ATOM     61  C   UNL A   1      48.425  26.106  25.070  1.00  0.00     0.049 A 
ATOM     62  H   UNL A   1      47.432  26.462  26.896  1.00  0.00     0.167 HD
ATOM     63  C   UNL A   1      49.443  28.202  25.918  1.00  0.00     0.074 A 
ATOM     64  C   UNL A   1      50.373  29.307  25.830  1.00  0.00     0.031 C 
ATOM     65  C   UNL A   1      49.342  27.216  24.990  1.00  0.00     0.031 A 
BRANCH  52  66
ATOM     66  C   UNL A   1      45.144  22.893  26.355  1.00  0.00    -0.014 A 
ATOM     67  C   UNL A   1      45.882  21.829  25.806  1.00  0.00     0.010 A 
ATOM     68  C   UNL A   1      43.770  22.715  26.602  1.00  0.00     0.010 A 
ATOM     69  C   UNL A   1      45.253  20.622  25.488  1.00  0.00     0.020 A 
ATOM     70  C   UNL A   1      43.144  21.500  26.314  1.00  0.00     0.020 A 
ATOM     71  C   UNL A   1      43.889  20.464  25.748  1.00  0.00     0.054 A 
BRANCH  71  72
ATOM     72  S   UNL A   1      43.111  18.869  25.370  1.00  0.00     0.124 S 
ATOM     73  O   UNL A   1      41.693  19.222  25.353  1.00  0.00    -0.237 OA
ATOM     74  O   UNL A   1      43.690  18.533  24.071  1.00  0.00    -0.237 OA
ATOM     75  O   UNL A   1      43.524  18.009  26.476  1.00  0.00    -0.744 OA
ENDBRANCH  71  72
ENDBRANCH  52  66
BRANCH  53  76
ATOM     76  C   UNL A   1      49.438  31.407  29.371  1.00  0.00    -0.014 A 
ATOM     77  C   UNL A   1      48.943  32.674  29.012  1.00  0.00     0.010 A 
ATOM     78  C   UNL A   1      50.607  31.330  30.150  1.00  0.00     0.010 A 
ATOM     79  C   UNL A   1      49.618  33.836  29.401  1.00  0.00     0.020 A 
ATOM     80  C   UNL A   1      51.266  32.488  30.569  1.00  0.00     0.020 A 
ATOM     81  C   UNL A   1      50.775  33.735  30.179  1.00  0.00     0.054 A 
BRANCH  81  82
ATOM     82  S   UNL A   1      51.614  35.257  30.702  1.00  0.00     0.124 S 
ATOM     83  O   UNL A   1      51.163  36.214  29.697  1.00  0.00    -0.237 OA
ATOM     84  O   UNL A   1      51.088  35.457  32.050  1.00  0.00    -0.237 OA
ATOM     85  O   UNL A   1      53.031  34.904  30.641  1.00  0.00    -0.744 OA
ENDBRANCH  81  82
ENDBRANCH  53  76
BRANCH  65  86
ATOM     86  C   UNL A   1      50.221  27.308  23.768  1.00  0.00    -0.014 A 
ATOM     87  C   UNL A   1      51.571  26.918  23.800  1.00  0.00     0.010 A 
ATOM     88  C   UNL A   1      49.661  27.735  22.549  1.00  0.00     0.010 A 
ATOM     89  C   UNL A   1      52.353  26.985  22.643  1.00  0.00     0.020 A 
ATOM     90  C   UNL A   1      50.430  27.770  21.383  1.00  0.00     0.020 A 
ATOM     91  C   UNL A   1      51.776  27.409  21.440  1.00  0.00     0.054 A 
BRANCH  91  92
ATOM     92  S   UNL A   1      52.802  27.442  19.945  1.00  0.00     0.124 S 
ATOM     93  O   UNL A   1      54.111  27.805  20.481  1.00  0.00    -0.237 OA
ATOM     94  O   UNL A   1      52.683  26.074  19.446  1.00  0.00    -0.237 OA
ATOM     95  O   UNL A   1      52.168  28.461  19.112  1.00  0.00    -0.744 OA
ENDBRANCH  91  92
ENDBRANCH  65  86
ENDBRANCH  39  40
ENDBRANCH  32  34
ENDBRANCH  31  32
ENDBRANCH  30  31
ENDBRANCH  29  30
ENDBRANCH  28  29
ENDBRANCH  27  28
ENDBRANCH  26  27
ENDBRANCH   1  26
TORSDOF 28
ENDMDL
MODEL 2
REMARK VINA RESULT:      -7.0      0.657      7.968
REMARK SMILES CCCC1(CCC)CN(c2cncc(C(=O)OCCOCCOCCOCCOC(=O)c3ccc(-c4c5nc(c(-c6ccc(S(=O)(=O)[O-])cc6)c6ccc([nH]6)c(-c6ccc(S(=O)(=O)[O-])cc6)c6nc(c(-c7ccc(S(=O)(=O)[O-])cc7)c7ccc4[nH]7)C=C6)C=C5)cc3)c2)C1
REMARK SMILES IDX 23 1 22 2 21 3 20 4 19 5 18 6 17 7 15 8 16 9 14 10 10 11
REMARK SMILES IDX 11 12 92 13 12 14 13 15 9 16 4 17 8 18 93 19 3 20 2 21 1 22
REMARK SMILES IDX 5 23 6 24 7 25 24 26 25 27 26 28 27 29 28 30 29 31 30 32
REMARK SMILES IDX 31 33 32 34 33 35 91 36 34 37 90 38 35 39 36 40 37 41 84 42
REMARK SMILES IDX 38 43 89 44 83 45 85 46 39 47 88 48 82 49 81 50 40 52 70 53
REMARK SMILES IDX 51 54 69 55 52 56 55 57 68 58 86 59 53 60 54 61 67 63 87 64
REMARK SMILES IDX 56 65 41 66 42 67 50 68 43 69 49 70 44 71 45 72 46 73 47 74
REMARK SMILES IDX 48 75 71 76 72 77 80 78 73 79 79 80 74 81 75 82 76 83 77 84
REMARK SMILES IDX 78 85 57 86 58 87 66 88 59 89 65 90 60 91 61 92 62 93 63 94
REMARK SMILES IDX 64 95
REMARK H PARENT 85 51 55 62
REMARK Flexibility Score: inf
ROOT
ATOM      1  O   UNL A   1      40.105  29.701  31.340  1.00  0.00    -0.377 OA
ENDROOT
BRANCH   1   2
ATOM      2  C   UNL A   1      39.515  28.649  30.596  1.00  0.00     0.188 C 
BRANCH   2   3
ATOM      3  C   UNL A   1      38.120  28.925  30.000  1.00  0.00     0.188 C 
BRANCH   3   4
ATOM      4  O   UNL A   1      38.133  29.148  28.603  1.00  0.00    -0.376 OA
BRANCH   4   5
ATOM      5  C   UNL A   1      37.465  30.258  28.034  1.00  0.00     0.202 C 
BRANCH   5   6
ATOM      6  C   UNL A   1      37.188  31.556  28.810  1.00  0.00     0.261 C 
BRANCH   6   7
ATOM      7  O   UNL A   1      35.849  31.778  29.252  1.00  0.00    -0.460 OA
BRANCH   7   8
ATOM      8  C   UNL A   1      35.202  32.889  28.842  1.00  0.00     0.339 C 
ATOM      9  O   UNL A   1      35.615  34.033  28.856  1.00  0.00    -0.246 OA
BRANCH   8  10
ATOM     10  C   UNL A   1      33.977  32.434  28.159  1.00  0.00     0.080 A 
ATOM     11  C   UNL A   1      32.778  30.784  26.846  1.00  0.00     0.056 A 
ATOM     12  C   UNL A   1      31.812  31.760  26.632  1.00  0.00     0.136 A 
ATOM     13  C   UNL A   1      33.889  31.160  27.607  1.00  0.00     0.044 A 
ATOM     14  N   UNL A   1      31.855  33.015  27.160  1.00  0.00    -0.262 NA
ATOM     15  C   UNL A   1      32.936  33.316  27.927  1.00  0.00     0.126 A 
BRANCH  11  16
ATOM     16  N   UNL A   1      32.702  29.472  26.381  1.00  0.00    -0.369 N 
ATOM     17  C   UNL A   1      32.840  27.559  25.603  1.00  0.00     0.005 C 
ATOM     18  C   UNL A   1      32.383  28.210  26.960  1.00  0.00     0.125 C 
ATOM     19  C   UNL A   1      33.520  28.918  25.350  1.00  0.00     0.125 C 
BRANCH  17  20
ATOM     20  C   UNL A   1      33.784  26.357  25.780  1.00  0.00     0.010 C 
BRANCH  20  21
ATOM     21  C   UNL A   1      33.500  25.188  24.820  1.00  0.00    -0.003 C 
ATOM     22  C   UNL A   1      34.119  23.861  25.245  1.00  0.00     0.004 C 
ENDBRANCH  20  21
ENDBRANCH  17  20
BRANCH  17  23
ATOM     23  C   UNL A   1      31.608  27.292  24.694  1.00  0.00     0.010 C 
BRANCH  23  24
ATOM     24  C   UNL A   1      30.440  26.585  25.387  1.00  0.00    -0.003 C 
ATOM     25  C   UNL A   1      29.321  26.178  24.440  1.00  0.00     0.004 C 
ENDBRANCH  23  24
ENDBRANCH  17  23
ENDBRANCH  11  16
ENDBRANCH   8  10
ENDBRANCH   7   8
ENDBRANCH   6   7
ENDBRANCH   5   6
ENDBRANCH   4   5
ENDBRANCH   3   4
ENDBRANCH   2   3
ENDBRANCH   1   2
BRANCH   1  26
ATOM     26  C   UNL A   1      39.304  30.800  31.772  1.00  0.00     0.188 C 
BRANCH  26  27
ATOM     27  C   UNL A   1      38.766  30.941  33.219  1.00  0.00     0.188 C 
BRANCH  27  28
ATOM     28  O   UNL A   1      39.266  29.988  34.143  1.00  0.00    -0.376 OA
BRANCH  28  29
ATOM     29  C   UNL A   1      40.625  30.073  34.527  1.00  0.00     0.202 C 
BRANCH  29  30
ATOM     30  C   UNL A   1      41.007  29.429  35.866  1.00  0.00     0.261 C 
BRANCH  30  31
ATOM     31  O   UNL A   1      42.379  29.031  36.004  1.00  0.00    -0.460 OA
BRANCH  31  32
ATOM     32  C   UNL A   1      42.643  27.707  35.974  1.00  0.00     0.338 C 
ATOM     33  O   UNL A   1      42.255  26.863  36.766  1.00  0.00    -0.246 OA
BRANCH  32  34
ATOM     34  C   UNL A   1      43.339  27.421  34.704  1.00  0.00     0.060 A 
ATOM     35  C   UNL A   1      44.580  26.771  34.733  1.00  0.00     0.016 A 
ATOM     36  C   UNL A   1      42.755  27.781  33.488  1.00  0.00     0.016 A 
ATOM     37  C   UNL A   1      45.257  26.508  33.541  1.00  0.00     0.010 A 
ATOM     38  C   UNL A   1      43.444  27.535  32.297  1.00  0.00     0.010 A 
ATOM     39  C   UNL A   1      44.712  26.929  32.320  1.00  0.00    -0.014 A 
BRANCH  39  40
ATOM     40  C   UNL A   1      45.541  26.909  31.090  1.00  0.00     0.031 A 
ATOM     41  C   UNL A   1      46.498  28.048  30.860  1.00  0.00     0.074 A 
ATOM     42  C   UNL A   1      45.457  25.904  30.201  1.00  0.00     0.049 A 
ATOM     43  N   UNL A   1      47.276  28.284  29.836  1.00  0.00    -0.248 NA
ATOM     44  C   UNL A   1      46.584  29.061  31.926  1.00  0.00     0.031 C 
ATOM     45  C   UNL A   1      44.604  24.723  30.332  1.00  0.00     0.029 A 
ATOM     46  N   UNL A   1      46.096  25.724  28.999  1.00  0.00    -0.354 N 
ATOM     47  C   UNL A   1      47.933  29.473  30.128  1.00  0.00     0.074 A 
ATOM     48  C   UNL A   1      47.444  29.927  31.411  1.00  0.00     0.031 C 
ATOM     49  C   UNL A   1      44.766  23.945  29.247  1.00  0.00     0.029 A 
ATOM     50  C   UNL A   1      45.700  24.591  28.327  1.00  0.00     0.049 A 
ATOM     51  H   UNL A   1      46.774  26.347  28.651  1.00  0.00     0.167 HD
ATOM     52  C   UNL A   1      48.864  30.129  29.395  1.00  0.00     0.031 A 
ATOM     53  C   UNL A   1      46.035  24.143  27.099  1.00  0.00     0.031 A 
ATOM     54  C   UNL A   1      49.339  29.680  28.113  1.00  0.00     0.049 A 
ATOM     55  C   UNL A   1      47.015  24.933  26.267  1.00  0.00     0.074 A 
ATOM     56  C   UNL A   1      50.293  30.265  27.300  1.00  0.00     0.029 A 
ATOM     57  N   UNL A   1      48.893  28.545  27.455  1.00  0.00    -0.354 N 
ATOM     58  N   UNL A   1      47.650  26.042  26.568  1.00  0.00    -0.248 NA
ATOM     59  C   UNL A   1      47.331  24.406  24.931  1.00  0.00     0.031 C 
ATOM     60  C   UNL A   1      50.374  29.521  26.119  1.00  0.00     0.029 A 
ATOM     61  C   UNL A   1      49.529  28.430  26.231  1.00  0.00     0.049 A 
ATOM     62  H   UNL A   1      48.222  27.915  27.805  1.00  0.00     0.167 HD
ATOM     63  C   UNL A   1      48.465  26.322  25.474  1.00  0.00     0.074 A 
ATOM     64  C   UNL A   1      48.253  25.261  24.513  1.00  0.00     0.031 C 
ATOM     65  C   UNL A   1      49.315  27.363  25.285  1.00  0.00     0.031 A 
BRANCH  52  66
ATOM     66  C   UNL A   1      49.404  31.423  29.942  1.00  0.00    -0.014 A 
ATOM     67  C   UNL A   1      48.753  32.648  29.710  1.00  0.00     0.010 A 
ATOM     68  C   UNL A   1      50.554  31.405  30.753  1.00  0.00     0.010 A 
ATOM     69  C   UNL A   1      49.255  33.831  30.257  1.00  0.00     0.020 A 
ATOM     70  C   UNL A   1      51.042  32.581  31.327  1.00  0.00     0.020 A 
ATOM     71  C   UNL A   1      50.395  33.790  31.066  1.00  0.00     0.054 A 
BRANCH  71  72
ATOM     72  S   UNL A   1      50.995  35.335  31.802  1.00  0.00     0.124 S 
ATOM     73  O   UNL A   1      50.083  35.504  32.932  1.00  0.00    -0.237 OA
ATOM     74  O   UNL A   1      52.374  35.007  32.152  1.00  0.00    -0.237 OA
ATOM     75  O   UNL A   1      50.841  36.314  30.729  1.00  0.00    -0.744 OA
ENDBRANCH  71  72
ENDBRANCH  52  66
BRANCH  53  76
ATOM     76  C   UNL A   1      45.417  22.897  26.561  1.00  0.00    -0.014 A 
ATOM     77  C   UNL A   1      44.063  22.600  26.802  1.00  0.00     0.010 A 
ATOM     78  C   UNL A   1      46.192  21.983  25.824  1.00  0.00     0.010 A 
ATOM     79  C   UNL A   1      43.505  21.404  26.340  1.00  0.00     0.020 A 
ATOM     80  C   UNL A   1      45.630  20.802  25.331  1.00  0.00     0.020 A 
ATOM     81  C   UNL A   1      44.293  20.513  25.604  1.00  0.00     0.054 A 
BRANCH  81  82
ATOM     82  S   UNL A   1      43.538  18.984  24.983  1.00  0.00     0.124 S 
ATOM     83  O   UNL A   1      44.139  18.863  23.659  1.00  0.00    -0.237 OA
ATOM     84  O   UNL A   1      43.971  17.998  25.969  1.00  0.00    -0.237 OA
ATOM     85  O   UNL A   1      42.106  19.280  24.997  1.00  0.00    -0.744 OA
ENDBRANCH  81  82
ENDBRANCH  53  76
BRANCH  65  86
ATOM     86  C   UNL A   1      50.126  27.385  24.013  1.00  0.00    -0.014 A 
ATOM     87  C   UNL A   1      49.644  27.996  22.843  1.00  0.00     0.010 A 
ATOM     88  C   UNL A   1      51.423  26.838  24.015  1.00  0.00     0.010 A 
ATOM     89  C   UNL A   1      50.432  28.029  21.689  1.00  0.00     0.020 A 
ATOM     90  C   UNL A   1      52.226  26.899  22.874  1.00  0.00     0.020 A 
ATOM     91  C   UNL A   1      51.719  27.483  21.712  1.00  0.00     0.054 A 
BRANCH  91  92
ATOM     92  S   UNL A   1      52.737  27.580  20.213  1.00  0.00     0.124 S 
ATOM     93  O   UNL A   1      51.790  27.178  19.176  1.00  0.00    -0.237 OA
ATOM     94  O   UNL A   1      53.136  28.985  20.190  1.00  0.00    -0.237 OA
ATOM     95  O   UNL A   1      53.820  26.633  20.467  1.00  0.00    -0.744 OA
ENDBRANCH  91  92
ENDBRANCH  65  86
ENDBRANCH  39  40
ENDBRANCH  32  34
ENDBRANCH  31  32
ENDBRANCH  30  31
ENDBRANCH  29  30
ENDBRANCH  28  29
ENDBRANCH  27  28
ENDBRANCH  26  27
ENDBRANCH   1  26
TORSDOF 28
ENDMDL
MODEL 3
REMARK VINA RESULT:      -6.7      6.313     16.182
REMARK SMILES CCCC1(CCC)CN(c2cncc(C(=O)OCCOCCOCCOCCOC(=O)c3ccc(-c4c5nc(c(-c6ccc(S(=O)(=O)[O-])cc6)c6ccc([nH]6)c(-c6ccc(S(=O)(=O)[O-])cc6)c6nc(c(-c7ccc(S(=O)(=O)[O-])cc7)c7ccc4[nH]7)C=C6)C=C5)cc3)c2)C1
REMARK SMILES IDX 23 1 22 2 21 3 20 4 19 5 18 6 17 7 15 8 16 9 14 10 10 11
REMARK SMILES IDX 11 12 92 13 12 14 13 15 9 16 4 17 8 18 93 19 3 20 2 21 1 22
REMARK SMILES IDX 5 23 6 24 7 25 24 26 25 27 26 28 27 29 28 30 29 31 30 32
REMARK SMILES IDX 31 33 32 34 33 35 91 36 34 37 90 38 35 39 36 40 37 41 84 42
REMARK SMILES IDX 38 43 89 44 83 45 85 46 39 47 88 48 82 49 81 50 40 52 70 53
REMARK SMILES IDX 51 54 69 55 52 56 55 57 68 58 86 59 53 60 54 61 67 63 87 64
REMARK SMILES IDX 56 65 41 66 42 67 50 68 43 69 49 70 44 71 45 72 46 73 47 74
REMARK SMILES IDX 48 75 71 76 72 77 80 78 73 79 79 80 74 81 75 82 76 83 77 84
REMARK SMILES IDX 78 85 57 86 58 87 66 88 59 89 65 90 60 91 61 92 62 93 63 94
REMARK SMILES IDX 64 95
REMARK H PARENT 85 51 55 62
REMARK Flexibility Score: inf
ROOT
ATOM      1  O   UNL A   1      50.889  25.727  27.787  1.00  0.00    -0.377 OA
ENDROOT
BRANCH   1   2
ATOM      2  C   UNL A   1      50.630  26.995  28.363  1.00  0.00     0.188 C 
BRANCH   2   3
ATOM      3  C   UNL A   1      50.559  27.050  29.902  1.00  0.00     0.188 C 
BRANCH   3   4
ATOM      4  O   UNL A   1      50.686  25.785  30.522  1.00  0.00    -0.376 OA
BRANCH   4   5
ATOM      5  C   UNL A   1      51.826  25.460  31.295  1.00  0.00     0.202 C 
BRANCH   5   6
ATOM      6  C   UNL A   1      51.777  24.503  32.497  1.00  0.00     0.261 C 
BRANCH   6   7
ATOM      7  O   UNL A   1      50.932  23.357  32.382  1.00  0.00    -0.460 OA
BRANCH   7   8
ATOM      8  C   UNL A   1      51.476  22.129  32.519  1.00  0.00     0.339 C 
ATOM      9  O   UNL A   1      52.392  21.651  31.877  1.00  0.00    -0.246 OA
BRANCH   8  10
ATOM     10  C   UNL A   1      50.903  21.550  33.748  1.00  0.00     0.080 A 
ATOM     11  C   UNL A   1      50.234  21.760  36.070  1.00  0.00     0.056 A 
ATOM     12  C   UNL A   1      50.145  20.373  36.096  1.00  0.00     0.136 A 
ATOM     13  C   UNL A   1      50.649  22.337  34.867  1.00  0.00     0.044 A 
ATOM     14  N   UNL A   1      50.376  19.567  35.023  1.00  0.00    -0.262 NA
ATOM     15  C   UNL A   1      50.736  20.182  33.865  1.00  0.00     0.126 A 
BRANCH  11  16
ATOM     16  N   UNL A   1      49.918  22.599  37.138  1.00  0.00    -0.369 N 
ATOM     17  C   UNL A   1      49.430  23.621  38.870  1.00  0.00     0.005 C 
ATOM     18  C   UNL A   1      50.533  23.727  37.755  1.00  0.00     0.125 C 
ATOM     19  C   UNL A   1      49.213  22.201  38.313  1.00  0.00     0.125 C 
BRANCH  17  20
ATOM     20  C   UNL A   1      49.988  23.703  40.302  1.00  0.00     0.010 C 
BRANCH  20  21
ATOM     21  C   UNL A   1      50.030  25.129  40.879  1.00  0.00    -0.003 C 
ATOM     22  C   UNL A   1      51.399  25.795  40.808  1.00  0.00     0.004 C 
ENDBRANCH  20  21
ENDBRANCH  17  20
BRANCH  17  23
ATOM     23  C   UNL A   1      48.263  24.601  38.568  1.00  0.00     0.010 C 
BRANCH  23  24
ATOM     24  C   UNL A   1      46.939  24.253  39.254  1.00  0.00    -0.003 C 
ATOM     25  C   UNL A   1      46.128  25.470  39.674  1.00  0.00     0.004 C 
ENDBRANCH  23  24
ENDBRANCH  17  23
ENDBRANCH  11  16
ENDBRANCH   8  10
ENDBRANCH   7   8
ENDBRANCH   6   7
ENDBRANCH   5   6
ENDBRANCH   4   5
ENDBRANCH   3   4
ENDBRANCH   2   3
ENDBRANCH   1   2
BRANCH   1  26
ATOM     26  C   UNL A   1      49.819  24.802  27.598  1.00  0.00     0.188 C 
BRANCH  26  27
ATOM     27  C   UNL A   1      48.403  25.226  27.127  1.00  0.00     0.188 C 
BRANCH  27  28
ATOM     28  O   UNL A   1      47.350  24.373  27.542  1.00  0.00    -0.376 OA
BRANCH  28  29
ATOM     29  C   UNL A   1      46.313  24.089  26.622  1.00  0.00     0.202 C 
BRANCH  29  30
ATOM     30  C   UNL A   1      45.064  23.394  27.180  1.00  0.00     0.261 C 
BRANCH  30  31
ATOM     31  O   UNL A   1      43.817  24.071  26.960  1.00  0.00    -0.460 OA
BRANCH  31  32
ATOM     32  C   UNL A   1      43.876  25.332  26.481  1.00  0.00     0.338 C 
ATOM     33  O   UNL A   1      43.923  25.672  25.309  1.00  0.00    -0.246 OA
BRANCH  32  34
ATOM     34  C   UNL A   1      43.688  26.250  27.622  1.00  0.00     0.060 A 
ATOM     35  C   UNL A   1      42.907  25.840  28.711  1.00  0.00     0.016 A 
ATOM     36  C   UNL A   1      44.297  27.507  27.619  1.00  0.00     0.016 A 
ATOM     37  C   UNL A   1      42.707  26.703  29.788  1.00  0.00     0.010 A 
ATOM     38  C   UNL A   1      44.078  28.377  28.690  1.00  0.00     0.010 A 
ATOM     39  C   UNL A   1      43.255  27.993  29.763  1.00  0.00    -0.014 A 
BRANCH  39  40
ATOM     40  C   UNL A   1      42.821  29.005  30.757  1.00  0.00     0.031 A 
ATOM     41  C   UNL A   1      43.648  29.178  32.003  1.00  0.00     0.074 A 
ATOM     42  C   UNL A   1      41.725  29.759  30.560  1.00  0.00     0.049 A 
ATOM     43  N   UNL A   1      43.438  29.948  33.038  1.00  0.00    -0.248 NA
ATOM     44  C   UNL A   1      44.876  28.369  32.095  1.00  0.00     0.031 C 
ATOM     45  C   UNL A   1      40.868  29.719  29.376  1.00  0.00     0.029 A 
ATOM     46  N   UNL A   1      41.140  30.705  31.366  1.00  0.00    -0.354 N 
ATOM     47  C   UNL A   1      44.496  29.709  33.907  1.00  0.00     0.074 A 
ATOM     48  C   UNL A   1      45.333  28.704  33.293  1.00  0.00     0.031 C 
ATOM     49  C   UNL A   1      39.860  30.595  29.538  1.00  0.00     0.029 A 
ATOM     50  C   UNL A   1      39.976  31.226  30.851  1.00  0.00     0.049 A 
ATOM     51  H   UNL A   1      41.519  30.985  32.231  1.00  0.00     0.167 HD
ATOM     52  C   UNL A   1      44.750  30.278  35.110  1.00  0.00     0.031 A 
ATOM     53  C   UNL A   1      39.095  32.093  31.390  1.00  0.00     0.031 A 
ATOM     54  C   UNL A   1      43.907  31.270  35.722  1.00  0.00     0.049 A 
ATOM     55  C   UNL A   1      39.358  32.654  32.765  1.00  0.00     0.074 A 
ATOM     56  C   UNL A   1      44.088  31.921  36.930  1.00  0.00     0.029 A 
ATOM     57  N   UNL A   1      42.724  31.749  35.183  1.00  0.00    -0.354 N 
ATOM     58  N   UNL A   1      40.378  32.440  33.565  1.00  0.00    -0.248 NA
ATOM     59  C   UNL A   1      38.356  33.582  33.310  1.00  0.00     0.031 C 
ATOM     60  C   UNL A   1      42.979  32.742  37.153  1.00  0.00     0.029 A 
ATOM     61  C   UNL A   1      42.147  32.663  36.048  1.00  0.00     0.049 A 
ATOM     62  H   UNL A   1      42.348  31.479  34.314  1.00  0.00     0.167 HD
ATOM     63  C   UNL A   1      40.155  33.234  34.686  1.00  0.00     0.074 A 
ATOM     64  C   UNL A   1      38.914  33.942  34.457  1.00  0.00     0.031 C 
ATOM     65  C   UNL A   1      40.914  33.367  35.804  1.00  0.00     0.031 A 
BRANCH  52  66
ATOM     66  C   UNL A   1      45.969  29.816  35.861  1.00  0.00    -0.014 A 
ATOM     67  C   UNL A   1      47.214  30.451  35.701  1.00  0.00     0.010 A 
ATOM     68  C   UNL A   1      45.854  28.764  36.789  1.00  0.00     0.010 A 
ATOM     69  C   UNL A   1      48.324  30.026  36.435  1.00  0.00     0.020 A 
ATOM     70  C   UNL A   1      46.954  28.356  37.547  1.00  0.00     0.020 A 
ATOM     71  C   UNL A   1      48.186  28.983  37.357  1.00  0.00     0.054 A 
BRANCH  71  72
ATOM     72  S   UNL A   1      49.634  28.486  38.331  1.00  0.00     0.124 S 
ATOM     73  O   UNL A   1      50.495  29.661  38.210  1.00  0.00    -0.237 OA
ATOM     74  O   UNL A   1      49.063  28.259  39.655  1.00  0.00    -0.237 OA
ATOM     75  O   UNL A   1      50.118  27.289  37.648  1.00  0.00    -0.744 OA
ENDBRANCH  71  72
ENDBRANCH  52  66
BRANCH  53  76
ATOM     76  C   UNL A   1      37.858  32.466  30.645  1.00  0.00    -0.014 A 
ATOM     77  C   UNL A   1      37.838  33.584  29.792  1.00  0.00     0.010 A 
ATOM     78  C   UNL A   1      36.679  31.715  30.808  1.00  0.00     0.010 A 
ATOM     79  C   UNL A   1      36.659  33.958  29.139  1.00  0.00     0.020 A 
ATOM     80  C   UNL A   1      35.508  32.064  30.131  1.00  0.00     0.020 A 
ATOM     81  C   UNL A   1      35.501  33.193  29.311  1.00  0.00     0.054 A 
BRANCH  81  82
ATOM     82  S   UNL A   1      33.993  33.676  28.424  1.00  0.00     0.124 S 
ATOM     83  O   UNL A   1      33.506  32.392  27.930  1.00  0.00    -0.237 OA
ATOM     84  O   UNL A   1      33.195  34.294  29.479  1.00  0.00    -0.237 OA
ATOM     85  O   UNL A   1      34.480  34.598  27.400  1.00  0.00    -0.744 OA
ENDBRANCH  81  82
ENDBRANCH  53  76
BRANCH  65  86
ATOM     86  C   UNL A   1      40.455  34.354  36.849  1.00  0.00    -0.014 A 
ATOM     87  C   UNL A   1      39.597  33.974  37.896  1.00  0.00     0.010 A 
ATOM     88  C   UNL A   1      40.949  35.672  36.814  1.00  0.00     0.010 A 
ATOM     89  C   UNL A   1      39.216  34.903  38.868  1.00  0.00     0.020 A 
ATOM     90  C   UNL A   1      40.597  36.593  37.803  1.00  0.00     0.020 A 
ATOM     91  C   UNL A   1      39.720  36.207  38.817  1.00  0.00     0.054 A 
BRANCH  91  92
ATOM     92  S   UNL A   1      39.245  37.379  40.118  1.00  0.00     0.124 S 
ATOM     93  O   UNL A   1      38.337  38.273  39.404  1.00  0.00    -0.237 OA
ATOM     94  O   UNL A   1      38.620  36.512  41.114  1.00  0.00    -0.237 OA
ATOM     95  O   UNL A   1      40.513  37.977  40.527  1.00  0.00    -0.744 OA
ENDBRANCH  91  92
ENDBRANCH  65  86
ENDBRANCH  39  40
ENDBRANCH  32  34
ENDBRANCH  31  32
ENDBRANCH  30  31
ENDBRANCH  29  30
ENDBRANCH  28  29
ENDBRANCH  27  28
ENDBRANCH  26  27
ENDBRANCH   1  26
TORSDOF 28
ENDMDL
