MODEL 1
REMARK VINA RESULT:      -8.6      0.000      0.000
REMARK SMILES Cc1ccc(Nc2c(Cl)cc(Cl)cc2Cl)c(CC(=O)OCCOCCOCCOCCOC(=O)c2ccc(-c3c4nc(c(-c5ccc(S(=O)(=O)[O-])cc5)c5ccc([nH]5)c(-c5ccc(S(=O)(=O)[O-])cc5)c5nc(c(-c6ccc(S(=O)(=O)[O-])cc6)c6ccc3[nH]6)C=C5)C=C4)cc2)c1
REMARK SMILES IDX 26 1 25 2 24 3 23 4 22 5 21 6 20 7 18 8 19 9 17 10 16 11
REMARK SMILES IDX 1 12 2 13 3 14 95 15 4 16 5 17 6 18 7 20 8 21 14 22 9 23
REMARK SMILES IDX 10 24 13 25 15 26 11 27 12 28 27 29 28 30 29 31 30 32 31 33
REMARK SMILES IDX 32 34 33 35 34 36 35 37 36 38 94 39 37 40 93 41 38 42 39 43
REMARK SMILES IDX 40 44 87 45 41 46 92 47 86 48 88 49 42 50 91 51 85 52 84 53
REMARK SMILES IDX 43 55 73 56 54 57 72 58 55 59 58 60 71 61 89 62 56 63 57 64
REMARK SMILES IDX 70 66 90 67 59 68 44 69 45 70 53 71 46 72 52 73 47 74 48 75
REMARK SMILES IDX 49 76 50 77 51 78 74 79 75 80 83 81 76 82 82 83 77 84 78 85
REMARK SMILES IDX 79 86 80 87 81 88 60 89 61 90 69 91 62 92 68 93 63 94 64 95
REMARK SMILES IDX 65 96 66 97 67 98
REMARK H PARENT 6 19 88 54 58 65
REMARK Flexibility Score: inf
ROOT
ATOM      1  O   UNL A   1      33.710  34.043  30.712  1.00  0.00    -0.377 OA
ENDROOT
BRANCH   1   2
ATOM      2  C   UNL A   1      34.481  34.330  31.860  1.00  0.00     0.188 C 
BRANCH   2   3
ATOM      3  C   UNL A   1      34.063  33.401  33.008  1.00  0.00     0.188 C 
BRANCH   3   4
ATOM      4  O   UNL A   1      34.887  33.129  34.137  1.00  0.00    -0.376 OA
BRANCH   4   5
ATOM      5  C   UNL A   1      35.949  34.018  34.369  1.00  0.00     0.202 C 
BRANCH   5   6
ATOM      6  C   UNL A   1      37.207  33.296  34.833  1.00  0.00     0.261 C 
BRANCH   6   7
ATOM      7  O   UNL A   1      37.139  31.890  34.583  1.00  0.00    -0.463 OA
BRANCH   7   8
ATOM      8  C   UNL A   1      38.312  31.351  34.169  1.00  0.00     0.310 C 
ATOM      9  O   UNL A   1      38.904  31.602  33.126  1.00  0.00    -0.252 OA
BRANCH   8  10
ATOM     10  C   UNL A   1      38.795  30.308  35.128  1.00  0.00     0.160 C 
BRANCH  10  11
ATOM     11  C   UNL A   1      40.141  30.579  35.757  1.00  0.00    -0.013 A 
ATOM     12  C   UNL A   1      41.529  33.486  37.860  1.00  0.00     0.044 C 
ATOM     13  C   UNL A   1      41.433  32.197  37.098  1.00  0.00    -0.051 A 
ATOM     14  C   UNL A   1      42.508  31.321  37.056  1.00  0.00     0.005 A 
ATOM     15  C   UNL A   1      40.261  31.822  36.440  1.00  0.00     0.009 A 
ATOM     16  C   UNL A   1      42.418  30.114  36.343  1.00  0.00     0.026 A 
ATOM     17  C   UNL A   1      41.248  29.696  35.675  1.00  0.00     0.042 A 
BRANCH  17  18
ATOM     18  N   UNL A   1      41.200  28.460  34.937  1.00  0.00    -0.353 N 
ATOM     19  H   UNL A   1      40.302  28.173  34.652  1.00  0.00     0.167 HD
BRANCH  18  20
ATOM     20  C   UNL A   1      42.280  27.583  34.553  1.00  0.00     0.076 A 
ATOM     21  C   UNL A   1      42.429  26.280  35.057  1.00  0.00     0.067 A 
ATOM     22  C   UNL A   1      43.366  28.065  33.771  1.00  0.00     0.067 A 
ATOM     23  Cl  UNL A   1      41.075  25.375  35.652  1.00  0.00    -0.082 Cl
ATOM     24  C   UNL A   1      43.657  25.604  34.998  1.00  0.00     0.043 A 
ATOM     25  C   UNL A   1      44.609  27.413  33.738  1.00  0.00     0.043 A 
ATOM     26  Cl  UNL A   1      43.201  29.435  32.730  1.00  0.00    -0.082 Cl
ATOM     27  C   UNL A   1      44.754  26.195  34.383  1.00  0.00     0.044 A 
ATOM     28  Cl  UNL A   1      46.281  25.403  34.412  1.00  0.00    -0.084 Cl
ENDBRANCH  18  20
ENDBRANCH  17  18
ENDBRANCH  10  11
ENDBRANCH   8  10
ENDBRANCH   7   8
ENDBRANCH   6   7
ENDBRANCH   5   6
ENDBRANCH   4   5
ENDBRANCH   3   4
ENDBRANCH   2   3
ENDBRANCH   1   2
BRANCH   1  29
ATOM     29  C   UNL A   1      34.127  34.598  29.466  1.00  0.00     0.188 C 
BRANCH  29  30
ATOM     30  C   UNL A   1      34.135  33.671  28.260  1.00  0.00     0.188 C 
BRANCH  30  31
ATOM     31  O   UNL A   1      34.051  32.323  28.691  1.00  0.00    -0.376 OA
BRANCH  31  32
ATOM     32  C   UNL A   1      35.187  31.544  28.390  1.00  0.00     0.202 C 
BRANCH  32  33
ATOM     33  C   UNL A   1      35.984  31.164  29.634  1.00  0.00     0.261 C 
BRANCH  33  34
ATOM     34  O   UNL A   1      36.571  29.864  29.422  1.00  0.00    -0.460 OA
BRANCH  34  35
ATOM     35  C   UNL A   1      37.121  29.303  30.531  1.00  0.00     0.338 C 
ATOM     36  O   UNL A   1      36.567  29.288  31.632  1.00  0.00    -0.246 OA
BRANCH  35  37
ATOM     37  C   UNL A   1      38.473  28.754  30.237  1.00  0.00     0.060 A 
ATOM     38  C   UNL A   1      39.415  28.534  31.256  1.00  0.00     0.016 A 
ATOM     39  C   UNL A   1      38.870  28.596  28.917  1.00  0.00     0.016 A 
ATOM     40  C   UNL A   1      40.777  28.297  30.958  1.00  0.00     0.010 A 
ATOM     41  C   UNL A   1      40.210  28.383  28.634  1.00  0.00     0.010 A 
ATOM     42  C   UNL A   1      41.197  28.274  29.633  1.00  0.00    -0.014 A 
BRANCH  42  43
ATOM     43  C   UNL A   1      42.590  28.238  29.110  1.00  0.00     0.031 A 
ATOM     44  C   UNL A   1      43.200  26.880  28.894  1.00  0.00     0.074 A 
ATOM     45  C   UNL A   1      43.073  29.323  28.443  1.00  0.00     0.049 A 
ATOM     46  N   UNL A   1      44.292  26.639  28.253  1.00  0.00    -0.248 NA
ATOM     47  C   UNL A   1      42.588  25.640  29.393  1.00  0.00     0.031 C 
ATOM     48  C   UNL A   1      43.871  29.336  27.206  1.00  0.00     0.029 A 
ATOM     49  N   UNL A   1      42.830  30.668  28.607  1.00  0.00    -0.354 N 
ATOM     50  C   UNL A   1      44.326  25.288  27.946  1.00  0.00     0.074 A 
ATOM     51  C   UNL A   1      43.308  24.697  28.775  1.00  0.00     0.031 C 
ATOM     52  C   UNL A   1      43.999  30.587  26.725  1.00  0.00     0.029 A 
ATOM     53  C   UNL A   1      43.685  31.454  27.830  1.00  0.00     0.049 A 
ATOM     54  H   UNL A   1      42.136  31.032  29.203  1.00  0.00     0.167 HD
ATOM     55  C   UNL A   1      45.096  24.853  26.900  1.00  0.00     0.031 A 
ATOM     56  C   UNL A   1      44.657  32.174  28.474  1.00  0.00     0.031 A 
ATOM     57  C   UNL A   1      45.964  25.926  26.349  1.00  0.00     0.049 A 
ATOM     58  C   UNL A   1      46.041  31.496  28.371  1.00  0.00     0.074 A 
ATOM     59  C   UNL A   1      46.377  26.308  25.083  1.00  0.00     0.029 A 
ATOM     60  N   UNL A   1      46.484  26.905  27.202  1.00  0.00    -0.354 N 
ATOM     61  N   UNL A   1      46.245  30.317  27.826  1.00  0.00    -0.248 NA
ATOM     62  C   UNL A   1      47.306  32.075  28.809  1.00  0.00     0.031 C 
ATOM     63  C   UNL A   1      47.087  27.544  25.190  1.00  0.00     0.029 A 
ATOM     64  C   UNL A   1      47.167  27.892  26.528  1.00  0.00     0.049 A 
ATOM     65  H   UNL A   1      46.375  26.888  28.180  1.00  0.00     0.167 HD
ATOM     66  C   UNL A   1      47.561  29.968  27.823  1.00  0.00     0.074 A 
ATOM     67  C   UNL A   1      48.185  31.101  28.491  1.00  0.00     0.031 C 
ATOM     68  C   UNL A   1      48.036  28.799  27.280  1.00  0.00     0.031 A 
BRANCH  55  69
ATOM     69  C   UNL A   1      44.956  23.481  26.208  1.00  0.00    -0.014 A 
ATOM     70  C   UNL A   1      43.679  22.880  26.129  1.00  0.00     0.010 A 
ATOM     71  C   UNL A   1      46.017  22.680  25.719  1.00  0.00     0.010 A 
ATOM     72  C   UNL A   1      43.471  21.567  25.663  1.00  0.00     0.020 A 
ATOM     73  C   UNL A   1      45.816  21.378  25.195  1.00  0.00     0.020 A 
ATOM     74  C   UNL A   1      44.543  20.818  25.195  1.00  0.00     0.054 A 
BRANCH  74  75
ATOM     75  S   UNL A   1      44.232  19.140  24.561  1.00  0.00     0.124 S 
ATOM     76  O   UNL A   1      44.493  19.286  23.131  1.00  0.00    -0.237 OA
ATOM     77  O   UNL A   1      45.207  18.335  25.293  1.00  0.00    -0.237 OA
ATOM     78  O   UNL A   1      42.838  18.885  24.915  1.00  0.00    -0.744 OA
ENDBRANCH  74  75
ENDBRANCH  55  69
BRANCH  56  79
ATOM     79  C   UNL A   1      43.995  33.015  29.548  1.00  0.00    -0.014 A 
ATOM     80  C   UNL A   1      43.403  34.209  29.047  1.00  0.00     0.010 A 
ATOM     81  C   UNL A   1      43.342  32.372  30.625  1.00  0.00     0.010 A 
ATOM     82  C   UNL A   1      42.085  34.559  29.383  1.00  0.00     0.020 A 
ATOM     83  C   UNL A   1      42.018  32.732  30.968  1.00  0.00     0.020 A 
ATOM     84  C   UNL A   1      41.377  33.776  30.293  1.00  0.00     0.054 A 
BRANCH  84  85
ATOM     85  S   UNL A   1      39.560  33.966  30.352  1.00  0.00     0.124 S 
ATOM     86  O   UNL A   1      39.338  34.445  31.711  1.00  0.00    -0.237 OA
ATOM     87  O   UNL A   1      39.311  34.942  29.290  1.00  0.00    -0.237 OA
ATOM     88  O   UNL A   1      39.071  32.621  30.070  1.00  0.00    -0.744 OA
ENDBRANCH  84  85
ENDBRANCH  56  79
BRANCH  68  89
ATOM     89  C   UNL A   1      49.442  28.291  27.465  1.00  0.00    -0.014 A 
ATOM     90  C   UNL A   1      49.832  27.411  28.471  1.00  0.00     0.010 A 
ATOM     91  C   UNL A   1      50.450  28.759  26.579  1.00  0.00     0.010 A 
ATOM     92  C   UNL A   1      51.129  26.887  28.487  1.00  0.00     0.020 A 
ATOM     93  C   UNL A   1      51.756  28.283  26.615  1.00  0.00     0.020 A 
ATOM     94  C   UNL A   1      52.070  27.303  27.540  1.00  0.00     0.054 A 
BRANCH  94  95
ATOM     95  S   UNL A   1      53.706  26.546  27.533  1.00  0.00     0.124 S 
ATOM     96  O   UNL A   1      54.503  27.524  26.797  1.00  0.00    -0.237 OA
ATOM     97  O   UNL A   1      53.994  26.449  28.962  1.00  0.00    -0.237 OA
ATOM     98  O   UNL A   1      53.502  25.272  26.849  1.00  0.00    -0.744 OA
ENDBRANCH  94  95
ENDBRANCH  68  89
ENDBRANCH  42  43
ENDBRANCH  35  37
ENDBRANCH  34  35
ENDBRANCH  33  34
ENDBRANCH  32  33
ENDBRANCH  31  32
ENDBRANCH  30  31
ENDBRANCH  29  30
ENDBRANCH   1  29
TORSDOF 26
ENDMDL
MODEL 2
REMARK VINA RESULT:      -8.6      6.142     13.512
REMARK SMILES Cc1ccc(Nc2c(Cl)cc(Cl)cc2Cl)c(CC(=O)OCCOCCOCCOCCOC(=O)c2ccc(-c3c4nc(c(-c5ccc(S(=O)(=O)[O-])cc5)c5ccc([nH]5)c(-c5ccc(S(=O)(=O)[O-])cc5)c5nc(c(-c6ccc(S(=O)(=O)[O-])cc6)c6ccc3[nH]6)C=C5)C=C4)cc2)c1
REMARK SMILES IDX 26 1 25 2 24 3 23 4 22 5 21 6 20 7 18 8 19 9 17 10 16 11
REMARK SMILES IDX 1 12 2 13 3 14 95 15 4 16 5 17 6 18 7 20 8 21 14 22 9 23
REMARK SMILES IDX 10 24 13 25 15 26 11 27 12 28 27 29 28 30 29 31 30 32 31 33
REMARK SMILES IDX 32 34 33 35 34 36 35 37 36 38 94 39 37 40 93 41 38 42 39 43
REMARK SMILES IDX 40 44 87 45 41 46 92 47 86 48 88 49 42 50 91 51 85 52 84 53
REMARK SMILES IDX 43 55 73 56 54 57 72 58 55 59 58 60 71 61 89 62 56 63 57 64
REMARK SMILES IDX 70 66 90 67 59 68 44 69 45 70 53 71 46 72 52 73 47 74 48 75
REMARK SMILES IDX 49 76 50 77 51 78 74 79 75 80 83 81 76 82 82 83 77 84 78 85
REMARK SMILES IDX 79 86 80 87 81 88 60 89 61 90 69 91 62 92 68 93 63 94 64 95
REMARK SMILES IDX 65 96 66 97 67 98
REMARK H PARENT 6 19 88 54 58 65
REMARK Flexibility Score: inf
ROOT
ATOM      1  O   UNL A   1      43.252  21.793  26.097  1.00  0.00    -0.377 OA
ENDROOT
BRANCH   1   2
ATOM      2  C   UNL A   1      42.318  20.761  25.852  1.00  0.00     0.188 C 
BRANCH   2   3
ATOM      3  C   UNL A   1      41.048  21.009  26.676  1.00  0.00     0.188 C 
BRANCH   3   4
ATOM      4  O   UNL A   1      40.163  22.100  26.446  1.00  0.00    -0.376 OA
BRANCH   4   5
ATOM      5  C   UNL A   1      38.979  21.814  25.748  1.00  0.00     0.202 C 
BRANCH   5   6
ATOM      6  C   UNL A   1      37.845  22.753  26.137  1.00  0.00     0.261 C 
BRANCH   6   7
ATOM      7  O   UNL A   1      37.440  23.583  25.046  1.00  0.00    -0.463 OA
BRANCH   7   8
ATOM      8  C   UNL A   1      36.428  23.060  24.309  1.00  0.00     0.310 C 
ATOM      9  O   UNL A   1      36.387  22.965  23.089  1.00  0.00    -0.252 OA
BRANCH   8  10
ATOM     10  C   UNL A   1      35.276  22.666  25.180  1.00  0.00     0.160 C 
BRANCH  10  11
ATOM     11  C   UNL A   1      34.265  21.745  24.537  1.00  0.00    -0.013 A 
ATOM     12  C   UNL A   1      33.689  17.945  24.697  1.00  0.00     0.044 C 
ATOM     13  C   UNL A   1      33.545  19.394  24.337  1.00  0.00    -0.051 A 
ATOM     14  C   UNL A   1      32.506  19.819  23.522  1.00  0.00     0.005 A 
ATOM     15  C   UNL A   1      34.421  20.361  24.831  1.00  0.00     0.009 A 
ATOM     16  C   UNL A   1      32.370  21.176  23.185  1.00  0.00     0.026 A 
ATOM     17  C   UNL A   1      33.229  22.183  23.673  1.00  0.00     0.042 A 
BRANCH  17  18
ATOM     18  N   UNL A   1      33.072  23.561  23.289  1.00  0.00    -0.353 N 
ATOM     19  H   UNL A   1      33.312  23.770  22.357  1.00  0.00     0.167 HD
BRANCH  18  20
ATOM     20  C   UNL A   1      32.610  24.681  24.075  1.00  0.00     0.076 A 
ATOM     21  C   UNL A   1      32.946  26.014  23.786  1.00  0.00     0.067 A 
ATOM     22  C   UNL A   1      31.929  24.474  25.306  1.00  0.00     0.067 A 
ATOM     23  Cl  UNL A   1      33.379  26.516  22.183  1.00  0.00    -0.082 Cl
ATOM     24  C   UNL A   1      32.836  27.026  24.751  1.00  0.00     0.043 A 
ATOM     25  C   UNL A   1      31.849  25.471  26.292  1.00  0.00     0.043 A 
ATOM     26  Cl  UNL A   1      31.068  23.012  25.636  1.00  0.00    -0.082 Cl
ATOM     27  C   UNL A   1      32.335  26.739  26.014  1.00  0.00     0.044 A 
ATOM     28  Cl  UNL A   1      32.307  27.964  27.223  1.00  0.00    -0.084 Cl
ENDBRANCH  18  20
ENDBRANCH  17  18
ENDBRANCH  10  11
ENDBRANCH   8  10
ENDBRANCH   7   8
ENDBRANCH   6   7
ENDBRANCH   5   6
ENDBRANCH   4   5
ENDBRANCH   3   4
ENDBRANCH   2   3
ENDBRANCH   1   2
BRANCH   1  29
ATOM     29  C   UNL A   1      43.444  22.780  25.085  1.00  0.00     0.188 C 
BRANCH  29  30
ATOM     30  C   UNL A   1      42.873  24.165  25.347  1.00  0.00     0.188 C 
BRANCH  30  31
ATOM     31  O   UNL A   1      43.413  24.686  26.550  1.00  0.00    -0.376 OA
BRANCH  31  32
ATOM     32  C   UNL A   1      42.517  24.685  27.638  1.00  0.00     0.202 C 
BRANCH  32  33
ATOM     33  C   UNL A   1      42.220  26.089  28.155  1.00  0.00     0.261 C 
BRANCH  33  34
ATOM     34  O   UNL A   1      41.155  26.653  27.363  1.00  0.00    -0.460 OA
BRANCH  34  35
ATOM     35  C   UNL A   1      39.912  26.490  27.887  1.00  0.00     0.338 C 
ATOM     36  O   UNL A   1      39.139  25.596  27.538  1.00  0.00    -0.246 OA
BRANCH  35  37
ATOM     37  C   UNL A   1      39.614  27.546  28.893  1.00  0.00     0.060 A 
ATOM     38  C   UNL A   1      40.258  28.794  28.862  1.00  0.00     0.016 A 
ATOM     39  C   UNL A   1      38.795  27.245  29.972  1.00  0.00     0.016 A 
ATOM     40  C   UNL A   1      40.201  29.677  29.964  1.00  0.00     0.010 A 
ATOM     41  C   UNL A   1      38.760  28.108  31.056  1.00  0.00     0.010 A 
ATOM     42  C   UNL A   1      39.489  29.312  31.102  1.00  0.00    -0.014 A 
BRANCH  42  43
ATOM     43  C   UNL A   1      39.460  29.991  32.426  1.00  0.00     0.031 A 
ATOM     44  C   UNL A   1      40.269  29.365  33.528  1.00  0.00     0.074 A 
ATOM     45  C   UNL A   1      39.120  31.308  32.485  1.00  0.00     0.049 A 
ATOM     46  N   UNL A   1      40.546  29.913  34.663  1.00  0.00    -0.248 NA
ATOM     47  C   UNL A   1      40.867  28.027  33.420  1.00  0.00     0.031 C 
ATOM     48  C   UNL A   1      39.758  32.367  33.284  1.00  0.00     0.029 A 
ATOM     49  N   UNL A   1      38.242  32.051  31.728  1.00  0.00    -0.354 N 
ATOM     50  C   UNL A   1      41.595  29.213  35.238  1.00  0.00     0.074 A 
ATOM     51  C   UNL A   1      41.677  27.988  34.486  1.00  0.00     0.031 C 
ATOM     52  C   UNL A   1      39.291  33.582  32.941  1.00  0.00     0.029 A 
ATOM     53  C   UNL A   1      38.053  33.333  32.251  1.00  0.00     0.049 A 
ATOM     54  H   UNL A   1      37.799  31.717  30.914  1.00  0.00     0.167 HD
ATOM     55  C   UNL A   1      42.382  29.827  36.175  1.00  0.00     0.031 A 
ATOM     56  C   UNL A   1      36.842  33.618  32.827  1.00  0.00     0.031 A 
ATOM     57  C   UNL A   1      41.847  31.152  36.585  1.00  0.00     0.049 A 
ATOM     58  C   UNL A   1      36.910  33.567  34.370  1.00  0.00     0.074 A 
ATOM     59  C   UNL A   1      42.397  32.386  36.889  1.00  0.00     0.029 A 
ATOM     60  N   UNL A   1      40.464  31.357  36.634  1.00  0.00    -0.354 N 
ATOM     61  N   UNL A   1      37.972  33.191  35.048  1.00  0.00    -0.248 NA
ATOM     62  C   UNL A   1      35.845  33.970  35.281  1.00  0.00     0.031 C 
ATOM     63  C   UNL A   1      41.334  33.329  37.054  1.00  0.00     0.029 A 
ATOM     64  C   UNL A   1      40.128  32.662  36.914  1.00  0.00     0.049 A 
ATOM     65  H   UNL A   1      39.802  30.644  36.484  1.00  0.00     0.167 HD
ATOM     66  C   UNL A   1      37.786  33.279  36.394  1.00  0.00     0.074 A 
ATOM     67  C   UNL A   1      36.408  33.743  36.488  1.00  0.00     0.031 C 
ATOM     68  C   UNL A   1      38.756  32.975  37.317  1.00  0.00     0.031 A 
BRANCH  55  69
ATOM     69  C   UNL A   1      43.775  29.336  36.621  1.00  0.00    -0.014 A 
ATOM     70  C   UNL A   1      43.914  28.015  37.104  1.00  0.00     0.010 A 
ATOM     71  C   UNL A   1      44.951  30.121  36.701  1.00  0.00     0.010 A 
ATOM     72  C   UNL A   1      45.102  27.524  37.681  1.00  0.00     0.020 A 
ATOM     73  C   UNL A   1      46.170  29.623  37.228  1.00  0.00     0.020 A 
ATOM     74  C   UNL A   1      46.230  28.331  37.741  1.00  0.00     0.054 A 
BRANCH  74  75
ATOM     75  S   UNL A   1      47.760  27.652  38.454  1.00  0.00     0.124 S 
ATOM     76  O   UNL A   1      48.792  28.497  37.860  1.00  0.00    -0.237 OA
ATOM     77  O   UNL A   1      47.555  27.835  39.889  1.00  0.00    -0.237 OA
ATOM     78  O   UNL A   1      47.765  26.260  38.009  1.00  0.00    -0.744 OA
ENDBRANCH  74  75
ENDBRANCH  55  69
BRANCH  56  79
ATOM     79  C   UNL A   1      35.748  33.286  31.830  1.00  0.00    -0.014 A 
ATOM     80  C   UNL A   1      34.462  33.753  32.225  1.00  0.00     0.010 A 
ATOM     81  C   UNL A   1      36.045  33.303  30.448  1.00  0.00     0.010 A 
ATOM     82  C   UNL A   1      33.654  34.482  31.339  1.00  0.00     0.020 A 
ATOM     83  C   UNL A   1      35.224  34.029  29.555  1.00  0.00     0.020 A 
ATOM     84  C   UNL A   1      34.074  34.673  30.024  1.00  0.00     0.054 A 
BRANCH  84  85
ATOM     85  S   UNL A   1      33.261  35.989  29.048  1.00  0.00     0.124 S 
ATOM     86  O   UNL A   1      34.389  36.630  28.384  1.00  0.00    -0.237 OA
ATOM     87  O   UNL A   1      32.366  35.225  28.178  1.00  0.00    -0.237 OA
ATOM     88  O   UNL A   1      32.587  36.792  30.062  1.00  0.00    -0.744 OA
ENDBRANCH  84  85
ENDBRANCH  56  79
BRANCH  68  89
ATOM     89  C   UNL A   1      38.505  32.847  38.797  1.00  0.00    -0.014 A 
ATOM     90  C   UNL A   1      37.305  32.410  39.354  1.00  0.00     0.010 A 
ATOM     91  C   UNL A   1      39.542  33.225  39.692  1.00  0.00     0.010 A 
ATOM     92  C   UNL A   1      37.205  32.194  40.733  1.00  0.00     0.020 A 
ATOM     93  C   UNL A   1      39.438  33.063  41.069  1.00  0.00     0.020 A 
ATOM     94  C   UNL A   1      38.282  32.492  41.574  1.00  0.00     0.054 A 
BRANCH  94  95
ATOM     95  S   UNL A   1      38.153  32.123  43.333  1.00  0.00     0.124 S 
ATOM     96  O   UNL A   1      37.480  33.309  43.857  1.00  0.00    -0.237 OA
ATOM     97  O   UNL A   1      37.354  30.900  43.323  1.00  0.00    -0.237 OA
ATOM     98  O   UNL A   1      39.539  31.958  43.762  1.00  0.00    -0.744 OA
ENDBRANCH  94  95
ENDBRANCH  68  89
ENDBRANCH  42  43
ENDBRANCH  35  37
ENDBRANCH  34  35
ENDBRANCH  33  34
ENDBRANCH  32  33
ENDBRANCH  31  32
ENDBRANCH  30  31
ENDBRANCH  29  30
ENDBRANCH   1  29
TORSDOF 26
ENDMDL
MODEL 3
REMARK VINA RESULT:      -8.1      6.631     13.882
REMARK SMILES Cc1ccc(Nc2c(Cl)cc(Cl)cc2Cl)c(CC(=O)OCCOCCOCCOCCOC(=O)c2ccc(-c3c4nc(c(-c5ccc(S(=O)(=O)[O-])cc5)c5ccc([nH]5)c(-c5ccc(S(=O)(=O)[O-])cc5)c5nc(c(-c6ccc(S(=O)(=O)[O-])cc6)c6ccc3[nH]6)C=C5)C=C4)cc2)c1
REMARK SMILES IDX 26 1 25 2 24 3 23 4 22 5 21 6 20 7 18 8 19 9 17 10 16 11
REMARK SMILES IDX 1 12 2 13 3 14 95 15 4 16 5 17 6 18 7 20 8 21 14 22 9 23
REMARK SMILES IDX 10 24 13 25 15 26 11 27 12 28 27 29 28 30 29 31 30 32 31 33
REMARK SMILES IDX 32 34 33 35 34 36 35 37 36 38 94 39 37 40 93 41 38 42 39 43
REMARK SMILES IDX 40 44 87 45 41 46 92 47 86 48 88 49 42 50 91 51 85 52 84 53
REMARK SMILES IDX 43 55 73 56 54 57 72 58 55 59 58 60 71 61 89 62 56 63 57 64
REMARK SMILES IDX 70 66 90 67 59 68 44 69 45 70 53 71 46 72 52 73 47 74 48 75
REMARK SMILES IDX 49 76 50 77 51 78 74 79 75 80 83 81 76 82 82 83 77 84 78 85
REMARK SMILES IDX 79 86 80 87 81 88 60 89 61 90 69 91 62 92 68 93 63 94 64 95
REMARK SMILES IDX 65 96 66 97 67 98
REMARK H PARENT 6 19 88 54 58 65
REMARK Flexibility Score: inf
ROOT
ATOM      1  O   UNL A   1      42.718  22.612  26.356  1.00  0.00    -0.377 OA
ENDROOT
BRANCH   1   2
ATOM      2  C   UNL A   1      41.814  21.596  25.976  1.00  0.00     0.188 C 
BRANCH   2   3
ATOM      3  C   UNL A   1      40.417  21.917  26.525  1.00  0.00     0.188 C 
BRANCH   3   4
ATOM      4  O   UNL A   1      39.211  21.500  25.893  1.00  0.00    -0.376 OA
BRANCH   4   5
ATOM      5  C   UNL A   1      38.222  22.482  25.717  1.00  0.00     0.202 C 
BRANCH   5   6
ATOM      6  C   UNL A   1      36.948  21.908  25.111  1.00  0.00     0.261 C 
BRANCH   6   7
ATOM      7  O   UNL A   1      35.775  22.434  25.735  1.00  0.00    -0.463 OA
BRANCH   7   8
ATOM      8  C   UNL A   1      35.233  23.488  25.076  1.00  0.00     0.310 C 
ATOM      9  O   UNL A   1      35.259  24.661  25.426  1.00  0.00    -0.252 OA
BRANCH   8  10
ATOM     10  C   UNL A   1      34.492  23.037  23.855  1.00  0.00     0.160 C 
BRANCH  10  11
ATOM     11  C   UNL A   1      33.161  23.711  23.620  1.00  0.00    -0.013 A 
ATOM     12  C   UNL A   1      32.126  26.931  21.785  1.00  0.00     0.044 C 
ATOM     13  C   UNL A   1      32.062  25.663  22.584  1.00  0.00    -0.051 A 
ATOM     14  C   UNL A   1      30.841  25.151  23.000  1.00  0.00     0.005 A 
ATOM     15  C   UNL A   1      33.213  24.942  22.906  1.00  0.00     0.009 A 
ATOM     16  C   UNL A   1      30.781  23.963  23.747  1.00  0.00     0.026 A 
ATOM     17  C   UNL A   1      31.921  23.202  24.082  1.00  0.00     0.042 A 
BRANCH  17  18
ATOM     18  N   UNL A   1      31.822  22.000  24.868  1.00  0.00    -0.353 N 
ATOM     19  H   UNL A   1      31.276  22.072  25.684  1.00  0.00     0.167 HD
BRANCH  18  20
ATOM     20  C   UNL A   1      32.407  20.702  24.628  1.00  0.00     0.076 A 
ATOM     21  C   UNL A   1      32.262  20.005  23.417  1.00  0.00     0.067 A 
ATOM     22  C   UNL A   1      33.018  19.972  25.685  1.00  0.00     0.067 A 
ATOM     23  Cl  UNL A   1      31.947  20.830  21.924  1.00  0.00    -0.082 Cl
ATOM     24  C   UNL A   1      32.480  18.622  23.333  1.00  0.00     0.043 A 
ATOM     25  C   UNL A   1      33.204  18.582  25.623  1.00  0.00     0.043 A 
ATOM     26  Cl  UNL A   1      33.664  20.762  27.081  1.00  0.00    -0.082 Cl
ATOM     27  C   UNL A   1      32.902  17.909  24.449  1.00  0.00     0.044 A 
ATOM     28  Cl  UNL A   1      33.059  16.198  24.364  1.00  0.00    -0.084 Cl
ENDBRANCH  18  20
ENDBRANCH  17  18
ENDBRANCH  10  11
ENDBRANCH   8  10
ENDBRANCH   7   8
ENDBRANCH   6   7
ENDBRANCH   5   6
ENDBRANCH   4   5
ENDBRANCH   3   4
ENDBRANCH   2   3
ENDBRANCH   1   2
BRANCH   1  29
ATOM     29  C   UNL A   1      43.232  23.469  25.338  1.00  0.00     0.188 C 
BRANCH  29  30
ATOM     30  C   UNL A   1      42.856  24.941  25.413  1.00  0.00     0.188 C 
BRANCH  30  31
ATOM     31  O   UNL A   1      43.888  25.666  26.061  1.00  0.00    -0.376 OA
BRANCH  31  32
ATOM     32  C   UNL A   1      43.600  26.022  27.394  1.00  0.00     0.202 C 
BRANCH  32  33
ATOM     33  C   UNL A   1      44.005  27.456  27.719  1.00  0.00     0.261 C 
BRANCH  33  34
ATOM     34  O   UNL A   1      43.103  28.352  27.038  1.00  0.00    -0.460 OA
BRANCH  34  35
ATOM     35  C   UNL A   1      41.813  28.288  27.462  1.00  0.00     0.338 C 
ATOM     36  O   UNL A   1      40.864  28.041  26.716  1.00  0.00    -0.246 OA
BRANCH  35  37
ATOM     37  C   UNL A   1      41.713  28.588  28.917  1.00  0.00     0.060 A 
ATOM     38  C   UNL A   1      40.847  27.871  29.758  1.00  0.00     0.016 A 
ATOM     39  C   UNL A   1      42.376  29.694  29.429  1.00  0.00     0.016 A 
ATOM     40  C   UNL A   1      40.532  28.334  31.056  1.00  0.00     0.010 A 
ATOM     41  C   UNL A   1      42.047  30.153  30.695  1.00  0.00     0.010 A 
ATOM     42  C   UNL A   1      41.094  29.520  31.517  1.00  0.00    -0.014 A 
BRANCH  42  43
ATOM     43  C   UNL A   1      40.755  30.279  32.751  1.00  0.00     0.031 A 
ATOM     44  C   UNL A   1      41.421  29.837  34.026  1.00  0.00     0.074 A 
ATOM     45  C   UNL A   1      40.267  31.545  32.634  1.00  0.00     0.049 A 
ATOM     46  N   UNL A   1      41.429  30.492  35.137  1.00  0.00    -0.248 NA
ATOM     47  C   UNL A   1      42.173  28.580  34.140  1.00  0.00     0.031 C 
ATOM     48  C   UNL A   1      40.632  32.728  33.430  1.00  0.00     0.029 A 
ATOM     49  N   UNL A   1      39.460  32.118  31.676  1.00  0.00    -0.354 N 
ATOM     50  C   UNL A   1      42.430  29.970  35.941  1.00  0.00     0.074 A 
ATOM     51  C   UNL A   1      42.779  28.715  35.325  1.00  0.00     0.031 C 
ATOM     52  C   UNL A   1      40.101  33.848  32.907  1.00  0.00     0.029 A 
ATOM     53  C   UNL A   1      39.040  33.400  32.044  1.00  0.00     0.049 A 
ATOM     54  H   UNL A   1      39.209  31.677  30.833  1.00  0.00     0.167 HD
ATOM     55  C   UNL A   1      42.966  30.741  36.937  1.00  0.00     0.031 A 
ATOM     56  C   UNL A   1      37.722  33.571  32.380  1.00  0.00     0.031 A 
ATOM     57  C   UNL A   1      42.223  32.013  37.132  1.00  0.00     0.049 A 
ATOM     58  C   UNL A   1      37.521  33.636  33.911  1.00  0.00     0.074 A 
ATOM     59  C   UNL A   1      42.570  33.325  37.411  1.00  0.00     0.029 A 
ATOM     60  N   UNL A   1      40.839  32.048  36.928  1.00  0.00    -0.354 N 
ATOM     61  N   UNL A   1      38.481  33.442  34.789  1.00  0.00    -0.248 NA
ATOM     62  C   UNL A   1      36.273  33.965  34.590  1.00  0.00     0.031 C 
ATOM     63  C   UNL A   1      41.397  34.137  37.310  1.00  0.00     0.029 A 
ATOM     64  C   UNL A   1      40.316  33.317  37.030  1.00  0.00     0.049 A 
ATOM     65  H   UNL A   1      40.298  31.249  36.734  1.00  0.00     0.167 HD
ATOM     66  C   UNL A   1      38.050  33.599  36.070  1.00  0.00     0.074 A 
ATOM     67  C   UNL A   1      36.635  33.894  35.889  1.00  0.00     0.031 C 
ATOM     68  C   UNL A   1      38.868  33.483  37.167  1.00  0.00     0.031 A 
BRANCH  55  69
ATOM     69  C   UNL A   1      44.303  30.459  37.653  1.00  0.00    -0.014 A 
ATOM     70  C   UNL A   1      45.317  29.758  36.961  1.00  0.00     0.010 A 
ATOM     71  C   UNL A   1      44.601  30.743  39.008  1.00  0.00     0.010 A 
ATOM     72  C   UNL A   1      46.506  29.314  37.574  1.00  0.00     0.020 A 
ATOM     73  C   UNL A   1      45.817  30.351  39.624  1.00  0.00     0.020 A 
ATOM     74  C   UNL A   1      46.753  29.614  38.907  1.00  0.00     0.054 A 
BRANCH  74  75
ATOM     75  S   UNL A   1      48.318  29.062  39.656  1.00  0.00     0.124 S 
ATOM     76  O   UNL A   1      48.006  29.063  41.083  1.00  0.00    -0.237 OA
ATOM     77  O   UNL A   1      48.510  27.741  39.062  1.00  0.00    -0.237 OA
ATOM     78  O   UNL A   1      49.285  30.071  39.230  1.00  0.00    -0.744 OA
ENDBRANCH  74  75
ENDBRANCH  55  69
BRANCH  56  79
ATOM     79  C   UNL A   1      36.867  33.037  31.247  1.00  0.00    -0.014 A 
ATOM     80  C   UNL A   1      35.524  32.765  31.633  1.00  0.00     0.010 A 
ATOM     81  C   UNL A   1      37.077  33.522  29.936  1.00  0.00     0.010 A 
ATOM     82  C   UNL A   1      34.442  33.244  30.877  1.00  0.00     0.020 A 
ATOM     83  C   UNL A   1      35.985  33.995  29.171  1.00  0.00     0.020 A 
ATOM     84  C   UNL A   1      34.684  33.918  29.681  1.00  0.00     0.054 A 
BRANCH  84  85
ATOM     85  S   UNL A   1      33.330  34.921  28.974  1.00  0.00     0.124 S 
ATOM     86  O   UNL A   1      32.673  33.976  28.079  1.00  0.00    -0.237 OA
ATOM     87  O   UNL A   1      32.566  35.299  30.164  1.00  0.00    -0.237 OA
ATOM     88  O   UNL A   1      34.031  36.022  28.324  1.00  0.00    -0.744 OA
ENDBRANCH  84  85
ENDBRANCH  56  79
BRANCH  68  89
ATOM     89  C   UNL A   1      38.374  33.427  38.589  1.00  0.00    -0.014 A 
ATOM     90  C   UNL A   1      38.553  34.447  39.522  1.00  0.00     0.010 A 
ATOM     91  C   UNL A   1      37.710  32.250  39.027  1.00  0.00     0.010 A 
ATOM     92  C   UNL A   1      37.945  34.367  40.779  1.00  0.00     0.020 A 
ATOM     93  C   UNL A   1      37.144  32.138  40.292  1.00  0.00     0.020 A 
ATOM     94  C   UNL A   1      37.220  33.228  41.141  1.00  0.00     0.054 A 
BRANCH  94  95
ATOM     95  S   UNL A   1      36.377  33.190  42.734  1.00  0.00     0.124 S 
ATOM     96  O   UNL A   1      34.987  32.954  42.351  1.00  0.00    -0.237 OA
ATOM     97  O   UNL A   1      37.044  32.072  43.397  1.00  0.00    -0.237 OA
ATOM     98  O   UNL A   1      36.646  34.506  43.306  1.00  0.00    -0.744 OA
ENDBRANCH  94  95
ENDBRANCH  68  89
ENDBRANCH  42  43
ENDBRANCH  35  37
ENDBRANCH  34  35
ENDBRANCH  33  34
ENDBRANCH  32  33
ENDBRANCH  31  32
ENDBRANCH  30  31
ENDBRANCH  29  30
ENDBRANCH   1  29
TORSDOF 26
ENDMDL
