MODEL 1
REMARK VINA RESULT:      -9.3      0.000      0.000
REMARK SMILES Cc1cccc(S(=O)(=O)Nc2cc(C(=O)OCCOCCOCCOCCOC(=O)c3ccc(-c4c5nc(c(-c6ccc(S(=O)(=O)[O-])cc6)c6ccc([nH]6)c(-c6ccc(S(=O)(=O)[O-])cc6)c6nc(c(-c7ccc(S(=O)(=O)[O-])cc7)c7ccc4[nH]7)C=C6)C=C5)cc3)cnc2N2CCC[C@H](C)C2)c1
REMARK SMILES IDX 22 1 21 2 20 3 19 4 18 5 17 6 16 7 14 8 15 9 13 10 11 11
REMARK SMILES IDX 12 12 93 13 92 14 91 15 10 16 7 18 8 19 9 20 6 21 1 22 2 23
REMARK SMILES IDX 3 24 101 25 4 26 5 27 94 28 95 29 100 30 96 31 98 32 97 33
REMARK SMILES IDX 99 34 23 35 24 36 25 37 26 38 27 39 28 40 29 41 30 42 31 43
REMARK SMILES IDX 32 44 90 45 33 46 89 47 34 48 35 49 36 50 83 51 37 52 88 53
REMARK SMILES IDX 82 54 84 55 38 56 87 57 81 58 80 59 39 61 69 62 50 63 68 64
REMARK SMILES IDX 51 65 54 66 67 67 85 68 52 69 53 70 66 72 86 73 55 74 40 75
REMARK SMILES IDX 41 76 49 77 42 78 48 79 43 80 44 81 45 82 46 83 47 84 70 85
REMARK SMILES IDX 71 86 79 87 72 88 78 89 73 90 74 91 75 92 76 93 77 94 56 95
REMARK SMILES IDX 57 96 65 97 58 98 64 99 59 100 60 101 61 102 62 103 63 104
REMARK H PARENT 10 17 84 60 54 71
REMARK Flexibility Score: inf
ROOT
ATOM      1  O   UNL A   1      34.581  29.912  27.512  1.00  0.00    -0.377 OA
ENDROOT
BRANCH   1   2
ATOM      2  C   UNL A   1      34.309  28.778  26.669  1.00  0.00     0.188 C 
BRANCH   2   3
ATOM      3  C   UNL A   1      32.942  27.817  26.544  1.00  0.00     0.188 C 
BRANCH   3   4
ATOM      4  O   UNL A   1      32.404  26.483  25.503  1.00  0.00    -0.376 OA
BRANCH   4   5
ATOM      5  C   UNL A   1      32.933  24.832  25.169  1.00  0.00     0.202 C 
BRANCH   5   6
ATOM      6  C   UNL A   1      33.618  23.510  26.348  1.00  0.00     0.261 C 
BRANCH   6   7
ATOM      7  O   UNL A   1      35.358  23.021  26.586  1.00  0.00    -0.460 OA
BRANCH   7   8
ATOM      8  C   UNL A   1      36.597  22.433  26.008  1.00  0.00     0.339 C 
ATOM      9  O   UNL A   1      36.681  21.495  25.205  1.00  0.00    -0.246 OA
BRANCH   8  10
ATOM     10  C   UNL A   1      38.060  22.984  26.160  1.00  0.00     0.080 A 
ATOM     11  C   UNL A   1      40.529  22.938  26.042  1.00  0.00     0.092 A 
ATOM     12  C   UNL A   1      39.284  22.341  25.919  1.00  0.00     0.048 A 
ATOM     13  C   UNL A   1      40.614  24.061  26.853  1.00  0.00     0.153 A 
ATOM     14  N   UNL A   1      39.492  24.672  27.296  1.00  0.00    -0.236 NA
ATOM     15  C   UNL A   1      38.263  24.148  26.906  1.00  0.00     0.129 A 
BRANCH  11  16
ATOM     16  N   UNL A   1      41.687  22.304  25.435  1.00  0.00    -0.276 N 
ATOM     17  H   UNL A   1      42.124  22.735  24.665  1.00  0.00     0.180 HD
BRANCH  16  18
ATOM     18  S   UNL A   1      42.316  20.812  26.033  1.00  0.00     0.262 S 
ATOM     19  O   UNL A   1      41.496  19.775  25.445  1.00  0.00    -0.201 OA
ATOM     20  O   UNL A   1      42.383  20.906  27.479  1.00  0.00    -0.201 OA
BRANCH  18  21
ATOM     21  C   UNL A   1      43.980  20.524  25.514  1.00  0.00     0.088 A 
ATOM     22  C   UNL A   1      46.470  17.759  25.744  1.00  0.00     0.044 C 
ATOM     23  C   UNL A   1      45.864  19.047  25.304  1.00  0.00    -0.050 A 
ATOM     24  C   UNL A   1      46.644  20.093  24.811  1.00  0.00     0.003 A 
ATOM     25  C   UNL A   1      44.517  19.251  25.584  1.00  0.00     0.025 A 
ATOM     26  C   UNL A   1      46.069  21.344  24.597  1.00  0.00     0.002 A 
ATOM     27  C   UNL A   1      44.740  21.568  24.969  1.00  0.00     0.022 A 
ENDBRANCH  18  21
ENDBRANCH  16  18
ENDBRANCH  11  16
BRANCH  13  28
ATOM     28  N   UNL A   1      41.881  24.376  27.335  1.00  0.00    -0.355 N 
ATOM     29  C   UNL A   1      42.784  25.069  26.437  1.00  0.00     0.118 C 
ATOM     30  C   UNL A   1      41.977  24.725  28.748  1.00  0.00     0.121 C 
ATOM     31  C   UNL A   1      44.208  24.672  26.840  1.00  0.00     0.022 C 
ATOM     32  C   UNL A   1      43.399  24.398  29.257  1.00  0.00     0.005 C 
ATOM     33  C   UNL A   1      44.477  24.972  28.315  1.00  0.00     0.007 C 
ATOM     34  C   UNL A   1      43.587  22.892  29.483  1.00  0.00     0.009 C 
ENDBRANCH  13  28
ENDBRANCH   8  10
ENDBRANCH   7   8
ENDBRANCH   6   7
ENDBRANCH   5   6
ENDBRANCH   4   5
ENDBRANCH   3   4
ENDBRANCH   2   3
ENDBRANCH   1   2
BRANCH   1  35
ATOM     35  C   UNL A   1      35.867  30.372  27.917  1.00  0.00     0.188 C 
BRANCH  35  36
ATOM     36  C   UNL A   1      36.914  29.366  28.338  1.00  0.00     0.188 C 
BRANCH  36  37
ATOM     37  O   UNL A   1      38.084  29.575  27.564  1.00  0.00    -0.376 OA
BRANCH  37  38
ATOM     38  C   UNL A   1      39.298  29.360  28.257  1.00  0.00     0.202 C 
BRANCH  38  39
ATOM     39  C   UNL A   1      40.042  28.109  27.779  1.00  0.00     0.261 C 
BRANCH  39  40
ATOM     40  O   UNL A   1      41.456  28.230  28.041  1.00  0.00    -0.460 OA
BRANCH  40  41
ATOM     41  C   UNL A   1      42.180  28.893  27.084  1.00  0.00     0.338 C 
ATOM     42  O   UNL A   1      41.740  29.184  25.991  1.00  0.00    -0.246 OA
BRANCH  41  43
ATOM     43  C   UNL A   1      43.528  29.209  27.630  1.00  0.00     0.060 A 
ATOM     44  C   UNL A   1      44.613  28.355  27.674  1.00  0.00     0.016 A 
ATOM     45  C   UNL A   1      43.756  30.434  28.173  1.00  0.00     0.016 A 
ATOM     46  C   UNL A   1      45.685  28.561  28.618  1.00  0.00     0.010 A 
ATOM     47  C   UNL A   1      44.869  30.607  29.017  1.00  0.00     0.010 A 
ATOM     48  C   UNL A   1      45.682  29.557  29.612  1.00  0.00    -0.014 A 
BRANCH  48  49
ATOM     49  C   UNL A   1      46.484  29.434  31.297  1.00  0.00     0.031 A 
ATOM     50  C   UNL A   1      48.363  28.858  31.653  1.00  0.00     0.074 A 
ATOM     51  C   UNL A   1      45.438  29.588  32.255  1.00  0.00     0.049 A 
ATOM     52  N   UNL A   1      48.669  27.628  32.180  1.00  0.00    -0.248 NA
ATOM     53  C   UNL A   1      49.842  29.033  30.981  1.00  0.00     0.031 C 
ATOM     54  C   UNL A   1      45.358  29.549  33.711  1.00  0.00     0.029 A 
ATOM     55  N   UNL A   1      44.038  29.632  32.061  1.00  0.00    -0.354 N 
ATOM     56  C   UNL A   1      49.920  27.105  32.150  1.00  0.00     0.074 A 
ATOM     57  C   UNL A   1      50.579  27.928  31.219  1.00  0.00     0.031 C 
ATOM     58  C   UNL A   1      44.164  29.615  34.280  1.00  0.00     0.029 A 
ATOM     59  C   UNL A   1      43.314  29.297  33.223  1.00  0.00     0.049 A 
ATOM     60  H   UNL A   1      43.614  29.873  31.205  1.00  0.00     0.167 HD
ATOM     61  C   UNL A   1      50.311  26.046  32.921  1.00  0.00     0.031 A 
ATOM     62  C   UNL A   1      42.599  28.154  33.358  1.00  0.00     0.031 A 
ATOM     63  C   UNL A   1      49.429  25.777  34.065  1.00  0.00     0.049 A 
ATOM     64  C   UNL A   1      43.289  26.952  34.080  1.00  0.00     0.074 A 
ATOM     65  C   UNL A   1      49.560  26.117  35.398  1.00  0.00     0.029 A 
ATOM     66  N   UNL A   1      48.142  25.238  33.956  1.00  0.00    -0.354 N 
ATOM     67  N   UNL A   1      44.589  26.745  34.271  1.00  0.00    -0.248 NA
ATOM     68  C   UNL A   1      42.495  25.884  34.675  1.00  0.00     0.031 C 
ATOM     69  C   UNL A   1      48.340  25.826  36.046  1.00  0.00     0.029 A 
ATOM     70  C   UNL A   1      47.371  25.475  35.109  1.00  0.00     0.049 A 
ATOM     71  H   UNL A   1      47.816  24.750  33.166  1.00  0.00     0.167 HD
ATOM     72  C   UNL A   1      44.809  25.541  34.945  1.00  0.00     0.074 A 
ATOM     73  C   UNL A   1      43.440  25.060  35.160  1.00  0.00     0.031 C 
ATOM     74  C   UNL A   1      46.003  24.932  35.322  1.00  0.00     0.031 A 
BRANCH  61  75
ATOM     75  C   UNL A   1      51.757  25.588  32.817  1.00  0.00    -0.014 A 
ATOM     76  C   UNL A   1      52.072  24.251  32.509  1.00  0.00     0.010 A 
ATOM     77  C   UNL A   1      52.842  26.438  33.130  1.00  0.00     0.010 A 
ATOM     78  C   UNL A   1      53.371  23.744  32.656  1.00  0.00     0.020 A 
ATOM     79  C   UNL A   1      54.147  25.936  33.301  1.00  0.00     0.020 A 
ATOM     80  C   UNL A   1      54.395  24.580  33.097  1.00  0.00     0.054 A 
BRANCH  80  81
ATOM     81  S   UNL A   1      56.016  23.846  33.466  1.00  0.00     0.124 S 
ATOM     82  O   UNL A   1      55.657  22.511  33.941  1.00  0.00    -0.237 OA
ATOM     83  O   UNL A   1      56.686  23.890  32.169  1.00  0.00    -0.237 OA
ATOM     84  O   UNL A   1      56.576  24.730  34.485  1.00  0.00    -0.744 OA
ENDBRANCH  80  81
ENDBRANCH  61  75
BRANCH  62  85
ATOM     85  C   UNL A   1      41.352  28.375  32.565  1.00  0.00    -0.014 A 
ATOM     86  C   UNL A   1      40.173  28.588  33.353  1.00  0.00     0.010 A 
ATOM     87  C   UNL A   1      41.458  29.059  31.347  1.00  0.00     0.010 A 
ATOM     88  C   UNL A   1      39.317  29.665  33.086  1.00  0.00     0.020 A 
ATOM     89  C   UNL A   1      40.562  30.105  31.052  1.00  0.00     0.020 A 
ATOM     90  C   UNL A   1      39.561  30.455  31.968  1.00  0.00     0.054 A 
BRANCH  90  91
ATOM     91  S   UNL A   1      38.706  32.061  31.861  1.00  0.00     0.124 S 
ATOM     92  O   UNL A   1      39.807  33.013  31.772  1.00  0.00    -0.237 OA
ATOM     93  O   UNL A   1      37.924  31.890  30.635  1.00  0.00    -0.237 OA
ATOM     94  O   UNL A   1      37.935  32.105  33.098  1.00  0.00    -0.744 OA
ENDBRANCH  90  91
ENDBRANCH  62  85
BRANCH  74  95
ATOM     95  C   UNL A   1      46.034  23.620  36.109  1.00  0.00    -0.014 A 
ATOM     96  C   UNL A   1      46.033  23.523  37.509  1.00  0.00     0.010 A 
ATOM     97  C   UNL A   1      46.246  22.418  35.385  1.00  0.00     0.010 A 
ATOM     98  C   UNL A   1      46.098  22.272  38.145  1.00  0.00     0.020 A 
ATOM     99  C   UNL A   1      46.378  21.179  36.009  1.00  0.00     0.020 A 
ATOM    100  C   UNL A   1      46.251  21.107  37.387  1.00  0.00     0.054 A 
BRANCH 100 101
ATOM    101  S   UNL A   1      46.287  19.497  38.210  1.00  0.00     0.124 S 
ATOM    102  O   UNL A   1      45.357  18.706  37.409  1.00  0.00    -0.237 OA
ATOM    103  O   UNL A   1      47.695  19.133  38.083  1.00  0.00    -0.237 OA
ATOM    104  O   UNL A   1      45.839  19.790  39.570  1.00  0.00    -0.744 OA
ENDBRANCH 100 101
ENDBRANCH  74  95
ENDBRANCH  48  49
ENDBRANCH  41  43
ENDBRANCH  40  41
ENDBRANCH  39  40
ENDBRANCH  38  39
ENDBRANCH  37  38
ENDBRANCH  36  37
ENDBRANCH  35  36
ENDBRANCH   1  35
TORSDOF 27
ENDMDL
MODEL 2
REMARK VINA RESULT:      -9.2      6.744     12.868
REMARK SMILES Cc1cccc(S(=O)(=O)Nc2cc(C(=O)OCCOCCOCCOCCOC(=O)c3ccc(-c4c5nc(c(-c6ccc(S(=O)(=O)[O-])cc6)c6ccc([nH]6)c(-c6ccc(S(=O)(=O)[O-])cc6)c6nc(c(-c7ccc(S(=O)(=O)[O-])cc7)c7ccc4[nH]7)C=C6)C=C5)cc3)cnc2N2CCC[C@H](C)C2)c1
REMARK SMILES IDX 22 1 21 2 20 3 19 4 18 5 17 6 16 7 14 8 15 9 13 10 11 11
REMARK SMILES IDX 12 12 93 13 92 14 91 15 10 16 7 18 8 19 9 20 6 21 1 22 2 23
REMARK SMILES IDX 3 24 101 25 4 26 5 27 94 28 95 29 100 30 96 31 98 32 97 33
REMARK SMILES IDX 99 34 23 35 24 36 25 37 26 38 27 39 28 40 29 41 30 42 31 43
REMARK SMILES IDX 32 44 90 45 33 46 89 47 34 48 35 49 36 50 83 51 37 52 88 53
REMARK SMILES IDX 82 54 84 55 38 56 87 57 81 58 80 59 39 61 69 62 50 63 68 64
REMARK SMILES IDX 51 65 54 66 67 67 85 68 52 69 53 70 66 72 86 73 55 74 40 75
REMARK SMILES IDX 41 76 49 77 42 78 48 79 43 80 44 81 45 82 46 83 47 84 70 85
REMARK SMILES IDX 71 86 79 87 72 88 78 89 73 90 74 91 75 92 76 93 77 94 56 95
REMARK SMILES IDX 57 96 65 97 58 98 64 99 59 100 60 101 61 102 62 103 63 104
REMARK H PARENT 10 17 84 60 54 71
REMARK Flexibility Score: inf
ROOT
ATOM      1  O   UNL A   1      42.048  33.734  30.899  1.00  0.00    -0.377 OA
ENDROOT
BRANCH   1   2
ATOM      2  C   UNL A   1      43.427  34.136  30.827  1.00  0.00     0.188 C 
BRANCH   2   3
ATOM      3  C   UNL A   1      44.224  35.100  29.711  1.00  0.00     0.188 C 
BRANCH   3   4
ATOM      4  O   UNL A   1      45.806  35.088  28.905  1.00  0.00    -0.376 OA
BRANCH   4   5
ATOM      5  C   UNL A   1      47.497  35.134  29.413  1.00  0.00     0.202 C 
BRANCH   5   6
ATOM      6  C   UNL A   1      49.019  35.834  28.519  1.00  0.00     0.261 C 
BRANCH   6   7
ATOM      7  O   UNL A   1      49.299  37.551  27.971  1.00  0.00    -0.460 OA
BRANCH   7   8
ATOM      8  C   UNL A   1      48.828  38.962  27.943  1.00  0.00     0.339 C 
ATOM      9  O   UNL A   1      49.309  39.903  27.300  1.00  0.00    -0.246 OA
BRANCH   8  10
ATOM     10  C   UNL A   1      47.515  39.529  28.593  1.00  0.00     0.080 A 
ATOM     11  C   UNL A   1      45.264  40.548  28.647  1.00  0.00     0.092 A 
ATOM     12  C   UNL A   1      46.400  40.119  27.979  1.00  0.00     0.048 A 
ATOM     13  C   UNL A   1      45.392  40.823  30.000  1.00  0.00     0.153 A 
ATOM     14  N   UNL A   1      46.507  40.455  30.670  1.00  0.00    -0.236 NA
ATOM     15  C   UNL A   1      47.505  39.789  29.966  1.00  0.00     0.129 A 
BRANCH  11  16
ATOM     16  N   UNL A   1      44.048  40.808  27.892  1.00  0.00    -0.276 N 
ATOM     17  H   UNL A   1      43.186  40.846  28.366  1.00  0.00     0.180 HD
BRANCH  16  18
ATOM     18  S   UNL A   1      44.081  41.053  26.184  1.00  0.00     0.262 S 
ATOM     19  O   UNL A   1      42.710  40.923  25.741  1.00  0.00    -0.201 OA
ATOM     20  O   UNL A   1      45.078  40.158  25.627  1.00  0.00    -0.201 OA
BRANCH  18  21
ATOM     21  C   UNL A   1      44.624  42.676  25.744  1.00  0.00     0.088 A 
ATOM     22  C   UNL A   1      44.015  45.102  22.980  1.00  0.00     0.044 C 
ATOM     23  C   UNL A   1      44.498  44.586  24.291  1.00  0.00    -0.050 A 
ATOM     24  C   UNL A   1      45.560  45.186  24.969  1.00  0.00     0.003 A 
ATOM     25  C   UNL A   1      43.990  43.367  24.729  1.00  0.00     0.025 A 
ATOM     26  C   UNL A   1      46.108  44.562  26.088  1.00  0.00     0.002 A 
ATOM     27  C   UNL A   1      45.656  43.294  26.465  1.00  0.00     0.022 A 
ENDBRANCH  18  21
ENDBRANCH  16  18
ENDBRANCH  11  16
BRANCH  13  28
ATOM     28  N   UNL A   1      44.425  41.660  30.551  1.00  0.00    -0.355 N 
ATOM     29  C   UNL A   1      44.423  43.047  30.128  1.00  0.00     0.118 C 
ATOM     30  C   UNL A   1      43.123  41.064  30.828  1.00  0.00     0.121 C 
ATOM     31  C   UNL A   1      43.859  43.868  31.291  1.00  0.00     0.022 C 
ATOM     32  C   UNL A   1      42.440  41.846  31.973  1.00  0.00     0.005 C 
ATOM     33  C   UNL A   1      42.479  43.366  31.715  1.00  0.00     0.007 C 
ATOM     34  C   UNL A   1      43.039  41.486  33.339  1.00  0.00     0.009 C 
ENDBRANCH  13  28
ENDBRANCH   8  10
ENDBRANCH   7   8
ENDBRANCH   6   7
ENDBRANCH   5   6
ENDBRANCH   4   5
ENDBRANCH   3   4
ENDBRANCH   2   3
ENDBRANCH   1   2
BRANCH   1  35
ATOM     35  C   UNL A   1      40.916  34.545  30.600  1.00  0.00     0.188 C 
BRANCH  35  36
ATOM     36  C   UNL A   1      39.717  33.922  29.922  1.00  0.00     0.188 C 
BRANCH  36  37
ATOM     37  O   UNL A   1      39.079  33.049  30.840  1.00  0.00    -0.376 OA
BRANCH  37  38
ATOM     38  C   UNL A   1      38.198  33.684  31.746  1.00  0.00     0.202 C 
BRANCH  38  39
ATOM     39  C   UNL A   1      36.805  33.922  31.154  1.00  0.00     0.261 C 
BRANCH  39  40
ATOM     40  O   UNL A   1      36.586  33.062  30.016  1.00  0.00    -0.460 OA
BRANCH  40  41
ATOM     41  C   UNL A   1      35.959  31.873  30.286  1.00  0.00     0.338 C 
ATOM     42  O   UNL A   1      34.932  31.785  30.924  1.00  0.00    -0.246 OA
BRANCH  41  43
ATOM     43  C   UNL A   1      36.721  30.767  29.641  1.00  0.00     0.060 A 
ATOM     44  C   UNL A   1      37.065  29.564  30.225  1.00  0.00     0.016 A 
ATOM     45  C   UNL A   1      37.165  30.920  28.367  1.00  0.00     0.016 A 
ATOM     46  C   UNL A   1      38.173  28.784  29.727  1.00  0.00     0.010 A 
ATOM     47  C   UNL A   1      38.187  30.073  27.897  1.00  0.00     0.010 A 
ATOM     48  C   UNL A   1      39.036  29.205  28.699  1.00  0.00    -0.014 A 
BRANCH  48  49
ATOM     49  C   UNL A   1      40.848  28.773  28.536  1.00  0.00     0.031 A 
ATOM     50  C   UNL A   1      41.600  27.323  27.388  1.00  0.00     0.074 A 
ATOM     51  C   UNL A   1      41.530  29.501  29.557  1.00  0.00     0.049 A 
ATOM     52  N   UNL A   1      42.075  26.144  27.907  1.00  0.00    -0.248 NA
ATOM     53  C   UNL A   1      41.330  26.666  25.916  1.00  0.00     0.031 C 
ATOM     54  C   UNL A   1      42.914  29.587  30.013  1.00  0.00     0.029 A 
ATOM     55  N   UNL A   1      41.004  30.257  30.629  1.00  0.00    -0.354 N 
ATOM     56  C   UNL A   1      42.306  25.045  27.146  1.00  0.00     0.074 A 
ATOM     57  C   UNL A   1      41.642  25.353  25.945  1.00  0.00     0.031 C 
ATOM     58  C   UNL A   1      43.177  30.296  31.101  1.00  0.00     0.029 A 
ATOM     59  C   UNL A   1      41.919  30.411  31.691  1.00  0.00     0.049 A 
ATOM     60  H   UNL A   1      40.096  30.637  30.634  1.00  0.00     0.167 HD
ATOM     61  C   UNL A   1      43.051  23.980  27.569  1.00  0.00     0.031 A 
ATOM     62  C   UNL A   1      41.773  29.817  32.899  1.00  0.00     0.031 A 
ATOM     63  C   UNL A   1      43.916  24.272  28.721  1.00  0.00     0.049 A 
ATOM     64  C   UNL A   1      42.532  28.472  33.139  1.00  0.00     0.074 A 
ATOM     65  C   UNL A   1      45.265  24.564  28.778  1.00  0.00     0.029 A 
ATOM     66  N   UNL A   1      43.448  24.477  30.023  1.00  0.00    -0.354 N 
ATOM     67  N   UNL A   1      43.016  27.629  32.232  1.00  0.00    -0.248 NA
ATOM     68  C   UNL A   1      42.817  28.008  34.491  1.00  0.00     0.031 C 
ATOM     69  C   UNL A   1      45.566  24.987  30.091  1.00  0.00     0.029 A 
ATOM     70  C   UNL A   1      44.393  25.143  30.826  1.00  0.00     0.049 A 
ATOM     71  H   UNL A   1      42.562  24.190  30.341  1.00  0.00     0.167 HD
ATOM     72  C   UNL A   1      43.614  26.525  32.845  1.00  0.00     0.074 A 
ATOM     73  C   UNL A   1      43.444  26.839  34.267  1.00  0.00     0.031 C 
ATOM     74  C   UNL A   1      44.216  25.404  32.279  1.00  0.00     0.031 A 
BRANCH  61  75
ATOM     75  C   UNL A   1      43.265  22.832  26.597  1.00  0.00    -0.014 A 
ATOM     76  C   UNL A   1      42.706  21.563  26.841  1.00  0.00     0.010 A 
ATOM     77  C   UNL A   1      44.113  22.943  25.471  1.00  0.00     0.010 A 
ATOM     78  C   UNL A   1      43.091  20.431  26.108  1.00  0.00     0.020 A 
ATOM     79  C   UNL A   1      44.522  21.811  24.740  1.00  0.00     0.020 A 
ATOM     80  C   UNL A   1      44.034  20.553  25.090  1.00  0.00     0.054 A 
BRANCH  80  81
ATOM     81  S   UNL A   1      44.653  19.040  24.297  1.00  0.00     0.124 S 
ATOM     82  O   UNL A   1      44.703  19.420  22.887  1.00  0.00    -0.237 OA
ATOM     83  O   UNL A   1      45.950  18.852  24.941  1.00  0.00    -0.237 OA
ATOM     84  O   UNL A   1      43.645  18.035  24.626  1.00  0.00    -0.744 OA
ENDBRANCH  80  81
ENDBRANCH  61  75
BRANCH  62  85
ATOM     85  C   UNL A   1      40.722  30.613  33.603  1.00  0.00    -0.014 A 
ATOM     86  C   UNL A   1      40.347  30.103  34.889  1.00  0.00     0.010 A 
ATOM     87  C   UNL A   1      40.715  32.002  33.421  1.00  0.00     0.010 A 
ATOM     88  C   UNL A   1      40.290  30.946  36.006  1.00  0.00     0.020 A 
ATOM     89  C   UNL A   1      40.601  32.852  34.539  1.00  0.00     0.020 A 
ATOM     90  C   UNL A   1      40.483  32.311  35.827  1.00  0.00     0.054 A 
BRANCH  90  91
ATOM     91  S   UNL A   1      40.807  33.324  37.306  1.00  0.00     0.124 S 
ATOM     92  O   UNL A   1      41.723  34.346  36.811  1.00  0.00    -0.237 OA
ATOM     93  O   UNL A   1      39.460  33.794  37.635  1.00  0.00    -0.237 OA
ATOM     94  O   UNL A   1      41.383  32.364  38.241  1.00  0.00    -0.744 OA
ENDBRANCH  90  91
ENDBRANCH  62  85
BRANCH  74  95
ATOM     95  C   UNL A   1      44.866  24.312  33.131  1.00  0.00    -0.014 A 
ATOM     96  C   UNL A   1      44.191  23.208  33.674  1.00  0.00     0.010 A 
ATOM     97  C   UNL A   1      46.209  24.506  33.545  1.00  0.00     0.010 A 
ATOM     98  C   UNL A   1      44.867  22.273  34.476  1.00  0.00     0.020 A 
ATOM     99  C   UNL A   1      46.870  23.620  34.392  1.00  0.00     0.020 A 
ATOM    100  C   UNL A   1      46.208  22.477  34.812  1.00  0.00     0.054 A 
BRANCH 100 101
ATOM    101  S   UNL A   1      47.084  21.244  35.804  1.00  0.00     0.124 S 
ATOM    102  O   UNL A   1      46.477  21.403  37.123  1.00  0.00    -0.237 OA
ATOM    103  O   UNL A   1      46.748  20.009  35.102  1.00  0.00    -0.237 OA
ATOM    104  O   UNL A   1      48.484  21.653  35.713  1.00  0.00    -0.744 OA
ENDBRANCH 100 101
ENDBRANCH  74  95
ENDBRANCH  48  49
ENDBRANCH  41  43
ENDBRANCH  40  41
ENDBRANCH  39  40
ENDBRANCH  38  39
ENDBRANCH  37  38
ENDBRANCH  36  37
ENDBRANCH  35  36
ENDBRANCH   1  35
TORSDOF 27
ENDMDL
MODEL 3
REMARK VINA RESULT:      -8.8     11.046     17.769
REMARK SMILES Cc1cccc(S(=O)(=O)Nc2cc(C(=O)OCCOCCOCCOCCOC(=O)c3ccc(-c4c5nc(c(-c6ccc(S(=O)(=O)[O-])cc6)c6ccc([nH]6)c(-c6ccc(S(=O)(=O)[O-])cc6)c6nc(c(-c7ccc(S(=O)(=O)[O-])cc7)c7ccc4[nH]7)C=C6)C=C5)cc3)cnc2N2CCC[C@H](C)C2)c1
REMARK SMILES IDX 22 1 21 2 20 3 19 4 18 5 17 6 16 7 14 8 15 9 13 10 11 11
REMARK SMILES IDX 12 12 93 13 92 14 91 15 10 16 7 18 8 19 9 20 6 21 1 22 2 23
REMARK SMILES IDX 3 24 101 25 4 26 5 27 94 28 95 29 100 30 96 31 98 32 97 33
REMARK SMILES IDX 99 34 23 35 24 36 25 37 26 38 27 39 28 40 29 41 30 42 31 43
REMARK SMILES IDX 32 44 90 45 33 46 89 47 34 48 35 49 36 50 83 51 37 52 88 53
REMARK SMILES IDX 82 54 84 55 38 56 87 57 81 58 80 59 39 61 69 62 50 63 68 64
REMARK SMILES IDX 51 65 54 66 67 67 85 68 52 69 53 70 66 72 86 73 55 74 40 75
REMARK SMILES IDX 41 76 49 77 42 78 48 79 43 80 44 81 45 82 46 83 47 84 70 85
REMARK SMILES IDX 71 86 79 87 72 88 78 89 73 90 74 91 75 92 76 93 77 94 56 95
REMARK SMILES IDX 57 96 65 97 58 98 64 99 59 100 60 101 61 102 62 103 63 104
REMARK H PARENT 10 17 84 60 54 71
REMARK Flexibility Score: inf
ROOT
ATOM      1  O   UNL A   1      43.789  39.492  39.539  1.00  0.00    -0.377 OA
ENDROOT
BRANCH   1   2
ATOM      2  C   UNL A   1      44.192  39.839  40.876  1.00  0.00     0.188 C 
BRANCH   2   3
ATOM      3  C   UNL A   1      43.950  41.244  41.757  1.00  0.00     0.188 C 
BRANCH   3   4
ATOM      4  O   UNL A   1      43.193  41.672  43.305  1.00  0.00    -0.376 OA
BRANCH   4   5
ATOM      5  C   UNL A   1      41.572  41.586  44.000  1.00  0.00     0.202 C 
BRANCH   5   6
ATOM      6  C   UNL A   1      40.176  40.338  43.684  1.00  0.00     0.261 C 
BRANCH   6   7
ATOM      7  O   UNL A   1      38.378  40.649  43.693  1.00  0.00    -0.460 OA
BRANCH   7   8
ATOM      8  C   UNL A   1      37.219  41.349  44.309  1.00  0.00     0.339 C 
ATOM      9  O   UNL A   1      36.363  40.867  45.061  1.00  0.00    -0.246 OA
BRANCH   8  10
ATOM     10  C   UNL A   1      36.925  42.891  44.275  1.00  0.00     0.080 A 
ATOM     11  C   UNL A   1      37.449  45.306  44.332  1.00  0.00     0.092 A 
ATOM     12  C   UNL A   1      37.808  43.971  44.425  1.00  0.00     0.048 A 
ATOM     13  C   UNL A   1      36.114  45.618  44.542  1.00  0.00     0.153 A 
ATOM     14  N   UNL A   1      35.182  44.639  44.591  1.00  0.00    -0.236 NA
ATOM     15  C   UNL A   1      35.604  43.324  44.415  1.00  0.00     0.129 A 
BRANCH  11  16
ATOM     16  N   UNL A   1      38.483  46.312  44.150  1.00  0.00    -0.276 N 
ATOM     17  H   UNL A   1      38.888  46.735  44.942  1.00  0.00     0.180 HD
BRANCH  16  18
ATOM     18  S   UNL A   1      39.019  46.781  42.578  1.00  0.00     0.262 S 
ATOM     19  O   UNL A   1      39.826  47.966  42.774  1.00  0.00    -0.201 OA
ATOM     20  O   UNL A   1      37.852  46.870  41.719  1.00  0.00    -0.201 OA
BRANCH  18  21
ATOM     21  C   UNL A   1      40.051  45.561  41.824  1.00  0.00     0.088 A 
ATOM     22  C   UNL A   1      39.661  42.097  40.502  1.00  0.00     0.044 C 
ATOM     23  C   UNL A   1      40.300  43.415  40.770  1.00  0.00    -0.050 A 
ATOM     24  C   UNL A   1      41.686  43.577  40.741  1.00  0.00     0.003 A 
ATOM     25  C   UNL A   1      39.486  44.439  41.244  1.00  0.00     0.025 A 
ATOM     26  C   UNL A   1      42.252  44.769  41.188  1.00  0.00     0.002 A 
ATOM     27  C   UNL A   1      41.437  45.755  41.751  1.00  0.00     0.022 A 
ENDBRANCH  18  21
ENDBRANCH  16  18
ENDBRANCH  11  16
BRANCH  13  28
ATOM     28  N   UNL A   1      35.839  46.935  44.897  1.00  0.00    -0.355 N 
ATOM     29  C   UNL A   1      35.177  47.769  43.913  1.00  0.00     0.118 C 
ATOM     30  C   UNL A   1      35.491  47.178  46.293  1.00  0.00     0.121 C 
ATOM     31  C   UNL A   1      35.619  49.211  44.178  1.00  0.00     0.022 C 
ATOM     32  C   UNL A   1      35.862  48.632  46.664  1.00  0.00     0.005 C 
ATOM     33  C   UNL A   1      35.325  49.631  45.619  1.00  0.00     0.007 C 
ATOM     34  C   UNL A   1      37.373  48.792  46.878  1.00  0.00     0.009 C 
ENDBRANCH  13  28
ENDBRANCH   8  10
ENDBRANCH   7   8
ENDBRANCH   6   7
ENDBRANCH   5   6
ENDBRANCH   4   5
ENDBRANCH   3   4
ENDBRANCH   2   3
ENDBRANCH   1   2
BRANCH   1  35
ATOM     35  C   UNL A   1      42.964  38.391  39.166  1.00  0.00     0.188 C 
BRANCH  35  36
ATOM     36  C   UNL A   1      41.771  38.036  40.025  1.00  0.00     0.188 C 
BRANCH  36  37
ATOM     37  O   UNL A   1      40.975  37.092  39.328  1.00  0.00    -0.376 OA
BRANCH  37  38
ATOM     38  C   UNL A   1      41.662  35.925  38.919  1.00  0.00     0.202 C 
BRANCH  38  39
ATOM     39  C   UNL A   1      40.764  34.941  38.163  1.00  0.00     0.261 C 
BRANCH  39  40
ATOM     40  O   UNL A   1      41.066  34.964  36.751  1.00  0.00    -0.460 OA
BRANCH  40  41
ATOM     41  C   UNL A   1      40.058  35.414  35.938  1.00  0.00     0.338 C 
ATOM     42  O   UNL A   1      39.677  36.565  35.916  1.00  0.00    -0.246 OA
BRANCH  41  43
ATOM     43  C   UNL A   1      39.572  34.284  35.099  1.00  0.00     0.060 A 
ATOM     44  C   UNL A   1      38.604  33.364  35.448  1.00  0.00     0.016 A 
ATOM     45  C   UNL A   1      40.123  34.081  33.874  1.00  0.00     0.016 A 
ATOM     46  C   UNL A   1      38.541  32.070  34.812  1.00  0.00     0.010 A 
ATOM     47  C   UNL A   1      39.957  32.828  33.253  1.00  0.00     0.010 A 
ATOM     48  C   UNL A   1      39.485  31.602  33.878  1.00  0.00    -0.014 A 
BRANCH  48  49
ATOM     49  C   UNL A   1      40.005  29.823  33.635  1.00  0.00     0.031 A 
ATOM     50  C   UNL A   1      41.563  28.935  34.513  1.00  0.00     0.074 A 
ATOM     51  C   UNL A   1      39.238  29.324  32.540  1.00  0.00     0.049 A 
ATOM     52  N   UNL A   1      42.723  28.644  33.837  1.00  0.00    -0.248 NA
ATOM     53  C   UNL A   1      42.310  28.935  35.967  1.00  0.00     0.031 C 
ATOM     54  C   UNL A   1      39.179  28.061  31.813  1.00  0.00     0.029 A 
ATOM     55  N   UNL A   1      38.386  30.014  31.648  1.00  0.00    -0.354 N 
ATOM     56  C   UNL A   1      43.881  28.325  34.466  1.00  0.00     0.074 A 
ATOM     57  C   UNL A   1      43.629  28.711  35.796  1.00  0.00     0.031 C 
ATOM     58  C   UNL A   1      38.408  27.986  30.738  1.00  0.00     0.029 A 
ATOM     59  C   UNL A   1      38.197  29.329  30.431  1.00  0.00     0.049 A 
ATOM     60  H   UNL A   1      37.968  30.882  31.855  1.00  0.00     0.167 HD
ATOM     61  C   UNL A   1      44.944  27.744  33.835  1.00  0.00     0.031 A 
ATOM     62  C   UNL A   1      38.699  29.752  29.246  1.00  0.00     0.031 A 
ATOM     63  C   UNL A   1      44.610  27.117  32.548  1.00  0.00     0.049 A 
ATOM     64  C   UNL A   1      40.055  29.136  28.773  1.00  0.00     0.074 A 
ATOM     65  C   UNL A   1      44.373  25.795  32.230  1.00  0.00     0.029 A 
ATOM     66  N   UNL A   1      44.294  27.830  31.386  1.00  0.00    -0.354 N 
ATOM     67  N   UNL A   1      40.979  28.525  29.508  1.00  0.00    -0.248 NA
ATOM     68  C   UNL A   1      40.435  29.161  27.366  1.00  0.00     0.031 C 
ATOM     69  C   UNL A   1      43.872  25.745  30.910  1.00  0.00     0.029 A 
ATOM     70  C   UNL A   1      43.615  27.033  30.446  1.00  0.00     0.049 A 
ATOM     71  H   UNL A   1      44.520  28.777  31.243  1.00  0.00     0.167 HD
ATOM     72  C   UNL A   1      42.063  28.129  28.719  1.00  0.00     0.074 A 
ATOM     73  C   UNL A   1      41.642  28.569  27.385  1.00  0.00     0.031 C 
ATOM     74  C   UNL A   1      43.245  27.489  29.080  1.00  0.00     0.031 A 
BRANCH  61  75
ATOM     75  C   UNL A   1      46.167  27.401  34.671  1.00  0.00    -0.014 A 
ATOM     76  C   UNL A   1      46.258  26.172  35.350  1.00  0.00     0.010 A 
ATOM     77  C   UNL A   1      47.209  28.329  34.899  1.00  0.00     0.010 A 
ATOM     78  C   UNL A   1      47.240  25.934  36.322  1.00  0.00     0.020 A 
ATOM     79  C   UNL A   1      48.190  28.109  35.886  1.00  0.00     0.020 A 
ATOM     80  C   UNL A   1      48.175  26.923  36.619  1.00  0.00     0.054 A 
BRANCH  80  81
ATOM     81  S   UNL A   1      49.305  26.657  38.016  1.00  0.00     0.124 S 
ATOM     82  O   UNL A   1      48.888  25.349  38.516  1.00  0.00    -0.237 OA
ATOM     83  O   UNL A   1      50.617  26.693  37.375  1.00  0.00    -0.237 OA
ATOM     84  O   UNL A   1      49.022  27.775  38.913  1.00  0.00    -0.744 OA
ENDBRANCH  80  81
ENDBRANCH  61  75
BRANCH  62  85
ATOM     85  C   UNL A   1      37.811  30.879  28.825  1.00  0.00    -0.014 A 
ATOM     86  C   UNL A   1      36.413  30.560  28.798  1.00  0.00     0.010 A 
ATOM     87  C   UNL A   1      38.180  32.180  29.190  1.00  0.00     0.010 A 
ATOM     88  C   UNL A   1      35.475  31.397  29.414  1.00  0.00     0.020 A 
ATOM     89  C   UNL A   1      37.223  33.044  29.758  1.00  0.00     0.020 A 
ATOM     90  C   UNL A   1      35.904  32.608  29.948  1.00  0.00     0.054 A 
BRANCH  90  91
ATOM     91  S   UNL A   1      34.777  33.482  31.083  1.00  0.00     0.124 S 
ATOM     92  O   UNL A   1      33.838  34.133  30.177  1.00  0.00    -0.237 OA
ATOM     93  O   UNL A   1      34.231  32.369  31.860  1.00  0.00    -0.237 OA
ATOM     94  O   UNL A   1      35.673  34.376  31.809  1.00  0.00    -0.744 OA
ENDBRANCH  90  91
ENDBRANCH  62  85
BRANCH  74  95
ATOM     95  C   UNL A   1      44.302  27.089  28.048  1.00  0.00    -0.014 A 
ATOM     96  C   UNL A   1      45.374  27.898  27.641  1.00  0.00     0.010 A 
ATOM     97  C   UNL A   1      44.099  25.887  27.323  1.00  0.00     0.010 A 
ATOM     98  C   UNL A   1      46.277  27.459  26.658  1.00  0.00     0.020 A 
ATOM     99  C   UNL A   1      44.951  25.472  26.301  1.00  0.00     0.020 A 
ATOM    100  C   UNL A   1      46.067  26.239  26.010  1.00  0.00     0.054 A 
BRANCH 100 101
ATOM    101  S   UNL A   1      47.260  25.658  24.780  1.00  0.00     0.124 S 
ATOM    102  O   UNL A   1      46.618  24.457  24.252  1.00  0.00    -0.237 OA
ATOM    103  O   UNL A   1      47.317  26.795  23.865  1.00  0.00    -0.237 OA
ATOM    104  O   UNL A   1      48.475  25.421  25.556  1.00  0.00    -0.744 OA
ENDBRANCH 100 101
ENDBRANCH  74  95
ENDBRANCH  48  49
ENDBRANCH  41  43
ENDBRANCH  40  41
ENDBRANCH  39  40
ENDBRANCH  38  39
ENDBRANCH  37  38
ENDBRANCH  36  37
ENDBRANCH  35  36
ENDBRANCH   1  35
TORSDOF 27
ENDMDL
