MODEL 1
REMARK VINA RESULT:      -8.6      0.000      0.000
REMARK SMILES COC(=O)c1ccc(C)c2c1[C@H]1C=CC[C@H]1[C@@H](c1ccc(C(=O)OCCOCCOCCOCCOC(=O)c3ccc(-c4c5nc(c(-c6ccc(S(=O)(=O)[O-])cc6)c6ccc([nH]6)c(-c6ccc(S(=O)(=O)[O-])cc6)c6nc(c(-c7ccc(S(=O)(=O)[O-])cc7)c7ccc4[nH]7)C=C6)C=C5)cc3)cc1)N2
REMARK SMILES IDX 30 1 29 2 28 3 27 4 26 5 25 6 24 7 22 8 23 9 21 10 18 11
REMARK SMILES IDX 19 12 100 13 20 14 99 15 17 16 5 17 6 18 11 19 7 20 10 21
REMARK SMILES IDX 12 22 8 23 101 24 13 25 16 26 9 27 14 29 15 30 3 31 4 32
REMARK SMILES IDX 2 33 1 34 31 35 32 36 33 37 34 38 35 39 36 40 37 41 38 42
REMARK SMILES IDX 39 43 40 44 98 45 41 46 97 47 42 48 43 49 44 50 91 51 45 52
REMARK SMILES IDX 96 53 90 54 92 55 46 56 95 57 89 58 88 59 47 61 77 62 58 63
REMARK SMILES IDX 76 64 59 65 62 66 75 67 93 68 60 69 61 70 74 72 94 73 63 74
REMARK SMILES IDX 48 75 49 76 57 77 50 78 56 79 51 80 52 81 53 82 54 83 55 84
REMARK SMILES IDX 78 85 79 86 87 87 80 88 86 89 81 90 82 91 83 92 84 93 85 94
REMARK SMILES IDX 64 95 65 96 73 97 66 98 72 99 67 100 68 101 69 102 70 103
REMARK SMILES IDX 71 104
REMARK H PARENT 101 28 92 60 62 71
REMARK Flexibility Score: inf
ROOT
ATOM      1  O   UNL A   1      41.064  26.779  27.674  1.00  0.00    -0.377 OA
ENDROOT
BRANCH   1   2
ATOM      2  C   UNL A   1      41.914  25.824  28.289  1.00  0.00     0.188 C 
BRANCH   2   3
ATOM      3  C   UNL A   1      41.764  24.328  27.938  1.00  0.00     0.188 C 
BRANCH   3   4
ATOM      4  O   UNL A   1      40.610  24.013  27.176  1.00  0.00    -0.376 OA
BRANCH   4   5
ATOM      5  C   UNL A   1      40.059  22.713  27.297  1.00  0.00     0.202 C 
BRANCH   5   6
ATOM      6  C   UNL A   1      39.232  22.169  26.121  1.00  0.00     0.261 C 
BRANCH   6   7
ATOM      7  O   UNL A   1      38.108  22.971  25.738  1.00  0.00    -0.460 OA
BRANCH   7   8
ATOM      8  C   UNL A   1      37.099  22.328  25.114  1.00  0.00     0.338 C 
ATOM      9  O   UNL A   1      37.163  21.257  24.534  1.00  0.00    -0.246 OA
BRANCH   8  10
ATOM     10  C   UNL A   1      35.831  22.996  25.488  1.00  0.00     0.060 A 
ATOM     11  C   UNL A   1      33.429  24.193  26.390  1.00  0.00    -0.025 A 
ATOM     12  C   UNL A   1      33.853  22.938  26.863  1.00  0.00     0.007 A 
ATOM     13  C   UNL A   1      34.282  24.861  25.489  1.00  0.00     0.007 A 
ATOM     14  C   UNL A   1      35.014  22.329  26.397  1.00  0.00     0.016 A 
ATOM     15  C   UNL A   1      35.483  24.276  25.052  1.00  0.00     0.016 A 
BRANCH  11  16
ATOM     16  C   UNL A   1      32.064  24.794  26.754  1.00  0.00     0.114 C 
ATOM     17  C   UNL A   1      31.709  27.671  23.626  1.00  0.00     0.065 A 
ATOM     18  C   UNL A   1      32.482  28.832  23.721  1.00  0.00     0.016 A 
ATOM     19  C   UNL A   1      31.606  26.782  24.721  1.00  0.00    -0.003 A 
ATOM     20  C   UNL A   1      33.127  29.141  24.912  1.00  0.00     0.006 A 
ATOM     21  C   UNL A   1      32.241  27.120  25.948  1.00  0.00     0.042 A 
ATOM     22  C   UNL A   1      30.858  25.467  24.589  1.00  0.00     0.050 C 
ATOM     23  C   UNL A   1      33.006  28.308  26.035  1.00  0.00    -0.028 A 
ATOM     24  N   UNL A   1      32.206  26.224  27.011  1.00  0.00    -0.377 N 
ATOM     25  C   UNL A   1      31.409  24.480  23.587  1.00  0.00    -0.023 C 
ATOM     26  C   UNL A   1      30.825  24.596  25.859  1.00  0.00     0.031 C 
ATOM     27  C   UNL A   1      33.787  28.718  27.258  1.00  0.00     0.046 C 
ATOM     28  H   UNL A   1      32.277  26.554  27.936  1.00  0.00     0.161 HD
ATOM     29  C   UNL A   1      31.265  23.215  24.007  1.00  0.00    -0.030 C 
ATOM     30  C   UNL A   1      30.634  23.161  25.358  1.00  0.00     0.034 C 
BRANCH  17  31
ATOM     31  C   UNL A   1      30.973  27.431  22.362  1.00  0.00     0.338 C 
ATOM     32  O   UNL A   1      31.442  26.868  21.388  1.00  0.00    -0.246 OA
BRANCH  31  33
ATOM     33  O   UNL A   1      29.724  27.955  22.466  1.00  0.00    -0.465 OA
ATOM     34  C   UNL A   1      29.629  29.298  21.988  1.00  0.00     0.282 C 
ENDBRANCH  31  33
ENDBRANCH  17  31
ENDBRANCH  11  16
ENDBRANCH   8  10
ENDBRANCH   7   8
ENDBRANCH   6   7
ENDBRANCH   5   6
ENDBRANCH   4   5
ENDBRANCH   3   4
ENDBRANCH   2   3
ENDBRANCH   1   2
BRANCH   1  35
ATOM     35  C   UNL A   1      40.658  27.936  28.400  1.00  0.00     0.188 C 
BRANCH  35  36
ATOM     36  C   UNL A   1      39.193  28.433  28.358  1.00  0.00     0.188 C 
BRANCH  36  37
ATOM     37  O   UNL A   1      38.875  29.402  29.344  1.00  0.00    -0.376 OA
BRANCH  37  38
ATOM     38  C   UNL A   1      37.628  29.262  30.002  1.00  0.00     0.202 C 
BRANCH  38  39
ATOM     39  C   UNL A   1      36.738  30.509  30.096  1.00  0.00     0.261 C 
BRANCH  39  40
ATOM     40  O   UNL A   1      35.953  30.650  31.289  1.00  0.00    -0.460 OA
BRANCH  40  41
ATOM     41  C   UNL A   1      35.485  31.878  31.596  1.00  0.00     0.338 C 
ATOM     42  O   UNL A   1      34.344  32.287  31.461  1.00  0.00    -0.246 OA
BRANCH  41  43
ATOM     43  C   UNL A   1      36.574  32.594  32.290  1.00  0.00     0.060 A 
ATOM     44  C   UNL A   1      36.706  33.981  32.133  1.00  0.00     0.016 A 
ATOM     45  C   UNL A   1      37.443  31.888  33.124  1.00  0.00     0.016 A 
ATOM     46  C   UNL A   1      37.717  34.665  32.810  1.00  0.00     0.010 A 
ATOM     47  C   UNL A   1      38.479  32.568  33.766  1.00  0.00     0.010 A 
ATOM     48  C   UNL A   1      38.636  33.952  33.590  1.00  0.00    -0.014 A 
BRANCH  48  49
ATOM     49  C   UNL A   1      39.893  34.606  34.019  1.00  0.00     0.031 A 
ATOM     50  C   UNL A   1      41.008  34.697  33.015  1.00  0.00     0.074 A 
ATOM     51  C   UNL A   1      40.046  35.113  35.255  1.00  0.00     0.049 A 
ATOM     52  N   UNL A   1      42.218  35.167  33.163  1.00  0.00    -0.248 NA
ATOM     53  C   UNL A   1      40.717  34.192  31.660  1.00  0.00     0.031 C 
ATOM     54  C   UNL A   1      39.020  35.137  36.296  1.00  0.00     0.029 A 
ATOM     55  N   UNL A   1      41.138  35.705  35.841  1.00  0.00    -0.354 N 
ATOM     56  C   UNL A   1      42.827  35.021  31.925  1.00  0.00     0.074 A 
ATOM     57  C   UNL A   1      41.870  34.398  31.041  1.00  0.00     0.031 C 
ATOM     58  C   UNL A   1      39.538  35.705  37.400  1.00  0.00     0.029 A 
ATOM     59  C   UNL A   1      40.937  36.055  37.154  1.00  0.00     0.049 A 
ATOM     60  H   UNL A   1      41.984  35.864  35.364  1.00  0.00     0.167 HD
ATOM     61  C   UNL A   1      44.076  35.383  31.552  1.00  0.00     0.031 A 
ATOM     62  C   UNL A   1      41.790  36.578  38.059  1.00  0.00     0.031 A 
ATOM     63  C   UNL A   1      45.037  35.978  32.437  1.00  0.00     0.049 A 
ATOM     64  C   UNL A   1      43.208  36.883  37.652  1.00  0.00     0.074 A 
ATOM     65  C   UNL A   1      46.334  36.367  32.154  1.00  0.00     0.029 A 
ATOM     66  N   UNL A   1      44.810  36.264  33.773  1.00  0.00    -0.354 N 
ATOM     67  N   UNL A   1      43.777  36.729  36.480  1.00  0.00    -0.248 NA
ATOM     68  C   UNL A   1      44.100  37.430  38.685  1.00  0.00     0.031 C 
ATOM     69  C   UNL A   1      46.909  36.844  33.333  1.00  0.00     0.029 A 
ATOM     70  C   UNL A   1      45.952  36.808  34.335  1.00  0.00     0.049 A 
ATOM     71  H   UNL A   1      43.965  36.106  34.250  1.00  0.00     0.167 HD
ATOM     72  C   UNL A   1      45.086  37.179  36.629  1.00  0.00     0.074 A 
ATOM     73  C   UNL A   1      45.225  37.614  38.004  1.00  0.00     0.031 C 
ATOM     74  C   UNL A   1      46.077  37.233  35.706  1.00  0.00     0.031 A 
BRANCH  61  75
ATOM     75  C   UNL A   1      44.482  35.126  30.130  1.00  0.00    -0.014 A 
ATOM     76  C   UNL A   1      44.272  36.097  29.137  1.00  0.00     0.010 A 
ATOM     77  C   UNL A   1      45.141  33.929  29.797  1.00  0.00     0.010 A 
ATOM     78  C   UNL A   1      44.707  35.872  27.829  1.00  0.00     0.020 A 
ATOM     79  C   UNL A   1      45.597  33.710  28.495  1.00  0.00     0.020 A 
ATOM     80  C   UNL A   1      45.377  34.684  27.520  1.00  0.00     0.054 A 
BRANCH  80  81
ATOM     81  S   UNL A   1      45.965  34.443  25.823  1.00  0.00     0.124 S 
ATOM     82  O   UNL A   1      46.619  33.138  25.907  1.00  0.00    -0.237 OA
ATOM     83  O   UNL A   1      44.724  34.474  25.054  1.00  0.00    -0.237 OA
ATOM     84  O   UNL A   1      46.865  35.573  25.601  1.00  0.00    -0.744 OA
ENDBRANCH  80  81
ENDBRANCH  61  75
BRANCH  62  85
ATOM     85  C   UNL A   1      41.317  36.829  39.447  1.00  0.00    -0.014 A 
ATOM     86  C   UNL A   1      41.471  35.851  40.444  1.00  0.00     0.010 A 
ATOM     87  C   UNL A   1      40.758  38.074  39.790  1.00  0.00     0.010 A 
ATOM     88  C   UNL A   1      41.092  36.122  41.763  1.00  0.00     0.020 A 
ATOM     89  C   UNL A   1      40.397  38.356  41.110  1.00  0.00     0.020 A 
ATOM     90  C   UNL A   1      40.575  37.379  42.091  1.00  0.00     0.054 A 
BRANCH  90  91
ATOM     91  S   UNL A   1      40.172  37.728  43.825  1.00  0.00     0.124 S 
ATOM     92  O   UNL A   1      39.663  39.093  43.758  1.00  0.00    -0.237 OA
ATOM     93  O   UNL A   1      39.181  36.696  44.122  1.00  0.00    -0.237 OA
ATOM     94  O   UNL A   1      41.452  37.573  44.515  1.00  0.00    -0.744 OA
ENDBRANCH  90  91
ENDBRANCH  62  85
BRANCH  74  95
ATOM     95  C   UNL A   1      47.408  37.797  36.120  1.00  0.00    -0.014 A 
ATOM     96  C   UNL A   1      48.431  36.962  36.598  1.00  0.00     0.010 A 
ATOM     97  C   UNL A   1      47.681  39.160  35.894  1.00  0.00     0.010 A 
ATOM     98  C   UNL A   1      49.705  37.480  36.845  1.00  0.00     0.020 A 
ATOM     99  C   UNL A   1      48.960  39.677  36.118  1.00  0.00     0.020 A 
ATOM    100  C   UNL A   1      49.965  38.832  36.592  1.00  0.00     0.054 A 
BRANCH 100 101
ATOM    101  S   UNL A   1      51.644  39.458  36.865  1.00  0.00     0.124 S 
ATOM    102  O   UNL A   1      51.870  40.269  35.672  1.00  0.00    -0.237 OA
ATOM    103  O   UNL A   1      51.502  40.204  38.113  1.00  0.00    -0.237 OA
ATOM    104  O   UNL A   1      52.458  38.247  36.955  1.00  0.00    -0.744 OA
ENDBRANCH 100 101
ENDBRANCH  74  95
ENDBRANCH  48  49
ENDBRANCH  41  43
ENDBRANCH  40  41
ENDBRANCH  39  40
ENDBRANCH  38  39
ENDBRANCH  37  38
ENDBRANCH  36  37
ENDBRANCH  35  36
ENDBRANCH   1  35
TORSDOF 26
ENDMDL
MODEL 2
REMARK VINA RESULT:      -8.4      8.152     14.078
REMARK SMILES COC(=O)c1ccc(C)c2c1[C@H]1C=CC[C@H]1[C@@H](c1ccc(C(=O)OCCOCCOCCOCCOC(=O)c3ccc(-c4c5nc(c(-c6ccc(S(=O)(=O)[O-])cc6)c6ccc([nH]6)c(-c6ccc(S(=O)(=O)[O-])cc6)c6nc(c(-c7ccc(S(=O)(=O)[O-])cc7)c7ccc4[nH]7)C=C6)C=C5)cc3)cc1)N2
REMARK SMILES IDX 30 1 29 2 28 3 27 4 26 5 25 6 24 7 22 8 23 9 21 10 18 11
REMARK SMILES IDX 19 12 100 13 20 14 99 15 17 16 5 17 6 18 11 19 7 20 10 21
REMARK SMILES IDX 12 22 8 23 101 24 13 25 16 26 9 27 14 29 15 30 3 31 4 32
REMARK SMILES IDX 2 33 1 34 31 35 32 36 33 37 34 38 35 39 36 40 37 41 38 42
REMARK SMILES IDX 39 43 40 44 98 45 41 46 97 47 42 48 43 49 44 50 91 51 45 52
REMARK SMILES IDX 96 53 90 54 92 55 46 56 95 57 89 58 88 59 47 61 77 62 58 63
REMARK SMILES IDX 76 64 59 65 62 66 75 67 93 68 60 69 61 70 74 72 94 73 63 74
REMARK SMILES IDX 48 75 49 76 57 77 50 78 56 79 51 80 52 81 53 82 54 83 55 84
REMARK SMILES IDX 78 85 79 86 87 87 80 88 86 89 81 90 82 91 83 92 84 93 85 94
REMARK SMILES IDX 64 95 65 96 73 97 66 98 72 99 67 100 68 101 69 102 70 103
REMARK SMILES IDX 71 104
REMARK H PARENT 101 28 92 60 62 71
REMARK Flexibility Score: inf
ROOT
ATOM      1  O   UNL A   1      46.053  19.016  24.159  1.00  0.00    -0.377 OA
ENDROOT
BRANCH   1   2
ATOM      2  C   UNL A   1      46.507  20.063  25.003  1.00  0.00     0.188 C 
BRANCH   2   3
ATOM      3  C   UNL A   1      45.848  21.456  24.916  1.00  0.00     0.188 C 
BRANCH   3   4
ATOM      4  O   UNL A   1      46.757  22.544  24.964  1.00  0.00    -0.376 OA
BRANCH   4   5
ATOM      5  C   UNL A   1      46.376  23.765  24.356  1.00  0.00     0.202 C 
BRANCH   5   6
ATOM      6  C   UNL A   1      46.694  25.071  25.101  1.00  0.00     0.261 C 
BRANCH   6   7
ATOM      7  O   UNL A   1      47.736  24.981  26.081  1.00  0.00    -0.460 OA
BRANCH   7   8
ATOM      8  C   UNL A   1      47.348  25.017  27.373  1.00  0.00     0.338 C 
ATOM      9  O   UNL A   1      46.602  24.232  27.934  1.00  0.00    -0.246 OA
BRANCH   8  10
ATOM     10  C   UNL A   1      48.198  26.004  28.078  1.00  0.00     0.060 A 
ATOM     11  C   UNL A   1      49.980  27.759  29.406  1.00  0.00    -0.025 A 
ATOM     12  C   UNL A   1      50.088  26.362  29.530  1.00  0.00     0.007 A 
ATOM     13  C   UNL A   1      48.982  28.252  28.542  1.00  0.00     0.007 A 
ATOM     14  C   UNL A   1      49.194  25.496  28.909  1.00  0.00     0.016 A 
ATOM     15  C   UNL A   1      48.107  27.382  27.868  1.00  0.00     0.016 A 
BRANCH  11  16
ATOM     16  C   UNL A   1      50.840  28.730  30.228  1.00  0.00     0.114 C 
ATOM     17  C   UNL A   1      54.355  26.356  30.663  1.00  0.00     0.065 A 
ATOM     18  C   UNL A   1      54.313  25.293  31.569  1.00  0.00     0.016 A 
ATOM     19  C   UNL A   1      53.315  27.313  30.626  1.00  0.00    -0.003 A 
ATOM     20  C   UNL A   1      53.261  25.191  32.471  1.00  0.00     0.006 A 
ATOM     21  C   UNL A   1      52.259  27.224  31.572  1.00  0.00     0.042 A 
ATOM     22  C   UNL A   1      53.301  28.406  29.572  1.00  0.00     0.050 C 
ATOM     23  C   UNL A   1      52.237  26.152  32.497  1.00  0.00    -0.028 A 
ATOM     24  N   UNL A   1      51.195  28.116  31.504  1.00  0.00    -0.377 N 
ATOM     25  C   UNL A   1      53.199  27.952  28.134  1.00  0.00    -0.023 C 
ATOM     26  C   UNL A   1      52.110  29.381  29.647  1.00  0.00     0.031 C 
ATOM     27  C   UNL A   1      51.124  25.914  33.485  1.00  0.00     0.046 C 
ATOM     28  H   UNL A   1      50.681  28.335  32.315  1.00  0.00     0.161 HD
ATOM     29  C   UNL A   1      52.469  28.800  27.397  1.00  0.00    -0.030 C 
ATOM     30  C   UNL A   1      51.944  29.924  28.225  1.00  0.00     0.034 C 
BRANCH  17  31
ATOM     31  C   UNL A   1      55.541  26.465  29.780  1.00  0.00     0.338 C 
ATOM     32  O   UNL A   1      56.271  27.439  29.722  1.00  0.00    -0.246 OA
BRANCH  31  33
ATOM     33  O   UNL A   1      55.659  25.326  29.049  1.00  0.00    -0.465 OA
ATOM     34  C   UNL A   1      57.014  24.924  28.837  1.00  0.00     0.282 C 
ENDBRANCH  31  33
ENDBRANCH  17  31
ENDBRANCH  11  16
ENDBRANCH   8  10
ENDBRANCH   7   8
ENDBRANCH   6   7
ENDBRANCH   5   6
ENDBRANCH   4   5
ENDBRANCH   3   4
ENDBRANCH   2   3
ENDBRANCH   1   2
BRANCH   1  35
ATOM     35  C   UNL A   1      44.656  18.827  23.956  1.00  0.00     0.188 C 
BRANCH  35  36
ATOM     36  C   UNL A   1      43.624  19.304  25.006  1.00  0.00     0.188 C 
BRANCH  36  37
ATOM     37  O   UNL A   1      42.959  18.256  25.693  1.00  0.00    -0.376 OA
BRANCH  37  38
ATOM     38  C   UNL A   1      41.977  18.632  26.643  1.00  0.00     0.202 C 
BRANCH  38  39
ATOM     39  C   UNL A   1      40.884  19.603  26.178  1.00  0.00     0.261 C 
BRANCH  39  40
ATOM     40  O   UNL A   1      41.299  20.946  25.886  1.00  0.00    -0.460 OA
BRANCH  40  41
ATOM     41  C   UNL A   1      40.509  21.956  26.309  1.00  0.00     0.338 C 
ATOM     42  O   UNL A   1      39.297  22.036  26.208  1.00  0.00    -0.246 OA
BRANCH  41  43
ATOM     43  C   UNL A   1      41.368  22.882  27.075  1.00  0.00     0.060 A 
ATOM     44  C   UNL A   1      42.762  22.746  27.018  1.00  0.00     0.016 A 
ATOM     45  C   UNL A   1      40.786  23.906  27.823  1.00  0.00     0.016 A 
ATOM     46  C   UNL A   1      43.579  23.635  27.718  1.00  0.00     0.010 A 
ATOM     47  C   UNL A   1      41.602  24.769  28.557  1.00  0.00     0.010 A 
ATOM     48  C   UNL A   1      42.998  24.620  28.528  1.00  0.00    -0.014 A 
BRANCH  48  49
ATOM     49  C   UNL A   1      43.829  25.328  29.528  1.00  0.00     0.031 A 
ATOM     50  C   UNL A   1      44.266  26.728  29.204  1.00  0.00     0.074 A 
ATOM     51  C   UNL A   1      44.181  24.756  30.693  1.00  0.00     0.049 A 
ATOM     52  N   UNL A   1      45.041  27.531  29.884  1.00  0.00    -0.248 NA
ATOM     53  C   UNL A   1      43.758  27.302  27.944  1.00  0.00     0.031 C 
ATOM     54  C   UNL A   1      43.772  23.427  31.145  1.00  0.00     0.029 A 
ATOM     55  N   UNL A   1      44.975  25.231  31.708  1.00  0.00    -0.354 N 
ATOM     56  C   UNL A   1      45.107  28.701  29.140  1.00  0.00     0.074 A 
ATOM     57  C   UNL A   1      44.319  28.502  27.947  1.00  0.00     0.031 C 
ATOM     58  C   UNL A   1      44.329  23.189  32.346  1.00  0.00     0.029 A 
ATOM     59  C   UNL A   1      45.157  24.332  32.731  1.00  0.00     0.049 A 
ATOM     60  H   UNL A   1      45.374  26.130  31.703  1.00  0.00     0.167 HD
ATOM     61  C   UNL A   1      45.763  29.848  29.430  1.00  0.00     0.031 A 
ATOM     62  C   UNL A   1      45.922  24.415  33.840  1.00  0.00     0.031 A 
ATOM     63  C   UNL A   1      46.568  30.038  30.603  1.00  0.00     0.049 A 
ATOM     64  C   UNL A   1      46.724  25.663  34.097  1.00  0.00     0.074 A 
ATOM     65  C   UNL A   1      47.283  31.161  30.978  1.00  0.00     0.029 A 
ATOM     66  N   UNL A   1      46.771  29.082  31.586  1.00  0.00    -0.354 N 
ATOM     67  N   UNL A   1      46.788  26.761  33.380  1.00  0.00    -0.248 NA
ATOM     68  C   UNL A   1      47.556  25.689  35.309  1.00  0.00     0.031 C 
ATOM     69  C   UNL A   1      47.959  30.868  32.164  1.00  0.00     0.029 A 
ATOM     70  C   UNL A   1      47.617  29.584  32.558  1.00  0.00     0.049 A 
ATOM     71  H   UNL A   1      46.372  28.183  31.592  1.00  0.00     0.167 HD
ATOM     72  C   UNL A   1      47.650  27.613  34.063  1.00  0.00     0.074 A 
ATOM     73  C   UNL A   1      48.081  26.907  35.253  1.00  0.00     0.031 C 
ATOM     74  C   UNL A   1      48.040  28.869  33.736  1.00  0.00     0.031 A 
BRANCH  61  75
ATOM     75  C   UNL A   1      45.652  30.982  28.452  1.00  0.00    -0.014 A 
ATOM     76  C   UNL A   1      44.642  31.949  28.585  1.00  0.00     0.010 A 
ATOM     77  C   UNL A   1      46.609  31.118  27.430  1.00  0.00     0.010 A 
ATOM     78  C   UNL A   1      44.585  33.032  27.706  1.00  0.00     0.020 A 
ATOM     79  C   UNL A   1      46.569  32.212  26.563  1.00  0.00     0.020 A 
ATOM     80  C   UNL A   1      45.556  33.162  26.707  1.00  0.00     0.054 A 
BRANCH  80  81
ATOM     81  S   UNL A   1      45.476  34.601  25.609  1.00  0.00     0.124 S 
ATOM     82  O   UNL A   1      45.140  33.990  24.325  1.00  0.00    -0.237 OA
ATOM     83  O   UNL A   1      44.417  35.402  26.219  1.00  0.00    -0.237 OA
ATOM     84  O   UNL A   1      46.817  35.176  25.689  1.00  0.00    -0.744 OA
ENDBRANCH  80  81
ENDBRANCH  61  75
BRANCH  62  85
ATOM     85  C   UNL A   1      45.968  23.262  34.780  1.00  0.00    -0.014 A 
ATOM     86  C   UNL A   1      46.711  22.111  34.466  1.00  0.00     0.010 A 
ATOM     87  C   UNL A   1      45.313  23.337  36.024  1.00  0.00     0.010 A 
ATOM     88  C   UNL A   1      46.812  21.064  35.387  1.00  0.00     0.020 A 
ATOM     89  C   UNL A   1      45.428  22.300  36.954  1.00  0.00     0.020 A 
ATOM     90  C   UNL A   1      46.185  21.173  36.632  1.00  0.00     0.054 A 
BRANCH  90  91
ATOM     91  S   UNL A   1      46.404  19.833  37.836  1.00  0.00     0.124 S 
ATOM     92  O   UNL A   1      47.823  19.523  37.701  1.00  0.00    -0.237 OA
ATOM     93  O   UNL A   1      46.014  20.481  39.087  1.00  0.00    -0.237 OA
ATOM     94  O   UNL A   1      45.490  18.793  37.366  1.00  0.00    -0.744 OA
ENDBRANCH  90  91
ENDBRANCH  62  85
BRANCH  74  95
ATOM     95  C   UNL A   1      48.968  29.596  34.671  1.00  0.00    -0.014 A 
ATOM     96  C   UNL A   1      50.339  29.294  34.710  1.00  0.00     0.010 A 
ATOM     97  C   UNL A   1      48.481  30.687  35.416  1.00  0.00     0.010 A 
ATOM     98  C   UNL A   1      51.209  30.071  35.480  1.00  0.00     0.020 A 
ATOM     99  C   UNL A   1      49.351  31.479  36.169  1.00  0.00     0.020 A 
ATOM    100  C   UNL A   1      50.711  31.166  36.195  1.00  0.00     0.054 A 
BRANCH 100 101
ATOM    101  S   UNL A   1      51.876  32.190  37.134  1.00  0.00     0.124 S 
ATOM    102  O   UNL A   1      51.279  33.518  37.026  1.00  0.00    -0.237 OA
ATOM    103  O   UNL A   1      51.825  31.584  38.462  1.00  0.00    -0.237 OA
ATOM    104  O   UNL A   1      53.142  32.021  36.423  1.00  0.00    -0.744 OA
ENDBRANCH 100 101
ENDBRANCH  74  95
ENDBRANCH  48  49
ENDBRANCH  41  43
ENDBRANCH  40  41
ENDBRANCH  39  40
ENDBRANCH  38  39
ENDBRANCH  37  38
ENDBRANCH  36  37
ENDBRANCH  35  36
ENDBRANCH   1  35
TORSDOF 26
ENDMDL
MODEL 3
REMARK VINA RESULT:      -8.3      6.927     11.026
REMARK SMILES COC(=O)c1ccc(C)c2c1[C@H]1C=CC[C@H]1[C@@H](c1ccc(C(=O)OCCOCCOCCOCCOC(=O)c3ccc(-c4c5nc(c(-c6ccc(S(=O)(=O)[O-])cc6)c6ccc([nH]6)c(-c6ccc(S(=O)(=O)[O-])cc6)c6nc(c(-c7ccc(S(=O)(=O)[O-])cc7)c7ccc4[nH]7)C=C6)C=C5)cc3)cc1)N2
REMARK SMILES IDX 30 1 29 2 28 3 27 4 26 5 25 6 24 7 22 8 23 9 21 10 18 11
REMARK SMILES IDX 19 12 100 13 20 14 99 15 17 16 5 17 6 18 11 19 7 20 10 21
REMARK SMILES IDX 12 22 8 23 101 24 13 25 16 26 9 27 14 29 15 30 3 31 4 32
REMARK SMILES IDX 2 33 1 34 31 35 32 36 33 37 34 38 35 39 36 40 37 41 38 42
REMARK SMILES IDX 39 43 40 44 98 45 41 46 97 47 42 48 43 49 44 50 91 51 45 52
REMARK SMILES IDX 96 53 90 54 92 55 46 56 95 57 89 58 88 59 47 61 77 62 58 63
REMARK SMILES IDX 76 64 59 65 62 66 75 67 93 68 60 69 61 70 74 72 94 73 63 74
REMARK SMILES IDX 48 75 49 76 57 77 50 78 56 79 51 80 52 81 53 82 54 83 55 84
REMARK SMILES IDX 78 85 79 86 87 87 80 88 86 89 81 90 82 91 83 92 84 93 85 94
REMARK SMILES IDX 64 95 65 96 73 97 66 98 72 99 67 100 68 101 69 102 70 103
REMARK SMILES IDX 71 104
REMARK H PARENT 101 28 92 60 62 71
REMARK Flexibility Score: inf
ROOT
ATOM      1  O   UNL A   1      41.844  25.633  27.362  1.00  0.00    -0.377 OA
ENDROOT
BRANCH   1   2
ATOM      2  C   UNL A   1      42.591  24.834  28.266  1.00  0.00     0.188 C 
BRANCH   2   3
ATOM      3  C   UNL A   1      42.190  23.361  28.498  1.00  0.00     0.188 C 
BRANCH   3   4
ATOM      4  O   UNL A   1      40.935  22.997  27.945  1.00  0.00    -0.376 OA
BRANCH   4   5
ATOM      5  C   UNL A   1      40.763  21.667  27.487  1.00  0.00     0.202 C 
BRANCH   5   6
ATOM      6  C   UNL A   1      39.895  21.443  26.238  1.00  0.00     0.261 C 
BRANCH   6   7
ATOM      7  O   UNL A   1      38.623  22.102  26.248  1.00  0.00    -0.460 OA
BRANCH   7   8
ATOM      8  C   UNL A   1      37.739  21.714  25.305  1.00  0.00     0.338 C 
ATOM      9  O   UNL A   1      37.857  20.775  24.537  1.00  0.00    -0.246 OA
BRANCH   8  10
ATOM     10  C   UNL A   1      36.470  22.440  25.541  1.00  0.00     0.060 A 
ATOM     11  C   UNL A   1      34.042  23.749  26.181  1.00  0.00    -0.025 A 
ATOM     12  C   UNL A   1      34.354  22.477  26.695  1.00  0.00     0.007 A 
ATOM     13  C   UNL A   1      35.017  24.375  25.379  1.00  0.00     0.007 A 
ATOM     14  C   UNL A   1      35.530  21.814  26.356  1.00  0.00     0.016 A 
ATOM     15  C   UNL A   1      36.230  23.734  25.074  1.00  0.00     0.016 A 
BRANCH  11  16
ATOM     16  C   UNL A   1      32.674  24.413  26.396  1.00  0.00     0.114 C 
ATOM     17  C   UNL A   1      32.545  26.890  22.928  1.00  0.00     0.065 A 
ATOM     18  C   UNL A   1      33.339  28.041  22.921  1.00  0.00     0.016 A 
ATOM     19  C   UNL A   1      32.366  26.144  24.116  1.00  0.00    -0.003 A 
ATOM     20  C   UNL A   1      33.930  28.482  24.098  1.00  0.00     0.006 A 
ATOM     21  C   UNL A   1      32.946  26.619  25.324  1.00  0.00     0.042 A 
ATOM     22  C   UNL A   1      31.596  24.836  24.105  1.00  0.00     0.050 C 
ATOM     23  C   UNL A   1      33.733  27.795  25.307  1.00  0.00    -0.028 A 
ATOM     24  N   UNL A   1      32.837  25.861  26.485  1.00  0.00    -0.377 N 
ATOM     25  C   UNL A   1      32.174  23.723  23.261  1.00  0.00    -0.023 C 
ATOM     26  C   UNL A   1      31.479  24.128  25.468  1.00  0.00     0.031 C 
ATOM     27  C   UNL A   1      34.461  28.339  26.510  1.00  0.00     0.046 C 
ATOM     28  H   UNL A   1      32.869  26.300  27.366  1.00  0.00     0.161 HD
ATOM     29  C   UNL A   1      31.979  22.522  23.824  1.00  0.00    -0.030 C 
ATOM     30  C   UNL A   1      31.280  22.646  25.136  1.00  0.00     0.034 C 
BRANCH  17  31
ATOM     31  C   UNL A   1      31.869  26.509  21.664  1.00  0.00     0.338 C 
ATOM     32  O   UNL A   1      32.369  25.815  20.797  1.00  0.00    -0.246 OA
BRANCH  31  33
ATOM     33  O   UNL A   1      30.633  27.072  21.633  1.00  0.00    -0.465 OA
ATOM     34  C   UNL A   1      30.425  28.044  22.660  1.00  0.00     0.282 C 
ENDBRANCH  31  33
ENDBRANCH  17  31
ENDBRANCH  11  16
ENDBRANCH   8  10
ENDBRANCH   7   8
ENDBRANCH   6   7
ENDBRANCH   5   6
ENDBRANCH   4   5
ENDBRANCH   3   4
ENDBRANCH   2   3
ENDBRANCH   1   2
BRANCH   1  35
ATOM     35  C   UNL A   1      41.543  26.985  27.695  1.00  0.00     0.188 C 
BRANCH  35  36
ATOM     36  C   UNL A   1      40.081  27.458  27.875  1.00  0.00     0.188 C 
BRANCH  36  37
ATOM     37  O   UNL A   1      39.844  28.192  29.066  1.00  0.00    -0.376 OA
BRANCH  37  38
ATOM     38  C   UNL A   1      38.500  28.536  29.351  1.00  0.00     0.202 C 
BRANCH  38  39
ATOM     39  C   UNL A   1      38.237  29.941  29.910  1.00  0.00     0.261 C 
BRANCH  39  40
ATOM     40  O   UNL A   1      37.669  30.012  31.227  1.00  0.00    -0.460 OA
BRANCH  40  41
ATOM     41  C   UNL A   1      38.221  30.875  32.107  1.00  0.00     0.338 C 
ATOM     42  O   UNL A   1      37.718  31.889  32.560  1.00  0.00    -0.246 OA
BRANCH  41  43
ATOM     43  C   UNL A   1      39.492  30.274  32.559  1.00  0.00     0.060 A 
ATOM     44  C   UNL A   1      40.652  31.061  32.616  1.00  0.00     0.016 A 
ATOM     45  C   UNL A   1      39.522  28.937  32.958  1.00  0.00     0.016 A 
ATOM     46  C   UNL A   1      41.849  30.505  33.069  1.00  0.00     0.010 A 
ATOM     47  C   UNL A   1      40.729  28.372  33.370  1.00  0.00     0.010 A 
ATOM     48  C   UNL A   1      41.901  29.146  33.402  1.00  0.00    -0.014 A 
BRANCH  48  49
ATOM     49  C   UNL A   1      43.214  28.478  33.544  1.00  0.00     0.031 A 
ATOM     50  C   UNL A   1      43.792  28.364  34.926  1.00  0.00     0.074 A 
ATOM     51  C   UNL A   1      43.876  27.977  32.485  1.00  0.00     0.049 A 
ATOM     52  N   UNL A   1      44.945  27.878  35.303  1.00  0.00    -0.248 NA
ATOM     53  C   UNL A   1      42.955  28.862  36.033  1.00  0.00     0.031 C 
ATOM     54  C   UNL A   1      43.393  27.976  31.105  1.00  0.00     0.029 A 
ATOM     55  N   UNL A   1      45.108  27.374  32.415  1.00  0.00    -0.354 N 
ATOM     56  C   UNL A   1      44.968  28.006  36.685  1.00  0.00     0.074 A 
ATOM     57  C   UNL A   1      43.731  28.636  37.083  1.00  0.00     0.031 C 
ATOM     58  C   UNL A   1      44.328  27.408  30.321  1.00  0.00     0.029 A 
ATOM     59  C   UNL A   1      45.484  27.037  31.137  1.00  0.00     0.049 A 
ATOM     60  H   UNL A   1      45.668  27.200  33.205  1.00  0.00     0.167 HD
ATOM     61  C   UNL A   1      45.934  27.624  37.551  1.00  0.00     0.031 A 
ATOM     62  C   UNL A   1      46.638  26.509  30.677  1.00  0.00     0.031 A 
ATOM     63  C   UNL A   1      47.175  27.022  37.155  1.00  0.00     0.049 A 
ATOM     64  C   UNL A   1      47.742  26.181  31.647  1.00  0.00     0.074 A 
ATOM     65  C   UNL A   1      48.224  26.613  37.960  1.00  0.00     0.029 A 
ATOM     66  N   UNL A   1      47.539  26.749  35.846  1.00  0.00    -0.354 N 
ATOM     67  N   UNL A   1      47.757  26.318  32.952  1.00  0.00    -0.248 NA
ATOM     68  C   UNL A   1      48.985  25.630  31.087  1.00  0.00     0.031 C 
ATOM     69  C   UNL A   1      49.243  26.137  37.133  1.00  0.00     0.029 A 
ATOM     70  C   UNL A   1      48.806  26.194  35.819  1.00  0.00     0.049 A 
ATOM     71  H   UNL A   1      46.980  26.922  35.055  1.00  0.00     0.167 HD
ATOM     72  C   UNL A   1      49.000  25.851  33.371  1.00  0.00     0.074 A 
ATOM     73  C   UNL A   1      49.709  25.425  32.181  1.00  0.00     0.031 C 
ATOM     74  C   UNL A   1      49.501  25.777  34.627  1.00  0.00     0.031 A 
BRANCH  61  75
ATOM     75  C   UNL A   1      45.695  27.865  39.014  1.00  0.00    -0.014 A 
ATOM     76  C   UNL A   1      45.246  26.828  39.848  1.00  0.00     0.010 A 
ATOM     77  C   UNL A   1      45.988  29.122  39.571  1.00  0.00     0.010 A 
ATOM     78  C   UNL A   1      45.084  27.046  41.217  1.00  0.00     0.020 A 
ATOM     79  C   UNL A   1      45.850  29.338  40.944  1.00  0.00     0.020 A 
ATOM     80  C   UNL A   1      45.398  28.298  41.758  1.00  0.00     0.054 A 
BRANCH  80  81
ATOM     81  S   UNL A   1      45.216  28.534  43.546  1.00  0.00     0.124 S 
ATOM     82  O   UNL A   1      46.150  27.546  44.082  1.00  0.00    -0.237 OA
ATOM     83  O   UNL A   1      45.611  29.930  43.719  1.00  0.00    -0.237 OA
ATOM     84  O   UNL A   1      43.805  28.250  43.794  1.00  0.00    -0.744 OA
ENDBRANCH  80  81
ENDBRANCH  61  75
BRANCH  62  85
ATOM     85  C   UNL A   1      46.800  26.275  29.217  1.00  0.00    -0.014 A 
ATOM     86  C   UNL A   1      46.546  25.009  28.661  1.00  0.00     0.010 A 
ATOM     87  C   UNL A   1      47.156  27.337  28.365  1.00  0.00     0.010 A 
ATOM     88  C   UNL A   1      46.628  24.815  27.279  1.00  0.00     0.020 A 
ATOM     89  C   UNL A   1      47.219  27.152  26.981  1.00  0.00     0.020 A 
ATOM     90  C   UNL A   1      46.946  25.892  26.446  1.00  0.00     0.054 A 
BRANCH  90  91
ATOM     91  S   UNL A   1      46.961  25.629  24.651  1.00  0.00     0.124 S 
ATOM     92  O   UNL A   1      46.516  26.922  24.143  1.00  0.00    -0.237 OA
ATOM     93  O   UNL A   1      48.362  25.298  24.403  1.00  0.00    -0.237 OA
ATOM     94  O   UNL A   1      46.021  24.526  24.456  1.00  0.00    -0.744 OA
ENDBRANCH  90  91
ENDBRANCH  62  85
BRANCH  74  95
ATOM     95  C   UNL A   1      50.876  25.197  34.815  1.00  0.00    -0.014 A 
ATOM     96  C   UNL A   1      52.005  26.027  34.904  1.00  0.00     0.010 A 
ATOM     97  C   UNL A   1      51.017  23.814  35.044  1.00  0.00     0.010 A 
ATOM     98  C   UNL A   1      53.255  25.485  35.218  1.00  0.00     0.020 A 
ATOM     99  C   UNL A   1      52.260  23.272  35.380  1.00  0.00     0.020 A 
ATOM    100  C   UNL A   1      53.372  24.112  35.466  1.00  0.00     0.054 A 
BRANCH 100 101
ATOM    101  S   UNL A   1      54.995  23.451  35.931  1.00  0.00     0.124 S 
ATOM    102  O   UNL A   1      55.901  24.491  35.451  1.00  0.00    -0.237 OA
ATOM    103  O   UNL A   1      54.883  23.335  37.382  1.00  0.00    -0.237 OA
ATOM    104  O   UNL A   1      55.074  22.181  35.211  1.00  0.00    -0.744 OA
ENDBRANCH 100 101
ENDBRANCH  74  95
ENDBRANCH  48  49
ENDBRANCH  41  43
ENDBRANCH  40  41
ENDBRANCH  39  40
ENDBRANCH  38  39
ENDBRANCH  37  38
ENDBRANCH  36  37
ENDBRANCH  35  36
ENDBRANCH   1  35
TORSDOF 26
ENDMDL
