MODEL 1
REMARK VINA RESULT:      -8.3      0.000      0.000
REMARK SMILES CC1(C)NC(=O)N(CCC(=O)N2CCC[C@H]2C(=O)OCCOCCOCCOCCOC(=O)c2ccc(-c3c4nc(c(-c5ccc(S(=O)(=O)[O-])cc5)c5ccc([nH]5)c(-c5ccc(S(=O)(=O)[O-])cc5)c5nc(c(-c6ccc(S(=O)(=O)[O-])cc6)c6ccc3[nH]6)C=C5)C=C4)cc2)C1=O
REMARK SMILES IDX 24 1 23 2 22 3 21 4 20 5 19 6 17 7 18 8 16 9 12 10 13 11
REMARK SMILES IDX 14 12 15 13 10 14 11 15 9 16 8 17 7 18 1 19 2 20 3 21 4 22
REMARK SMILES IDX 94 23 5 24 95 26 6 27 25 28 26 29 27 30 28 31 29 32 30 33
REMARK SMILES IDX 31 34 32 35 33 36 34 37 35 38 93 39 36 40 92 41 37 42 38 43
REMARK SMILES IDX 39 44 86 45 40 46 91 47 85 48 87 49 41 50 90 51 84 52 83 53
REMARK SMILES IDX 42 55 72 56 53 57 71 58 54 59 57 60 70 61 88 62 55 63 56 64
REMARK SMILES IDX 69 66 89 67 58 68 43 69 44 70 52 71 45 72 51 73 46 74 47 75
REMARK SMILES IDX 48 76 49 77 50 78 73 79 74 80 82 81 75 82 81 83 76 84 77 85
REMARK SMILES IDX 78 86 79 87 80 88 59 89 60 90 68 91 61 92 67 93 62 94 63 95
REMARK SMILES IDX 64 96 65 97 66 98
REMARK H PARENT 4 25 87 54 57 65
REMARK Flexibility Score: inf
ROOT
ATOM      1  C   UNL A   1      34.610  22.878  23.983  1.00  0.00     0.188 C 
ENDROOT
BRANCH   1   2
ATOM      2  C   UNL A   1      35.814  22.456  24.836  1.00  0.00     0.188 C 
BRANCH   2   3
ATOM      3  O   UNL A   1      36.786  23.485  24.979  1.00  0.00    -0.376 OA
BRANCH   3   4
ATOM      4  C   UNL A   1      37.914  23.249  25.817  1.00  0.00     0.202 C 
BRANCH   4   5
ATOM      5  C   UNL A   1      38.319  24.236  26.928  1.00  0.00     0.261 C 
BRANCH   5   6
ATOM      6  O   UNL A   1      38.961  25.451  26.491  1.00  0.00    -0.462 OA
BRANCH   6   7
ATOM      7  C   UNL A   1      40.305  25.514  26.405  1.00  0.00     0.328 C 
ATOM      8  O   UNL A   1      40.914  26.104  25.521  1.00  0.00    -0.250 OA
BRANCH   7   9
ATOM      9  C   UNL A   1      41.000  24.675  27.500  1.00  0.00     0.195 C 
ATOM     10  N   UNL A   1      42.234  23.916  27.211  1.00  0.00    -0.329 N 
ATOM     11  C   UNL A   1      43.363  24.728  27.641  1.00  0.00     0.120 C 
ATOM     12  C   UNL A   1      42.868  25.397  28.906  1.00  0.00     0.024 C 
ATOM     13  C   UNL A   1      41.391  25.650  28.628  1.00  0.00     0.039 C 
BRANCH  10  14
ATOM     14  C   UNL A   1      42.294  22.538  27.447  1.00  0.00     0.225 C 
ATOM     15  O   UNL A   1      42.907  22.062  28.405  1.00  0.00    -0.275 OA
BRANCH  14  16
ATOM     16  C   UNL A   1      41.784  21.615  26.345  1.00  0.00     0.122 C 
BRANCH  16  17
ATOM     17  C   UNL A   1      42.013  20.109  26.438  1.00  0.00     0.140 C 
BRANCH  17  18
ATOM     18  N   UNL A   1      43.197  19.603  25.756  1.00  0.00    -0.262 N 
ATOM     19  C   UNL A   1      46.527  19.926  24.837  1.00  0.00     0.045 C 
ATOM     20  C   UNL A   1      45.163  19.390  24.436  1.00  0.00     0.115 C 
ATOM     21  C   UNL A   1      45.099  19.130  22.941  1.00  0.00     0.045 C 
ATOM     22  N   UNL A   1      44.834  18.211  25.199  1.00  0.00    -0.324 N 
ATOM     23  C   UNL A   1      44.013  20.311  24.907  1.00  0.00     0.255 C 
ATOM     24  C   UNL A   1      43.753  18.393  26.022  1.00  0.00     0.325 C 
ATOM     25  H   UNL A   1      45.333  17.364  25.136  1.00  0.00     0.166 HD
ATOM     26  O   UNL A   1      43.871  21.482  24.583  1.00  0.00    -0.272 OA
ATOM     27  O   UNL A   1      43.370  17.569  26.834  1.00  0.00    -0.248 OA
ENDBRANCH  17  18
ENDBRANCH  16  17
ENDBRANCH  14  16
ENDBRANCH  10  14
ENDBRANCH   7   9
ENDBRANCH   6   7
ENDBRANCH   5   6
ENDBRANCH   4   5
ENDBRANCH   3   4
ENDBRANCH   2   3
ENDBRANCH   1   2
BRANCH   1  28
ATOM     28  O   UNL A   1      34.687  24.257  23.694  1.00  0.00    -0.377 OA
BRANCH  28  29
ATOM     29  C   UNL A   1      33.716  25.034  24.362  1.00  0.00     0.188 C 
BRANCH  29  30
ATOM     30  C   UNL A   1      32.984  26.149  23.587  1.00  0.00     0.188 C 
BRANCH  30  31
ATOM     31  O   UNL A   1      33.343  27.469  24.022  1.00  0.00    -0.376 OA
BRANCH  31  32
ATOM     32  C   UNL A   1      32.829  27.888  25.283  1.00  0.00     0.202 C 
BRANCH  32  33
ATOM     33  C   UNL A   1      33.356  29.253  25.754  1.00  0.00     0.261 C 
BRANCH  33  34
ATOM     34  O   UNL A   1      34.203  29.224  26.913  1.00  0.00    -0.460 OA
BRANCH  34  35
ATOM     35  C   UNL A   1      34.462  30.396  27.540  1.00  0.00     0.338 C 
ATOM     36  O   UNL A   1      33.647  31.245  27.860  1.00  0.00    -0.246 OA
BRANCH  35  37
ATOM     37  C   UNL A   1      35.868  30.345  28.016  1.00  0.00     0.060 A 
ATOM     38  C   UNL A   1      36.502  29.095  28.067  1.00  0.00     0.016 A 
ATOM     39  C   UNL A   1      36.599  31.513  28.262  1.00  0.00     0.016 A 
ATOM     40  C   UNL A   1      37.862  29.012  28.375  1.00  0.00     0.010 A 
ATOM     41  C   UNL A   1      37.953  31.428  28.604  1.00  0.00     0.010 A 
ATOM     42  C   UNL A   1      38.579  30.174  28.692  1.00  0.00    -0.014 A 
BRANCH  42  43
ATOM     43  C   UNL A   1      39.859  30.044  29.430  1.00  0.00     0.031 A 
ATOM     44  C   UNL A   1      39.820  30.377  30.899  1.00  0.00     0.074 A 
ATOM     45  C   UNL A   1      41.003  29.637  28.853  1.00  0.00     0.049 A 
ATOM     46  N   UNL A   1      40.776  30.330  31.789  1.00  0.00    -0.248 NA
ATOM     47  C   UNL A   1      38.518  30.818  31.432  1.00  0.00     0.031 C 
ATOM     48  C   UNL A   1      41.167  29.258  27.452  1.00  0.00     0.029 A 
ATOM     49  N   UNL A   1      42.256  29.479  29.394  1.00  0.00    -0.354 N 
ATOM     50  C   UNL A   1      40.185  30.716  32.986  1.00  0.00     0.074 A 
ATOM     51  C   UNL A   1      38.802  31.030  32.706  1.00  0.00     0.031 C 
ATOM     52  C   UNL A   1      42.454  28.922  27.240  1.00  0.00     0.029 A 
ATOM     53  C   UNL A   1      43.208  29.080  28.484  1.00  0.00     0.049 A 
ATOM     54  H   UNL A   1      42.456  29.637  30.345  1.00  0.00     0.167 HD
ATOM     55  C   UNL A   1      40.737  30.801  34.217  1.00  0.00     0.031 A 
ATOM     56  C   UNL A   1      44.532  28.880  28.641  1.00  0.00     0.031 A 
ATOM     57  C   UNL A   1      42.123  30.552  34.490  1.00  0.00     0.049 A 
ATOM     58  C   UNL A   1      45.151  29.067  30.005  1.00  0.00     0.074 A 
ATOM     59  C   UNL A   1      42.791  30.638  35.696  1.00  0.00     0.029 A 
ATOM     60  N   UNL A   1      43.056  30.187  33.533  1.00  0.00    -0.354 N 
ATOM     61  N   UNL A   1      44.573  29.401  31.136  1.00  0.00    -0.248 NA
ATOM     62  C   UNL A   1      46.601  28.842  30.117  1.00  0.00     0.031 C 
ATOM     63  C   UNL A   1      44.144  30.371  35.460  1.00  0.00     0.029 A 
ATOM     64  C   UNL A   1      44.303  30.062  34.118  1.00  0.00     0.049 A 
ATOM     65  H   UNL A   1      42.861  30.037  32.580  1.00  0.00     0.167 HD
ATOM     66  C   UNL A   1      45.583  29.403  32.095  1.00  0.00     0.074 A 
ATOM     67  C   UNL A   1      46.805  29.025  31.415  1.00  0.00     0.031 C 
ATOM     68  C   UNL A   1      45.507  29.688  33.420  1.00  0.00     0.031 A 
BRANCH  55  69
ATOM     69  C   UNL A   1      39.829  31.223  35.337  1.00  0.00    -0.014 A 
ATOM     70  C   UNL A   1      38.891  30.326  35.881  1.00  0.00     0.010 A 
ATOM     71  C   UNL A   1      39.892  32.538  35.830  1.00  0.00     0.010 A 
ATOM     72  C   UNL A   1      38.000  30.752  36.869  1.00  0.00     0.020 A 
ATOM     73  C   UNL A   1      39.020  32.959  36.836  1.00  0.00     0.020 A 
ATOM     74  C   UNL A   1      38.066  32.068  37.334  1.00  0.00     0.054 A 
BRANCH  74  75
ATOM     75  S   UNL A   1      36.897  32.597  38.617  1.00  0.00     0.124 S 
ATOM     76  O   UNL A   1      37.777  33.284  39.558  1.00  0.00    -0.237 OA
ATOM     77  O   UNL A   1      35.976  33.457  37.878  1.00  0.00    -0.237 OA
ATOM     78  O   UNL A   1      36.324  31.344  39.100  1.00  0.00    -0.744 OA
ENDBRANCH  74  75
ENDBRANCH  55  69
BRANCH  56  79
ATOM     79  C   UNL A   1      45.376  28.499  27.473  1.00  0.00    -0.014 A 
ATOM     80  C   UNL A   1      45.745  27.159  27.252  1.00  0.00     0.010 A 
ATOM     81  C   UNL A   1      45.822  29.484  26.573  1.00  0.00     0.010 A 
ATOM     82  C   UNL A   1      46.550  26.816  26.159  1.00  0.00     0.020 A 
ATOM     83  C   UNL A   1      46.607  29.142  25.467  1.00  0.00     0.020 A 
ATOM     84  C   UNL A   1      46.972  27.809  25.271  1.00  0.00     0.054 A 
BRANCH  84  85
ATOM     85  S   UNL A   1      47.958  27.333  23.823  1.00  0.00     0.124 S 
ATOM     86  O   UNL A   1      49.286  27.818  24.184  1.00  0.00    -0.237 OA
ATOM     87  O   UNL A   1      47.799  25.882  23.795  1.00  0.00    -0.237 OA
ATOM     88  O   UNL A   1      47.308  28.042  22.722  1.00  0.00    -0.744 OA
ENDBRANCH  84  85
ENDBRANCH  56  79
BRANCH  68  89
ATOM     89  C   UNL A   1      46.768  29.576  34.234  1.00  0.00    -0.014 A 
ATOM     90  C   UNL A   1      47.616  30.681  34.420  1.00  0.00     0.010 A 
ATOM     91  C   UNL A   1      47.062  28.366  34.890  1.00  0.00     0.010 A 
ATOM     92  C   UNL A   1      48.750  30.570  35.228  1.00  0.00     0.020 A 
ATOM     93  C   UNL A   1      48.181  28.259  35.718  1.00  0.00     0.020 A 
ATOM     94  C   UNL A   1      49.026  29.359  35.872  1.00  0.00     0.054 A 
BRANCH  94  95
ATOM     95  S   UNL A   1      50.476  29.255  36.957  1.00  0.00     0.124 S 
ATOM     96  O   UNL A   1      50.615  27.813  37.140  1.00  0.00    -0.237 OA
ATOM     97  O   UNL A   1      51.522  29.892  36.160  1.00  0.00    -0.237 OA
ATOM     98  O   UNL A   1      50.070  29.998  38.148  1.00  0.00    -0.744 OA
ENDBRANCH  94  95
ENDBRANCH  68  89
ENDBRANCH  42  43
ENDBRANCH  35  37
ENDBRANCH  34  35
ENDBRANCH  33  34
ENDBRANCH  32  33
ENDBRANCH  31  32
ENDBRANCH  30  31
ENDBRANCH  29  30
ENDBRANCH  28  29
ENDBRANCH   1  28
TORSDOF 27
ENDMDL
MODEL 2
REMARK VINA RESULT:      -7.5      4.061     10.967
REMARK SMILES CC1(C)NC(=O)N(CCC(=O)N2CCC[C@H]2C(=O)OCCOCCOCCOCCOC(=O)c2ccc(-c3c4nc(c(-c5ccc(S(=O)(=O)[O-])cc5)c5ccc([nH]5)c(-c5ccc(S(=O)(=O)[O-])cc5)c5nc(c(-c6ccc(S(=O)(=O)[O-])cc6)c6ccc3[nH]6)C=C5)C=C4)cc2)C1=O
REMARK SMILES IDX 24 1 23 2 22 3 21 4 20 5 19 6 17 7 18 8 16 9 12 10 13 11
REMARK SMILES IDX 14 12 15 13 10 14 11 15 9 16 8 17 7 18 1 19 2 20 3 21 4 22
REMARK SMILES IDX 94 23 5 24 95 26 6 27 25 28 26 29 27 30 28 31 29 32 30 33
REMARK SMILES IDX 31 34 32 35 33 36 34 37 35 38 93 39 36 40 92 41 37 42 38 43
REMARK SMILES IDX 39 44 86 45 40 46 91 47 85 48 87 49 41 50 90 51 84 52 83 53
REMARK SMILES IDX 42 55 72 56 53 57 71 58 54 59 57 60 70 61 88 62 55 63 56 64
REMARK SMILES IDX 69 66 89 67 58 68 43 69 44 70 52 71 45 72 51 73 46 74 47 75
REMARK SMILES IDX 48 76 49 77 50 78 73 79 74 80 82 81 75 82 81 83 76 84 77 85
REMARK SMILES IDX 78 86 79 87 80 88 59 89 60 90 68 91 61 92 67 93 62 94 63 95
REMARK SMILES IDX 64 96 65 97 66 98
REMARK H PARENT 4 25 87 54 57 65
REMARK Flexibility Score: inf
ROOT
ATOM      1  C   UNL A   1      35.764  20.877  24.963  1.00  0.00     0.188 C 
ENDROOT
BRANCH   1   2
ATOM      2  C   UNL A   1      35.263  21.724  26.141  1.00  0.00     0.188 C 
BRANCH   2   3
ATOM      3  O   UNL A   1      33.994  21.305  26.630  1.00  0.00    -0.376 OA
BRANCH   3   4
ATOM      4  C   UNL A   1      33.230  20.387  25.853  1.00  0.00     0.202 C 
BRANCH   4   5
ATOM      5  C   UNL A   1      32.046  20.850  24.984  1.00  0.00     0.261 C 
BRANCH   5   6
ATOM      6  O   UNL A   1      31.911  22.274  24.804  1.00  0.00    -0.462 OA
BRANCH   6   7
ATOM      7  C   UNL A   1      32.426  22.870  23.711  1.00  0.00     0.328 C 
ATOM      8  O   UNL A   1      33.009  22.278  22.811  1.00  0.00    -0.250 OA
BRANCH   7   9
ATOM      9  C   UNL A   1      32.280  24.407  23.761  1.00  0.00     0.195 C 
ATOM     10  N   UNL A   1      31.284  25.107  22.924  1.00  0.00    -0.329 N 
ATOM     11  C   UNL A   1      30.104  25.341  23.743  1.00  0.00     0.120 C 
ATOM     12  C   UNL A   1      30.670  25.662  25.111  1.00  0.00     0.024 C 
ATOM     13  C   UNL A   1      31.903  24.772  25.211  1.00  0.00     0.039 C 
BRANCH  10  14
ATOM     14  C   UNL A   1      31.681  26.122  22.045  1.00  0.00     0.225 C 
ATOM     15  O   UNL A   1      32.546  25.944  21.184  1.00  0.00    -0.275 OA
BRANCH  14  16
ATOM     16  C   UNL A   1      31.190  27.535  22.340  1.00  0.00     0.122 C 
BRANCH  16  17
ATOM     17  C   UNL A   1      32.184  28.631  22.714  1.00  0.00     0.140 C 
BRANCH  17  18
ATOM     18  N   UNL A   1      32.536  28.715  24.124  1.00  0.00    -0.262 N 
ATOM     19  C   UNL A   1      31.667  28.498  27.477  1.00  0.00     0.045 C 
ATOM     20  C   UNL A   1      32.557  29.186  26.455  1.00  0.00     0.115 C 
ATOM     21  C   UNL A   1      33.104  30.492  27.003  1.00  0.00     0.045 C 
ATOM     22  N   UNL A   1      33.612  28.303  26.021  1.00  0.00    -0.324 N 
ATOM     23  C   UNL A   1      31.840  29.388  25.099  1.00  0.00     0.255 C 
ATOM     24  C   UNL A   1      33.521  27.973  24.695  1.00  0.00     0.325 C 
ATOM     25  H   UNL A   1      34.325  27.971  26.616  1.00  0.00     0.166 HD
ATOM     26  O   UNL A   1      30.813  30.032  24.935  1.00  0.00    -0.272 OA
ATOM     27  O   UNL A   1      34.239  27.156  24.146  1.00  0.00    -0.248 OA
ENDBRANCH  17  18
ENDBRANCH  16  17
ENDBRANCH  14  16
ENDBRANCH  10  14
ENDBRANCH   7   9
ENDBRANCH   6   7
ENDBRANCH   5   6
ENDBRANCH   4   5
ENDBRANCH   3   4
ENDBRANCH   2   3
ENDBRANCH   1   2
BRANCH   1  28
ATOM     28  O   UNL A   1      37.043  21.321  24.565  1.00  0.00    -0.377 OA
BRANCH  28  29
ATOM     29  C   UNL A   1      37.826  21.829  25.624  1.00  0.00     0.188 C 
BRANCH  29  30
ATOM     30  C   UNL A   1      39.245  21.269  25.845  1.00  0.00     0.188 C 
BRANCH  30  31
ATOM     31  O   UNL A   1      39.780  21.579  27.140  1.00  0.00    -0.376 OA
BRANCH  31  32
ATOM     32  C   UNL A   1      41.200  21.647  27.245  1.00  0.00     0.202 C 
BRANCH  32  33
ATOM     33  C   UNL A   1      41.947  21.044  26.045  1.00  0.00     0.261 C 
BRANCH  33  34
ATOM     34  O   UNL A   1      43.362  21.287  26.011  1.00  0.00    -0.460 OA
BRANCH  34  35
ATOM     35  C   UNL A   1      43.810  22.338  25.284  1.00  0.00     0.338 C 
ATOM     36  O   UNL A   1      43.629  22.528  24.094  1.00  0.00    -0.246 OA
BRANCH  35  37
ATOM     37  C   UNL A   1      44.322  23.354  26.239  1.00  0.00     0.060 A 
ATOM     38  C   UNL A   1      44.610  22.942  27.548  1.00  0.00     0.016 A 
ATOM     39  C   UNL A   1      44.660  24.646  25.820  1.00  0.00     0.016 A 
ATOM     40  C   UNL A   1      45.222  23.825  28.441  1.00  0.00     0.010 A 
ATOM     41  C   UNL A   1      45.242  25.541  26.723  1.00  0.00     0.010 A 
ATOM     42  C   UNL A   1      45.495  25.142  28.046  1.00  0.00    -0.014 A 
BRANCH  42  43
ATOM     43  C   UNL A   1      45.720  26.169  29.091  1.00  0.00     0.031 A 
ATOM     44  C   UNL A   1      47.144  26.364  29.542  1.00  0.00     0.074 A 
ATOM     45  C   UNL A   1      44.731  26.915  29.616  1.00  0.00     0.049 A 
ATOM     46  N   UNL A   1      47.634  27.201  30.418  1.00  0.00    -0.248 NA
ATOM     47  C   UNL A   1      48.152  25.493  28.910  1.00  0.00     0.031 C 
ATOM     48  C   UNL A   1      43.320  26.845  29.245  1.00  0.00     0.029 A 
ATOM     49  N   UNL A   1      44.778  27.885  30.586  1.00  0.00    -0.354 N 
ATOM     50  C   UNL A   1      49.004  26.970  30.424  1.00  0.00     0.074 A 
ATOM     51  C   UNL A   1      49.266  25.893  29.498  1.00  0.00     0.031 C 
ATOM     52  C   UNL A   1      42.630  27.729  29.992  1.00  0.00     0.029 A 
ATOM     53  C   UNL A   1      43.548  28.413  30.904  1.00  0.00     0.049 A 
ATOM     54  H   UNL A   1      45.614  28.177  31.016  1.00  0.00     0.167 HD
ATOM     55  C   UNL A   1      49.967  27.599  31.134  1.00  0.00     0.031 A 
ATOM     56  C   UNL A   1      43.208  29.331  31.832  1.00  0.00     0.031 A 
ATOM     57  C   UNL A   1      49.707  28.625  32.101  1.00  0.00     0.049 A 
ATOM     58  C   UNL A   1      44.287  29.959  32.681  1.00  0.00     0.074 A 
ATOM     59  C   UNL A   1      50.608  29.307  32.896  1.00  0.00     0.029 A 
ATOM     60  N   UNL A   1      48.445  29.102  32.417  1.00  0.00    -0.354 N 
ATOM     61  N   UNL A   1      45.584  29.753  32.653  1.00  0.00    -0.248 NA
ATOM     62  C   UNL A   1      43.858  30.949  33.681  1.00  0.00     0.031 C 
ATOM     63  C   UNL A   1      49.884  30.165  33.730  1.00  0.00     0.029 A 
ATOM     64  C   UNL A   1      48.539  30.057  33.412  1.00  0.00     0.049 A 
ATOM     65  H   UNL A   1      47.606  28.805  31.995  1.00  0.00     0.167 HD
ATOM     66  C   UNL A   1      46.125  30.604  33.613  1.00  0.00     0.074 A 
ATOM     67  C   UNL A   1      45.018  31.335  34.195  1.00  0.00     0.031 C 
ATOM     68  C   UNL A   1      47.422  30.770  33.978  1.00  0.00     0.031 A 
BRANCH  55  69
ATOM     69  C   UNL A   1      51.381  27.144  30.905  1.00  0.00    -0.014 A 
ATOM     70  C   UNL A   1      51.942  26.114  31.682  1.00  0.00     0.010 A 
ATOM     71  C   UNL A   1      52.167  27.774  29.924  1.00  0.00     0.010 A 
ATOM     72  C   UNL A   1      53.280  25.752  31.513  1.00  0.00     0.020 A 
ATOM     73  C   UNL A   1      53.499  27.396  29.735  1.00  0.00     0.020 A 
ATOM     74  C   UNL A   1      54.052  26.402  30.545  1.00  0.00     0.054 A 
BRANCH  74  75
ATOM     75  S   UNL A   1      55.787  25.915  30.346  1.00  0.00     0.124 S 
ATOM     76  O   UNL A   1      56.042  25.199  31.593  1.00  0.00    -0.237 OA
ATOM     77  O   UNL A   1      55.753  25.087  29.143  1.00  0.00    -0.237 OA
ATOM     78  O   UNL A   1      56.489  27.187  30.203  1.00  0.00    -0.744 OA
ENDBRANCH  74  75
ENDBRANCH  55  69
BRANCH  56  79
ATOM     79  C   UNL A   1      41.778  29.703  32.028  1.00  0.00    -0.014 A 
ATOM     80  C   UNL A   1      40.919  28.900  32.801  1.00  0.00     0.010 A 
ATOM     81  C   UNL A   1      41.264  30.870  31.432  1.00  0.00     0.010 A 
ATOM     82  C   UNL A   1      39.575  29.253  32.966  1.00  0.00     0.020 A 
ATOM     83  C   UNL A   1      39.926  31.237  31.614  1.00  0.00     0.020 A 
ATOM     84  C   UNL A   1      39.088  30.421  32.375  1.00  0.00     0.054 A 
BRANCH  84  85
ATOM     85  S   UNL A   1      37.359  30.896  32.659  1.00  0.00     0.124 S 
ATOM     86  O   UNL A   1      36.658  29.632  32.461  1.00  0.00    -0.237 OA
ATOM     87  O   UNL A   1      37.389  31.397  34.030  1.00  0.00    -0.237 OA
ATOM     88  O   UNL A   1      37.115  31.916  31.639  1.00  0.00    -0.744 OA
ENDBRANCH  84  85
ENDBRANCH  56  79
BRANCH  68  89
ATOM     89  C   UNL A   1      47.726  31.798  35.035  1.00  0.00    -0.014 A 
ATOM     90  C   UNL A   1      47.954  33.143  34.698  1.00  0.00     0.010 A 
ATOM     91  C   UNL A   1      47.699  31.424  36.391  1.00  0.00     0.010 A 
ATOM     92  C   UNL A   1      48.176  34.092  35.700  1.00  0.00     0.020 A 
ATOM     93  C   UNL A   1      47.895  32.374  37.395  1.00  0.00     0.020 A 
ATOM     94  C   UNL A   1      48.146  33.701  37.043  1.00  0.00     0.054 A 
BRANCH  94  95
ATOM     95  S   UNL A   1      48.384  34.960  38.326  1.00  0.00     0.124 S 
ATOM     96  O   UNL A   1      47.339  34.616  39.286  1.00  0.00    -0.237 OA
ATOM     97  O   UNL A   1      49.754  34.712  38.771  1.00  0.00    -0.237 OA
ATOM     98  O   UNL A   1      48.186  36.221  37.614  1.00  0.00    -0.744 OA
ENDBRANCH  94  95
ENDBRANCH  68  89
ENDBRANCH  42  43
ENDBRANCH  35  37
ENDBRANCH  34  35
ENDBRANCH  33  34
ENDBRANCH  32  33
ENDBRANCH  31  32
ENDBRANCH  30  31
ENDBRANCH  29  30
ENDBRANCH  28  29
ENDBRANCH   1  28
TORSDOF 27
ENDMDL
MODEL 3
REMARK VINA RESULT:      -7.3      5.645     12.268
REMARK SMILES CC1(C)NC(=O)N(CCC(=O)N2CCC[C@H]2C(=O)OCCOCCOCCOCCOC(=O)c2ccc(-c3c4nc(c(-c5ccc(S(=O)(=O)[O-])cc5)c5ccc([nH]5)c(-c5ccc(S(=O)(=O)[O-])cc5)c5nc(c(-c6ccc(S(=O)(=O)[O-])cc6)c6ccc3[nH]6)C=C5)C=C4)cc2)C1=O
REMARK SMILES IDX 24 1 23 2 22 3 21 4 20 5 19 6 17 7 18 8 16 9 12 10 13 11
REMARK SMILES IDX 14 12 15 13 10 14 11 15 9 16 8 17 7 18 1 19 2 20 3 21 4 22
REMARK SMILES IDX 94 23 5 24 95 26 6 27 25 28 26 29 27 30 28 31 29 32 30 33
REMARK SMILES IDX 31 34 32 35 33 36 34 37 35 38 93 39 36 40 92 41 37 42 38 43
REMARK SMILES IDX 39 44 86 45 40 46 91 47 85 48 87 49 41 50 90 51 84 52 83 53
REMARK SMILES IDX 42 55 72 56 53 57 71 58 54 59 57 60 70 61 88 62 55 63 56 64
REMARK SMILES IDX 69 66 89 67 58 68 43 69 44 70 52 71 45 72 51 73 46 74 47 75
REMARK SMILES IDX 48 76 49 77 50 78 73 79 74 80 82 81 75 82 81 83 76 84 77 85
REMARK SMILES IDX 78 86 79 87 80 88 59 89 60 90 68 91 61 92 67 93 62 94 63 95
REMARK SMILES IDX 64 96 65 97 66 98
REMARK H PARENT 4 25 87 54 57 65
REMARK Flexibility Score: inf
ROOT
ATOM      1  C   UNL A   1      35.681  20.647  25.062  1.00  0.00     0.188 C 
ENDROOT
BRANCH   1   2
ATOM      2  C   UNL A   1      34.969  21.457  26.154  1.00  0.00     0.188 C 
BRANCH   2   3
ATOM      3  O   UNL A   1      33.638  21.015  26.400  1.00  0.00    -0.376 OA
BRANCH   3   4
ATOM      4  C   UNL A   1      33.015  20.159  25.446  1.00  0.00     0.202 C 
BRANCH   4   5
ATOM      5  C   UNL A   1      32.180  20.720  24.280  1.00  0.00     0.261 C 
BRANCH   5   6
ATOM      6  O   UNL A   1      32.048  22.155  24.227  1.00  0.00    -0.462 OA
BRANCH   6   7
ATOM      7  C   UNL A   1      32.839  22.878  23.410  1.00  0.00     0.328 C 
ATOM      8  O   UNL A   1      33.686  22.400  22.667  1.00  0.00    -0.250 OA
BRANCH   7   9
ATOM      9  C   UNL A   1      32.622  24.398  23.584  1.00  0.00     0.195 C 
ATOM     10  N   UNL A   1      31.612  25.120  22.783  1.00  0.00    -0.329 N 
ATOM     11  C   UNL A   1      30.406  25.234  23.590  1.00  0.00     0.120 C 
ATOM     12  C   UNL A   1      30.928  25.464  24.993  1.00  0.00     0.024 C 
ATOM     13  C   UNL A   1      32.199  24.624  25.049  1.00  0.00     0.039 C 
BRANCH  10  14
ATOM     14  C   UNL A   1      31.980  26.222  22.000  1.00  0.00     0.225 C 
ATOM     15  O   UNL A   1      32.889  26.162  21.170  1.00  0.00    -0.275 OA
BRANCH  14  16
ATOM     16  C   UNL A   1      31.388  27.576  22.376  1.00  0.00     0.122 C 
BRANCH  16  17
ATOM     17  C   UNL A   1      32.302  28.720  22.806  1.00  0.00     0.140 C 
BRANCH  17  18
ATOM     18  N   UNL A   1      32.595  28.800  24.230  1.00  0.00    -0.262 N 
ATOM     19  C   UNL A   1      31.586  28.566  27.542  1.00  0.00     0.045 C 
ATOM     20  C   UNL A   1      32.516  29.262  26.562  1.00  0.00     0.115 C 
ATOM     21  C   UNL A   1      33.034  30.568  27.137  1.00  0.00     0.045 C 
ATOM     22  N   UNL A   1      33.592  28.384  26.169  1.00  0.00    -0.324 N 
ATOM     23  C   UNL A   1      31.855  29.466  25.177  1.00  0.00     0.255 C 
ATOM     24  C   UNL A   1      33.557  28.060  24.839  1.00  0.00     0.325 C 
ATOM     25  H   UNL A   1      34.280  28.053  26.792  1.00  0.00     0.166 HD
ATOM     26  O   UNL A   1      30.833  30.107  24.973  1.00  0.00    -0.272 OA
ATOM     27  O   UNL A   1      34.301  27.248  24.317  1.00  0.00    -0.248 OA
ENDBRANCH  17  18
ENDBRANCH  16  17
ENDBRANCH  14  16
ENDBRANCH  10  14
ENDBRANCH   7   9
ENDBRANCH   6   7
ENDBRANCH   5   6
ENDBRANCH   4   5
ENDBRANCH   3   4
ENDBRANCH   2   3
ENDBRANCH   1   2
BRANCH   1  28
ATOM     28  O   UNL A   1      36.938  21.223  24.782  1.00  0.00    -0.377 OA
BRANCH  28  29
ATOM     29  C   UNL A   1      37.459  21.998  25.841  1.00  0.00     0.188 C 
BRANCH  29  30
ATOM     30  C   UNL A   1      38.964  22.334  25.856  1.00  0.00     0.188 C 
BRANCH  30  31
ATOM     31  O   UNL A   1      39.491  22.507  27.180  1.00  0.00    -0.376 OA
BRANCH  31  32
ATOM     32  C   UNL A   1      40.350  23.625  27.384  1.00  0.00     0.202 C 
BRANCH  32  33
ATOM     33  C   UNL A   1      40.273  24.686  26.275  1.00  0.00     0.261 C 
BRANCH  33  34
ATOM     34  O   UNL A   1      41.522  25.294  25.910  1.00  0.00    -0.460 OA
BRANCH  34  35
ATOM     35  C   UNL A   1      41.786  26.536  26.379  1.00  0.00     0.338 C 
ATOM     36  O   UNL A   1      40.978  27.432  26.559  1.00  0.00    -0.246 OA
BRANCH  35  37
ATOM     37  C   UNL A   1      43.178  26.532  26.895  1.00  0.00     0.060 A 
ATOM     38  C   UNL A   1      43.875  25.314  26.901  1.00  0.00     0.016 A 
ATOM     39  C   UNL A   1      43.841  27.721  27.222  1.00  0.00     0.016 A 
ATOM     40  C   UNL A   1      45.228  25.283  27.247  1.00  0.00     0.010 A 
ATOM     41  C   UNL A   1      45.187  27.686  27.600  1.00  0.00     0.010 A 
ATOM     42  C   UNL A   1      45.875  26.462  27.644  1.00  0.00    -0.014 A 
BRANCH  42  43
ATOM     43  C   UNL A   1      47.138  26.358  28.414  1.00  0.00     0.031 A 
ATOM     44  C   UNL A   1      48.415  26.497  27.626  1.00  0.00     0.074 A 
ATOM     45  C   UNL A   1      47.176  26.168  29.744  1.00  0.00     0.049 A 
ATOM     46  N   UNL A   1      49.655  26.472  28.038  1.00  0.00    -0.248 NA
ATOM     47  C   UNL A   1      48.265  26.697  26.173  1.00  0.00     0.031 C 
ATOM     48  C   UNL A   1      46.015  26.047  30.624  1.00  0.00     0.029 A 
ATOM     49  N   UNL A   1      48.252  26.041  30.588  1.00  0.00    -0.354 N 
ATOM     50  C   UNL A   1      50.427  26.673  26.900  1.00  0.00     0.074 A 
ATOM     51  C   UNL A   1      49.524  26.779  25.777  1.00  0.00     0.031 C 
ATOM     52  C   UNL A   1      46.444  25.851  31.885  1.00  0.00     0.029 A 
ATOM     53  C   UNL A   1      47.907  25.813  31.900  1.00  0.00     0.049 A 
ATOM     54  H   UNL A   1      49.186  26.106  30.283  1.00  0.00     0.167 HD
ATOM     55  C   UNL A   1      51.770  26.765  26.792  1.00  0.00     0.031 A 
ATOM     56  C   UNL A   1      48.685  25.589  32.978  1.00  0.00     0.031 A 
ATOM     57  C   UNL A   1      52.675  26.597  27.892  1.00  0.00     0.049 A 
ATOM     58  C   UNL A   1      50.187  25.605  32.823  1.00  0.00     0.074 A 
ATOM     59  C   UNL A   1      54.056  26.642  27.885  1.00  0.00     0.029 A 
ATOM     60  N   UNL A   1      52.283  26.331  29.194  1.00  0.00    -0.354 N 
ATOM     61  N   UNL A   1      50.903  25.828  31.744  1.00  0.00    -0.248 NA
ATOM     62  C   UNL A   1      50.986  25.347  34.031  1.00  0.00     0.031 C 
ATOM     63  C   UNL A   1      54.503  26.355  29.179  1.00  0.00     0.029 A 
ATOM     64  C   UNL A   1      53.398  26.189  30.000  1.00  0.00     0.049 A 
ATOM     65  H   UNL A   1      51.351  26.256  29.501  1.00  0.00     0.167 HD
ATOM     66  C   UNL A   1      52.233  25.761  32.151  1.00  0.00     0.074 A 
ATOM     67  C   UNL A   1      52.223  25.489  33.573  1.00  0.00     0.031 C 
ATOM     68  C   UNL A   1      53.363  25.915  31.414  1.00  0.00     0.031 A 
BRANCH  55  69
ATOM     69  C   UNL A   1      52.322  27.018  25.417  1.00  0.00    -0.014 A 
ATOM     70  C   UNL A   1      52.405  28.326  24.904  1.00  0.00     0.010 A 
ATOM     71  C   UNL A   1      52.731  25.937  24.617  1.00  0.00     0.010 A 
ATOM     72  C   UNL A   1      52.848  28.543  23.597  1.00  0.00     0.020 A 
ATOM     73  C   UNL A   1      53.197  26.153  23.319  1.00  0.00     0.020 A 
ATOM     74  C   UNL A   1      53.232  27.453  22.810  1.00  0.00     0.054 A 
BRANCH  74  75
ATOM     75  S   UNL A   1      53.801  27.761  21.116  1.00  0.00     0.124 S 
ATOM     76  O   UNL A   1      55.205  28.102  21.329  1.00  0.00    -0.237 OA
ATOM     77  O   UNL A   1      53.560  26.480  20.457  1.00  0.00    -0.237 OA
ATOM     78  O   UNL A   1      52.954  28.861  20.661  1.00  0.00    -0.744 OA
ENDBRANCH  74  75
ENDBRANCH  55  69
BRANCH  56  79
ATOM     79  C   UNL A   1      48.064  25.306  34.304  1.00  0.00    -0.014 A 
ATOM     80  C   UNL A   1      47.782  23.988  34.706  1.00  0.00     0.010 A 
ATOM     81  C   UNL A   1      47.745  26.366  35.173  1.00  0.00     0.010 A 
ATOM     82  C   UNL A   1      47.186  23.737  35.948  1.00  0.00     0.020 A 
ATOM     83  C   UNL A   1      47.170  26.116  36.424  1.00  0.00     0.020 A 
ATOM     84  C   UNL A   1      46.888  24.802  36.801  1.00  0.00     0.054 A 
BRANCH  84  85
ATOM     85  S   UNL A   1      46.178  24.450  38.434  1.00  0.00     0.124 S 
ATOM     86  O   UNL A   1      45.382  23.256  38.170  1.00  0.00    -0.237 OA
ATOM     87  O   UNL A   1      47.366  24.250  39.259  1.00  0.00    -0.237 OA
ATOM     88  O   UNL A   1      45.415  25.659  38.741  1.00  0.00    -0.744 OA
ENDBRANCH  84  85
ENDBRANCH  56  79
BRANCH  68  89
ATOM     89  C   UNL A   1      54.683  25.823  32.130  1.00  0.00    -0.014 A 
ATOM     90  C   UNL A   1      55.355  24.596  32.266  1.00  0.00     0.010 A 
ATOM     91  C   UNL A   1      55.299  26.998  32.600  1.00  0.00     0.010 A 
ATOM     92  C   UNL A   1      56.608  24.543  32.882  1.00  0.00     0.020 A 
ATOM     93  C   UNL A   1      56.562  26.952  33.194  1.00  0.00     0.020 A 
ATOM     94  C   UNL A   1      57.203  25.722  33.343  1.00  0.00     0.054 A 
BRANCH  94  95
ATOM     95  S   UNL A   1      58.853  25.635  34.093  1.00  0.00     0.124 S 
ATOM     96  O   UNL A   1      59.517  24.645  33.250  1.00  0.00    -0.237 OA
ATOM     97  O   UNL A   1      59.342  27.005  33.958  1.00  0.00    -0.237 OA
ATOM     98  O   UNL A   1      58.587  25.207  35.465  1.00  0.00    -0.744 OA
ENDBRANCH  94  95
ENDBRANCH  68  89
ENDBRANCH  42  43
ENDBRANCH  35  37
ENDBRANCH  34  35
ENDBRANCH  33  34
ENDBRANCH  32  33
ENDBRANCH  31  32
ENDBRANCH  30  31
ENDBRANCH  29  30
ENDBRANCH  28  29
ENDBRANCH   1  28
TORSDOF 27
ENDMDL
