MODEL 1
REMARK VINA RESULT:      -6.1      0.000      0.000
REMARK SMILES CC[C@@](C)([NH2+]CC(=O)N[C@@H](C)C(C)C)C(=O)OCCOCCOCCOCCOC(=O)c1ccc(-c2c3nc(c(-c4ccc(S(=O)(=O)[O-])cc4)c4ccc([nH]4)c(-c4ccc(S(=O)(=O)[O-])cc4)c4nc(c(-c5ccc(S(=O)(=O)[O-])cc5)c5ccc2[nH]5)C=C4)C=C3)cc1
REMARK SMILES IDX 22 1 21 2 20 3 19 4 18 5 17 6 15 7 16 8 3 9 4 10 2 11 1 12
REMARK SMILES IDX 5 13 6 16 7 17 8 18 9 19 10 21 11 22 12 23 13 24 14 25 23 26
REMARK SMILES IDX 24 27 25 28 26 29 27 30 28 31 29 32 30 33 31 34 32 35 33 36
REMARK SMILES IDX 91 37 34 38 90 39 35 40 36 41 37 42 84 43 38 44 89 45 83 46
REMARK SMILES IDX 85 47 39 48 88 49 82 50 81 51 40 53 70 54 51 55 69 56 52 57
REMARK SMILES IDX 55 58 68 59 86 60 53 61 54 62 67 64 87 65 56 66 41 67 42 68
REMARK SMILES IDX 50 69 43 70 49 71 44 72 45 73 46 74 47 75 48 76 71 77 72 78
REMARK SMILES IDX 80 79 73 80 79 81 74 82 75 83 76 84 77 85 78 86 57 87 58 88
REMARK SMILES IDX 66 89 59 90 65 91 60 92 61 93 62 94 63 95 64 96
REMARK H PARENT 5 14 5 15 9 20 85 52 55 63
REMARK Flexibility Score: inf
ROOT
ATOM      1  C   UNL A   1      42.001  23.273  25.820  1.00  0.00     0.188 C 
ENDROOT
BRANCH   1   2
ATOM      2  C   UNL A   1      41.219  24.585  26.035  1.00  0.00     0.188 C 
BRANCH   2   3
ATOM      3  O   UNL A   1      40.612  24.664  27.321  1.00  0.00    -0.376 OA
BRANCH   3   4
ATOM      4  C   UNL A   1      39.301  24.127  27.445  1.00  0.00     0.202 C 
BRANCH   4   5
ATOM      5  C   UNL A   1      38.366  24.150  26.235  1.00  0.00     0.261 C 
BRANCH   5   6
ATOM      6  O   UNL A   1      37.063  23.585  26.458  1.00  0.00    -0.459 OA
BRANCH   6   7
ATOM      7  C   UNL A   1      36.475  22.623  25.706  1.00  0.00     0.367 C 
ATOM      8  O   UNL A   1      36.992  21.544  25.448  1.00  0.00    -0.245 OA
BRANCH   7   9
ATOM      9  C   UNL A   1      35.045  23.099  25.235  1.00  0.00     0.191 C 
ATOM     10  C   UNL A   1      34.145  22.084  24.518  1.00  0.00     0.092 C 
BRANCH   9  11
ATOM     11  C   UNL A   1      34.282  23.476  26.547  1.00  0.00     0.077 C 
ATOM     12  C   UNL A   1      32.995  22.667  26.777  1.00  0.00     0.011 C 
ENDBRANCH   9  11
BRANCH   9  13
ATOM     13  N   UNL A   1      35.131  24.272  24.304  1.00  0.00    -0.325 N 
ATOM     14  H   UNL A   1      35.231  23.901  23.360  1.00  0.00     0.347 HD
ATOM     15  H   UNL A   1      35.919  24.814  24.660  1.00  0.00     0.347 HD
BRANCH  13  16
ATOM     16  C   UNL A   1      33.999  25.247  24.278  1.00  0.00     0.362 C 
BRANCH  16  17
ATOM     17  C   UNL A   1      33.177  25.317  22.979  1.00  0.00     0.275 C 
ATOM     18  O   UNL A   1      33.482  24.618  22.006  1.00  0.00    -0.268 OA
ATOM     19  N   UNL A   1      32.082  26.149  22.861  1.00  0.00    -0.349 N 
ATOM     20  H   UNL A   1      31.448  25.911  22.146  1.00  0.00     0.163 HD
BRANCH  19  21
ATOM     21  C   UNL A   1      31.728  27.334  23.645  1.00  0.00     0.081 C 
ATOM     22  C   UNL A   1      31.178  28.442  22.730  1.00  0.00     0.031 C 
BRANCH  21  23
ATOM     23  C   UNL A   1      30.770  27.086  24.831  1.00  0.00     0.005 C 
ATOM     24  C   UNL A   1      30.201  25.667  24.806  1.00  0.00     0.009 C 
ATOM     25  C   UNL A   1      31.493  27.345  26.169  1.00  0.00     0.009 C 
ENDBRANCH  21  23
ENDBRANCH  19  21
ENDBRANCH  16  17
ENDBRANCH  13  16
ENDBRANCH   9  13
ENDBRANCH   7   9
ENDBRANCH   6   7
ENDBRANCH   5   6
ENDBRANCH   4   5
ENDBRANCH   3   4
ENDBRANCH   2   3
ENDBRANCH   1   2
BRANCH   1  26
ATOM     26  O   UNL A   1      43.378  23.463  25.546  1.00  0.00    -0.377 OA
BRANCH  26  27
ATOM     27  C   UNL A   1      44.103  24.396  26.335  1.00  0.00     0.188 C 
BRANCH  27  28
ATOM     28  C   UNL A   1      45.406  25.038  25.815  1.00  0.00     0.188 C 
BRANCH  28  29
ATOM     29  O   UNL A   1      46.305  25.499  26.819  1.00  0.00    -0.376 OA
BRANCH  29  30
ATOM     30  C   UNL A   1      46.366  26.894  27.079  1.00  0.00     0.202 C 
BRANCH  30  31
ATOM     31  C   UNL A   1      45.349  27.773  26.334  1.00  0.00     0.261 C 
BRANCH  31  32
ATOM     32  O   UNL A   1      45.909  28.872  25.598  1.00  0.00    -0.460 OA
BRANCH  32  33
ATOM     33  C   UNL A   1      46.999  29.459  26.122  1.00  0.00     0.338 C 
ATOM     34  O   UNL A   1      48.163  29.327  25.748  1.00  0.00    -0.246 OA
BRANCH  33  35
ATOM     35  C   UNL A   1      46.566  30.455  27.112  1.00  0.00     0.060 A 
ATOM     36  C   UNL A   1      47.482  30.867  28.086  1.00  0.00     0.016 A 
ATOM     37  C   UNL A   1      45.259  30.952  27.103  1.00  0.00     0.016 A 
ATOM     38  C   UNL A   1      47.074  31.726  29.100  1.00  0.00     0.010 A 
ATOM     39  C   UNL A   1      44.844  31.798  28.134  1.00  0.00     0.010 A 
ATOM     40  C   UNL A   1      45.738  32.145  29.162  1.00  0.00    -0.014 A 
BRANCH  40  41
ATOM     41  C   UNL A   1      45.248  32.736  30.428  1.00  0.00     0.031 A 
ATOM     42  C   UNL A   1      45.127  34.235  30.510  1.00  0.00     0.074 A 
ATOM     43  C   UNL A   1      44.833  31.960  31.444  1.00  0.00     0.049 A 
ATOM     44  N   UNL A   1      44.648  34.977  31.474  1.00  0.00    -0.248 NA
ATOM     45  C   UNL A   1      45.600  35.000  29.341  1.00  0.00     0.031 C 
ATOM     46  C   UNL A   1      44.867  30.499  31.464  1.00  0.00     0.029 A 
ATOM     47  N   UNL A   1      44.287  32.303  32.655  1.00  0.00    -0.354 N 
ATOM     48  C   UNL A   1      44.747  36.288  31.025  1.00  0.00     0.074 A 
ATOM     49  C   UNL A   1      45.373  36.247  29.723  1.00  0.00     0.031 C 
ATOM     50  C   UNL A   1      44.366  30.070  32.636  1.00  0.00     0.029 A 
ATOM     51  C   UNL A   1      43.992  31.224  33.451  1.00  0.00     0.049 A 
ATOM     52  H   UNL A   1      44.124  33.236  32.928  1.00  0.00     0.167 HD
ATOM     53  C   UNL A   1      44.338  37.425  31.633  1.00  0.00     0.031 A 
ATOM     54  C   UNL A   1      43.486  31.177  34.699  1.00  0.00     0.031 A 
ATOM     55  C   UNL A   1      43.742  37.469  32.941  1.00  0.00     0.049 A 
ATOM     56  C   UNL A   1      43.104  32.464  35.387  1.00  0.00     0.074 A 
ATOM     57  C   UNL A   1      43.309  38.572  33.655  1.00  0.00     0.029 A 
ATOM     58  N   UNL A   1      43.502  36.358  33.735  1.00  0.00    -0.354 N 
ATOM     59  N   UNL A   1      43.186  33.696  34.940  1.00  0.00    -0.248 NA
ATOM     60  C   UNL A   1      42.543  32.350  36.740  1.00  0.00     0.031 C 
ATOM     61  C   UNL A   1      42.852  38.132  34.903  1.00  0.00     0.029 A 
ATOM     62  C   UNL A   1      42.943  36.749  34.940  1.00  0.00     0.049 A 
ATOM     63  H   UNL A   1      43.699  35.427  33.480  1.00  0.00     0.167 HD
ATOM     64  C   UNL A   1      42.668  34.500  35.950  1.00  0.00     0.074 A 
ATOM     65  C   UNL A   1      42.251  33.612  37.016  1.00  0.00     0.031 C 
ATOM     66  C   UNL A   1      42.548  35.852  35.996  1.00  0.00     0.031 A 
BRANCH  53  67
ATOM     67  C   UNL A   1      44.545  38.719  30.891  1.00  0.00    -0.014 A 
ATOM     68  C   UNL A   1      43.583  39.193  29.979  1.00  0.00     0.010 A 
ATOM     69  C   UNL A   1      45.700  39.486  31.128  1.00  0.00     0.010 A 
ATOM     70  C   UNL A   1      43.788  40.395  29.296  1.00  0.00     0.020 A 
ATOM     71  C   UNL A   1      45.895  40.702  30.468  1.00  0.00     0.020 A 
ATOM     72  C   UNL A   1      44.943  41.142  29.545  1.00  0.00     0.054 A 
BRANCH  72  73
ATOM     73  S   UNL A   1      45.167  42.714  28.668  1.00  0.00     0.124 S 
ATOM     74  O   UNL A   1      44.722  42.373  27.319  1.00  0.00    -0.237 OA
ATOM     75  O   UNL A   1      44.292  43.620  29.408  1.00  0.00    -0.237 OA
ATOM     76  O   UNL A   1      46.597  42.986  28.802  1.00  0.00    -0.744 OA
ENDBRANCH  72  73
ENDBRANCH  53  67
BRANCH  54  77
ATOM     77  C   UNL A   1      43.330  29.867  35.390  1.00  0.00    -0.014 A 
ATOM     78  C   UNL A   1      44.411  29.260  36.054  1.00  0.00     0.010 A 
ATOM     79  C   UNL A   1      42.085  29.210  35.372  1.00  0.00     0.010 A 
ATOM     80  C   UNL A   1      44.255  28.012  36.666  1.00  0.00     0.020 A 
ATOM     81  C   UNL A   1      41.919  27.978  36.007  1.00  0.00     0.020 A 
ATOM     82  C   UNL A   1      43.009  27.379  36.640  1.00  0.00     0.054 A 
BRANCH  82  83
ATOM     83  S   UNL A   1      42.816  25.782  37.479  1.00  0.00     0.124 S 
ATOM     84  O   UNL A   1      43.190  26.113  38.851  1.00  0.00    -0.237 OA
ATOM     85  O   UNL A   1      41.404  25.480  37.262  1.00  0.00    -0.237 OA
ATOM     86  O   UNL A   1      43.748  24.909  36.769  1.00  0.00    -0.744 OA
ENDBRANCH  82  83
ENDBRANCH  54  77
BRANCH  66  87
ATOM     87  C   UNL A   1      41.920  36.446  37.230  1.00  0.00    -0.014 A 
ATOM     88  C   UNL A   1      40.525  36.447  37.412  1.00  0.00     0.010 A 
ATOM     89  C   UNL A   1      42.741  36.995  38.232  1.00  0.00     0.010 A 
ATOM     90  C   UNL A   1      39.961  37.037  38.546  1.00  0.00     0.020 A 
ATOM     91  C   UNL A   1      42.182  37.557  39.383  1.00  0.00     0.020 A 
ATOM     92  C   UNL A   1      40.794  37.595  39.520  1.00  0.00     0.054 A 
BRANCH  92  93
ATOM     93  S   UNL A   1      40.038  38.355  40.984  1.00  0.00     0.124 S 
ATOM     94  O   UNL A   1      40.287  37.348  42.011  1.00  0.00    -0.237 OA
ATOM     95  O   UNL A   1      40.791  39.599  41.127  1.00  0.00    -0.237 OA
ATOM     96  O   UNL A   1      38.637  38.523  40.603  1.00  0.00    -0.744 OA
ENDBRANCH  92  93
ENDBRANCH  66  87
ENDBRANCH  40  41
ENDBRANCH  33  35
ENDBRANCH  32  33
ENDBRANCH  31  32
ENDBRANCH  30  31
ENDBRANCH  29  30
ENDBRANCH  28  29
ENDBRANCH  27  28
ENDBRANCH  26  27
ENDBRANCH   1  26
TORSDOF 29
ENDMDL
MODEL 2
REMARK VINA RESULT:      -5.9      5.597     16.119
REMARK SMILES CC[C@@](C)([NH2+]CC(=O)N[C@@H](C)C(C)C)C(=O)OCCOCCOCCOCCOC(=O)c1ccc(-c2c3nc(c(-c4ccc(S(=O)(=O)[O-])cc4)c4ccc([nH]4)c(-c4ccc(S(=O)(=O)[O-])cc4)c4nc(c(-c5ccc(S(=O)(=O)[O-])cc5)c5ccc2[nH]5)C=C4)C=C3)cc1
REMARK SMILES IDX 22 1 21 2 20 3 19 4 18 5 17 6 15 7 16 8 3 9 4 10 2 11 1 12
REMARK SMILES IDX 5 13 6 16 7 17 8 18 9 19 10 21 11 22 12 23 13 24 14 25 23 26
REMARK SMILES IDX 24 27 25 28 26 29 27 30 28 31 29 32 30 33 31 34 32 35 33 36
REMARK SMILES IDX 91 37 34 38 90 39 35 40 36 41 37 42 84 43 38 44 89 45 83 46
REMARK SMILES IDX 85 47 39 48 88 49 82 50 81 51 40 53 70 54 51 55 69 56 52 57
REMARK SMILES IDX 55 58 68 59 86 60 53 61 54 62 67 64 87 65 56 66 41 67 42 68
REMARK SMILES IDX 50 69 43 70 49 71 44 72 45 73 46 74 47 75 48 76 71 77 72 78
REMARK SMILES IDX 80 79 73 80 79 81 74 82 75 83 76 84 77 85 78 86 57 87 58 88
REMARK SMILES IDX 66 89 59 90 65 91 60 92 61 93 62 94 63 95 64 96
REMARK H PARENT 5 14 5 15 9 20 85 52 55 63
REMARK Flexibility Score: inf
ROOT
ATOM      1  C   UNL A   1      42.359  34.747  38.081  1.00  0.00     0.188 C 
ENDROOT
BRANCH   1   2
ATOM      2  C   UNL A   1      43.483  35.767  37.802  1.00  0.00     0.188 C 
BRANCH   2   3
ATOM      3  O   UNL A   1      43.198  36.616  36.695  1.00  0.00    -0.376 OA
BRANCH   3   4
ATOM      4  C   UNL A   1      43.635  36.171  35.417  1.00  0.00     0.202 C 
BRANCH   4   5
ATOM      5  C   UNL A   1      42.849  36.586  34.173  1.00  0.00     0.261 C 
BRANCH   5   6
ATOM      6  O   UNL A   1      43.337  37.762  33.504  1.00  0.00    -0.459 OA
BRANCH   6   7
ATOM      7  C   UNL A   1      44.424  37.825  32.697  1.00  0.00     0.367 C 
ATOM      8  O   UNL A   1      44.772  36.922  31.947  1.00  0.00    -0.245 OA
BRANCH   7   9
ATOM      9  C   UNL A   1      45.148  39.217  32.865  1.00  0.00     0.191 C 
ATOM     10  C   UNL A   1      44.440  40.307  33.681  1.00  0.00     0.092 C 
BRANCH   9  11
ATOM     11  C   UNL A   1      46.466  38.905  33.647  1.00  0.00     0.077 C 
ATOM     12  C   UNL A   1      46.299  38.885  35.174  1.00  0.00     0.011 C 
ENDBRANCH   9  11
BRANCH   9  13
ATOM     13  N   UNL A   1      45.444  39.851  31.538  1.00  0.00    -0.325 N 
ATOM     14  H   UNL A   1      45.976  39.173  30.993  1.00  0.00     0.347 HD
ATOM     15  H   UNL A   1      45.929  40.716  31.778  1.00  0.00     0.347 HD
BRANCH  13  16
ATOM     16  C   UNL A   1      44.298  40.298  30.689  1.00  0.00     0.362 C 
BRANCH  16  17
ATOM     17  C   UNL A   1      44.505  41.585  29.871  1.00  0.00     0.275 C 
ATOM     18  O   UNL A   1      45.455  41.683  29.086  1.00  0.00    -0.268 OA
ATOM     19  N   UNL A   1      43.644  42.657  29.982  1.00  0.00    -0.349 N 
ATOM     20  H   UNL A   1      43.657  43.288  29.226  1.00  0.00     0.163 HD
BRANCH  19  21
ATOM     21  C   UNL A   1      42.713  42.992  31.061  1.00  0.00     0.081 C 
ATOM     22  C   UNL A   1      41.766  41.813  31.344  1.00  0.00     0.031 C 
BRANCH  21  23
ATOM     23  C   UNL A   1      43.364  43.491  32.371  1.00  0.00     0.005 C 
ATOM     24  C   UNL A   1      43.944  44.896  32.210  1.00  0.00     0.009 C 
ATOM     25  C   UNL A   1      42.338  43.468  33.523  1.00  0.00     0.009 C 
ENDBRANCH  21  23
ENDBRANCH  19  21
ENDBRANCH  16  17
ENDBRANCH  13  16
ENDBRANCH   9  13
ENDBRANCH   7   9
ENDBRANCH   6   7
ENDBRANCH   5   6
ENDBRANCH   4   5
ENDBRANCH   3   4
ENDBRANCH   2   3
ENDBRANCH   1   2
BRANCH   1  26
ATOM     26  O   UNL A   1      41.119  35.338  38.425  1.00  0.00    -0.377 OA
BRANCH  26  27
ATOM     27  C   UNL A   1      40.510  36.225  37.497  1.00  0.00     0.188 C 
BRANCH  27  28
ATOM     28  C   UNL A   1      39.654  35.694  36.328  1.00  0.00     0.188 C 
BRANCH  28  29
ATOM     29  O   UNL A   1      40.236  34.634  35.575  1.00  0.00    -0.376 OA
BRANCH  29  30
ATOM     30  C   UNL A   1      39.378  33.636  35.043  1.00  0.00     0.202 C 
BRANCH  30  31
ATOM     31  C   UNL A   1      38.484  34.061  33.866  1.00  0.00     0.261 C 
BRANCH  31  32
ATOM     32  O   UNL A   1      38.594  33.250  32.687  1.00  0.00    -0.460 OA
BRANCH  32  33
ATOM     33  C   UNL A   1      38.389  31.930  32.837  1.00  0.00     0.338 C 
ATOM     34  O   UNL A   1      37.450  31.388  33.417  1.00  0.00    -0.246 OA
BRANCH  33  35
ATOM     35  C   UNL A   1      39.376  31.206  32.024  1.00  0.00     0.060 A 
ATOM     36  C   UNL A   1      40.184  30.251  32.653  1.00  0.00     0.016 A 
ATOM     37  C   UNL A   1      39.529  31.488  30.664  1.00  0.00     0.016 A 
ATOM     38  C   UNL A   1      41.198  29.625  31.938  1.00  0.00     0.010 A 
ATOM     39  C   UNL A   1      40.562  30.874  29.952  1.00  0.00     0.010 A 
ATOM     40  C   UNL A   1      41.429  29.980  30.602  1.00  0.00    -0.014 A 
BRANCH  40  41
ATOM     41  C   UNL A   1      42.719  29.590  29.988  1.00  0.00     0.031 A 
ATOM     42  C   UNL A   1      42.826  28.218  29.375  1.00  0.00     0.074 A 
ATOM     43  C   UNL A   1      43.737  30.462  29.892  1.00  0.00     0.049 A 
ATOM     44  N   UNL A   1      43.817  27.682  28.711  1.00  0.00    -0.248 NA
ATOM     45  C   UNL A   1      41.655  27.336  29.524  1.00  0.00     0.031 C 
ATOM     46  C   UNL A   1      43.735  31.828  30.414  1.00  0.00     0.029 A 
ATOM     47  N   UNL A   1      44.970  30.325  29.307  1.00  0.00    -0.354 N 
ATOM     48  C   UNL A   1      43.383  26.411  28.350  1.00  0.00     0.074 A 
ATOM     49  C   UNL A   1      42.061  26.237  28.907  1.00  0.00     0.031 C 
ATOM     50  C   UNL A   1      44.916  32.404  30.126  1.00  0.00     0.029 A 
ATOM     51  C   UNL A   1      45.759  31.443  29.417  1.00  0.00     0.049 A 
ATOM     52  H   UNL A   1      45.261  29.502  28.851  1.00  0.00     0.167 HD
ATOM     53  C   UNL A   1      44.021  25.478  27.606  1.00  0.00     0.031 A 
ATOM     54  C   UNL A   1      47.022  31.660  29.001  1.00  0.00     0.031 A 
ATOM     55  C   UNL A   1      45.348  25.640  27.077  1.00  0.00     0.049 A 
ATOM     56  C   UNL A   1      47.741  30.577  28.236  1.00  0.00     0.074 A 
ATOM     57  C   UNL A   1      46.091  24.747  26.326  1.00  0.00     0.029 A 
ATOM     58  N   UNL A   1      46.133  26.770  27.250  1.00  0.00    -0.354 N 
ATOM     59  N   UNL A   1      47.310  29.387  27.885  1.00  0.00    -0.248 NA
ATOM     60  C   UNL A   1      49.110  30.876  27.793  1.00  0.00     0.031 C 
ATOM     61  C   UNL A   1      47.347  25.318  26.087  1.00  0.00     0.029 A 
ATOM     62  C   UNL A   1      47.361  26.591  26.636  1.00  0.00     0.049 A 
ATOM     63  H   UNL A   1      45.858  27.580  27.738  1.00  0.00     0.167 HD
ATOM     64  C   UNL A   1      48.347  28.805  27.165  1.00  0.00     0.074 A 
ATOM     65  C   UNL A   1      49.414  29.784  27.106  1.00  0.00     0.031 C 
ATOM     66  C   UNL A   1      48.416  27.572  26.601  1.00  0.00     0.031 A 
BRANCH  53  67
ATOM     67  C   UNL A   1      43.291  24.188  27.342  1.00  0.00    -0.014 A 
ATOM     68  C   UNL A   1      42.527  24.014  26.174  1.00  0.00     0.010 A 
ATOM     69  C   UNL A   1      43.393  23.126  28.259  1.00  0.00     0.010 A 
ATOM     70  C   UNL A   1      41.854  22.811  25.941  1.00  0.00     0.020 A 
ATOM     71  C   UNL A   1      42.743  21.912  28.016  1.00  0.00     0.020 A 
ATOM     72  C   UNL A   1      41.966  21.768  26.864  1.00  0.00     0.054 A 
BRANCH  72  73
ATOM     73  S   UNL A   1      41.108  20.207  26.521  1.00  0.00     0.124 S 
ATOM     74  O   UNL A   1      42.012  19.568  25.569  1.00  0.00    -0.237 OA
ATOM     75  O   UNL A   1      41.041  19.582  27.840  1.00  0.00    -0.237 OA
ATOM     76  O   UNL A   1      39.822  20.632  25.971  1.00  0.00    -0.744 OA
ENDBRANCH  72  73
ENDBRANCH  53  67
BRANCH  54  77
ATOM     77  C   UNL A   1      47.699  32.948  29.316  1.00  0.00    -0.014 A 
ATOM     78  C   UNL A   1      47.590  34.059  28.461  1.00  0.00     0.010 A 
ATOM     79  C   UNL A   1      48.478  33.061  30.484  1.00  0.00     0.010 A 
ATOM     80  C   UNL A   1      48.264  35.249  28.755  1.00  0.00     0.020 A 
ATOM     81  C   UNL A   1      49.128  34.258  30.796  1.00  0.00     0.020 A 
ATOM     82  C   UNL A   1      49.027  35.341  29.922  1.00  0.00     0.054 A 
BRANCH  82  83
ATOM     83  S   UNL A   1      49.856  36.908  30.309  1.00  0.00     0.124 S 
ATOM     84  O   UNL A   1      48.927  37.888  29.754  1.00  0.00    -0.237 OA
ATOM     85  O   UNL A   1      49.940  36.869  31.766  1.00  0.00    -0.237 OA
ATOM     86  O   UNL A   1      51.138  36.797  29.616  1.00  0.00    -0.744 OA
ENDBRANCH  82  83
ENDBRANCH  54  77
BRANCH  66  87
ATOM     87  C   UNL A   1      49.679  27.225  25.855  1.00  0.00    -0.014 A 
ATOM     88  C   UNL A   1      50.751  26.577  26.495  1.00  0.00     0.010 A 
ATOM     89  C   UNL A   1      49.786  27.537  24.487  1.00  0.00     0.010 A 
ATOM     90  C   UNL A   1      51.928  26.299  25.794  1.00  0.00     0.020 A 
ATOM     91  C   UNL A   1      50.948  27.231  23.775  1.00  0.00     0.020 A 
ATOM     92  C   UNL A   1      52.021  26.635  24.441  1.00  0.00     0.054 A 
BRANCH  92  93
ATOM     93  S   UNL A   1      53.558  26.264  23.552  1.00  0.00     0.124 S 
ATOM     94  O   UNL A   1      54.107  25.165  24.342  1.00  0.00    -0.237 OA
ATOM     95  O   UNL A   1      53.082  25.903  22.219  1.00  0.00    -0.237 OA
ATOM     96  O   UNL A   1      54.310  27.516  23.621  1.00  0.00    -0.744 OA
ENDBRANCH  92  93
ENDBRANCH  66  87
ENDBRANCH  40  41
ENDBRANCH  33  35
ENDBRANCH  32  33
ENDBRANCH  31  32
ENDBRANCH  30  31
ENDBRANCH  29  30
ENDBRANCH  28  29
ENDBRANCH  27  28
ENDBRANCH  26  27
ENDBRANCH   1  26
TORSDOF 29
ENDMDL
MODEL 3
REMARK VINA RESULT:      -5.8      6.777     12.468
REMARK SMILES CC[C@@](C)([NH2+]CC(=O)N[C@@H](C)C(C)C)C(=O)OCCOCCOCCOCCOC(=O)c1ccc(-c2c3nc(c(-c4ccc(S(=O)(=O)[O-])cc4)c4ccc([nH]4)c(-c4ccc(S(=O)(=O)[O-])cc4)c4nc(c(-c5ccc(S(=O)(=O)[O-])cc5)c5ccc2[nH]5)C=C4)C=C3)cc1
REMARK SMILES IDX 22 1 21 2 20 3 19 4 18 5 17 6 15 7 16 8 3 9 4 10 2 11 1 12
REMARK SMILES IDX 5 13 6 16 7 17 8 18 9 19 10 21 11 22 12 23 13 24 14 25 23 26
REMARK SMILES IDX 24 27 25 28 26 29 27 30 28 31 29 32 30 33 31 34 32 35 33 36
REMARK SMILES IDX 91 37 34 38 90 39 35 40 36 41 37 42 84 43 38 44 89 45 83 46
REMARK SMILES IDX 85 47 39 48 88 49 82 50 81 51 40 53 70 54 51 55 69 56 52 57
REMARK SMILES IDX 55 58 68 59 86 60 53 61 54 62 67 64 87 65 56 66 41 67 42 68
REMARK SMILES IDX 50 69 43 70 49 71 44 72 45 73 46 74 47 75 48 76 71 77 72 78
REMARK SMILES IDX 80 79 73 80 79 81 74 82 75 83 76 84 77 85 78 86 57 87 58 88
REMARK SMILES IDX 66 89 59 90 65 91 60 92 61 93 62 94 63 95 64 96
REMARK H PARENT 5 14 5 15 9 20 85 52 55 63
REMARK Flexibility Score: inf
ROOT
ATOM      1  C   UNL A   1      52.820  21.347  35.279  1.00  0.00     0.188 C 
ENDROOT
BRANCH   1   2
ATOM      2  C   UNL A   1      53.176  22.742  34.724  1.00  0.00     0.188 C 
BRANCH   2   3
ATOM      3  O   UNL A   1      52.438  23.078  33.553  1.00  0.00    -0.376 OA
BRANCH   3   4
ATOM      4  C   UNL A   1      51.172  23.694  33.749  1.00  0.00     0.202 C 
BRANCH   4   5
ATOM      5  C   UNL A   1      50.836  24.972  32.980  1.00  0.00     0.261 C 
BRANCH   5   6
ATOM      6  O   UNL A   1      51.230  26.196  33.624  1.00  0.00    -0.459 OA
BRANCH   6   7
ATOM      7  C   UNL A   1      51.399  26.375  34.956  1.00  0.00     0.367 C 
ATOM      8  O   UNL A   1      52.483  26.314  35.523  1.00  0.00    -0.245 OA
BRANCH   7   9
ATOM      9  C   UNL A   1      50.011  26.676  35.646  1.00  0.00     0.191 C 
ATOM     10  C   UNL A   1      49.195  25.491  36.178  1.00  0.00     0.092 C 
BRANCH   9  11
ATOM     11  C   UNL A   1      50.354  27.541  36.903  1.00  0.00     0.077 C 
ATOM     12  C   UNL A   1      50.174  26.803  38.239  1.00  0.00     0.011 C 
ENDBRANCH   9  11
BRANCH   9  13
ATOM     13  N   UNL A   1      49.083  27.408  34.723  1.00  0.00    -0.325 N 
ATOM     14  H   UNL A   1      48.172  26.954  34.790  1.00  0.00     0.347 HD
ATOM     15  H   UNL A   1      49.544  27.360  33.815  1.00  0.00     0.347 HD
BRANCH  13  16
ATOM     16  C   UNL A   1      48.864  28.870  34.944  1.00  0.00     0.362 C 
BRANCH  16  17
ATOM     17  C   UNL A   1      47.531  29.453  34.440  1.00  0.00     0.275 C 
ATOM     18  O   UNL A   1      47.350  29.653  33.234  1.00  0.00    -0.268 OA
ATOM     19  N   UNL A   1      46.504  29.761  35.309  1.00  0.00    -0.349 N 
ATOM     20  H   UNL A   1      45.611  29.824  34.899  1.00  0.00     0.163 HD
BRANCH  19  21
ATOM     21  C   UNL A   1      46.551  30.009  36.751  1.00  0.00     0.081 C 
ATOM     22  C   UNL A   1      46.934  31.472  37.036  1.00  0.00     0.031 C 
BRANCH  21  23
ATOM     23  C   UNL A   1      45.278  29.621  37.535  1.00  0.00     0.005 C 
ATOM     24  C   UNL A   1      45.133  28.103  37.652  1.00  0.00     0.009 C 
ATOM     25  C   UNL A   1      45.295  30.262  38.938  1.00  0.00     0.009 C 
ENDBRANCH  21  23
ENDBRANCH  19  21
ENDBRANCH  16  17
ENDBRANCH  13  16
ENDBRANCH   9  13
ENDBRANCH   7   9
ENDBRANCH   6   7
ENDBRANCH   5   6
ENDBRANCH   4   5
ENDBRANCH   3   4
ENDBRANCH   2   3
ENDBRANCH   1   2
BRANCH   1  26
ATOM     26  O   UNL A   1      51.765  20.705  34.586  1.00  0.00    -0.377 OA
BRANCH  26  27
ATOM     27  C   UNL A   1      50.915  19.826  35.310  1.00  0.00     0.188 C 
BRANCH  27  28
ATOM     28  C   UNL A   1      49.873  20.368  36.311  1.00  0.00     0.188 C 
BRANCH  28  29
ATOM     29  O   UNL A   1      48.656  20.833  35.737  1.00  0.00    -0.376 OA
BRANCH  29  30
ATOM     30  C   UNL A   1      47.436  20.267  36.194  1.00  0.00     0.202 C 
BRANCH  30  31
ATOM     31  C   UNL A   1      46.410  21.246  36.789  1.00  0.00     0.261 C 
BRANCH  31  32
ATOM     32  O   UNL A   1      46.083  22.372  35.961  1.00  0.00    -0.460 OA
BRANCH  32  33
ATOM     33  C   UNL A   1      45.262  22.142  34.921  1.00  0.00     0.338 C 
ATOM     34  O   UNL A   1      44.501  21.188  34.776  1.00  0.00    -0.246 OA
BRANCH  33  35
ATOM     35  C   UNL A   1      45.268  23.324  34.048  1.00  0.00     0.060 A 
ATOM     36  C   UNL A   1      46.335  24.224  34.155  1.00  0.00     0.016 A 
ATOM     37  C   UNL A   1      44.217  23.563  33.158  1.00  0.00     0.016 A 
ATOM     38  C   UNL A   1      46.319  25.404  33.421  1.00  0.00     0.010 A 
ATOM     39  C   UNL A   1      44.192  24.758  32.437  1.00  0.00     0.010 A 
ATOM     40  C   UNL A   1      45.218  25.704  32.607  1.00  0.00    -0.014 A 
BRANCH  40  41
ATOM     41  C   UNL A   1      45.051  27.100  32.142  1.00  0.00     0.031 A 
ATOM     42  C   UNL A   1      45.577  27.461  30.778  1.00  0.00     0.074 A 
ATOM     43  C   UNL A   1      44.367  27.998  32.871  1.00  0.00     0.049 A 
ATOM     44  N   UNL A   1      45.477  28.587  30.122  1.00  0.00    -0.248 NA
ATOM     45  C   UNL A   1      46.306  26.405  30.052  1.00  0.00     0.031 C 
ATOM     46  C   UNL A   1      43.780  27.754  34.187  1.00  0.00     0.029 A 
ATOM     47  N   UNL A   1      44.043  29.302  32.593  1.00  0.00    -0.354 N 
ATOM     48  C   UNL A   1      46.113  28.372  28.905  1.00  0.00     0.074 A 
ATOM     49  C   UNL A   1      46.636  27.025  28.929  1.00  0.00     0.031 C 
ATOM     50  C   UNL A   1      43.168  28.876  34.605  1.00  0.00     0.029 A 
ATOM     51  C   UNL A   1      43.335  29.919  33.594  1.00  0.00     0.049 A 
ATOM     52  H   UNL A   1      44.295  29.753  31.754  1.00  0.00     0.167 HD
ATOM     53  C   UNL A   1      46.236  29.213  27.853  1.00  0.00     0.031 A 
ATOM     54  C   UNL A   1      42.881  31.185  33.687  1.00  0.00     0.031 A 
ATOM     55  C   UNL A   1      45.742  30.563  27.840  1.00  0.00     0.049 A 
ATOM     56  C   UNL A   1      43.095  32.128  32.529  1.00  0.00     0.074 A 
ATOM     57  C   UNL A   1      45.831  31.505  26.830  1.00  0.00     0.029 A 
ATOM     58  N   UNL A   1      45.070  31.167  28.892  1.00  0.00    -0.354 N 
ATOM     59  N   UNL A   1      43.681  31.903  31.376  1.00  0.00    -0.248 NA
ATOM     60  C   UNL A   1      42.566  33.491  32.680  1.00  0.00     0.031 C 
ATOM     61  C   UNL A   1      45.257  32.695  27.291  1.00  0.00     0.029 A 
ATOM     62  C   UNL A   1      44.754  32.474  28.565  1.00  0.00     0.049 A 
ATOM     63  H   UNL A   1      44.849  30.730  29.747  1.00  0.00     0.167 HD
ATOM     64  C   UNL A   1      43.574  33.090  30.658  1.00  0.00     0.074 A 
ATOM     65  C   UNL A   1      42.842  34.018  31.495  1.00  0.00     0.031 C 
ATOM     66  C   UNL A   1      44.038  33.389  29.418  1.00  0.00     0.031 A 
BRANCH  53  67
ATOM     67  C   UNL A   1      46.956  28.697  26.635  1.00  0.00    -0.014 A 
ATOM     68  C   UNL A   1      48.357  28.564  26.624  1.00  0.00     0.010 A 
ATOM     69  C   UNL A   1      46.223  28.311  25.499  1.00  0.00     0.010 A 
ATOM     70  C   UNL A   1      49.013  28.085  25.487  1.00  0.00     0.020 A 
ATOM     71  C   UNL A   1      46.873  27.805  24.370  1.00  0.00     0.020 A 
ATOM     72  C   UNL A   1      48.267  27.708  24.367  1.00  0.00     0.054 A 
BRANCH  72  73
ATOM     73  S   UNL A   1      49.143  27.058  22.918  1.00  0.00     0.124 S 
ATOM     74  O   UNL A   1      50.465  26.768  23.468  1.00  0.00    -0.237 OA
ATOM     75  O   UNL A   1      48.343  25.890  22.558  1.00  0.00    -0.237 OA
ATOM     76  O   UNL A   1      49.095  28.161  21.960  1.00  0.00    -0.744 OA
ENDBRANCH  72  73
ENDBRANCH  53  67
BRANCH  54  77
ATOM     77  C   UNL A   1      42.201  31.644  34.928  1.00  0.00    -0.014 A 
ATOM     78  C   UNL A   1      42.927  32.198  35.997  1.00  0.00     0.010 A 
ATOM     79  C   UNL A   1      40.804  31.511  35.050  1.00  0.00     0.010 A 
ATOM     80  C   UNL A   1      42.274  32.588  37.171  1.00  0.00     0.020 A 
ATOM     81  C   UNL A   1      40.146  31.927  36.209  1.00  0.00     0.020 A 
ATOM     82  C   UNL A   1      40.887  32.452  37.269  1.00  0.00     0.054 A 
BRANCH  82  83
ATOM     83  S   UNL A   1      40.054  33.007  38.782  1.00  0.00     0.124 S 
ATOM     84  O   UNL A   1      40.108  34.459  38.643  1.00  0.00    -0.237 OA
ATOM     85  O   UNL A   1      38.729  32.407  38.651  1.00  0.00    -0.237 OA
ATOM     86  O   UNL A   1      40.879  32.448  39.851  1.00  0.00    -0.744 OA
ENDBRANCH  82  83
ENDBRANCH  54  77
BRANCH  66  87
ATOM     87  C   UNL A   1      43.746  34.769  28.887  1.00  0.00    -0.014 A 
ATOM     88  C   UNL A   1      44.655  35.827  29.066  1.00  0.00     0.010 A 
ATOM     89  C   UNL A   1      42.551  35.004  28.183  1.00  0.00     0.010 A 
ATOM     90  C   UNL A   1      44.348  37.108  28.599  1.00  0.00     0.020 A 
ATOM     91  C   UNL A   1      42.255  36.276  27.687  1.00  0.00     0.020 A 
ATOM     92  C   UNL A   1      43.146  37.325  27.920  1.00  0.00     0.054 A 
BRANCH  92  93
ATOM     93  S   UNL A   1      42.769  38.997  27.323  1.00  0.00     0.124 S 
ATOM     94  O   UNL A   1      43.973  39.327  26.566  1.00  0.00    -0.237 OA
ATOM     95  O   UNL A   1      41.562  38.791  26.527  1.00  0.00    -0.237 OA
ATOM     96  O   UNL A   1      42.574  39.767  28.550  1.00  0.00    -0.744 OA
ENDBRANCH  92  93
ENDBRANCH  66  87
ENDBRANCH  40  41
ENDBRANCH  33  35
ENDBRANCH  32  33
ENDBRANCH  31  32
ENDBRANCH  30  31
ENDBRANCH  29  30
ENDBRANCH  28  29
ENDBRANCH  27  28
ENDBRANCH  26  27
ENDBRANCH   1  26
TORSDOF 29
ENDMDL
