MODEL 1
REMARK VINA RESULT:      -9.4      0.000      0.000
REMARK SMILES C[C@H](C(=O)OCCOCCOCCOCCOC(=O)c1ccc(-c2c3nc(c(-c4ccc(S(=O)(=O)[O-])cc4)c4ccc([nH]4)c(-c4ccc(S(=O)(=O)[O-])cc4)c4nc(c(-c5ccc(S(=O)(=O)[O-])cc5)c5ccc2[nH]5)C=C4)C=C3)cc1)c1ccc(C[C@@H]2CCC[C@H]2O)cc1
REMARK SMILES IDX 10 1 9 2 8 3 7 4 6 5 5 6 3 7 4 8 2 9 1 10 80 11 81 12 92 13
REMARK SMILES IDX 82 14 91 15 83 16 84 17 85 18 86 19 89 20 87 21 88 22 90 23
REMARK SMILES IDX 11 25 12 26 13 27 14 28 15 29 16 30 17 31 18 32 19 33 20 34
REMARK SMILES IDX 21 35 79 36 22 37 78 38 23 39 24 40 25 41 72 42 26 43 77 44
REMARK SMILES IDX 71 45 73 46 27 47 76 48 70 49 69 50 28 52 58 53 39 54 57 55
REMARK SMILES IDX 40 56 43 57 56 58 74 59 41 60 42 61 55 63 75 64 44 65 29 66
REMARK SMILES IDX 30 67 38 68 31 69 37 70 32 71 33 72 34 73 35 74 36 75 59 76
REMARK SMILES IDX 60 77 68 78 61 79 67 80 62 81 63 82 64 83 65 84 66 85 45 86
REMARK SMILES IDX 46 87 54 88 47 89 53 90 48 91 49 92 50 93 51 94 52 95
REMARK H PARENT 90 24 73 51 43 62
REMARK Flexibility Score: inf
ROOT
ATOM      1  C   UNL A   1      36.680  22.334  24.391  1.00  0.00     0.188 C 
ENDROOT
BRANCH   1   2
ATOM      2  C   UNL A   1      35.855  23.087  25.435  1.00  0.00     0.188 C 
BRANCH   2   3
ATOM      3  O   UNL A   1      35.451  24.364  25.004  1.00  0.00    -0.376 OA
BRANCH   3   4
ATOM      4  C   UNL A   1      34.405  25.089  25.610  1.00  0.00     0.202 C 
BRANCH   4   5
ATOM      5  C   UNL A   1      33.758  26.386  25.068  1.00  0.00     0.261 C 
BRANCH   5   6
ATOM      6  O   UNL A   1      32.411  26.722  25.432  1.00  0.00    -0.463 OA
BRANCH   6   7
ATOM      7  C   UNL A   1      31.463  26.628  24.461  1.00  0.00     0.313 C 
ATOM      8  O   UNL A   1      31.405  27.398  23.505  1.00  0.00    -0.252 OA
BRANCH   7   9
ATOM      9  C   UNL A   1      30.517  25.418  24.573  1.00  0.00     0.126 C 
ATOM     10  C   UNL A   1      29.299  25.639  23.670  1.00  0.00     0.025 C 
BRANCH   9  11
ATOM     11  C   UNL A   1      31.114  24.014  24.471  1.00  0.00    -0.034 A 
ATOM     12  C   UNL A   1      31.282  23.279  25.649  1.00  0.00     0.005 A 
ATOM     13  C   UNL A   1      31.447  23.368  23.269  1.00  0.00     0.005 A 
ATOM     14  C   UNL A   1      31.811  21.987  25.629  1.00  0.00     0.004 A 
ATOM     15  C   UNL A   1      32.072  22.111  23.258  1.00  0.00     0.004 A 
ATOM     16  C   UNL A   1      32.298  21.422  24.449  1.00  0.00    -0.048 A 
BRANCH  16  17
ATOM     17  C   UNL A   1      33.044  20.108  24.456  1.00  0.00     0.041 C 
BRANCH  17  18
ATOM     18  C   UNL A   1      32.298  18.835  23.984  1.00  0.00     0.022 C 
ATOM     19  C   UNL A   1      32.296  17.663  24.974  1.00  0.00     0.007 C 
ATOM     20  C   UNL A   1      32.846  18.206  22.699  1.00  0.00     0.117 C 
ATOM     21  C   UNL A   1      33.392  16.695  24.519  1.00  0.00     0.003 C 
ATOM     22  C   UNL A   1      33.882  17.184  23.155  1.00  0.00     0.032 C 
BRANCH  20  23
ATOM     23  O   UNL A   1      31.787  17.536  22.017  1.00  0.00    -0.393 OA
ATOM     24  H   UNL A   1      31.362  18.150  21.396  1.00  0.00     0.210 HD
ENDBRANCH  20  23
ENDBRANCH  17  18
ENDBRANCH  16  17
ENDBRANCH   9  11
ENDBRANCH   7   9
ENDBRANCH   6   7
ENDBRANCH   5   6
ENDBRANCH   4   5
ENDBRANCH   3   4
ENDBRANCH   2   3
ENDBRANCH   1   2
BRANCH   1  25
ATOM     25  O   UNL A   1      37.611  21.328  24.727  1.00  0.00    -0.377 OA
BRANCH  25  26
ATOM     26  C   UNL A   1      38.440  21.561  25.845  1.00  0.00     0.188 C 
BRANCH  26  27
ATOM     27  C   UNL A   1      39.581  20.537  25.931  1.00  0.00     0.188 C 
BRANCH  27  28
ATOM     28  O   UNL A   1      40.513  20.564  27.007  1.00  0.00    -0.376 OA
BRANCH  28  29
ATOM     29  C   UNL A   1      41.157  21.757  27.420  1.00  0.00     0.202 C 
BRANCH  29  30
ATOM     30  C   UNL A   1      42.195  22.501  26.553  1.00  0.00     0.261 C 
BRANCH  30  31
ATOM     31  O   UNL A   1      41.909  23.840  26.148  1.00  0.00    -0.460 OA
BRANCH  31  32
ATOM     32  C   UNL A   1      42.866  24.753  26.413  1.00  0.00     0.338 C 
ATOM     33  O   UNL A   1      43.973  24.830  25.901  1.00  0.00    -0.246 OA
BRANCH  32  34
ATOM     34  C   UNL A   1      42.303  25.758  27.336  1.00  0.00     0.060 A 
ATOM     35  C   UNL A   1      42.827  27.056  27.315  1.00  0.00     0.016 A 
ATOM     36  C   UNL A   1      41.284  25.419  28.231  1.00  0.00     0.016 A 
ATOM     37  C   UNL A   1      42.352  28.017  28.203  1.00  0.00     0.010 A 
ATOM     38  C   UNL A   1      40.834  26.374  29.148  1.00  0.00     0.010 A 
ATOM     39  C   UNL A   1      41.393  27.664  29.159  1.00  0.00    -0.014 A 
BRANCH  39  40
ATOM     40  C   UNL A   1      41.150  28.579  30.298  1.00  0.00     0.031 A 
ATOM     41  C   UNL A   1      42.053  28.472  31.496  1.00  0.00     0.074 A 
ATOM     42  C   UNL A   1      40.189  29.516  30.246  1.00  0.00     0.049 A 
ATOM     43  N   UNL A   1      42.027  29.144  32.617  1.00  0.00    -0.248 NA
ATOM     44  C   UNL A   1      43.133  27.473  31.419  1.00  0.00     0.031 C 
ATOM     45  C   UNL A   1      39.298  29.754  29.110  1.00  0.00     0.029 A 
ATOM     46  N   UNL A   1      39.805  30.447  31.178  1.00  0.00    -0.354 N 
ATOM     47  C   UNL A   1      43.071  28.638  33.383  1.00  0.00     0.074 A 
ATOM     48  C   UNL A   1      43.699  27.590  32.610  1.00  0.00     0.031 C 
ATOM     49  C   UNL A   1      38.465  30.764  29.416  1.00  0.00     0.029 A 
ATOM     50  C   UNL A   1      38.735  31.212  30.781  1.00  0.00     0.049 A 
ATOM     51  H   UNL A   1      40.252  30.555  32.048  1.00  0.00     0.167 HD
ATOM     52  C   UNL A   1      43.469  29.013  34.621  1.00  0.00     0.031 A 
ATOM     53  C   UNL A   1      38.039  32.148  31.457  1.00  0.00     0.031 A 
ATOM     54  C   UNL A   1      42.827  30.047  35.389  1.00  0.00     0.049 A 
ATOM     55  C   UNL A   1      38.446  32.487  32.869  1.00  0.00     0.074 A 
ATOM     56  C   UNL A   1      43.156  30.512  36.648  1.00  0.00     0.029 A 
ATOM     57  N   UNL A   1      41.714  30.764  34.974  1.00  0.00    -0.354 N 
ATOM     58  N   UNL A   1      39.445  32.015  33.577  1.00  0.00    -0.248 NA
ATOM     59  C   UNL A   1      37.633  33.490  33.571  1.00  0.00     0.031 C 
ATOM     60  C   UNL A   1      42.203  31.464  37.023  1.00  0.00     0.029 A 
ATOM     61  C   UNL A   1      41.325  31.647  35.965  1.00  0.00     0.049 A 
ATOM     62  H   UNL A   1      41.269  30.662  34.102  1.00  0.00     0.167 HD
ATOM     63  C   UNL A   1      39.400  32.688  34.794  1.00  0.00     0.074 A 
ATOM     64  C   UNL A   1      38.284  33.608  34.720  1.00  0.00     0.031 C 
ATOM     65  C   UNL A   1      40.211  32.558  35.875  1.00  0.00     0.031 A 
BRANCH  52  66
ATOM     66  C   UNL A   1      44.619  28.264  35.243  1.00  0.00    -0.014 A 
ATOM     67  C   UNL A   1      45.955  28.635  35.002  1.00  0.00     0.010 A 
ATOM     68  C   UNL A   1      44.355  27.188  36.110  1.00  0.00     0.010 A 
ATOM     69  C   UNL A   1      47.004  27.921  35.590  1.00  0.00     0.020 A 
ATOM     70  C   UNL A   1      45.400  26.492  36.724  1.00  0.00     0.020 A 
ATOM     71  C   UNL A   1      46.719  26.853  36.448  1.00  0.00     0.054 A 
BRANCH  71  72
ATOM     72  S   UNL A   1      48.098  25.964  37.219  1.00  0.00     0.124 S 
ATOM     73  O   UNL A   1      47.689  25.929  38.621  1.00  0.00    -0.237 OA
ATOM     74  O   UNL A   1      48.077  24.680  36.525  1.00  0.00    -0.237 OA
ATOM     75  O   UNL A   1      49.258  26.805  36.933  1.00  0.00    -0.744 OA
ENDBRANCH  71  72
ENDBRANCH  52  66
BRANCH  53  76
ATOM     76  C   UNL A   1      36.868  32.812  30.819  1.00  0.00    -0.014 A 
ATOM     77  C   UNL A   1      37.039  33.936  29.992  1.00  0.00     0.010 A 
ATOM     78  C   UNL A   1      35.567  32.321  31.041  1.00  0.00     0.010 A 
ATOM     79  C   UNL A   1      35.933  34.565  29.412  1.00  0.00     0.020 A 
ATOM     80  C   UNL A   1      34.463  32.927  30.439  1.00  0.00     0.020 A 
ATOM     81  C   UNL A   1      34.652  34.052  29.635  1.00  0.00     0.054 A 
BRANCH  81  82
ATOM     82  S   UNL A   1      33.237  34.851  28.828  1.00  0.00     0.124 S 
ATOM     83  O   UNL A   1      32.352  35.118  29.957  1.00  0.00    -0.237 OA
ATOM     84  O   UNL A   1      33.851  36.025  28.210  1.00  0.00    -0.237 OA
ATOM     85  O   UNL A   1      32.764  33.839  27.886  1.00  0.00    -0.744 OA
ENDBRANCH  81  82
ENDBRANCH  53  76
BRANCH  65  86
ATOM     86  C   UNL A   1      39.954  33.465  37.052  1.00  0.00    -0.014 A 
ATOM     87  C   UNL A   1      40.357  34.811  37.043  1.00  0.00     0.010 A 
ATOM     88  C   UNL A   1      39.241  32.971  38.160  1.00  0.00     0.010 A 
ATOM     89  C   UNL A   1      40.082  35.637  38.137  1.00  0.00     0.020 A 
ATOM     90  C   UNL A   1      38.933  33.801  39.240  1.00  0.00     0.020 A 
ATOM     91  C   UNL A   1      39.370  35.127  39.228  1.00  0.00     0.054 A 
BRANCH  91  92
ATOM     92  S   UNL A   1      38.987  36.232  40.614  1.00  0.00     0.124 S 
ATOM     93  O   UNL A   1      40.240  36.225  41.363  1.00  0.00    -0.237 OA
ATOM     94  O   UNL A   1      38.662  37.488  39.941  1.00  0.00    -0.237 OA
ATOM     95  O   UNL A   1      37.861  35.580  41.279  1.00  0.00    -0.744 OA
ENDBRANCH  91  92
ENDBRANCH  65  86
ENDBRANCH  39  40
ENDBRANCH  32  34
ENDBRANCH  31  32
ENDBRANCH  30  31
ENDBRANCH  29  30
ENDBRANCH  28  29
ENDBRANCH  27  28
ENDBRANCH  26  27
ENDBRANCH  25  26
ENDBRANCH   1  25
TORSDOF 27
ENDMDL
MODEL 2
REMARK VINA RESULT:      -9.1      2.175      5.525
REMARK SMILES C[C@H](C(=O)OCCOCCOCCOCCOC(=O)c1ccc(-c2c3nc(c(-c4ccc(S(=O)(=O)[O-])cc4)c4ccc([nH]4)c(-c4ccc(S(=O)(=O)[O-])cc4)c4nc(c(-c5ccc(S(=O)(=O)[O-])cc5)c5ccc2[nH]5)C=C4)C=C3)cc1)c1ccc(C[C@@H]2CCC[C@H]2O)cc1
REMARK SMILES IDX 10 1 9 2 8 3 7 4 6 5 5 6 3 7 4 8 2 9 1 10 80 11 81 12 92 13
REMARK SMILES IDX 82 14 91 15 83 16 84 17 85 18 86 19 89 20 87 21 88 22 90 23
REMARK SMILES IDX 11 25 12 26 13 27 14 28 15 29 16 30 17 31 18 32 19 33 20 34
REMARK SMILES IDX 21 35 79 36 22 37 78 38 23 39 24 40 25 41 72 42 26 43 77 44
REMARK SMILES IDX 71 45 73 46 27 47 76 48 70 49 69 50 28 52 58 53 39 54 57 55
REMARK SMILES IDX 40 56 43 57 56 58 74 59 41 60 42 61 55 63 75 64 44 65 29 66
REMARK SMILES IDX 30 67 38 68 31 69 37 70 32 71 33 72 34 73 35 74 36 75 59 76
REMARK SMILES IDX 60 77 68 78 61 79 67 80 62 81 63 82 64 83 65 84 66 85 45 86
REMARK SMILES IDX 46 87 54 88 47 89 53 90 48 91 49 92 50 93 51 94 52 95
REMARK H PARENT 90 24 73 51 43 62
REMARK Flexibility Score: inf
ROOT
ATOM      1  C   UNL A   1      31.642  22.455  25.538  1.00  0.00     0.188 C 
ENDROOT
BRANCH   1   2
ATOM      2  C   UNL A   1      31.713  22.300  24.018  1.00  0.00     0.188 C 
BRANCH   2   3
ATOM      3  O   UNL A   1      31.085  23.352  23.327  1.00  0.00    -0.376 OA
BRANCH   3   4
ATOM      4  C   UNL A   1      31.780  24.251  22.491  1.00  0.00     0.202 C 
BRANCH   4   5
ATOM      5  C   UNL A   1      31.669  25.793  22.514  1.00  0.00     0.261 C 
BRANCH   5   6
ATOM      6  O   UNL A   1      30.623  26.425  23.267  1.00  0.00    -0.463 OA
BRANCH   6   7
ATOM      7  C   UNL A   1      30.875  27.669  23.757  1.00  0.00     0.313 C 
ATOM      8  O   UNL A   1      31.014  28.657  23.039  1.00  0.00    -0.252 OA
BRANCH   7   9
ATOM      9  C   UNL A   1      30.869  27.791  25.292  1.00  0.00     0.126 C 
ATOM     10  C   UNL A   1      30.766  26.393  25.913  1.00  0.00     0.025 C 
BRANCH   9  11
ATOM     11  C   UNL A   1      31.916  28.685  25.957  1.00  0.00    -0.034 A 
ATOM     12  C   UNL A   1      33.038  28.076  26.529  1.00  0.00     0.005 A 
ATOM     13  C   UNL A   1      31.876  30.089  25.981  1.00  0.00     0.005 A 
ATOM     14  C   UNL A   1      34.039  28.831  27.144  1.00  0.00     0.004 A 
ATOM     15  C   UNL A   1      32.829  30.840  26.686  1.00  0.00     0.004 A 
ATOM     16  C   UNL A   1      33.905  30.210  27.313  1.00  0.00    -0.048 A 
BRANCH  16  17
ATOM     17  C   UNL A   1      34.889  31.000  28.143  1.00  0.00     0.041 C 
BRANCH  17  18
ATOM     18  C   UNL A   1      35.194  32.462  27.732  1.00  0.00     0.022 C 
ATOM     19  C   UNL A   1      36.539  33.020  28.218  1.00  0.00     0.007 C 
ATOM     20  C   UNL A   1      34.184  33.498  28.235  1.00  0.00     0.117 C 
ATOM     21  C   UNL A   1      36.246  33.862  29.463  1.00  0.00     0.003 C 
ATOM     22  C   UNL A   1      34.725  33.977  29.578  1.00  0.00     0.032 C 
BRANCH  20  23
ATOM     23  O   UNL A   1      34.142  34.594  27.322  1.00  0.00    -0.393 OA
ATOM     24  H   UNL A   1      34.220  34.261  26.413  1.00  0.00     0.210 HD
ENDBRANCH  20  23
ENDBRANCH  17  18
ENDBRANCH  16  17
ENDBRANCH   9  11
ENDBRANCH   7   9
ENDBRANCH   6   7
ENDBRANCH   5   6
ENDBRANCH   4   5
ENDBRANCH   3   4
ENDBRANCH   2   3
ENDBRANCH   1   2
BRANCH   1  25
ATOM     25  O   UNL A   1      32.736  22.186  26.389  1.00  0.00    -0.377 OA
BRANCH  25  26
ATOM     26  C   UNL A   1      33.729  23.183  26.503  1.00  0.00     0.188 C 
BRANCH  26  27
ATOM     27  C   UNL A   1      35.127  22.576  26.687  1.00  0.00     0.188 C 
BRANCH  27  28
ATOM     28  O   UNL A   1      36.269  23.405  26.874  1.00  0.00    -0.376 OA
BRANCH  28  29
ATOM     29  C   UNL A   1      37.307  23.489  25.913  1.00  0.00     0.202 C 
BRANCH  29  30
ATOM     30  C   UNL A   1      38.776  23.792  26.280  1.00  0.00     0.261 C 
BRANCH  30  31
ATOM     31  O   UNL A   1      39.042  24.507  27.486  1.00  0.00    -0.460 OA
BRANCH  31  32
ATOM     32  C   UNL A   1      40.064  25.386  27.438  1.00  0.00     0.338 C 
ATOM     33  O   UNL A   1      40.964  25.426  26.611  1.00  0.00    -0.246 OA
BRANCH  32  34
ATOM     34  C   UNL A   1      39.844  26.408  28.480  1.00  0.00     0.060 A 
ATOM     35  C   UNL A   1      40.474  27.651  28.344  1.00  0.00     0.016 A 
ATOM     36  C   UNL A   1      39.042  26.138  29.593  1.00  0.00     0.016 A 
ATOM     37  C   UNL A   1      40.326  28.622  29.330  1.00  0.00     0.010 A 
ATOM     38  C   UNL A   1      38.925  27.099  30.600  1.00  0.00     0.010 A 
ATOM     39  C   UNL A   1      39.596  28.329  30.487  1.00  0.00    -0.014 A 
BRANCH  39  40
ATOM     40  C   UNL A   1      39.728  29.225  31.660  1.00  0.00     0.031 A 
ATOM     41  C   UNL A   1      40.905  29.024  32.575  1.00  0.00     0.074 A 
ATOM     42  C   UNL A   1      38.857  30.225  31.874  1.00  0.00     0.049 A 
ATOM     43  N   UNL A   1      41.223  29.663  33.669  1.00  0.00    -0.248 NA
ATOM     44  C   UNL A   1      41.852  27.958  32.203  1.00  0.00     0.031 C 
ATOM     45  C   UNL A   1      37.717  30.554  31.018  1.00  0.00     0.029 A 
ATOM     46  N   UNL A   1      38.799  31.151  32.885  1.00  0.00    -0.354 N 
ATOM     47  C   UNL A   1      42.393  29.066  34.126  1.00  0.00     0.074 A 
ATOM     48  C   UNL A   1      42.719  28.003  33.203  1.00  0.00     0.031 C 
ATOM     49  C   UNL A   1      37.069  31.607  31.545  1.00  0.00     0.029 A 
ATOM     50  C   UNL A   1      37.720  31.997  32.794  1.00  0.00     0.049 A 
ATOM     51  H   UNL A   1      39.467  31.203  33.606  1.00  0.00     0.167 HD
ATOM     52  C   UNL A   1      43.130  29.378  35.218  1.00  0.00     0.031 A 
ATOM     53  C   UNL A   1      37.296  32.956  33.640  1.00  0.00     0.031 A 
ATOM     54  C   UNL A   1      42.788  30.429  36.140  1.00  0.00     0.049 A 
ATOM     55  C   UNL A   1      38.083  33.226  34.897  1.00  0.00     0.074 A 
ATOM     56  C   UNL A   1      43.470  30.835  37.272  1.00  0.00     0.029 A 
ATOM     57  N   UNL A   1      41.660  31.230  36.042  1.00  0.00    -0.354 N 
ATOM     58  N   UNL A   1      39.198  32.669  35.310  1.00  0.00    -0.248 NA
ATOM     59  C   UNL A   1      37.558  34.259  35.801  1.00  0.00     0.031 C 
ATOM     60  C   UNL A   1      42.720  31.836  37.896  1.00  0.00     0.029 A 
ATOM     61  C   UNL A   1      41.610  32.107  37.111  1.00  0.00     0.049 A 
ATOM     62  H   UNL A   1      40.994  31.183  35.319  1.00  0.00     0.167 HD
ATOM     63  C   UNL A   1      39.523  33.306  36.503  1.00  0.00     0.074 A 
ATOM     64  C   UNL A   1      38.496  34.300  36.738  1.00  0.00     0.031 C 
ATOM     65  C   UNL A   1      40.579  33.092  37.329  1.00  0.00     0.031 A 
BRANCH  52  66
ATOM     66  C   UNL A   1      44.347  28.537  35.505  1.00  0.00    -0.014 A 
ATOM     67  C   UNL A   1      45.508  28.630  34.716  1.00  0.00     0.010 A 
ATOM     68  C   UNL A   1      44.337  27.661  36.605  1.00  0.00     0.010 A 
ATOM     69  C   UNL A   1      46.623  27.835  35.002  1.00  0.00     0.020 A 
ATOM     70  C   UNL A   1      45.460  26.888  36.914  1.00  0.00     0.020 A 
ATOM     71  C   UNL A   1      46.591  26.969  36.100  1.00  0.00     0.054 A 
BRANCH  71  72
ATOM     72  S   UNL A   1      48.062  25.973  36.465  1.00  0.00     0.124 S 
ATOM     73  O   UNL A   1      48.056  25.011  35.366  1.00  0.00    -0.237 OA
ATOM     74  O   UNL A   1      49.135  26.963  36.429  1.00  0.00    -0.237 OA
ATOM     75  O   UNL A   1      47.782  25.410  37.784  1.00  0.00    -0.744 OA
ENDBRANCH  71  72
ENDBRANCH  52  66
BRANCH  53  76
ATOM     76  C   UNL A   1      36.049  33.714  33.343  1.00  0.00    -0.014 A 
ATOM     77  C   UNL A   1      36.102  35.063  32.950  1.00  0.00     0.010 A 
ATOM     78  C   UNL A   1      34.794  33.087  33.456  1.00  0.00     0.010 A 
ATOM     79  C   UNL A   1      34.926  35.773  32.690  1.00  0.00     0.020 A 
ATOM     80  C   UNL A   1      33.618  33.783  33.168  1.00  0.00     0.020 A 
ATOM     81  C   UNL A   1      33.691  35.127  32.796  1.00  0.00     0.054 A 
BRANCH  81  82
ATOM     82  S   UNL A   1      32.181  36.052  32.401  1.00  0.00     0.124 S 
ATOM     83  O   UNL A   1      32.261  37.176  33.328  1.00  0.00    -0.237 OA
ATOM     84  O   UNL A   1      32.375  36.379  30.990  1.00  0.00    -0.237 OA
ATOM     85  O   UNL A   1      31.112  35.092  32.668  1.00  0.00    -0.744 OA
ENDBRANCH  81  82
ENDBRANCH  53  76
BRANCH  65  86
ATOM     86  C   UNL A   1      40.707  33.979  38.542  1.00  0.00    -0.014 A 
ATOM     87  C   UNL A   1      41.621  35.047  38.577  1.00  0.00     0.010 A 
ATOM     88  C   UNL A   1      39.851  33.774  39.639  1.00  0.00     0.010 A 
ATOM     89  C   UNL A   1      41.699  35.871  39.704  1.00  0.00     0.020 A 
ATOM     90  C   UNL A   1      39.902  34.615  40.753  1.00  0.00     0.020 A 
ATOM     91  C   UNL A   1      40.838  35.651  40.784  1.00  0.00     0.054 A 
BRANCH  91  92
ATOM     92  S   UNL A   1      40.930  36.761  42.215  1.00  0.00     0.124 S 
ATOM     93  O   UNL A   1      41.775  37.839  41.709  1.00  0.00    -0.237 OA
ATOM     94  O   UNL A   1      39.529  37.111  42.439  1.00  0.00    -0.237 OA
ATOM     95  O   UNL A   1      41.533  35.935  43.259  1.00  0.00    -0.744 OA
ENDBRANCH  91  92
ENDBRANCH  65  86
ENDBRANCH  39  40
ENDBRANCH  32  34
ENDBRANCH  31  32
ENDBRANCH  30  31
ENDBRANCH  29  30
ENDBRANCH  28  29
ENDBRANCH  27  28
ENDBRANCH  26  27
ENDBRANCH  25  26
ENDBRANCH   1  25
TORSDOF 27
ENDMDL
MODEL 3
REMARK VINA RESULT:      -7.7      5.496     13.563
REMARK SMILES C[C@H](C(=O)OCCOCCOCCOCCOC(=O)c1ccc(-c2c3nc(c(-c4ccc(S(=O)(=O)[O-])cc4)c4ccc([nH]4)c(-c4ccc(S(=O)(=O)[O-])cc4)c4nc(c(-c5ccc(S(=O)(=O)[O-])cc5)c5ccc2[nH]5)C=C4)C=C3)cc1)c1ccc(C[C@@H]2CCC[C@H]2O)cc1
REMARK SMILES IDX 10 1 9 2 8 3 7 4 6 5 5 6 3 7 4 8 2 9 1 10 80 11 81 12 92 13
REMARK SMILES IDX 82 14 91 15 83 16 84 17 85 18 86 19 89 20 87 21 88 22 90 23
REMARK SMILES IDX 11 25 12 26 13 27 14 28 15 29 16 30 17 31 18 32 19 33 20 34
REMARK SMILES IDX 21 35 79 36 22 37 78 38 23 39 24 40 25 41 72 42 26 43 77 44
REMARK SMILES IDX 71 45 73 46 27 47 76 48 70 49 69 50 28 52 58 53 39 54 57 55
REMARK SMILES IDX 40 56 43 57 56 58 74 59 41 60 42 61 55 63 75 64 44 65 29 66
REMARK SMILES IDX 30 67 38 68 31 69 37 70 32 71 33 72 34 73 35 74 36 75 59 76
REMARK SMILES IDX 60 77 68 78 61 79 67 80 62 81 63 82 64 83 65 84 66 85 45 86
REMARK SMILES IDX 46 87 54 88 47 89 53 90 48 91 49 92 50 93 51 94 52 95
REMARK H PARENT 90 24 73 51 43 62
REMARK Flexibility Score: inf
ROOT
ATOM      1  C   UNL A   1      45.955  23.620  35.490  1.00  0.00     0.188 C 
ENDROOT
BRANCH   1   2
ATOM      2  C   UNL A   1      45.388  22.344  36.112  1.00  0.00     0.188 C 
BRANCH   2   3
ATOM      3  O   UNL A   1      46.089  21.185  35.731  1.00  0.00    -0.376 OA
BRANCH   3   4
ATOM      4  C   UNL A   1      46.327  20.104  36.605  1.00  0.00     0.202 C 
BRANCH   4   5
ATOM      5  C   UNL A   1      46.237  20.140  38.148  1.00  0.00     0.261 C 
BRANCH   5   6
ATOM      6  O   UNL A   1      47.006  19.217  38.934  1.00  0.00    -0.463 OA
BRANCH   6   7
ATOM      7  C   UNL A   1      47.741  19.732  39.956  1.00  0.00     0.313 C 
ATOM      8  O   UNL A   1      47.941  20.937  40.097  1.00  0.00    -0.252 OA
BRANCH   7   9
ATOM      9  C   UNL A   1      48.227  18.712  41.002  1.00  0.00     0.126 C 
ATOM     10  C   UNL A   1      49.240  19.385  41.936  1.00  0.00     0.025 C 
BRANCH   9  11
ATOM     11  C   UNL A   1      47.185  17.863  41.732  1.00  0.00    -0.034 A 
ATOM     12  C   UNL A   1      47.328  16.472  41.702  1.00  0.00     0.005 A 
ATOM     13  C   UNL A   1      46.123  18.375  42.495  1.00  0.00     0.005 A 
ATOM     14  C   UNL A   1      46.420  15.636  42.354  1.00  0.00     0.004 A 
ATOM     15  C   UNL A   1      45.155  17.534  43.065  1.00  0.00     0.004 A 
ATOM     16  C   UNL A   1      45.273  16.147  42.964  1.00  0.00    -0.048 A 
BRANCH  16  17
ATOM     17  C   UNL A   1      44.195  15.236  43.501  1.00  0.00     0.041 C 
BRANCH  17  18
ATOM     18  C   UNL A   1      42.757  15.389  42.947  1.00  0.00     0.022 C 
ATOM     19  C   UNL A   1      41.660  14.663  43.739  1.00  0.00     0.007 C 
ATOM     20  C   UNL A   1      42.557  14.872  41.519  1.00  0.00     0.117 C 
ATOM     21  C   UNL A   1      41.370  13.356  42.996  1.00  0.00     0.003 C 
ATOM     22  C   UNL A   1      42.127  13.417  41.668  1.00  0.00     0.032 C 
BRANCH  20  23
ATOM     23  O   UNL A   1      41.511  15.614  40.893  1.00  0.00    -0.393 OA
ATOM     24  H   UNL A   1      40.669  15.425  41.338  1.00  0.00     0.210 HD
ENDBRANCH  20  23
ENDBRANCH  17  18
ENDBRANCH  16  17
ENDBRANCH   9  11
ENDBRANCH   7   9
ENDBRANCH   6   7
ENDBRANCH   5   6
ENDBRANCH   4   5
ENDBRANCH   3   4
ENDBRANCH   2   3
ENDBRANCH   1   2
BRANCH   1  25
ATOM     25  O   UNL A   1      45.348  24.277  34.398  1.00  0.00    -0.377 OA
BRANCH  25  26
ATOM     26  C   UNL A   1      46.202  24.881  33.450  1.00  0.00     0.188 C 
BRANCH  26  27
ATOM     27  C   UNL A   1      47.658  24.423  33.621  1.00  0.00     0.188 C 
BRANCH  27  28
ATOM     28  O   UNL A   1      48.717  25.367  33.733  1.00  0.00    -0.376 OA
BRANCH  28  29
ATOM     29  C   UNL A   1      49.819  25.169  34.602  1.00  0.00     0.202 C 
BRANCH  29  30
ATOM     30  C   UNL A   1      50.239  26.190  35.681  1.00  0.00     0.261 C 
BRANCH  30  31
ATOM     31  O   UNL A   1      49.287  27.169  36.098  1.00  0.00    -0.460 OA
BRANCH  31  32
ATOM     32  C   UNL A   1      48.194  26.697  36.731  1.00  0.00     0.338 C 
ATOM     33  O   UNL A   1      48.154  25.811  37.572  1.00  0.00    -0.246 OA
BRANCH  32  34
ATOM     34  C   UNL A   1      47.041  27.537  36.351  1.00  0.00     0.060 A 
ATOM     35  C   UNL A   1      45.759  27.138  36.749  1.00  0.00     0.016 A 
ATOM     36  C   UNL A   1      47.217  28.695  35.588  1.00  0.00     0.016 A 
ATOM     37  C   UNL A   1      44.646  27.880  36.369  1.00  0.00     0.010 A 
ATOM     38  C   UNL A   1      46.095  29.419  35.175  1.00  0.00     0.010 A 
ATOM     39  C   UNL A   1      44.805  28.991  35.535  1.00  0.00    -0.014 A 
BRANCH  39  40
ATOM     40  C   UNL A   1      43.611  29.560  34.867  1.00  0.00     0.031 A 
ATOM     41  C   UNL A   1      43.228  29.015  33.519  1.00  0.00     0.074 A 
ATOM     42  C   UNL A   1      42.856  30.495  35.468  1.00  0.00     0.049 A 
ATOM     43  N   UNL A   1      42.244  29.364  32.732  1.00  0.00    -0.248 NA
ATOM     44  C   UNL A   1      44.068  27.928  32.985  1.00  0.00     0.031 C 
ATOM     45  C   UNL A   1      43.095  31.049  36.801  1.00  0.00     0.029 A 
ATOM     46  N   UNL A   1      41.730  31.143  35.029  1.00  0.00    -0.354 N 
ATOM     47  C   UNL A   1      42.357  28.555  31.607  1.00  0.00     0.074 A 
ATOM     48  C   UNL A   1      43.515  27.712  31.801  1.00  0.00     0.031 C 
ATOM     49  C   UNL A   1      42.143  31.960  37.068  1.00  0.00     0.029 A 
ATOM     50  C   UNL A   1      41.258  32.085  35.912  1.00  0.00     0.049 A 
ATOM     51  H   UNL A   1      41.301  30.953  34.163  1.00  0.00     0.167 HD
ATOM     52  C   UNL A   1      41.567  28.519  30.509  1.00  0.00     0.031 A 
ATOM     53  C   UNL A   1      40.244  32.963  35.785  1.00  0.00     0.031 A 
ATOM     54  C   UNL A   1      40.425  29.374  30.318  1.00  0.00     0.049 A 
ATOM     55  C   UNL A   1      39.431  32.966  34.515  1.00  0.00     0.074 A 
ATOM     56  C   UNL A   1      39.549  29.413  29.248  1.00  0.00     0.029 A 
ATOM     57  N   UNL A   1      40.009  30.350  31.213  1.00  0.00    -0.354 N 
ATOM     58  N   UNL A   1      39.535  32.185  33.465  1.00  0.00    -0.248 NA
ATOM     59  C   UNL A   1      38.359  33.965  34.415  1.00  0.00     0.031 C 
ATOM     60  C   UNL A   1      38.645  30.457  29.464  1.00  0.00     0.029 A 
ATOM     61  C   UNL A   1      38.909  31.018  30.704  1.00  0.00     0.049 A 
ATOM     62  H   UNL A   1      40.433  30.538  32.081  1.00  0.00     0.167 HD
ATOM     63  C   UNL A   1      38.523  32.578  32.596  1.00  0.00     0.074 A 
ATOM     64  C   UNL A   1      37.809  33.656  33.249  1.00  0.00     0.031 C 
ATOM     65  C   UNL A   1      38.209  32.089  31.369  1.00  0.00     0.031 A 
BRANCH  52  66
ATOM     66  C   UNL A   1      41.942  27.563  29.407  1.00  0.00    -0.014 A 
ATOM     67  C   UNL A   1      41.265  26.341  29.230  1.00  0.00     0.010 A 
ATOM     68  C   UNL A   1      42.971  27.909  28.513  1.00  0.00     0.010 A 
ATOM     69  C   UNL A   1      41.636  25.470  28.201  1.00  0.00     0.020 A 
ATOM     70  C   UNL A   1      43.323  27.056  27.464  1.00  0.00     0.020 A 
ATOM     71  C   UNL A   1      42.663  25.834  27.324  1.00  0.00     0.054 A 
BRANCH  71  72
ATOM     72  S   UNL A   1      43.102  24.698  25.980  1.00  0.00     0.124 S 
ATOM     73  O   UNL A   1      42.319  23.512  26.318  1.00  0.00    -0.237 OA
ATOM     74  O   UNL A   1      42.663  25.424  24.792  1.00  0.00    -0.237 OA
ATOM     75  O   UNL A   1      44.549  24.545  26.113  1.00  0.00    -0.744 OA
ENDBRANCH  71  72
ENDBRANCH  52  66
BRANCH  53  76
ATOM     76  C   UNL A   1      39.956  33.933  36.878  1.00  0.00    -0.014 A 
ATOM     77  C   UNL A   1      39.332  33.515  38.066  1.00  0.00     0.010 A 
ATOM     78  C   UNL A   1      40.303  35.289  36.731  1.00  0.00     0.010 A 
ATOM     79  C   UNL A   1      39.049  34.435  39.080  1.00  0.00     0.020 A 
ATOM     80  C   UNL A   1      40.050  36.206  37.754  1.00  0.00     0.020 A 
ATOM     81  C   UNL A   1      39.415  35.774  38.919  1.00  0.00     0.054 A 
BRANCH  81  82
ATOM     82  S   UNL A   1      39.087  36.940  40.271  1.00  0.00     0.124 S 
ATOM     83  O   UNL A   1      38.469  38.059  39.565  1.00  0.00    -0.237 OA
ATOM     84  O   UNL A   1      38.200  36.170  41.140  1.00  0.00    -0.237 OA
ATOM     85  O   UNL A   1      40.413  37.203  40.825  1.00  0.00    -0.744 OA
ENDBRANCH  81  82
ENDBRANCH  53  76
BRANCH  65  86
ATOM     86  C   UNL A   1      37.012  32.681  30.667  1.00  0.00    -0.014 A 
ATOM     87  C   UNL A   1      35.730  32.121  30.804  1.00  0.00     0.010 A 
ATOM     88  C   UNL A   1      37.169  33.856  29.909  1.00  0.00     0.010 A 
ATOM     89  C   UNL A   1      34.633  32.707  30.165  1.00  0.00     0.020 A 
ATOM     90  C   UNL A   1      36.071  34.464  29.297  1.00  0.00     0.020 A 
ATOM     91  C   UNL A   1      34.810  33.876  29.417  1.00  0.00     0.054 A 
BRANCH  91  92
ATOM     92  S   UNL A   1      33.364  34.639  28.635  1.00  0.00     0.124 S 
ATOM     93  O   UNL A   1      33.966  35.738  27.886  1.00  0.00    -0.237 OA
ATOM     94  O   UNL A   1      32.824  33.548  27.826  1.00  0.00    -0.237 OA
ATOM     95  O   UNL A   1      32.528  35.040  29.764  1.00  0.00    -0.744 OA
ENDBRANCH  91  92
ENDBRANCH  65  86
ENDBRANCH  39  40
ENDBRANCH  32  34
ENDBRANCH  31  32
ENDBRANCH  30  31
ENDBRANCH  29  30
ENDBRANCH  28  29
ENDBRANCH  27  28
ENDBRANCH  26  27
ENDBRANCH  25  26
ENDBRANCH   1  25
TORSDOF 27
ENDMDL
