MODEL 1
REMARK VINA RESULT:      -9.7      0.000      0.000
REMARK SMILES CCCc1c(C(=O)OCCOCCOCCOCCOC(=O)c2ccc(-c3c4nc(c(-c5ccc(S(=O)(=O)[O-])cc5)c5ccc([nH]5)c(-c5ccc(S(=O)(=O)[O-])cc5)c5nc(c(-c6ccc(S(=O)(=O)[O-])cc6)c6ccc3[nH]6)C=C5)C=C4)cc2)nnn1-c1cc(OC)ccc1F
REMARK SMILES IDX 15 1 14 2 13 3 12 4 11 5 10 6 9 7 8 8 6 9 7 10 5 11 4 12
REMARK SMILES IDX 85 13 83 14 84 15 3 16 2 17 1 18 86 19 87 20 93 21 88 22
REMARK SMILES IDX 92 23 94 24 91 25 89 26 90 27 16 28 17 29 18 30 19 31 20 32
REMARK SMILES IDX 21 33 22 34 23 35 24 36 82 37 25 38 81 39 26 40 27 41 28 42
REMARK SMILES IDX 75 43 29 44 80 45 74 46 76 47 30 48 79 49 73 50 72 51 31 53
REMARK SMILES IDX 61 54 42 55 60 56 43 57 46 58 59 59 77 60 44 61 45 62 58 64
REMARK SMILES IDX 78 65 47 66 32 67 33 68 41 69 34 70 40 71 35 72 36 73 37 74
REMARK SMILES IDX 38 75 39 76 62 77 63 78 71 79 64 80 70 81 65 82 66 83 67 84
REMARK SMILES IDX 68 85 69 86 48 87 49 88 57 89 50 90 56 91 51 92 52 93 53 94
REMARK SMILES IDX 54 95 55 96
REMARK H PARENT 76 52 46 63
REMARK Flexibility Score: inf
ROOT
ATOM      1  C   UNL A   1      32.948  36.759  31.143  1.00  0.00     0.188 C 
ENDROOT
BRANCH   1   2
ATOM      2  O   UNL A   1      33.197  35.539  30.465  1.00  0.00    -0.377 OA
BRANCH   2   3
ATOM      3  C   UNL A   1      33.076  35.455  29.049  1.00  0.00     0.188 C 
BRANCH   3   4
ATOM      4  C   UNL A   1      33.194  34.141  28.245  1.00  0.00     0.188 C 
BRANCH   4   5
ATOM      5  O   UNL A   1      34.196  33.265  28.713  1.00  0.00    -0.376 OA
BRANCH   5   6
ATOM      6  C   UNL A   1      34.296  31.930  28.292  1.00  0.00     0.202 C 
BRANCH   6   7
ATOM      7  C   UNL A   1      33.293  31.315  27.305  1.00  0.00     0.261 C 
BRANCH   7   8
ATOM      8  O   UNL A   1      32.775  30.020  27.614  1.00  0.00    -0.458 OA
BRANCH   8   9
ATOM      9  C   UNL A   1      33.564  28.954  27.294  1.00  0.00     0.360 C 
ATOM     10  O   UNL A   1      34.759  28.887  27.545  1.00  0.00    -0.244 OA
BRANCH   9  11
ATOM     11  C   UNL A   1      32.795  27.857  26.722  1.00  0.00     0.194 A 
ATOM     12  C   UNL A   1      32.885  27.260  25.469  1.00  0.00     0.080 A 
ATOM     13  N   UNL A   1      31.961  26.224  25.548  1.00  0.00    -0.214 N 
ATOM     14  N   UNL A   1      31.719  27.328  27.392  1.00  0.00    -0.122 NA
ATOM     15  N   UNL A   1      31.143  26.431  26.606  1.00  0.00    -0.061 NA
BRANCH  12  16
ATOM     16  C   UNL A   1      33.730  27.578  24.276  1.00  0.00     0.059 C 
BRANCH  16  17
ATOM     17  C   UNL A   1      33.141  28.638  23.336  1.00  0.00     0.003 C 
ATOM     18  C   UNL A   1      31.895  28.180  22.596  1.00  0.00     0.004 C 
ENDBRANCH  16  17
ENDBRANCH  12  16
BRANCH  13  19
ATOM     19  C   UNL A   1      31.856  25.033  24.805  1.00  0.00     0.106 A 
ATOM     20  C   UNL A   1      32.906  24.103  24.805  1.00  0.00     0.078 A 
ATOM     21  C   UNL A   1      30.754  24.823  23.980  1.00  0.00     0.149 A 
ATOM     22  C   UNL A   1      32.811  22.938  24.034  1.00  0.00     0.121 A 
ATOM     23  C   UNL A   1      30.660  23.674  23.206  1.00  0.00     0.045 A 
ATOM     24  F   UNL A   1      29.818  25.767  23.811  1.00  0.00    -0.205 F 
ATOM     25  C   UNL A   1      31.679  22.722  23.243  1.00  0.00     0.049 A 
BRANCH  22  26
ATOM     26  O   UNL A   1      33.881  22.091  24.133  1.00  0.00    -0.497 OA
ATOM     27  C   UNL A   1      34.202  21.613  25.435  1.00  0.00     0.278 C 
ENDBRANCH  22  26
ENDBRANCH  13  19
ENDBRANCH   9  11
ENDBRANCH   8   9
ENDBRANCH   7   8
ENDBRANCH   6   7
ENDBRANCH   5   6
ENDBRANCH   4   5
ENDBRANCH   3   4
ENDBRANCH   2   3
ENDBRANCH   1   2
BRANCH   1  28
ATOM     28  C   UNL A   1      33.219  36.728  32.661  1.00  0.00     0.188 C 
BRANCH  28  29
ATOM     29  O   UNL A   1      33.854  35.542  33.115  1.00  0.00    -0.376 OA
BRANCH  29  30
ATOM     30  C   UNL A   1      35.249  35.334  32.962  1.00  0.00     0.202 C 
BRANCH  30  31
ATOM     31  C   UNL A   1      36.060  34.401  33.857  1.00  0.00     0.261 C 
BRANCH  31  32
ATOM     32  O   UNL A   1      35.970  33.023  33.568  1.00  0.00    -0.460 OA
BRANCH  32  33
ATOM     33  C   UNL A   1      35.150  32.683  32.563  1.00  0.00     0.338 C 
ATOM     34  O   UNL A   1      33.936  32.693  32.560  1.00  0.00    -0.246 OA
BRANCH  33  35
ATOM     35  C   UNL A   1      35.990  32.112  31.505  1.00  0.00     0.060 A 
ATOM     36  C   UNL A   1      35.978  30.724  31.422  1.00  0.00     0.016 A 
ATOM     37  C   UNL A   1      37.058  32.896  31.036  1.00  0.00     0.016 A 
ATOM     38  C   UNL A   1      37.173  30.104  31.162  1.00  0.00     0.010 A 
ATOM     39  C   UNL A   1      38.259  32.276  30.825  1.00  0.00     0.010 A 
ATOM     40  C   UNL A   1      38.315  30.896  30.985  1.00  0.00    -0.014 A 
BRANCH  40  41
ATOM     41  C   UNL A   1      39.573  30.220  30.786  1.00  0.00     0.031 A 
ATOM     42  C   UNL A   1      40.339  30.179  32.044  1.00  0.00     0.074 A 
ATOM     43  C   UNL A   1      39.931  29.645  29.625  1.00  0.00     0.049 A 
ATOM     44  N   UNL A   1      41.333  30.932  32.371  1.00  0.00    -0.248 NA
ATOM     45  C   UNL A   1      39.758  29.420  33.168  1.00  0.00     0.031 C 
ATOM     46  C   UNL A   1      39.112  29.405  28.435  1.00  0.00     0.029 A 
ATOM     47  N   UNL A   1      41.106  29.044  29.312  1.00  0.00    -0.354 N 
ATOM     48  C   UNL A   1      41.672  30.531  33.654  1.00  0.00     0.074 A 
ATOM     49  C   UNL A   1      40.524  29.838  34.174  1.00  0.00     0.031 C 
ATOM     50  C   UNL A   1      39.740  28.503  27.642  1.00  0.00     0.029 A 
ATOM     51  C   UNL A   1      41.049  28.205  28.205  1.00  0.00     0.049 A 
ATOM     52  H   UNL A   1      41.933  29.191  29.826  1.00  0.00     0.167 HD
ATOM     53  C   UNL A   1      42.978  30.472  34.037  1.00  0.00     0.031 A 
ATOM     54  C   UNL A   1      41.984  27.285  27.850  1.00  0.00     0.031 A 
ATOM     55  C   UNL A   1      43.816  31.241  33.148  1.00  0.00     0.049 A 
ATOM     56  C   UNL A   1      43.241  27.643  28.560  1.00  0.00     0.074 A 
ATOM     57  C   UNL A   1      43.842  32.560  32.737  1.00  0.00     0.029 A 
ATOM     58  N   UNL A   1      44.542  30.532  32.220  1.00  0.00    -0.354 N 
ATOM     59  N   UNL A   1      43.938  28.712  28.292  1.00  0.00    -0.248 NA
ATOM     60  C   UNL A   1      43.471  27.064  29.875  1.00  0.00     0.031 C 
ATOM     61  C   UNL A   1      44.207  32.513  31.360  1.00  0.00     0.029 A 
ATOM     62  C   UNL A   1      44.466  31.184  31.019  1.00  0.00     0.049 A 
ATOM     63  H   UNL A   1      45.034  29.696  32.390  1.00  0.00     0.167 HD
ATOM     64  C   UNL A   1      44.344  29.189  29.531  1.00  0.00     0.074 A 
ATOM     65  C   UNL A   1      44.111  28.083  30.458  1.00  0.00     0.031 C 
ATOM     66  C   UNL A   1      44.557  30.524  29.733  1.00  0.00     0.031 A 
BRANCH  53  67
ATOM     67  C   UNL A   1      43.518  29.340  34.881  1.00  0.00    -0.014 A 
ATOM     68  C   UNL A   1      43.307  28.020  34.441  1.00  0.00     0.010 A 
ATOM     69  C   UNL A   1      43.970  29.502  36.210  1.00  0.00     0.010 A 
ATOM     70  C   UNL A   1      43.454  26.933  35.312  1.00  0.00     0.020 A 
ATOM     71  C   UNL A   1      44.163  28.425  37.071  1.00  0.00     0.020 A 
ATOM     72  C   UNL A   1      43.871  27.147  36.625  1.00  0.00     0.054 A 
BRANCH  72  73
ATOM     73  S   UNL A   1      43.985  25.750  37.763  1.00  0.00     0.124 S 
ATOM     74  O   UNL A   1      42.977  24.844  37.227  1.00  0.00    -0.237 OA
ATOM     75  O   UNL A   1      45.375  25.333  37.594  1.00  0.00    -0.237 OA
ATOM     76  O   UNL A   1      43.673  26.343  39.063  1.00  0.00    -0.744 OA
ENDBRANCH  72  73
ENDBRANCH  53  67
BRANCH  54  77
ATOM     77  C   UNL A   1      41.798  25.951  27.218  1.00  0.00    -0.014 A 
ATOM     78  C   UNL A   1      42.892  25.273  26.643  1.00  0.00     0.010 A 
ATOM     79  C   UNL A   1      40.621  25.212  27.445  1.00  0.00     0.010 A 
ATOM     80  C   UNL A   1      42.839  23.891  26.387  1.00  0.00     0.020 A 
ATOM     81  C   UNL A   1      40.557  23.836  27.183  1.00  0.00     0.020 A 
ATOM     82  C   UNL A   1      41.677  23.176  26.685  1.00  0.00     0.054 A 
BRANCH  82  83
ATOM     83  S   UNL A   1      41.684  21.361  26.554  1.00  0.00     0.124 S 
ATOM     84  O   UNL A   1      42.574  21.133  25.420  1.00  0.00    -0.237 OA
ATOM     85  O   UNL A   1      42.201  20.949  27.856  1.00  0.00    -0.237 OA
ATOM     86  O   UNL A   1      40.280  21.029  26.317  1.00  0.00    -0.744 OA
ENDBRANCH  82  83
ENDBRANCH  54  77
BRANCH  66  87
ATOM     87  C   UNL A   1      44.715  31.421  28.530  1.00  0.00    -0.014 A 
ATOM     88  C   UNL A   1      45.681  31.250  27.519  1.00  0.00     0.010 A 
ATOM     89  C   UNL A   1      43.739  32.420  28.361  1.00  0.00     0.010 A 
ATOM     90  C   UNL A   1      45.688  32.084  26.390  1.00  0.00     0.020 A 
ATOM     91  C   UNL A   1      43.726  33.237  27.231  1.00  0.00     0.020 A 
ATOM     92  C   UNL A   1      44.710  33.077  26.256  1.00  0.00     0.054 A 
BRANCH  92  93
ATOM     93  S   UNL A   1      44.706  34.148  24.792  1.00  0.00     0.124 S 
ATOM     94  O   UNL A   1      44.450  33.203  23.709  1.00  0.00    -0.237 OA
ATOM     95  O   UNL A   1      43.622  35.086  25.079  1.00  0.00    -0.237 OA
ATOM     96  O   UNL A   1      46.042  34.741  24.792  1.00  0.00    -0.744 OA
ENDBRANCH  92  93
ENDBRANCH  66  87
ENDBRANCH  40  41
ENDBRANCH  33  35
ENDBRANCH  32  33
ENDBRANCH  31  32
ENDBRANCH  30  31
ENDBRANCH  29  30
ENDBRANCH  28  29
ENDBRANCH   1  28
TORSDOF 27
ENDMDL
MODEL 2
REMARK VINA RESULT:      -9.2      2.767      4.133
REMARK SMILES CCCc1c(C(=O)OCCOCCOCCOCCOC(=O)c2ccc(-c3c4nc(c(-c5ccc(S(=O)(=O)[O-])cc5)c5ccc([nH]5)c(-c5ccc(S(=O)(=O)[O-])cc5)c5nc(c(-c6ccc(S(=O)(=O)[O-])cc6)c6ccc3[nH]6)C=C5)C=C4)cc2)nnn1-c1cc(OC)ccc1F
REMARK SMILES IDX 15 1 14 2 13 3 12 4 11 5 10 6 9 7 8 8 6 9 7 10 5 11 4 12
REMARK SMILES IDX 85 13 83 14 84 15 3 16 2 17 1 18 86 19 87 20 93 21 88 22
REMARK SMILES IDX 92 23 94 24 91 25 89 26 90 27 16 28 17 29 18 30 19 31 20 32
REMARK SMILES IDX 21 33 22 34 23 35 24 36 82 37 25 38 81 39 26 40 27 41 28 42
REMARK SMILES IDX 75 43 29 44 80 45 74 46 76 47 30 48 79 49 73 50 72 51 31 53
REMARK SMILES IDX 61 54 42 55 60 56 43 57 46 58 59 59 77 60 44 61 45 62 58 64
REMARK SMILES IDX 78 65 47 66 32 67 33 68 41 69 34 70 40 71 35 72 36 73 37 74
REMARK SMILES IDX 38 75 39 76 62 77 63 78 71 79 64 80 70 81 65 82 66 83 67 84
REMARK SMILES IDX 68 85 69 86 48 87 49 88 57 89 50 90 56 91 51 92 52 93 53 94
REMARK SMILES IDX 54 95 55 96
REMARK H PARENT 76 52 46 63
REMARK Flexibility Score: inf
ROOT
ATOM      1  C   UNL A   1      36.829  30.735  28.040  1.00  0.00     0.188 C 
ENDROOT
BRANCH   1   2
ATOM      2  O   UNL A   1      36.160  29.507  28.267  1.00  0.00    -0.377 OA
BRANCH   2   3
ATOM      3  C   UNL A   1      34.915  29.227  27.634  1.00  0.00     0.188 C 
BRANCH   3   4
ATOM      4  C   UNL A   1      33.971  30.310  27.065  1.00  0.00     0.188 C 
BRANCH   4   5
ATOM      5  O   UNL A   1      33.263  29.913  25.912  1.00  0.00    -0.376 OA
BRANCH   5   6
ATOM      6  C   UNL A   1      31.887  30.141  25.748  1.00  0.00     0.202 C 
BRANCH   6   7
ATOM      7  C   UNL A   1      31.043  29.325  24.757  1.00  0.00     0.261 C 
BRANCH   7   8
ATOM      8  O   UNL A   1      31.409  27.960  24.549  1.00  0.00    -0.458 OA
BRANCH   8   9
ATOM      9  C   UNL A   1      30.387  27.073  24.380  1.00  0.00     0.360 C 
ATOM     10  O   UNL A   1      29.337  27.338  23.813  1.00  0.00    -0.244 OA
BRANCH   9  11
ATOM     11  C   UNL A   1      30.738  25.739  24.851  1.00  0.00     0.194 A 
ATOM     12  C   UNL A   1      31.339  24.682  24.175  1.00  0.00     0.080 A 
ATOM     13  N   UNL A   1      31.490  23.721  25.168  1.00  0.00    -0.214 N 
ATOM     14  N   UNL A   1      30.367  25.315  26.104  1.00  0.00    -0.122 NA
ATOM     15  N   UNL A   1      30.712  24.043  26.228  1.00  0.00    -0.061 NA
BRANCH  12  16
ATOM     16  C   UNL A   1      31.754  24.525  22.747  1.00  0.00     0.059 C 
BRANCH  16  17
ATOM     17  C   UNL A   1      33.178  25.008  22.435  1.00  0.00     0.003 C 
ATOM     18  C   UNL A   1      33.242  26.429  21.904  1.00  0.00     0.004 C 
ENDBRANCH  16  17
ENDBRANCH  12  16
BRANCH  13  19
ATOM     19  C   UNL A   1      32.364  22.620  25.251  1.00  0.00     0.106 A 
ATOM     20  C   UNL A   1      31.868  21.313  25.145  1.00  0.00     0.078 A 
ATOM     21  C   UNL A   1      33.709  22.822  25.548  1.00  0.00     0.149 A 
ATOM     22  C   UNL A   1      32.738  20.221  25.267  1.00  0.00     0.121 A 
ATOM     23  C   UNL A   1      34.573  21.742  25.679  1.00  0.00     0.045 A 
ATOM     24  F   UNL A   1      34.186  24.040  25.837  1.00  0.00    -0.205 F 
ATOM     25  C   UNL A   1      34.094  20.442  25.523  1.00  0.00     0.049 A 
BRANCH  22  26
ATOM     26  O   UNL A   1      32.149  18.995  25.118  1.00  0.00    -0.497 OA
ATOM     27  C   UNL A   1      32.930  17.979  24.498  1.00  0.00     0.278 C 
ENDBRANCH  22  26
ENDBRANCH  13  19
ENDBRANCH   9  11
ENDBRANCH   8   9
ENDBRANCH   7   8
ENDBRANCH   6   7
ENDBRANCH   5   6
ENDBRANCH   4   5
ENDBRANCH   3   4
ENDBRANCH   2   3
ENDBRANCH   1   2
BRANCH   1  28
ATOM     28  C   UNL A   1      36.769  31.736  29.211  1.00  0.00     0.188 C 
BRANCH  28  29
ATOM     29  O   UNL A   1      35.784  31.433  30.187  1.00  0.00    -0.376 OA
BRANCH  29  30
ATOM     30  C   UNL A   1      35.229  32.433  31.026  1.00  0.00     0.202 C 
BRANCH  30  31
ATOM     31  C   UNL A   1      36.032  33.175  32.090  1.00  0.00     0.261 C 
BRANCH  31  32
ATOM     32  O   UNL A   1      36.924  32.397  32.857  1.00  0.00    -0.460 OA
BRANCH  32  33
ATOM     33  C   UNL A   1      38.222  32.491  32.529  1.00  0.00     0.338 C 
ATOM     34  O   UNL A   1      38.745  33.304  31.795  1.00  0.00    -0.246 OA
BRANCH  33  35
ATOM     35  C   UNL A   1      38.884  31.306  33.082  1.00  0.00     0.060 A 
ATOM     36  C   UNL A   1      40.180  31.512  33.545  1.00  0.00     0.016 A 
ATOM     37  C   UNL A   1      38.414  30.049  32.666  1.00  0.00     0.016 A 
ATOM     38  C   UNL A   1      41.099  30.528  33.287  1.00  0.00     0.010 A 
ATOM     39  C   UNL A   1      39.340  29.088  32.365  1.00  0.00     0.010 A 
ATOM     40  C   UNL A   1      40.680  29.384  32.595  1.00  0.00    -0.014 A 
BRANCH  40  41
ATOM     41  C   UNL A   1      41.678  28.395  32.271  1.00  0.00     0.031 A 
ATOM     42  C   UNL A   1      42.341  27.914  33.497  1.00  0.00     0.074 A 
ATOM     43  C   UNL A   1      41.891  27.936  31.027  1.00  0.00     0.049 A 
ATOM     44  N   UNL A   1      43.504  28.260  33.935  1.00  0.00    -0.248 NA
ATOM     45  C   UNL A   1      41.509  27.199  34.482  1.00  0.00     0.031 C 
ATOM     46  C   UNL A   1      41.089  28.158  29.822  1.00  0.00     0.029 A 
ATOM     47  N   UNL A   1      42.839  27.061  30.604  1.00  0.00    -0.354 N 
ATOM     48  C   UNL A   1      43.649  27.569  35.129  1.00  0.00     0.074 A 
ATOM     49  C   UNL A   1      42.323  27.189  35.536  1.00  0.00     0.031 C 
ATOM     50  C   UNL A   1      41.443  27.249  28.881  1.00  0.00     0.029 A 
ATOM     51  C   UNL A   1      42.573  26.474  29.372  1.00  0.00     0.049 A 
ATOM     52  H   UNL A   1      43.648  26.859  31.127  1.00  0.00     0.167 HD
ATOM     53  C   UNL A   1      44.856  27.048  35.482  1.00  0.00     0.031 A 
ATOM     54  C   UNL A   1      43.197  25.381  28.857  1.00  0.00     0.031 A 
ATOM     55  C   UNL A   1      45.926  27.655  34.726  1.00  0.00     0.049 A 
ATOM     56  C   UNL A   1      44.471  25.213  29.604  1.00  0.00     0.074 A 
ATOM     57  C   UNL A   1      46.372  28.950  34.543  1.00  0.00     0.029 A 
ATOM     58  N   UNL A   1      46.439  26.918  33.684  1.00  0.00    -0.354 N 
ATOM     59  N   UNL A   1      45.472  26.042  29.513  1.00  0.00    -0.248 NA
ATOM     60  C   UNL A   1      44.457  24.384  30.800  1.00  0.00     0.031 C 
ATOM     61  C   UNL A   1      46.763  29.019  33.175  1.00  0.00     0.029 A 
ATOM     62  C   UNL A   1      46.617  27.750  32.611  1.00  0.00     0.049 A 
ATOM     63  H   UNL A   1      46.644  25.955  33.706  1.00  0.00     0.167 HD
ATOM     64  C   UNL A   1      45.953  26.161  30.810  1.00  0.00     0.074 A 
ATOM     65  C   UNL A   1      45.353  25.045  31.540  1.00  0.00     0.031 C 
ATOM     66  C   UNL A   1      46.555  27.313  31.232  1.00  0.00     0.031 A 
BRANCH  53  67
ATOM     67  C   UNL A   1      44.988  25.682  36.118  1.00  0.00    -0.014 A 
ATOM     68  C   UNL A   1      45.522  25.601  37.417  1.00  0.00     0.010 A 
ATOM     69  C   UNL A   1      44.878  24.470  35.400  1.00  0.00     0.010 A 
ATOM     70  C   UNL A   1      45.999  24.388  37.931  1.00  0.00     0.020 A 
ATOM     71  C   UNL A   1      45.306  23.252  35.918  1.00  0.00     0.020 A 
ATOM     72  C   UNL A   1      45.897  23.224  37.170  1.00  0.00     0.054 A 
BRANCH  72  73
ATOM     73  S   UNL A   1      46.582  21.680  37.806  1.00  0.00     0.124 S 
ATOM     74  O   UNL A   1      45.742  20.686  37.147  1.00  0.00    -0.237 OA
ATOM     75  O   UNL A   1      47.968  21.750  37.349  1.00  0.00    -0.237 OA
ATOM     76  O   UNL A   1      46.402  21.798  39.253  1.00  0.00    -0.744 OA
ENDBRANCH  72  73
ENDBRANCH  53  67
BRANCH  54  77
ATOM     77  C   UNL A   1      42.638  24.293  28.011  1.00  0.00    -0.014 A 
ATOM     78  C   UNL A   1      43.306  23.881  26.840  1.00  0.00     0.010 A 
ATOM     79  C   UNL A   1      41.619  23.455  28.507  1.00  0.00     0.010 A 
ATOM     80  C   UNL A   1      43.028  22.640  26.240  1.00  0.00     0.020 A 
ATOM     81  C   UNL A   1      41.328  22.221  27.907  1.00  0.00     0.020 A 
ATOM     82  C   UNL A   1      42.056  21.806  26.795  1.00  0.00     0.054 A 
BRANCH  82  83
ATOM     83  S   UNL A   1      41.848  20.119  26.147  1.00  0.00     0.124 S 
ATOM     84  O   UNL A   1      40.570  20.208  25.447  1.00  0.00    -0.237 OA
ATOM     85  O   UNL A   1      43.023  19.955  25.297  1.00  0.00    -0.237 OA
ATOM     86  O   UNL A   1      41.838  19.287  27.350  1.00  0.00    -0.744 OA
ENDBRANCH  82  83
ENDBRANCH  54  77
BRANCH  66  87
ATOM     87  C   UNL A   1      47.032  28.302  30.195  1.00  0.00    -0.014 A 
ATOM     88  C   UNL A   1      46.235  29.310  29.617  1.00  0.00     0.010 A 
ATOM     89  C   UNL A   1      48.405  28.276  29.891  1.00  0.00     0.010 A 
ATOM     90  C   UNL A   1      46.797  30.241  28.730  1.00  0.00     0.020 A 
ATOM     91  C   UNL A   1      48.974  29.212  29.029  1.00  0.00     0.020 A 
ATOM     92  C   UNL A   1      48.165  30.182  28.438  1.00  0.00     0.054 A 
BRANCH  92  93
ATOM     93  S   UNL A   1      48.898  31.392  27.303  1.00  0.00     0.124 S 
ATOM     94  O   UNL A   1      47.730  31.915  26.600  1.00  0.00    -0.237 OA
ATOM     95  O   UNL A   1      49.560  32.329  28.209  1.00  0.00    -0.237 OA
ATOM     96  O   UNL A   1      49.806  30.593  26.481  1.00  0.00    -0.744 OA
ENDBRANCH  92  93
ENDBRANCH  66  87
ENDBRANCH  40  41
ENDBRANCH  33  35
ENDBRANCH  32  33
ENDBRANCH  31  32
ENDBRANCH  30  31
ENDBRANCH  29  30
ENDBRANCH  28  29
ENDBRANCH   1  28
TORSDOF 27
ENDMDL
MODEL 3
REMARK VINA RESULT:      -9.0      4.132     10.169
REMARK SMILES CCCc1c(C(=O)OCCOCCOCCOCCOC(=O)c2ccc(-c3c4nc(c(-c5ccc(S(=O)(=O)[O-])cc5)c5ccc([nH]5)c(-c5ccc(S(=O)(=O)[O-])cc5)c5nc(c(-c6ccc(S(=O)(=O)[O-])cc6)c6ccc3[nH]6)C=C5)C=C4)cc2)nnn1-c1cc(OC)ccc1F
REMARK SMILES IDX 15 1 14 2 13 3 12 4 11 5 10 6 9 7 8 8 6 9 7 10 5 11 4 12
REMARK SMILES IDX 85 13 83 14 84 15 3 16 2 17 1 18 86 19 87 20 93 21 88 22
REMARK SMILES IDX 92 23 94 24 91 25 89 26 90 27 16 28 17 29 18 30 19 31 20 32
REMARK SMILES IDX 21 33 22 34 23 35 24 36 82 37 25 38 81 39 26 40 27 41 28 42
REMARK SMILES IDX 75 43 29 44 80 45 74 46 76 47 30 48 79 49 73 50 72 51 31 53
REMARK SMILES IDX 61 54 42 55 60 56 43 57 46 58 59 59 77 60 44 61 45 62 58 64
REMARK SMILES IDX 78 65 47 66 32 67 33 68 41 69 34 70 40 71 35 72 36 73 37 74
REMARK SMILES IDX 38 75 39 76 62 77 63 78 71 79 64 80 70 81 65 82 66 83 67 84
REMARK SMILES IDX 68 85 69 86 48 87 49 88 57 89 50 90 56 91 51 92 52 93 53 94
REMARK SMILES IDX 54 95 55 96
REMARK H PARENT 76 52 46 63
REMARK Flexibility Score: inf
ROOT
ATOM      1  C   UNL A   1      39.775  29.266  28.474  1.00  0.00     0.188 C 
ENDROOT
BRANCH   1   2
ATOM      2  O   UNL A   1      40.749  28.819  27.546  1.00  0.00    -0.377 OA
BRANCH   2   3
ATOM      3  C   UNL A   1      40.648  27.529  26.951  1.00  0.00     0.188 C 
BRANCH   3   4
ATOM      4  C   UNL A   1      41.523  26.320  27.350  1.00  0.00     0.188 C 
BRANCH   4   5
ATOM      5  O   UNL A   1      40.824  25.296  28.024  1.00  0.00    -0.376 OA
BRANCH   5   6
ATOM      6  C   UNL A   1      39.480  24.992  27.758  1.00  0.00     0.202 C 
BRANCH   6   7
ATOM      7  C   UNL A   1      39.078  23.963  26.691  1.00  0.00     0.261 C 
BRANCH   7   8
ATOM      8  O   UNL A   1      37.760  24.057  26.148  1.00  0.00    -0.458 OA
BRANCH   8   9
ATOM      9  C   UNL A   1      37.352  23.028  25.352  1.00  0.00     0.360 C 
ATOM     10  O   UNL A   1      37.807  21.894  25.413  1.00  0.00    -0.244 OA
BRANCH   9  11
ATOM     11  C   UNL A   1      36.232  23.406  24.500  1.00  0.00     0.194 A 
ATOM     12  C   UNL A   1      34.988  23.928  24.839  1.00  0.00     0.080 A 
ATOM     13  N   UNL A   1      34.399  24.162  23.602  1.00  0.00    -0.214 N 
ATOM     14  N   UNL A   1      36.256  23.150  23.151  1.00  0.00    -0.122 NA
ATOM     15  N   UNL A   1      35.081  23.491  22.645  1.00  0.00    -0.061 NA
BRANCH  12  16
ATOM     16  C   UNL A   1      34.356  24.206  26.166  1.00  0.00     0.059 C 
BRANCH  16  17
ATOM     17  C   UNL A   1      33.455  23.081  26.696  1.00  0.00     0.003 C 
ATOM     18  C   UNL A   1      31.975  23.308  26.443  1.00  0.00     0.004 C 
ENDBRANCH  16  17
ENDBRANCH  12  16
BRANCH  13  19
ATOM     19  C   UNL A   1      33.350  25.028  23.236  1.00  0.00     0.106 A 
ATOM     20  C   UNL A   1      33.538  26.417  23.260  1.00  0.00     0.078 A 
ATOM     21  C   UNL A   1      32.088  24.511  22.955  1.00  0.00     0.149 A 
ATOM     22  C   UNL A   1      32.479  27.274  22.933  1.00  0.00     0.121 A 
ATOM     23  C   UNL A   1      31.033  25.356  22.639  1.00  0.00     0.045 A 
ATOM     24  F   UNL A   1      31.820  23.206  23.098  1.00  0.00    -0.205 F 
ATOM     25  C   UNL A   1      31.229  26.737  22.612  1.00  0.00     0.049 A 
BRANCH  22  26
ATOM     26  O   UNL A   1      32.785  28.607  22.963  1.00  0.00    -0.497 OA
ATOM     27  C   UNL A   1      33.131  29.157  24.230  1.00  0.00     0.278 C 
ENDBRANCH  22  26
ENDBRANCH  13  19
ENDBRANCH   9  11
ENDBRANCH   8   9
ENDBRANCH   7   8
ENDBRANCH   6   7
ENDBRANCH   5   6
ENDBRANCH   4   5
ENDBRANCH   3   4
ENDBRANCH   2   3
ENDBRANCH   1   2
BRANCH   1  28
ATOM     28  C   UNL A   1      38.348  28.738  28.227  1.00  0.00     0.188 C 
BRANCH  28  29
ATOM     29  O   UNL A   1      37.334  29.727  28.333  1.00  0.00    -0.376 OA
BRANCH  29  30
ATOM     30  C   UNL A   1      36.182  29.709  27.506  1.00  0.00     0.202 C 
BRANCH  30  31
ATOM     31  C   UNL A   1      35.126  30.811  27.516  1.00  0.00     0.261 C 
BRANCH  31  32
ATOM     32  O   UNL A   1      35.419  31.952  28.292  1.00  0.00    -0.460 OA
BRANCH  32  33
ATOM     33  C   UNL A   1      34.455  32.359  29.131  1.00  0.00     0.338 C 
ATOM     34  O   UNL A   1      33.357  32.791  28.847  1.00  0.00    -0.246 OA
BRANCH  33  35
ATOM     35  C   UNL A   1      35.039  32.358  30.476  1.00  0.00     0.060 A 
ATOM     36  C   UNL A   1      35.185  33.613  31.060  1.00  0.00     0.016 A 
ATOM     37  C   UNL A   1      35.824  31.252  30.839  1.00  0.00     0.016 A 
ATOM     38  C   UNL A   1      36.332  33.838  31.777  1.00  0.00     0.010 A 
ATOM     39  C   UNL A   1      36.991  31.490  31.513  1.00  0.00     0.010 A 
ATOM     40  C   UNL A   1      37.268  32.801  31.887  1.00  0.00    -0.014 A 
BRANCH  40  41
ATOM     41  C   UNL A   1      38.499  33.082  32.583  1.00  0.00     0.031 A 
ATOM     42  C   UNL A   1      39.531  33.538  31.635  1.00  0.00     0.074 A 
ATOM     43  C   UNL A   1      38.629  33.012  33.919  1.00  0.00     0.049 A 
ATOM     44  N   UNL A   1      40.509  32.843  31.161  1.00  0.00    -0.248 NA
ATOM     45  C   UNL A   1      39.286  34.805  30.921  1.00  0.00     0.031 C 
ATOM     46  C   UNL A   1      37.584  32.844  34.930  1.00  0.00     0.029 A 
ATOM     47  N   UNL A   1      39.748  33.192  34.665  1.00  0.00    -0.354 N 
ATOM     48  C   UNL A   1      41.162  33.702  30.291  1.00  0.00     0.074 A 
ATOM     49  C   UNL A   1      40.224  34.745  29.977  1.00  0.00     0.031 C 
ATOM     50  C   UNL A   1      38.087  33.174  36.144  1.00  0.00     0.029 A 
ATOM     51  C   UNL A   1      39.510  33.451  36.009  1.00  0.00     0.049 A 
ATOM     52  H   UNL A   1      40.655  33.143  34.285  1.00  0.00     0.167 HD
ATOM     53  C   UNL A   1      42.521  33.690  30.200  1.00  0.00     0.031 A 
ATOM     54  C   UNL A   1      40.413  33.937  36.902  1.00  0.00     0.031 A 
ATOM     55  C   UNL A   1      43.069  32.472  30.748  1.00  0.00     0.049 A 
ATOM     56  C   UNL A   1      41.764  33.711  36.323  1.00  0.00     0.074 A 
ATOM     57  C   UNL A   1      42.891  31.126  30.490  1.00  0.00     0.029 A 
ATOM     58  N   UNL A   1      43.621  32.556  32.005  1.00  0.00    -0.354 N 
ATOM     59  N   UNL A   1      42.291  32.530  36.168  1.00  0.00    -0.248 NA
ATOM     60  C   UNL A   1      42.334  34.761  35.491  1.00  0.00     0.031 C 
ATOM     61  C   UNL A   1      42.936  30.494  31.766  1.00  0.00     0.029 A 
ATOM     62  C   UNL A   1      43.220  31.465  32.729  1.00  0.00     0.049 A 
ATOM     63  H   UNL A   1      44.206  33.278  32.330  1.00  0.00     0.167 HD
ATOM     64  C   UNL A   1      42.928  32.584  34.936  1.00  0.00     0.074 A 
ATOM     65  C   UNL A   1      43.003  34.008  34.612  1.00  0.00     0.031 C 
ATOM     66  C   UNL A   1      43.070  31.462  34.169  1.00  0.00     0.031 A 
BRANCH  53  67
ATOM     67  C   UNL A   1      43.331  34.962  30.086  1.00  0.00    -0.014 A 
ATOM     68  C   UNL A   1      43.488  35.758  31.236  1.00  0.00     0.010 A 
ATOM     69  C   UNL A   1      43.701  35.547  28.854  1.00  0.00     0.010 A 
ATOM     70  C   UNL A   1      43.906  37.091  31.145  1.00  0.00     0.020 A 
ATOM     71  C   UNL A   1      44.162  36.856  28.756  1.00  0.00     0.020 A 
ATOM     72  C   UNL A   1      44.229  37.633  29.901  1.00  0.00     0.054 A 
BRANCH  72  73
ATOM     73  S   UNL A   1      44.694  39.373  29.780  1.00  0.00     0.124 S 
ATOM     74  O   UNL A   1      43.654  40.017  30.574  1.00  0.00    -0.237 OA
ATOM     75  O   UNL A   1      46.034  39.370  30.363  1.00  0.00    -0.237 OA
ATOM     76  O   UNL A   1      44.647  39.640  28.343  1.00  0.00    -0.744 OA
ENDBRANCH  72  73
ENDBRANCH  53  67
BRANCH  54  77
ATOM     77  C   UNL A   1      40.199  34.864  38.046  1.00  0.00    -0.014 A 
ATOM     78  C   UNL A   1      40.897  34.680  39.257  1.00  0.00     0.010 A 
ATOM     79  C   UNL A   1      39.546  36.097  37.852  1.00  0.00     0.010 A 
ATOM     80  C   UNL A   1      41.011  35.719  40.197  1.00  0.00     0.020 A 
ATOM     81  C   UNL A   1      39.646  37.135  38.790  1.00  0.00     0.020 A 
ATOM     82  C   UNL A   1      40.405  36.951  39.944  1.00  0.00     0.054 A 
BRANCH  82  83
ATOM     83  S   UNL A   1      40.730  38.355  41.054  1.00  0.00     0.124 S 
ATOM     84  O   UNL A   1      41.560  37.748  42.090  1.00  0.00    -0.237 OA
ATOM     85  O   UNL A   1      41.409  39.305  40.177  1.00  0.00    -0.237 OA
ATOM     86  O   UNL A   1      39.396  38.765  41.490  1.00  0.00    -0.744 OA
ENDBRANCH  82  83
ENDBRANCH  54  77
BRANCH  66  87
ATOM     87  C   UNL A   1      42.876  30.113  34.818  1.00  0.00    -0.014 A 
ATOM     88  C   UNL A   1      43.888  29.380  35.469  1.00  0.00     0.010 A 
ATOM     89  C   UNL A   1      41.556  29.630  34.875  1.00  0.00     0.010 A 
ATOM     90  C   UNL A   1      43.586  28.176  36.125  1.00  0.00     0.020 A 
ATOM     91  C   UNL A   1      41.246  28.447  35.544  1.00  0.00     0.020 A 
ATOM     92  C   UNL A   1      42.264  27.715  36.154  1.00  0.00     0.054 A 
BRANCH  92  93
ATOM     93  S   UNL A   1      41.867  26.167  37.012  1.00  0.00     0.124 S 
ATOM     94  O   UNL A   1      43.034  25.971  37.868  1.00  0.00    -0.237 OA
ATOM     95  O   UNL A   1      40.623  26.491  37.707  1.00  0.00    -0.237 OA
ATOM     96  O   UNL A   1      41.726  25.195  35.929  1.00  0.00    -0.744 OA
ENDBRANCH  92  93
ENDBRANCH  66  87
ENDBRANCH  40  41
ENDBRANCH  33  35
ENDBRANCH  32  33
ENDBRANCH  31  32
ENDBRANCH  30  31
ENDBRANCH  29  30
ENDBRANCH  28  29
ENDBRANCH   1  28
TORSDOF 27
ENDMDL
