MODEL 1
REMARK VINA RESULT:      -9.2      0.000      0.000
REMARK SMILES O=C(CCc1nc(-c2ccccc2)c(-c2ccccc2)o1)OCCOCCOCCOCCOC(=O)c1ccc(-c2c3nc(c(-c4ccc(S(=O)(=O)[O-])cc4)c4ccc([nH]4)c(-c4ccc(S(=O)(=O)[O-])cc4)c4nc(c(-c5ccc(S(=O)(=O)[O-])cc5)c5ccc2[nH]5)C=C4)C=C3)cc1
REMARK SMILES IDX 28 1 27 2 26 3 25 4 24 5 23 6 22 7 2 8 1 9 3 10 4 11 5 12
REMARK SMILES IDX 6 13 21 14 7 15 14 16 8 17 9 18 13 19 10 20 12 21 11 22
REMARK SMILES IDX 15 23 16 24 20 25 17 26 19 27 18 28 29 29 30 30 31 31 32 32
REMARK SMILES IDX 33 33 34 34 35 35 36 36 37 37 38 38 96 39 39 40 95 41 40 42
REMARK SMILES IDX 41 43 42 44 89 45 43 46 94 47 88 48 90 49 44 50 93 51 87 52
REMARK SMILES IDX 86 53 45 55 75 56 56 57 74 58 57 59 60 60 73 61 91 62 58 63
REMARK SMILES IDX 59 64 72 66 92 67 61 68 46 69 47 70 55 71 48 72 54 73 49 74
REMARK SMILES IDX 50 75 51 76 52 77 53 78 76 79 77 80 85 81 78 82 84 83 79 84
REMARK SMILES IDX 80 85 81 86 82 87 83 88 62 89 63 90 71 91 64 92 70 93 65 94
REMARK SMILES IDX 66 95 67 96 68 97 69 98
REMARK H PARENT 90 54 60 65
REMARK Flexibility Score: inf
ROOT
ATOM      1  O   UNL A   1      37.924  23.560  26.161  1.00  0.00    -0.377 OA
ENDROOT
BRANCH   1   2
ATOM      2  C   UNL A   1      37.489  22.579  25.247  1.00  0.00     0.188 C 
BRANCH   2   3
ATOM      3  C   UNL A   1      36.472  21.598  25.850  1.00  0.00     0.188 C 
BRANCH   3   4
ATOM      4  O   UNL A   1      36.232  20.392  25.139  1.00  0.00    -0.376 OA
BRANCH   4   5
ATOM      5  C   UNL A   1      34.902  19.974  24.863  1.00  0.00     0.202 C 
BRANCH   5   6
ATOM      6  C   UNL A   1      33.690  20.767  25.342  1.00  0.00     0.261 C 
BRANCH   6   7
ATOM      7  O   UNL A   1      33.214  21.859  24.542  1.00  0.00    -0.463 OA
BRANCH   7   8
ATOM      8  C   UNL A   1      32.184  21.808  23.674  1.00  0.00     0.306 C 
ATOM      9  O   UNL A   1      32.152  20.947  22.798  1.00  0.00    -0.252 OA
BRANCH   8  10
ATOM     10  C   UNL A   1      31.184  22.931  23.676  1.00  0.00     0.132 C 
BRANCH  10  11
ATOM     11  C   UNL A   1      30.826  23.507  25.039  1.00  0.00     0.109 C 
BRANCH  11  12
ATOM     12  C   UNL A   1      30.939  24.986  25.162  1.00  0.00     0.196 A 
ATOM     13  N   UNL A   1      31.714  25.675  25.976  1.00  0.00    -0.213 NA
ATOM     14  O   UNL A   1      30.241  25.752  24.261  1.00  0.00    -0.440 OA
ATOM     15  C   UNL A   1      31.558  26.982  25.564  1.00  0.00     0.117 A 
ATOM     16  C   UNL A   1      30.648  27.042  24.524  1.00  0.00     0.162 A 
BRANCH  15  17
ATOM     17  C   UNL A   1      32.361  28.094  26.032  1.00  0.00     0.004 A 
ATOM     18  C   UNL A   1      33.752  27.988  26.092  1.00  0.00     0.010 A 
ATOM     19  C   UNL A   1      31.741  29.262  26.503  1.00  0.00     0.010 A 
ATOM     20  C   UNL A   1      34.512  29.032  26.622  1.00  0.00     0.001 A 
ATOM     21  C   UNL A   1      32.501  30.295  27.051  1.00  0.00     0.001 A 
ATOM     22  C   UNL A   1      33.888  30.180  27.108  1.00  0.00     0.000 A 
ENDBRANCH  15  17
BRANCH  16  23
ATOM     23  C   UNL A   1      30.121  28.093  23.671  1.00  0.00     0.020 A 
ATOM     24  C   UNL A   1      30.993  28.866  22.896  1.00  0.00     0.012 A 
ATOM     25  C   UNL A   1      28.738  28.287  23.530  1.00  0.00     0.012 A 
ATOM     26  C   UNL A   1      30.494  29.782  21.966  1.00  0.00     0.001 A 
ATOM     27  C   UNL A   1      28.240  29.209  22.606  1.00  0.00     0.001 A 
ATOM     28  C   UNL A   1      29.119  29.947  21.816  1.00  0.00     0.000 A 
ENDBRANCH  16  23
ENDBRANCH  11  12
ENDBRANCH  10  11
ENDBRANCH   8  10
ENDBRANCH   7   8
ENDBRANCH   6   7
ENDBRANCH   5   6
ENDBRANCH   4   5
ENDBRANCH   3   4
ENDBRANCH   2   3
ENDBRANCH   1   2
BRANCH   1  29
ATOM     29  C   UNL A   1      39.230  23.445  26.693  1.00  0.00     0.188 C 
BRANCH  29  30
ATOM     30  C   UNL A   1      40.001  22.118  26.553  1.00  0.00     0.188 C 
BRANCH  30  31
ATOM     31  O   UNL A   1      41.161  22.074  25.757  1.00  0.00    -0.376 OA
BRANCH  31  32
ATOM     32  C   UNL A   1      42.303  22.876  25.950  1.00  0.00     0.202 C 
BRANCH  32  33
ATOM     33  C   UNL A   1      42.473  24.355  25.560  1.00  0.00     0.261 C 
BRANCH  33  34
ATOM     34  O   UNL A   1      41.894  25.358  26.387  1.00  0.00    -0.460 OA
BRANCH  34  35
ATOM     35  C   UNL A   1      42.220  26.643  26.094  1.00  0.00     0.338 C 
ATOM     36  O   UNL A   1      42.217  27.158  24.999  1.00  0.00    -0.246 OA
BRANCH  35  37
ATOM     37  C   UNL A   1      42.362  27.383  27.376  1.00  0.00     0.060 A 
ATOM     38  C   UNL A   1      41.924  26.765  28.556  1.00  0.00     0.016 A 
ATOM     39  C   UNL A   1      42.929  28.659  27.418  1.00  0.00     0.016 A 
ATOM     40  C   UNL A   1      42.005  27.440  29.774  1.00  0.00     0.010 A 
ATOM     41  C   UNL A   1      42.983  29.346  28.635  1.00  0.00     0.010 A 
ATOM     42  C   UNL A   1      42.481  28.756  29.809  1.00  0.00    -0.014 A 
BRANCH  42  43
ATOM     43  C   UNL A   1      42.218  29.600  31.001  1.00  0.00     0.031 A 
ATOM     44  C   UNL A   1      41.000  30.486  30.974  1.00  0.00     0.074 A 
ATOM     45  C   UNL A   1      43.018  29.583  32.081  1.00  0.00     0.049 A 
ATOM     46  N   UNL A   1      40.591  31.361  31.855  1.00  0.00    -0.248 NA
ATOM     47  C   UNL A   1      40.131  30.371  29.791  1.00  0.00     0.031 C 
ATOM     48  C   UNL A   1      44.194  28.733  32.252  1.00  0.00     0.029 A 
ATOM     49  N   UNL A   1      42.961  30.319  33.240  1.00  0.00    -0.354 N 
ATOM     50  C   UNL A   1      39.428  31.910  31.326  1.00  0.00     0.074 A 
ATOM     51  C   UNL A   1      39.210  31.289  30.039  1.00  0.00     0.031 C 
ATOM     52  C   UNL A   1      44.757  29.010  33.442  1.00  0.00     0.029 A 
ATOM     53  C   UNL A   1      44.004  30.075  34.101  1.00  0.00     0.049 A 
ATOM     54  H   UNL A   1      42.241  30.962  33.434  1.00  0.00     0.167 HD
ATOM     55  C   UNL A   1      38.613  32.848  31.862  1.00  0.00     0.031 A 
ATOM     56  C   UNL A   1      44.328  30.661  35.271  1.00  0.00     0.031 A 
ATOM     57  C   UNL A   1      38.841  33.477  33.135  1.00  0.00     0.049 A 
ATOM     58  C   UNL A   1      43.448  31.760  35.815  1.00  0.00     0.074 A 
ATOM     59  C   UNL A   1      38.068  34.432  33.771  1.00  0.00     0.029 A 
ATOM     60  N   UNL A   1      39.925  33.222  33.961  1.00  0.00    -0.354 N 
ATOM     61  N   UNL A   1      42.341  32.254  35.313  1.00  0.00    -0.248 NA
ATOM     62  C   UNL A   1      43.859  32.376  37.085  1.00  0.00     0.031 C 
ATOM     63  C   UNL A   1      38.719  34.801  34.952  1.00  0.00     0.029 A 
ATOM     64  C   UNL A   1      39.856  34.021  35.088  1.00  0.00     0.049 A 
ATOM     65  H   UNL A   1      40.637  32.569  33.773  1.00  0.00     0.167 HD
ATOM     66  C   UNL A   1      41.906  33.213  36.224  1.00  0.00     0.074 A 
ATOM     67  C   UNL A   1      42.862  33.220  37.312  1.00  0.00     0.031 C 
ATOM     68  C   UNL A   1      40.812  34.014  36.168  1.00  0.00     0.031 A 
BRANCH  55  69
ATOM     69  C   UNL A   1      37.421  33.280  31.052  1.00  0.00    -0.014 A 
ATOM     70  C   UNL A   1      36.188  33.571  31.665  1.00  0.00     0.010 A 
ATOM     71  C   UNL A   1      37.547  33.434  29.660  1.00  0.00     0.010 A 
ATOM     72  C   UNL A   1      35.096  33.979  30.894  1.00  0.00     0.020 A 
ATOM     73  C   UNL A   1      36.467  33.872  28.890  1.00  0.00     0.020 A 
ATOM     74  C   UNL A   1      35.244  34.128  29.512  1.00  0.00     0.054 A 
BRANCH  74  75
ATOM     75  S   UNL A   1      33.821  34.698  28.543  1.00  0.00     0.124 S 
ATOM     76  O   UNL A   1      33.953  33.908  27.321  1.00  0.00    -0.237 OA
ATOM     77  O   UNL A   1      32.691  34.347  29.399  1.00  0.00    -0.237 OA
ATOM     78  O   UNL A   1      34.059  36.131  28.386  1.00  0.00    -0.744 OA
ENDBRANCH  74  75
ENDBRANCH  55  69
BRANCH  56  79
ATOM     79  C   UNL A   1      45.555  30.239  36.008  1.00  0.00    -0.014 A 
ATOM     80  C   UNL A   1      45.491  29.241  36.996  1.00  0.00     0.010 A 
ATOM     81  C   UNL A   1      46.792  30.852  35.737  1.00  0.00     0.010 A 
ATOM     82  C   UNL A   1      46.636  28.880  37.714  1.00  0.00     0.020 A 
ATOM     83  C   UNL A   1      47.945  30.470  36.429  1.00  0.00     0.020 A 
ATOM     84  C   UNL A   1      47.856  29.496  37.424  1.00  0.00     0.054 A 
BRANCH  84  85
ATOM     85  S   UNL A   1      49.333  28.982  38.345  1.00  0.00     0.124 S 
ATOM     86  O   UNL A   1      49.647  27.700  37.724  1.00  0.00    -0.237 OA
ATOM     87  O   UNL A   1      50.267  30.070  38.063  1.00  0.00    -0.237 OA
ATOM     88  O   UNL A   1      48.865  28.911  39.728  1.00  0.00    -0.744 OA
ENDBRANCH  84  85
ENDBRANCH  56  79
BRANCH  68  89
ATOM     89  C   UNL A   1      40.554  34.933  37.333  1.00  0.00    -0.014 A 
ATOM     90  C   UNL A   1      41.162  36.197  37.422  1.00  0.00     0.010 A 
ATOM     91  C   UNL A   1      39.631  34.547  38.323  1.00  0.00     0.010 A 
ATOM     92  C   UNL A   1      40.877  37.043  38.497  1.00  0.00     0.020 A 
ATOM     93  C   UNL A   1      39.319  35.402  39.382  1.00  0.00     0.020 A 
ATOM     94  C   UNL A   1      39.956  36.641  39.470  1.00  0.00     0.054 A 
BRANCH  94  95
ATOM     95  S   UNL A   1      39.568  37.777  40.830  1.00  0.00     0.124 S 
ATOM     96  O   UNL A   1      40.806  38.544  40.947  1.00  0.00    -0.237 OA
ATOM     97  O   UNL A   1      38.419  38.515  40.313  1.00  0.00    -0.237 OA
ATOM     98  O   UNL A   1      39.277  36.888  41.953  1.00  0.00    -0.744 OA
ENDBRANCH  94  95
ENDBRANCH  68  89
ENDBRANCH  42  43
ENDBRANCH  35  37
ENDBRANCH  34  35
ENDBRANCH  33  34
ENDBRANCH  32  33
ENDBRANCH  31  32
ENDBRANCH  30  31
ENDBRANCH  29  30
ENDBRANCH   1  29
TORSDOF 27
ENDMDL
MODEL 2
REMARK VINA RESULT:      -8.9      5.597      8.601
REMARK SMILES O=C(CCc1nc(-c2ccccc2)c(-c2ccccc2)o1)OCCOCCOCCOCCOC(=O)c1ccc(-c2c3nc(c(-c4ccc(S(=O)(=O)[O-])cc4)c4ccc([nH]4)c(-c4ccc(S(=O)(=O)[O-])cc4)c4nc(c(-c5ccc(S(=O)(=O)[O-])cc5)c5ccc2[nH]5)C=C4)C=C3)cc1
REMARK SMILES IDX 28 1 27 2 26 3 25 4 24 5 23 6 22 7 2 8 1 9 3 10 4 11 5 12
REMARK SMILES IDX 6 13 21 14 7 15 14 16 8 17 9 18 13 19 10 20 12 21 11 22
REMARK SMILES IDX 15 23 16 24 20 25 17 26 19 27 18 28 29 29 30 30 31 31 32 32
REMARK SMILES IDX 33 33 34 34 35 35 36 36 37 37 38 38 96 39 39 40 95 41 40 42
REMARK SMILES IDX 41 43 42 44 89 45 43 46 94 47 88 48 90 49 44 50 93 51 87 52
REMARK SMILES IDX 86 53 45 55 75 56 56 57 74 58 57 59 60 60 73 61 91 62 58 63
REMARK SMILES IDX 59 64 72 66 92 67 61 68 46 69 47 70 55 71 48 72 54 73 49 74
REMARK SMILES IDX 50 75 51 76 52 77 53 78 76 79 77 80 85 81 78 82 84 83 79 84
REMARK SMILES IDX 80 85 81 86 82 87 83 88 62 89 63 90 71 91 64 92 70 93 65 94
REMARK SMILES IDX 66 95 67 96 68 97 69 98
REMARK H PARENT 90 54 60 65
REMARK Flexibility Score: inf
ROOT
ATOM      1  O   UNL A   1      38.636  22.945  26.110  1.00  0.00    -0.377 OA
ENDROOT
BRANCH   1   2
ATOM      2  C   UNL A   1      37.857  22.136  25.259  1.00  0.00     0.188 C 
BRANCH   2   3
ATOM      3  C   UNL A   1      36.428  21.914  25.777  1.00  0.00     0.188 C 
BRANCH   3   4
ATOM      4  O   UNL A   1      35.387  22.643  25.142  1.00  0.00    -0.376 OA
BRANCH   4   5
ATOM      5  C   UNL A   1      35.415  24.064  25.117  1.00  0.00     0.202 C 
BRANCH   5   6
ATOM      6  C   UNL A   1      34.184  24.901  25.447  1.00  0.00     0.261 C 
BRANCH   6   7
ATOM      7  O   UNL A   1      33.967  26.129  24.738  1.00  0.00    -0.463 OA
BRANCH   7   8
ATOM      8  C   UNL A   1      33.089  27.092  25.080  1.00  0.00     0.306 C 
ATOM      9  O   UNL A   1      31.883  26.856  25.093  1.00  0.00    -0.252 OA
BRANCH   8  10
ATOM     10  C   UNL A   1      33.593  28.498  25.256  1.00  0.00     0.132 C 
BRANCH  10  11
ATOM     11  C   UNL A   1      33.353  29.130  26.619  1.00  0.00     0.109 C 
BRANCH  11  12
ATOM     12  C   UNL A   1      34.541  29.764  27.253  1.00  0.00     0.196 A 
ATOM     13  N   UNL A   1      34.630  30.964  27.789  1.00  0.00    -0.213 NA
ATOM     14  O   UNL A   1      35.667  28.992  27.403  1.00  0.00    -0.440 OA
ATOM     15  C   UNL A   1      35.879  30.980  28.376  1.00  0.00     0.117 A 
ATOM     16  C   UNL A   1      36.526  29.783  28.133  1.00  0.00     0.162 A 
BRANCH  15  17
ATOM     17  C   UNL A   1      36.360  32.023  29.259  1.00  0.00     0.004 A 
ATOM     18  C   UNL A   1      37.067  33.113  28.748  1.00  0.00     0.010 A 
ATOM     19  C   UNL A   1      36.185  31.908  30.647  1.00  0.00     0.010 A 
ATOM     20  C   UNL A   1      37.599  34.071  29.615  1.00  0.00     0.001 A 
ATOM     21  C   UNL A   1      36.735  32.855  31.511  1.00  0.00     0.001 A 
ATOM     22  C   UNL A   1      37.440  33.938  30.994  1.00  0.00     0.000 A 
ENDBRANCH  15  17
BRANCH  16  23
ATOM     23  C   UNL A   1      37.802  29.202  28.516  1.00  0.00     0.020 A 
ATOM     24  C   UNL A   1      38.902  29.304  27.657  1.00  0.00     0.012 A 
ATOM     25  C   UNL A   1      37.983  28.621  29.781  1.00  0.00     0.012 A 
ATOM     26  C   UNL A   1      40.167  28.879  28.069  1.00  0.00     0.001 A 
ATOM     27  C   UNL A   1      39.247  28.187  30.190  1.00  0.00     0.001 A 
ATOM     28  C   UNL A   1      40.340  28.328  29.337  1.00  0.00     0.000 A 
ENDBRANCH  16  23
ENDBRANCH  11  12
ENDBRANCH  10  11
ENDBRANCH   8  10
ENDBRANCH   7   8
ENDBRANCH   6   7
ENDBRANCH   5   6
ENDBRANCH   4   5
ENDBRANCH   3   4
ENDBRANCH   2   3
ENDBRANCH   1   2
BRANCH   1  29
ATOM     29  C   UNL A   1      39.659  22.327  26.869  1.00  0.00     0.188 C 
BRANCH  29  30
ATOM     30  C   UNL A   1      40.823  21.616  26.151  1.00  0.00     0.188 C 
BRANCH  30  31
ATOM     31  O   UNL A   1      42.047  22.291  25.987  1.00  0.00    -0.376 OA
BRANCH  31  32
ATOM     32  C   UNL A   1      42.240  23.672  26.185  1.00  0.00     0.202 C 
BRANCH  32  33
ATOM     33  C   UNL A   1      43.329  24.341  27.043  1.00  0.00     0.261 C 
BRANCH  33  34
ATOM     34  O   UNL A   1      43.852  25.601  26.635  1.00  0.00    -0.460 OA
BRANCH  34  35
ATOM     35  C   UNL A   1      44.972  26.024  27.275  1.00  0.00     0.338 C 
ATOM     36  O   UNL A   1      46.088  25.572  27.154  1.00  0.00    -0.246 OA
BRANCH  35  37
ATOM     37  C   UNL A   1      44.645  27.291  27.980  1.00  0.00     0.060 A 
ATOM     38  C   UNL A   1      43.929  28.278  27.286  1.00  0.00     0.016 A 
ATOM     39  C   UNL A   1      45.025  27.501  29.308  1.00  0.00     0.016 A 
ATOM     40  C   UNL A   1      43.635  29.495  27.900  1.00  0.00     0.010 A 
ATOM     41  C   UNL A   1      44.755  28.733  29.913  1.00  0.00     0.010 A 
ATOM     42  C   UNL A   1      44.098  29.749  29.196  1.00  0.00    -0.014 A 
BRANCH  42  43
ATOM     43  C   UNL A   1      44.128  31.143  29.704  1.00  0.00     0.031 A 
ATOM     44  C   UNL A   1      45.161  32.075  29.127  1.00  0.00     0.074 A 
ATOM     45  C   UNL A   1      43.267  31.583  30.638  1.00  0.00     0.049 A 
ATOM     46  N   UNL A   1      45.436  33.311  29.449  1.00  0.00    -0.248 NA
ATOM     47  C   UNL A   1      46.000  31.534  28.044  1.00  0.00     0.031 C 
ATOM     48  C   UNL A   1      42.190  30.799  31.235  1.00  0.00     0.029 A 
ATOM     49  N   UNL A   1      43.176  32.808  31.254  1.00  0.00    -0.354 N 
ATOM     50  C   UNL A   1      46.487  33.690  28.621  1.00  0.00     0.074 A 
ATOM     51  C   UNL A   1      46.816  32.547  27.800  1.00  0.00     0.031 C 
ATOM     52  C   UNL A   1      41.556  31.559  32.147  1.00  0.00     0.029 A 
ATOM     53  C   UNL A   1      42.201  32.869  32.221  1.00  0.00     0.049 A 
ATOM     54  H   UNL A   1      43.757  33.570  31.026  1.00  0.00     0.167 HD
ATOM     55  C   UNL A   1      47.122  34.882  28.548  1.00  0.00     0.031 A 
ATOM     56  C   UNL A   1      41.882  33.856  33.081  1.00  0.00     0.031 A 
ATOM     57  C   UNL A   1      46.804  36.013  29.378  1.00  0.00     0.049 A 
ATOM     58  C   UNL A   1      42.655  35.152  33.037  1.00  0.00     0.074 A 
ATOM     59  C   UNL A   1      47.383  37.270  29.374  1.00  0.00     0.029 A 
ATOM     60  N   UNL A   1      45.829  36.023  30.363  1.00  0.00    -0.354 N 
ATOM     61  N   UNL A   1      43.631  35.503  32.235  1.00  0.00    -0.248 NA
ATOM     62  C   UNL A   1      42.276  36.187  34.011  1.00  0.00     0.031 C 
ATOM     63  C   UNL A   1      46.801  38.019  30.401  1.00  0.00     0.029 A 
ATOM     64  C   UNL A   1      45.808  37.254  30.993  1.00  0.00     0.049 A 
ATOM     65  H   UNL A   1      45.238  35.266  30.581  1.00  0.00     0.167 HD
ATOM     66  C   UNL A   1      43.960  36.809  32.585  1.00  0.00     0.074 A 
ATOM     67  C   UNL A   1      43.070  37.191  33.662  1.00  0.00     0.031 C 
ATOM     68  C   UNL A   1      44.911  37.623  32.061  1.00  0.00     0.031 A 
BRANCH  55  69
ATOM     69  C   UNL A   1      48.254  35.011  27.565  1.00  0.00    -0.014 A 
ATOM     70  C   UNL A   1      49.585  34.762  27.946  1.00  0.00     0.010 A 
ATOM     71  C   UNL A   1      47.976  35.347  26.228  1.00  0.00     0.010 A 
ATOM     72  C   UNL A   1      50.620  34.878  27.014  1.00  0.00     0.020 A 
ATOM     73  C   UNL A   1      49.003  35.435  25.286  1.00  0.00     0.020 A 
ATOM     74  C   UNL A   1      50.321  35.212  25.689  1.00  0.00     0.054 A 
BRANCH  74  75
ATOM     75  S   UNL A   1      51.680  35.316  24.493  1.00  0.00     0.124 S 
ATOM     76  O   UNL A   1      51.626  34.000  23.860  1.00  0.00    -0.237 OA
ATOM     77  O   UNL A   1      51.276  36.437  23.648  1.00  0.00    -0.237 OA
ATOM     78  O   UNL A   1      52.857  35.559  25.324  1.00  0.00    -0.744 OA
ENDBRANCH  74  75
ENDBRANCH  55  69
BRANCH  56  79
ATOM     79  C   UNL A   1      40.791  33.659  34.079  1.00  0.00    -0.014 A 
ATOM     80  C   UNL A   1      41.025  32.945  35.268  1.00  0.00     0.010 A 
ATOM     81  C   UNL A   1      39.502  34.168  33.833  1.00  0.00     0.010 A 
ATOM     82  C   UNL A   1      39.986  32.725  36.179  1.00  0.00     0.020 A 
ATOM     83  C   UNL A   1      38.470  33.979  34.757  1.00  0.00     0.020 A 
ATOM     84  C   UNL A   1      38.716  33.246  35.918  1.00  0.00     0.054 A 
BRANCH  84  85
ATOM     85  S   UNL A   1      37.398  32.978  37.136  1.00  0.00     0.124 S 
ATOM     86  O   UNL A   1      37.405  31.526  37.276  1.00  0.00    -0.237 OA
ATOM     87  O   UNL A   1      37.886  33.729  38.291  1.00  0.00    -0.237 OA
ATOM     88  O   UNL A   1      36.215  33.539  36.487  1.00  0.00    -0.744 OA
ENDBRANCH  84  85
ENDBRANCH  56  79
BRANCH  68  89
ATOM     89  C   UNL A   1      45.013  39.024  32.603  1.00  0.00    -0.014 A 
ATOM     90  C   UNL A   1      45.771  39.317  33.750  1.00  0.00     0.010 A 
ATOM     91  C   UNL A   1      44.390  40.079  31.908  1.00  0.00     0.010 A 
ATOM     92  C   UNL A   1      45.876  40.632  34.210  1.00  0.00     0.020 A 
ATOM     93  C   UNL A   1      44.519  41.398  32.347  1.00  0.00     0.020 A 
ATOM     94  C   UNL A   1      45.251  41.665  33.505  1.00  0.00     0.054 A 
BRANCH  94  95
ATOM     95  S   UNL A   1      45.441  43.369  34.097  1.00  0.00     0.124 S 
ATOM     96  O   UNL A   1      45.065  44.144  32.918  1.00  0.00    -0.237 OA
ATOM     97  O   UNL A   1      44.499  43.427  35.212  1.00  0.00    -0.237 OA
ATOM     98  O   UNL A   1      46.850  43.451  34.474  1.00  0.00    -0.744 OA
ENDBRANCH  94  95
ENDBRANCH  68  89
ENDBRANCH  42  43
ENDBRANCH  35  37
ENDBRANCH  34  35
ENDBRANCH  33  34
ENDBRANCH  32  33
ENDBRANCH  31  32
ENDBRANCH  30  31
ENDBRANCH  29  30
ENDBRANCH   1  29
TORSDOF 27
ENDMDL
MODEL 3
REMARK VINA RESULT:      -7.9      7.437     16.404
REMARK SMILES O=C(CCc1nc(-c2ccccc2)c(-c2ccccc2)o1)OCCOCCOCCOCCOC(=O)c1ccc(-c2c3nc(c(-c4ccc(S(=O)(=O)[O-])cc4)c4ccc([nH]4)c(-c4ccc(S(=O)(=O)[O-])cc4)c4nc(c(-c5ccc(S(=O)(=O)[O-])cc5)c5ccc2[nH]5)C=C4)C=C3)cc1
REMARK SMILES IDX 28 1 27 2 26 3 25 4 24 5 23 6 22 7 2 8 1 9 3 10 4 11 5 12
REMARK SMILES IDX 6 13 21 14 7 15 14 16 8 17 9 18 13 19 10 20 12 21 11 22
REMARK SMILES IDX 15 23 16 24 20 25 17 26 19 27 18 28 29 29 30 30 31 31 32 32
REMARK SMILES IDX 33 33 34 34 35 35 36 36 37 37 38 38 96 39 39 40 95 41 40 42
REMARK SMILES IDX 41 43 42 44 89 45 43 46 94 47 88 48 90 49 44 50 93 51 87 52
REMARK SMILES IDX 86 53 45 55 75 56 56 57 74 58 57 59 60 60 73 61 91 62 58 63
REMARK SMILES IDX 59 64 72 66 92 67 61 68 46 69 47 70 55 71 48 72 54 73 49 74
REMARK SMILES IDX 50 75 51 76 52 77 53 78 76 79 77 80 85 81 78 82 84 83 79 84
REMARK SMILES IDX 80 85 81 86 82 87 83 88 62 89 63 90 71 91 64 92 70 93 65 94
REMARK SMILES IDX 66 95 67 96 68 97 69 98
REMARK H PARENT 90 54 60 65
REMARK Flexibility Score: inf
ROOT
ATOM      1  O   UNL A   1      54.275  37.392  32.627  1.00  0.00    -0.377 OA
ENDROOT
BRANCH   1   2
ATOM      2  C   UNL A   1      53.458  37.925  33.644  1.00  0.00     0.188 C 
BRANCH   2   3
ATOM      3  C   UNL A   1      52.115  37.195  33.787  1.00  0.00     0.188 C 
BRANCH   3   4
ATOM      4  O   UNL A   1      50.990  37.972  34.172  1.00  0.00    -0.376 OA
BRANCH   4   5
ATOM      5  C   UNL A   1      49.907  38.165  33.271  1.00  0.00     0.202 C 
BRANCH   5   6
ATOM      6  C   UNL A   1      48.565  38.726  33.731  1.00  0.00     0.261 C 
BRANCH   6   7
ATOM      7  O   UNL A   1      47.773  39.482  32.804  1.00  0.00    -0.463 OA
BRANCH   7   8
ATOM      8  C   UNL A   1      46.849  40.406  33.131  1.00  0.00     0.306 C 
ATOM      9  O   UNL A   1      46.689  40.738  34.303  1.00  0.00    -0.252 OA
BRANCH   8  10
ATOM     10  C   UNL A   1      45.893  40.876  32.069  1.00  0.00     0.132 C 
BRANCH  10  11
ATOM     11  C   UNL A   1      44.506  40.250  32.092  1.00  0.00     0.109 C 
BRANCH  11  12
ATOM     12  C   UNL A   1      43.909  39.956  30.761  1.00  0.00     0.196 A 
ATOM     13  N   UNL A   1      43.522  40.814  29.839  1.00  0.00    -0.213 NA
ATOM     14  O   UNL A   1      43.836  38.639  30.375  1.00  0.00    -0.440 OA
ATOM     15  C   UNL A   1      43.213  40.024  28.751  1.00  0.00     0.117 A 
ATOM     16  C   UNL A   1      43.388  38.691  29.074  1.00  0.00     0.162 A 
BRANCH  15  17
ATOM     17  C   UNL A   1      42.923  40.527  27.424  1.00  0.00     0.004 A 
ATOM     18  C   UNL A   1      43.889  41.238  26.708  1.00  0.00     0.010 A 
ATOM     19  C   UNL A   1      41.640  40.372  26.876  1.00  0.00     0.010 A 
ATOM     20  C   UNL A   1      43.574  41.792  25.465  1.00  0.00     0.001 A 
ATOM     21  C   UNL A   1      41.322  40.943  25.643  1.00  0.00     0.001 A 
ATOM     22  C   UNL A   1      42.291  41.652  24.937  1.00  0.00     0.000 A 
ENDBRANCH  15  17
BRANCH  16  23
ATOM     23  C   UNL A   1      43.272  37.430  28.360  1.00  0.00     0.020 A 
ATOM     24  C   UNL A   1      44.048  37.200  27.219  1.00  0.00     0.012 A 
ATOM     25  C   UNL A   1      42.465  36.392  28.850  1.00  0.00     0.012 A 
ATOM     26  C   UNL A   1      44.055  35.944  26.606  1.00  0.00     0.001 A 
ATOM     27  C   UNL A   1      42.464  35.139  28.231  1.00  0.00     0.001 A 
ATOM     28  C   UNL A   1      43.269  34.913  27.117  1.00  0.00     0.000 A 
ENDBRANCH  16  23
ENDBRANCH  11  12
ENDBRANCH  10  11
ENDBRANCH   8  10
ENDBRANCH   7   8
ENDBRANCH   6   7
ENDBRANCH   5   6
ENDBRANCH   4   5
ENDBRANCH   3   4
ENDBRANCH   2   3
ENDBRANCH   1   2
BRANCH   1  29
ATOM     29  C   UNL A   1      54.024  37.787  31.292  1.00  0.00     0.188 C 
BRANCH  29  30
ATOM     30  C   UNL A   1      52.670  37.453  30.636  1.00  0.00     0.188 C 
BRANCH  30  31
ATOM     31  O   UNL A   1      51.764  38.493  30.355  1.00  0.00    -0.376 OA
BRANCH  31  32
ATOM     32  C   UNL A   1      50.870  38.512  29.267  1.00  0.00     0.202 C 
BRANCH  32  33
ATOM     33  C   UNL A   1      50.073  37.323  28.701  1.00  0.00     0.261 C 
BRANCH  33  34
ATOM     34  O   UNL A   1      48.688  37.493  28.415  1.00  0.00    -0.460 OA
BRANCH  34  35
ATOM     35  C   UNL A   1      47.819  37.042  29.355  1.00  0.00     0.338 C 
ATOM     36  O   UNL A   1      47.186  37.715  30.136  1.00  0.00    -0.246 OA
BRANCH  35  37
ATOM     37  C   UNL A   1      47.596  35.593  29.114  1.00  0.00     0.060 A 
ATOM     38  C   UNL A   1      47.148  35.185  27.849  1.00  0.00     0.016 A 
ATOM     39  C   UNL A   1      47.837  34.646  30.113  1.00  0.00     0.016 A 
ATOM     40  C   UNL A   1      46.892  33.838  27.594  1.00  0.00     0.010 A 
ATOM     41  C   UNL A   1      47.552  33.299  29.866  1.00  0.00     0.010 A 
ATOM     42  C   UNL A   1      47.037  32.897  28.620  1.00  0.00    -0.014 A 
BRANCH  42  43
ATOM     43  C   UNL A   1      46.414  31.557  28.481  1.00  0.00     0.031 A 
ATOM     44  C   UNL A   1      47.234  30.468  27.842  1.00  0.00     0.074 A 
ATOM     45  C   UNL A   1      45.167  31.301  28.912  1.00  0.00     0.049 A 
ATOM     46  N   UNL A   1      46.897  29.240  27.546  1.00  0.00    -0.248 NA
ATOM     47  C   UNL A   1      48.621  30.814  27.486  1.00  0.00     0.031 C 
ATOM     48  C   UNL A   1      44.292  32.252  29.594  1.00  0.00     0.029 A 
ATOM     49  N   UNL A   1      44.417  30.152  28.827  1.00  0.00    -0.354 N 
ATOM     50  C   UNL A   1      48.021  28.675  26.956  1.00  0.00     0.074 A 
ATOM     51  C   UNL A   1      49.041  29.698  26.913  1.00  0.00     0.031 C 
ATOM     52  C   UNL A   1      43.116  31.650  29.849  1.00  0.00     0.029 A 
ATOM     53  C   UNL A   1      43.142  30.286  29.323  1.00  0.00     0.049 A 
ATOM     54  H   UNL A   1      44.761  29.312  28.445  1.00  0.00     0.167 HD
ATOM     55  C   UNL A   1      48.191  27.416  26.490  1.00  0.00     0.031 A 
ATOM     56  C   UNL A   1      42.110  29.420  29.329  1.00  0.00     0.031 A 
ATOM     57  C   UNL A   1      47.169  26.404  26.518  1.00  0.00     0.049 A 
ATOM     58  C   UNL A   1      42.296  28.045  28.734  1.00  0.00     0.074 A 
ATOM     59  C   UNL A   1      47.246  25.094  26.080  1.00  0.00     0.029 A 
ATOM     60  N   UNL A   1      45.884  26.591  27.002  1.00  0.00    -0.354 N 
ATOM     61  N   UNL A   1      43.372  27.518  28.198  1.00  0.00    -0.248 NA
ATOM     62  C   UNL A   1      41.132  27.148  28.751  1.00  0.00     0.031 C 
ATOM     63  C   UNL A   1      45.988  24.508  26.240  1.00  0.00     0.029 A 
ATOM     64  C   UNL A   1      45.149  25.428  26.848  1.00  0.00     0.049 A 
ATOM     65  H   UNL A   1      45.545  27.426  27.398  1.00  0.00     0.167 HD
ATOM     66  C   UNL A   1      43.021  26.217  27.846  1.00  0.00     0.074 A 
ATOM     67  C   UNL A   1      41.640  26.034  28.241  1.00  0.00     0.031 C 
ATOM     68  C   UNL A   1      43.775  25.258  27.252  1.00  0.00     0.031 A 
BRANCH  55  69
ATOM     69  C   UNL A   1      49.520  27.075  25.872  1.00  0.00    -0.014 A 
ATOM     70  C   UNL A   1      50.554  26.499  26.634  1.00  0.00     0.010 A 
ATOM     71  C   UNL A   1      49.724  27.299  24.499  1.00  0.00     0.010 A 
ATOM     72  C   UNL A   1      51.778  26.182  26.037  1.00  0.00     0.020 A 
ATOM     73  C   UNL A   1      50.935  26.955  23.892  1.00  0.00     0.020 A 
ATOM     74  C   UNL A   1      51.959  26.411  24.669  1.00  0.00     0.054 A 
BRANCH  74  75
ATOM     75  S   UNL A   1      53.543  25.953  23.915  1.00  0.00     0.124 S 
ATOM     76  O   UNL A   1      54.452  26.933  24.505  1.00  0.00    -0.237 OA
ATOM     77  O   UNL A   1      53.725  24.577  24.366  1.00  0.00    -0.237 OA
ATOM     78  O   UNL A   1      53.304  26.110  22.482  1.00  0.00    -0.744 OA
ENDBRANCH  74  75
ENDBRANCH  55  69
BRANCH  56  79
ATOM     79  C   UNL A   1      40.792  29.826  29.899  1.00  0.00    -0.014 A 
ATOM     80  C   UNL A   1      40.542  29.715  31.278  1.00  0.00     0.010 A 
ATOM     81  C   UNL A   1      39.772  30.307  29.058  1.00  0.00     0.010 A 
ATOM     82  C   UNL A   1      39.290  30.055  31.801  1.00  0.00     0.020 A 
ATOM     83  C   UNL A   1      38.531  30.680  29.582  1.00  0.00     0.020 A 
ATOM     84  C   UNL A   1      38.293  30.537  30.949  1.00  0.00     0.054 A 
BRANCH  84  85
ATOM     85  S   UNL A   1      36.691  31.007  31.660  1.00  0.00     0.124 S 
ATOM     86  O   UNL A   1      36.285  32.107  30.793  1.00  0.00    -0.237 OA
ATOM     87  O   UNL A   1      35.919  29.773  31.523  1.00  0.00    -0.237 OA
ATOM     88  O   UNL A   1      37.024  31.380  33.034  1.00  0.00    -0.744 OA
ENDBRANCH  84  85
ENDBRANCH  56  79
BRANCH  68  89
ATOM     89  C   UNL A   1      43.148  23.906  27.035  1.00  0.00    -0.014 A 
ATOM     90  C   UNL A   1      42.501  23.580  25.830  1.00  0.00     0.010 A 
ATOM     91  C   UNL A   1      43.270  22.922  28.033  1.00  0.00     0.010 A 
ATOM     92  C   UNL A   1      41.959  22.305  25.642  1.00  0.00     0.020 A 
ATOM     93  C   UNL A   1      42.758  21.637  27.837  1.00  0.00     0.020 A 
ATOM     94  C   UNL A   1      42.092  21.342  26.647  1.00  0.00     0.054 A 
BRANCH  94  95
ATOM     95  S   UNL A   1      41.419  19.681  26.360  1.00  0.00     0.124 S 
ATOM     96  O   UNL A   1      42.291  19.180  25.301  1.00  0.00    -0.237 OA
ATOM     97  O   UNL A   1      41.582  19.041  27.663  1.00  0.00    -0.237 OA
ATOM     98  O   UNL A   1      40.035  19.930  25.962  1.00  0.00    -0.744 OA
ENDBRANCH  94  95
ENDBRANCH  68  89
ENDBRANCH  42  43
ENDBRANCH  35  37
ENDBRANCH  34  35
ENDBRANCH  33  34
ENDBRANCH  32  33
ENDBRANCH  31  32
ENDBRANCH  30  31
ENDBRANCH  29  30
ENDBRANCH   1  29
TORSDOF 27
ENDMDL
