MODEL 1
REMARK VINA RESULT:      -5.5      0.000      0.000
REMARK SMILES O=C(OCCOCCOCCOCCOC(=O)c1ccc(-c2c3nc(c(-c4ccc(S(=O)(=O)[O-])cc4)c4ccc([nH]4)c(-c4ccc(S(=O)(=O)[O-])cc4)c4nc(c(-c5ccc(S(=O)(=O)[O-])cc5)c5ccc2[nH]5)C=C4)C=C3)cc1)c1ccc(NC(=O)c2ccccc2NC(=O)C2CC2)cc1
REMARK SMILES IDX 8 1 7 2 6 3 5 4 4 5 3 6 2 7 1 8 78 9 79 10 98 11 80 12 97 13
REMARK SMILES IDX 81 14 82 15 83 16 84 18 85 19 86 20 90 21 87 22 89 23 88 24
REMARK SMILES IDX 91 25 92 26 93 28 94 29 95 30 96 31 9 32 10 33 11 34 12 35
REMARK SMILES IDX 13 36 14 37 15 38 16 39 17 40 18 41 19 42 77 43 20 44 76 45
REMARK SMILES IDX 21 46 22 47 23 48 70 49 24 50 75 51 69 52 71 53 25 54 74 55
REMARK SMILES IDX 68 56 67 57 26 59 56 60 37 61 55 62 38 63 41 64 54 65 72 66
REMARK SMILES IDX 39 67 40 68 53 70 73 71 42 72 27 73 28 74 36 75 29 76 35 77
REMARK SMILES IDX 30 78 31 79 32 80 33 81 34 82 57 83 58 84 66 85 59 86 65 87
REMARK SMILES IDX 60 88 61 89 62 90 63 91 64 92 43 93 44 94 52 95 45 96 51 97
REMARK SMILES IDX 46 98 47 99 48 100 49 101 50 102
REMARK H PARENT 82 17 91 27 71 58 41 69
REMARK Flexibility Score: inf
ROOT
ATOM      1  C   UNL A   1      44.164  38.322  34.533  1.00  0.00     0.188 C 
ENDROOT
BRANCH   1   2
ATOM      2  C   UNL A   1      43.356  37.198  33.882  1.00  0.00     0.188 C 
BRANCH   2   3
ATOM      3  O   UNL A   1      42.152  36.816  34.554  1.00  0.00    -0.376 OA
BRANCH   3   4
ATOM      4  C   UNL A   1      41.691  35.479  34.398  1.00  0.00     0.202 C 
BRANCH   4   5
ATOM      5  C   UNL A   1      41.361  35.077  32.958  1.00  0.00     0.261 C 
BRANCH   5   6
ATOM      6  O   UNL A   1      40.303  34.110  32.894  1.00  0.00    -0.460 OA
BRANCH   6   7
ATOM      7  C   UNL A   1      40.341  32.782  33.164  1.00  0.00     0.338 C 
ATOM      8  O   UNL A   1      39.712  32.377  34.142  1.00  0.00    -0.246 OA
BRANCH   7   9
ATOM      9  C   UNL A   1      41.099  31.762  32.364  1.00  0.00     0.060 A 
ATOM     10  C   UNL A   1      41.269  30.416  32.683  1.00  0.00     0.018 A 
ATOM     11  C   UNL A   1      41.640  32.196  31.144  1.00  0.00     0.018 A 
ATOM     12  C   UNL A   1      41.988  29.542  31.858  1.00  0.00     0.027 A 
ATOM     13  C   UNL A   1      42.340  31.318  30.304  1.00  0.00     0.027 A 
ATOM     14  C   UNL A   1      42.526  29.979  30.661  1.00  0.00     0.041 A 
BRANCH  14  15
ATOM     15  N   UNL A   1      43.264  29.178  29.779  1.00  0.00    -0.322 N 
ATOM     16  C   UNL A   1      42.924  28.215  28.863  1.00  0.00     0.257 C 
ATOM     17  H   UNL A   1      44.234  29.340  29.828  1.00  0.00     0.170 HD
ATOM     18  O   UNL A   1      43.822  27.571  28.316  1.00  0.00    -0.269 OA
BRANCH  16  19
ATOM     19  C   UNL A   1      41.539  27.884  28.489  1.00  0.00     0.063 A 
ATOM     20  C   UNL A   1      40.703  28.983  28.212  1.00  0.00     0.016 A 
ATOM     21  C   UNL A   1      41.023  26.573  28.552  1.00  0.00     0.054 A 
ATOM     22  C   UNL A   1      39.337  28.794  28.022  1.00  0.00     0.001 A 
ATOM     23  C   UNL A   1      39.632  26.444  28.478  1.00  0.00     0.027 A 
ATOM     24  C   UNL A   1      38.799  27.529  28.193  1.00  0.00     0.002 A 
BRANCH  21  25
ATOM     25  N   UNL A   1      41.907  25.468  28.623  1.00  0.00    -0.325 N 
ATOM     26  C   UNL A   1      42.492  24.673  27.659  1.00  0.00     0.227 C 
ATOM     27  H   UNL A   1      42.151  25.217  29.543  1.00  0.00     0.169 HD
ATOM     28  O   UNL A   1      43.294  23.804  27.998  1.00  0.00    -0.274 OA
BRANCH  26  29
ATOM     29  C   UNL A   1      42.158  24.850  26.224  1.00  0.00     0.079 C 
ATOM     30  C   UNL A   1      42.903  25.910  25.432  1.00  0.00     0.014 C 
ATOM     31  C   UNL A   1      43.106  24.464  25.119  1.00  0.00     0.014 C 
ENDBRANCH  26  29
ENDBRANCH  21  25
ENDBRANCH  16  19
ENDBRANCH  14  15
ENDBRANCH   7   9
ENDBRANCH   6   7
ENDBRANCH   5   6
ENDBRANCH   4   5
ENDBRANCH   3   4
ENDBRANCH   2   3
ENDBRANCH   1   2
BRANCH   1  32
ATOM     32  O   UNL A   1      44.289  39.520  33.784  1.00  0.00    -0.377 OA
BRANCH  32  33
ATOM     33  C   UNL A   1      43.303  39.762  32.794  1.00  0.00     0.188 C 
BRANCH  33  34
ATOM     34  C   UNL A   1      43.859  40.225  31.438  1.00  0.00     0.188 C 
BRANCH  34  35
ATOM     35  O   UNL A   1      45.259  40.124  31.207  1.00  0.00    -0.376 OA
BRANCH  35  36
ATOM     36  C   UNL A   1      45.745  40.029  29.871  1.00  0.00     0.202 C 
BRANCH  36  37
ATOM     37  C   UNL A   1      44.707  39.918  28.751  1.00  0.00     0.261 C 
BRANCH  37  38
ATOM     38  O   UNL A   1      44.897  38.731  27.972  1.00  0.00    -0.460 OA
BRANCH  38  39
ATOM     39  C   UNL A   1      43.846  37.878  27.903  1.00  0.00     0.338 C 
ATOM     40  O   UNL A   1      42.782  38.047  27.329  1.00  0.00    -0.246 OA
BRANCH  39  41
ATOM     41  C   UNL A   1      44.303  36.577  28.432  1.00  0.00     0.060 A 
ATOM     42  C   UNL A   1      43.435  35.475  28.355  1.00  0.00     0.016 A 
ATOM     43  C   UNL A   1      45.608  36.425  28.906  1.00  0.00     0.016 A 
ATOM     44  C   UNL A   1      43.867  34.214  28.766  1.00  0.00     0.010 A 
ATOM     45  C   UNL A   1      46.032  35.171  29.332  1.00  0.00     0.010 A 
ATOM     46  C   UNL A   1      45.156  34.071  29.291  1.00  0.00    -0.014 A 
BRANCH  46  47
ATOM     47  C   UNL A   1      45.551  32.871  30.056  1.00  0.00     0.031 A 
ATOM     48  C   UNL A   1      46.101  31.721  29.265  1.00  0.00     0.074 A 
ATOM     49  C   UNL A   1      45.284  32.749  31.366  1.00  0.00     0.049 A 
ATOM     50  N   UNL A   1      46.237  30.469  29.604  1.00  0.00    -0.248 NA
ATOM     51  C   UNL A   1      46.511  32.027  27.883  1.00  0.00     0.031 C 
ATOM     52  C   UNL A   1      44.781  33.813  32.233  1.00  0.00     0.029 A 
ATOM     53  N   UNL A   1      45.352  31.647  32.180  1.00  0.00    -0.354 N 
ATOM     54  C   UNL A   1      46.704  29.828  28.463  1.00  0.00     0.074 A 
ATOM     55  C   UNL A   1      46.821  30.826  27.425  1.00  0.00     0.031 C 
ATOM     56  C   UNL A   1      44.541  33.298  33.453  1.00  0.00     0.029 A 
ATOM     57  C   UNL A   1      44.822  31.863  33.430  1.00  0.00     0.049 A 
ATOM     58  H   UNL A   1      45.740  30.788  31.896  1.00  0.00     0.167 HD
ATOM     59  C   UNL A   1      46.987  28.516  28.292  1.00  0.00     0.031 A 
ATOM     60  C   UNL A   1      44.546  30.987  34.418  1.00  0.00     0.031 A 
ATOM     61  C   UNL A   1      46.829  27.532  29.326  1.00  0.00     0.049 A 
ATOM     62  C   UNL A   1      44.835  29.525  34.205  1.00  0.00     0.074 A 
ATOM     63  C   UNL A   1      47.104  26.179  29.277  1.00  0.00     0.029 A 
ATOM     64  N   UNL A   1      46.338  27.801  30.595  1.00  0.00    -0.354 N 
ATOM     65  N   UNL A   1      45.299  28.924  33.132  1.00  0.00    -0.248 NA
ATOM     66  C   UNL A   1      44.564  28.620  35.330  1.00  0.00     0.031 C 
ATOM     67  C   UNL A   1      46.732  25.619  30.504  1.00  0.00     0.029 A 
ATOM     68  C   UNL A   1      46.285  26.635  31.337  1.00  0.00     0.049 A 
ATOM     69  H   UNL A   1      46.068  28.690  30.921  1.00  0.00     0.167 HD
ATOM     70  C   UNL A   1      45.405  27.578  33.465  1.00  0.00     0.074 A 
ATOM     71  C   UNL A   1      44.957  27.452  34.837  1.00  0.00     0.031 C 
ATOM     72  C   UNL A   1      45.843  26.541  32.706  1.00  0.00     0.031 A 
BRANCH  59  73
ATOM     73  C   UNL A   1      47.423  28.088  26.918  1.00  0.00    -0.014 A 
ATOM     74  C   UNL A   1      48.785  28.026  26.567  1.00  0.00     0.010 A 
ATOM     75  C   UNL A   1      46.452  27.786  25.946  1.00  0.00     0.010 A 
ATOM     76  C   UNL A   1      49.163  27.739  25.253  1.00  0.00     0.020 A 
ATOM     77  C   UNL A   1      46.828  27.466  24.639  1.00  0.00     0.020 A 
ATOM     78  C   UNL A   1      48.181  27.473  24.295  1.00  0.00     0.054 A 
BRANCH  78  79
ATOM     79  S   UNL A   1      48.697  27.130  22.591  1.00  0.00     0.124 S 
ATOM     80  O   UNL A   1      48.413  25.701  22.475  1.00  0.00    -0.237 OA
ATOM     81  O   UNL A   1      47.829  28.007  21.810  1.00  0.00    -0.237 OA
ATOM     82  O   UNL A   1      50.113  27.487  22.579  1.00  0.00    -0.744 OA
ENDBRANCH  78  79
ENDBRANCH  59  73
BRANCH  60  83
ATOM     83  C   UNL A   1      43.944  31.483  35.685  1.00  0.00    -0.014 A 
ATOM     84  C   UNL A   1      42.566  31.342  35.921  1.00  0.00     0.010 A 
ATOM     85  C   UNL A   1      44.755  32.041  36.691  1.00  0.00     0.010 A 
ATOM     86  C   UNL A   1      42.012  31.735  37.142  1.00  0.00     0.020 A 
ATOM     87  C   UNL A   1      44.209  32.414  37.924  1.00  0.00     0.020 A 
ATOM     88  C   UNL A   1      42.840  32.255  38.142  1.00  0.00     0.054 A 
BRANCH  88  89
ATOM     89  S   UNL A   1      42.114  32.646  39.759  1.00  0.00     0.124 S 
ATOM     90  O   UNL A   1      40.688  32.689  39.453  1.00  0.00    -0.237 OA
ATOM     91  O   UNL A   1      42.553  31.518  40.578  1.00  0.00    -0.237 OA
ATOM     92  O   UNL A   1      42.722  33.929  40.105  1.00  0.00    -0.744 OA
ENDBRANCH  88  89
ENDBRANCH  60  83
BRANCH  72  93
ATOM     93  C   UNL A   1      45.917  25.182  33.351  1.00  0.00    -0.014 A 
ATOM     94  C   UNL A   1      44.863  24.260  33.243  1.00  0.00     0.010 A 
ATOM     95  C   UNL A   1      47.115  24.791  33.980  1.00  0.00     0.010 A 
ATOM     96  C   UNL A   1      45.003  22.970  33.765  1.00  0.00     0.020 A 
ATOM     97  C   UNL A   1      47.266  23.496  34.480  1.00  0.00     0.020 A 
ATOM     98  C   UNL A   1      46.205  22.595  34.375  1.00  0.00     0.054 A 
BRANCH  98  99
ATOM     99  S   UNL A   1      46.390  20.893  34.973  1.00  0.00     0.124 S 
ATOM    100  O   UNL A   1      47.275  20.312  33.966  1.00  0.00    -0.237 OA
ATOM    101  O   UNL A   1      46.982  21.080  36.296  1.00  0.00    -0.237 OA
ATOM    102  O   UNL A   1      45.024  20.376  34.976  1.00  0.00    -0.744 OA
ENDBRANCH  98  99
ENDBRANCH  72  93
ENDBRANCH  46  47
ENDBRANCH  39  41
ENDBRANCH  38  39
ENDBRANCH  37  38
ENDBRANCH  36  37
ENDBRANCH  35  36
ENDBRANCH  34  35
ENDBRANCH  33  34
ENDBRANCH  32  33
ENDBRANCH   1  32
TORSDOF 27
ENDMDL
MODEL 2
REMARK VINA RESULT:      -4.9      4.455      9.105
REMARK SMILES O=C(OCCOCCOCCOCCOC(=O)c1ccc(-c2c3nc(c(-c4ccc(S(=O)(=O)[O-])cc4)c4ccc([nH]4)c(-c4ccc(S(=O)(=O)[O-])cc4)c4nc(c(-c5ccc(S(=O)(=O)[O-])cc5)c5ccc2[nH]5)C=C4)C=C3)cc1)c1ccc(NC(=O)c2ccccc2NC(=O)C2CC2)cc1
REMARK SMILES IDX 8 1 7 2 6 3 5 4 4 5 3 6 2 7 1 8 78 9 79 10 98 11 80 12 97 13
REMARK SMILES IDX 81 14 82 15 83 16 84 18 85 19 86 20 90 21 87 22 89 23 88 24
REMARK SMILES IDX 91 25 92 26 93 28 94 29 95 30 96 31 9 32 10 33 11 34 12 35
REMARK SMILES IDX 13 36 14 37 15 38 16 39 17 40 18 41 19 42 77 43 20 44 76 45
REMARK SMILES IDX 21 46 22 47 23 48 70 49 24 50 75 51 69 52 71 53 25 54 74 55
REMARK SMILES IDX 68 56 67 57 26 59 56 60 37 61 55 62 38 63 41 64 54 65 72 66
REMARK SMILES IDX 39 67 40 68 53 70 73 71 42 72 27 73 28 74 36 75 29 76 35 77
REMARK SMILES IDX 30 78 31 79 32 80 33 81 34 82 57 83 58 84 66 85 59 86 65 87
REMARK SMILES IDX 60 88 61 89 62 90 63 91 64 92 43 93 44 94 52 95 45 96 51 97
REMARK SMILES IDX 46 98 47 99 48 100 49 101 50 102
REMARK H PARENT 82 17 91 27 71 58 41 69
REMARK Flexibility Score: inf
ROOT
ATOM      1  C   UNL A   1      41.971  36.338  27.287  1.00  0.00     0.188 C 
ENDROOT
BRANCH   1   2
ATOM      2  C   UNL A   1      43.304  35.745  27.745  1.00  0.00     0.188 C 
BRANCH   2   3
ATOM      3  O   UNL A   1      43.545  35.748  29.155  1.00  0.00    -0.376 OA
BRANCH   3   4
ATOM      4  C   UNL A   1      42.530  35.240  30.012  1.00  0.00     0.202 C 
BRANCH   4   5
ATOM      5  C   UNL A   1      42.925  35.143  31.489  1.00  0.00     0.261 C 
BRANCH   5   6
ATOM      6  O   UNL A   1      43.232  36.426  32.053  1.00  0.00    -0.460 OA
BRANCH   6   7
ATOM      7  C   UNL A   1      44.378  36.847  32.641  1.00  0.00     0.338 C 
ATOM      8  O   UNL A   1      45.361  36.108  32.581  1.00  0.00    -0.246 OA
BRANCH   7   9
ATOM      9  C   UNL A   1      44.543  38.150  33.369  1.00  0.00     0.060 A 
ATOM     10  C   UNL A   1      43.532  39.049  33.706  1.00  0.00     0.018 A 
ATOM     11  C   UNL A   1      45.839  38.467  33.806  1.00  0.00     0.018 A 
ATOM     12  C   UNL A   1      43.793  40.236  34.399  1.00  0.00     0.027 A 
ATOM     13  C   UNL A   1      46.101  39.644  34.522  1.00  0.00     0.027 A 
ATOM     14  C   UNL A   1      45.075  40.546  34.819  1.00  0.00     0.041 A 
BRANCH  14  15
ATOM     15  N   UNL A   1      45.427  41.711  35.511  1.00  0.00    -0.322 N 
ATOM     16  C   UNL A   1      45.322  43.050  35.229  1.00  0.00     0.257 C 
ATOM     17  H   UNL A   1      45.841  41.532  36.386  1.00  0.00     0.170 HD
ATOM     18  O   UNL A   1      45.854  43.861  35.989  1.00  0.00    -0.269 OA
BRANCH  16  19
ATOM     19  C   UNL A   1      44.614  43.593  34.058  1.00  0.00     0.063 A 
ATOM     20  C   UNL A   1      43.234  43.815  34.228  1.00  0.00     0.016 A 
ATOM     21  C   UNL A   1      45.225  43.738  32.796  1.00  0.00     0.054 A 
ATOM     22  C   UNL A   1      42.439  44.158  33.139  1.00  0.00     0.001 A 
ATOM     23  C   UNL A   1      44.372  43.961  31.710  1.00  0.00     0.027 A 
ATOM     24  C   UNL A   1      43.004  44.193  31.874  1.00  0.00     0.002 A 
BRANCH  21  25
ATOM     25  N   UNL A   1      46.638  43.715  32.687  1.00  0.00    -0.325 N 
ATOM     26  C   UNL A   1      47.503  43.032  31.859  1.00  0.00     0.227 C 
ATOM     27  H   UNL A   1      47.092  44.303  33.333  1.00  0.00     0.169 HD
ATOM     28  O   UNL A   1      48.710  43.253  31.931  1.00  0.00    -0.274 OA
BRANCH  26  29
ATOM     29  C   UNL A   1      46.993  42.029  30.890  1.00  0.00     0.079 C 
ATOM     30  C   UNL A   1      47.996  41.261  30.047  1.00  0.00     0.014 C 
ATOM     31  C   UNL A   1      47.189  40.548  31.082  1.00  0.00     0.014 C 
ENDBRANCH  26  29
ENDBRANCH  21  25
ENDBRANCH  16  19
ENDBRANCH  14  15
ENDBRANCH   7   9
ENDBRANCH   6   7
ENDBRANCH   5   6
ENDBRANCH   4   5
ENDBRANCH   3   4
ENDBRANCH   2   3
ENDBRANCH   1   2
BRANCH   1  32
ATOM     32  O   UNL A   1      42.012  37.662  26.780  1.00  0.00    -0.377 OA
BRANCH  32  33
ATOM     33  C   UNL A   1      42.292  38.695  27.711  1.00  0.00     0.188 C 
BRANCH  33  34
ATOM     34  C   UNL A   1      42.705  40.033  27.076  1.00  0.00     0.188 C 
BRANCH  34  35
ATOM     35  O   UNL A   1      44.080  40.251  26.786  1.00  0.00    -0.376 OA
BRANCH  35  36
ATOM     36  C   UNL A   1      44.957  39.136  26.663  1.00  0.00     0.202 C 
BRANCH  36  37
ATOM     37  C   UNL A   1      46.144  39.065  27.628  1.00  0.00     0.261 C 
BRANCH  37  38
ATOM     38  O   UNL A   1      46.410  37.719  28.039  1.00  0.00    -0.460 OA
BRANCH  38  39
ATOM     39  C   UNL A   1      47.380  37.060  27.360  1.00  0.00     0.338 C 
ATOM     40  O   UNL A   1      48.399  37.523  26.874  1.00  0.00    -0.246 OA
BRANCH  39  41
ATOM     41  C   UNL A   1      47.127  35.614  27.527  1.00  0.00     0.060 A 
ATOM     42  C   UNL A   1      46.803  34.851  26.393  1.00  0.00     0.016 A 
ATOM     43  C   UNL A   1      47.303  35.004  28.770  1.00  0.00     0.016 A 
ATOM     44  C   UNL A   1      46.642  33.469  26.502  1.00  0.00     0.010 A 
ATOM     45  C   UNL A   1      47.125  33.630  28.882  1.00  0.00     0.010 A 
ATOM     46  C   UNL A   1      46.766  32.865  27.758  1.00  0.00    -0.014 A 
BRANCH  46  47
ATOM     47  C   UNL A   1      46.273  31.495  28.008  1.00  0.00     0.031 A 
ATOM     48  C   UNL A   1      47.134  30.370  27.515  1.00  0.00     0.074 A 
ATOM     49  C   UNL A   1      45.047  31.266  28.505  1.00  0.00     0.049 A 
ATOM     50  N   UNL A   1      46.832  29.117  27.317  1.00  0.00    -0.248 NA
ATOM     51  C   UNL A   1      48.518  30.728  27.155  1.00  0.00     0.031 C 
ATOM     52  C   UNL A   1      44.145  32.282  29.041  1.00  0.00     0.029 A 
ATOM     53  N   UNL A   1      44.333  30.097  28.583  1.00  0.00    -0.354 N 
ATOM     54  C   UNL A   1      47.972  28.547  26.764  1.00  0.00     0.074 A 
ATOM     55  C   UNL A   1      48.966  29.589  26.654  1.00  0.00     0.031 C 
ATOM     56  C   UNL A   1      42.974  31.697  29.353  1.00  0.00     0.029 A 
ATOM     57  C   UNL A   1      43.032  30.283  28.986  1.00  0.00     0.049 A 
ATOM     58  H   UNL A   1      44.715  29.215  28.372  1.00  0.00     0.167 HD
ATOM     59  C   UNL A   1      48.162  27.268  26.363  1.00  0.00     0.031 A 
ATOM     60  C   UNL A   1      41.997  29.419  29.000  1.00  0.00     0.031 A 
ATOM     61  C   UNL A   1      47.150  26.255  26.447  1.00  0.00     0.049 A 
ATOM     62  C   UNL A   1      42.212  28.007  28.520  1.00  0.00     0.074 A 
ATOM     63  C   UNL A   1      47.233  24.921  26.092  1.00  0.00     0.029 A 
ATOM     64  N   UNL A   1      45.860  26.471  26.909  1.00  0.00    -0.354 N 
ATOM     65  N   UNL A   1      43.299  27.464  28.020  1.00  0.00    -0.248 NA
ATOM     66  C   UNL A   1      41.066  27.091  28.605  1.00  0.00     0.031 C 
ATOM     67  C   UNL A   1      45.975  24.343  26.294  1.00  0.00     0.029 A 
ATOM     68  C   UNL A   1      45.128  25.300  26.834  1.00  0.00     0.049 A 
ATOM     69  H   UNL A   1      45.515  27.332  27.243  1.00  0.00     0.167 HD
ATOM     70  C   UNL A   1      42.975  26.136  27.760  1.00  0.00     0.074 A 
ATOM     71  C   UNL A   1      41.593  25.959  28.157  1.00  0.00     0.031 C 
ATOM     72  C   UNL A   1      43.755  25.150  27.248  1.00  0.00     0.031 A 
BRANCH  59  73
ATOM     73  C   UNL A   1      49.491  26.943  25.739  1.00  0.00    -0.014 A 
ATOM     74  C   UNL A   1      50.559  26.441  26.508  1.00  0.00     0.010 A 
ATOM     75  C   UNL A   1      49.691  27.186  24.368  1.00  0.00     0.010 A 
ATOM     76  C   UNL A   1      51.818  26.256  25.932  1.00  0.00     0.020 A 
ATOM     77  C   UNL A   1      50.940  26.970  23.781  1.00  0.00     0.020 A 
ATOM     78  C   UNL A   1      52.003  26.533  24.574  1.00  0.00     0.054 A 
BRANCH  78  79
ATOM     79  S   UNL A   1      53.653  26.310  23.857  1.00  0.00     0.124 S 
ATOM     80  O   UNL A   1      53.339  26.109  22.444  1.00  0.00    -0.237 OA
ATOM     81  O   UNL A   1      54.316  27.570  24.179  1.00  0.00    -0.237 OA
ATOM     82  O   UNL A   1      54.177  25.137  24.551  1.00  0.00    -0.744 OA
ENDBRANCH  78  79
ENDBRANCH  59  73
BRANCH  60  83
ATOM     83  C   UNL A   1      40.664  29.884  29.469  1.00  0.00    -0.014 A 
ATOM     84  C   UNL A   1      40.498  30.359  30.782  1.00  0.00     0.010 A 
ATOM     85  C   UNL A   1      39.567  29.915  28.588  1.00  0.00     0.010 A 
ATOM     86  C   UNL A   1      39.266  30.870  31.200  1.00  0.00     0.020 A 
ATOM     87  C   UNL A   1      38.339  30.448  28.995  1.00  0.00     0.020 A 
ATOM     88  C   UNL A   1      38.198  30.925  30.299  1.00  0.00     0.054 A 
BRANCH  88  89
ATOM     89  S   UNL A   1      36.647  31.702  30.833  1.00  0.00     0.124 S 
ATOM     90  O   UNL A   1      37.110  32.658  31.833  1.00  0.00    -0.237 OA
ATOM     91  O   UNL A   1      36.144  32.279  29.589  1.00  0.00    -0.237 OA
ATOM     92  O   UNL A   1      35.864  30.581  31.350  1.00  0.00    -0.744 OA
ENDBRANCH  88  89
ENDBRANCH  60  83
BRANCH  72  93
ATOM     93  C   UNL A   1      43.160  23.772  27.135  1.00  0.00    -0.014 A 
ATOM     94  C   UNL A   1      42.654  23.287  25.917  1.00  0.00     0.010 A 
ATOM     95  C   UNL A   1      43.214  22.913  28.250  1.00  0.00     0.010 A 
ATOM     96  C   UNL A   1      42.202  21.968  25.820  1.00  0.00     0.020 A 
ATOM     97  C   UNL A   1      42.785  21.588  28.149  1.00  0.00     0.020 A 
ATOM     98  C   UNL A   1      42.276  21.126  26.935  1.00  0.00     0.054 A 
BRANCH  98  99
ATOM     99  S   UNL A   1      41.757  19.396  26.762  1.00  0.00     0.124 S 
ATOM    100  O   UNL A   1      41.470  19.307  25.333  1.00  0.00    -0.237 OA
ATOM    101  O   UNL A   1      42.936  18.661  27.215  1.00  0.00    -0.237 OA
ATOM    102  O   UNL A   1      40.593  19.294  27.639  1.00  0.00    -0.744 OA
ENDBRANCH  98  99
ENDBRANCH  72  93
ENDBRANCH  46  47
ENDBRANCH  39  41
ENDBRANCH  38  39
ENDBRANCH  37  38
ENDBRANCH  36  37
ENDBRANCH  35  36
ENDBRANCH  34  35
ENDBRANCH  33  34
ENDBRANCH  32  33
ENDBRANCH   1  32
TORSDOF 27
ENDMDL
MODEL 3
REMARK VINA RESULT:      -4.8      4.974     11.774
REMARK SMILES O=C(OCCOCCOCCOCCOC(=O)c1ccc(-c2c3nc(c(-c4ccc(S(=O)(=O)[O-])cc4)c4ccc([nH]4)c(-c4ccc(S(=O)(=O)[O-])cc4)c4nc(c(-c5ccc(S(=O)(=O)[O-])cc5)c5ccc2[nH]5)C=C4)C=C3)cc1)c1ccc(NC(=O)c2ccccc2NC(=O)C2CC2)cc1
REMARK SMILES IDX 8 1 7 2 6 3 5 4 4 5 3 6 2 7 1 8 78 9 79 10 98 11 80 12 97 13
REMARK SMILES IDX 81 14 82 15 83 16 84 18 85 19 86 20 90 21 87 22 89 23 88 24
REMARK SMILES IDX 91 25 92 26 93 28 94 29 95 30 96 31 9 32 10 33 11 34 12 35
REMARK SMILES IDX 13 36 14 37 15 38 16 39 17 40 18 41 19 42 77 43 20 44 76 45
REMARK SMILES IDX 21 46 22 47 23 48 70 49 24 50 75 51 69 52 71 53 25 54 74 55
REMARK SMILES IDX 68 56 67 57 26 59 56 60 37 61 55 62 38 63 41 64 54 65 72 66
REMARK SMILES IDX 39 67 40 68 53 70 73 71 42 72 27 73 28 74 36 75 29 76 35 77
REMARK SMILES IDX 30 78 31 79 32 80 33 81 34 82 57 83 58 84 66 85 59 86 65 87
REMARK SMILES IDX 60 88 61 89 62 90 63 91 64 92 43 93 44 94 52 95 45 96 51 97
REMARK SMILES IDX 46 98 47 99 48 100 49 101 50 102
REMARK H PARENT 82 17 91 27 71 58 41 69
REMARK Flexibility Score: inf
ROOT
ATOM      1  C   UNL A   1      49.534  27.376  28.305  1.00  0.00     0.188 C 
ENDROOT
BRANCH   1   2
ATOM      2  C   UNL A   1      49.516  28.678  29.108  1.00  0.00     0.188 C 
BRANCH   2   3
ATOM      3  O   UNL A   1      48.370  28.894  29.936  1.00  0.00    -0.376 OA
BRANCH   3   4
ATOM      4  C   UNL A   1      48.131  27.985  31.004  1.00  0.00     0.202 C 
BRANCH   4   5
ATOM      5  C   UNL A   1      46.755  27.314  30.980  1.00  0.00     0.261 C 
BRANCH   5   6
ATOM      6  O   UNL A   1      46.829  25.912  31.279  1.00  0.00    -0.460 OA
BRANCH   6   7
ATOM      7  C   UNL A   1      46.391  25.249  32.377  1.00  0.00     0.338 C 
ATOM      8  O   UNL A   1      45.269  24.743  32.333  1.00  0.00    -0.246 OA
BRANCH   7   9
ATOM      9  C   UNL A   1      47.167  25.086  33.652  1.00  0.00     0.060 A 
ATOM     10  C   UNL A   1      46.640  24.891  34.927  1.00  0.00     0.018 A 
ATOM     11  C   UNL A   1      48.566  25.071  33.538  1.00  0.00     0.018 A 
ATOM     12  C   UNL A   1      47.456  24.739  36.054  1.00  0.00     0.027 A 
ATOM     13  C   UNL A   1      49.387  24.895  34.661  1.00  0.00     0.027 A 
ATOM     14  C   UNL A   1      48.835  24.733  35.935  1.00  0.00     0.041 A 
BRANCH  14  15
ATOM     15  N   UNL A   1      49.726  24.593  37.007  1.00  0.00    -0.322 N 
ATOM     16  C   UNL A   1      50.488  23.553  37.478  1.00  0.00     0.257 C 
ATOM     17  H   UNL A   1      49.827  25.417  37.537  1.00  0.00     0.170 HD
ATOM     18  O   UNL A   1      51.087  23.691  38.546  1.00  0.00    -0.269 OA
BRANCH  16  19
ATOM     19  C   UNL A   1      50.634  22.260  36.789  1.00  0.00     0.063 A 
ATOM     20  C   UNL A   1      51.564  22.233  35.732  1.00  0.00     0.016 A 
ATOM     21  C   UNL A   1      49.795  21.157  37.051  1.00  0.00     0.054 A 
ATOM     22  C   UNL A   1      51.652  21.118  34.905  1.00  0.00     0.001 A 
ATOM     23  C   UNL A   1      49.830  20.111  36.123  1.00  0.00     0.027 A 
ATOM     24  C   UNL A   1      50.758  20.074  35.079  1.00  0.00     0.002 A 
BRANCH  21  25
ATOM     25  N   UNL A   1      49.020  21.123  38.237  1.00  0.00    -0.325 N 
ATOM     26  C   UNL A   1      49.289  20.694  39.519  1.00  0.00     0.227 C 
ATOM     27  H   UNL A   1      48.108  21.475  38.122  1.00  0.00     0.169 HD
ATOM     28  O   UNL A   1      48.442  20.844  40.398  1.00  0.00    -0.274 OA
BRANCH  26  29
ATOM     29  C   UNL A   1      50.584  20.044  39.846  1.00  0.00     0.079 C 
ATOM     30  C   UNL A   1      50.603  18.968  40.917  1.00  0.00     0.014 C 
ATOM     31  C   UNL A   1      50.880  18.610  39.494  1.00  0.00     0.014 C 
ENDBRANCH  26  29
ENDBRANCH  21  25
ENDBRANCH  16  19
ENDBRANCH  14  15
ENDBRANCH   7   9
ENDBRANCH   6   7
ENDBRANCH   5   6
ENDBRANCH   4   5
ENDBRANCH   3   4
ENDBRANCH   2   3
ENDBRANCH   1   2
BRANCH   1  32
ATOM     32  O   UNL A   1      48.356  27.072  27.575  1.00  0.00    -0.377 OA
BRANCH  32  33
ATOM     33  C   UNL A   1      48.383  25.899  26.779  1.00  0.00     0.188 C 
BRANCH  33  34
ATOM     34  C   UNL A   1      48.296  26.151  25.265  1.00  0.00     0.188 C 
BRANCH  34  35
ATOM     35  O   UNL A   1      47.236  25.545  24.535  1.00  0.00    -0.376 OA
BRANCH  35  36
ATOM     36  C   UNL A   1      45.900  25.656  25.016  1.00  0.00     0.202 C 
BRANCH  36  37
ATOM     37  C   UNL A   1      45.227  27.028  24.914  1.00  0.00     0.261 C 
BRANCH  37  38
ATOM     38  O   UNL A   1      44.663  27.434  26.166  1.00  0.00    -0.460 OA
BRANCH  38  39
ATOM     39  C   UNL A   1      43.314  27.365  26.273  1.00  0.00     0.338 C 
ATOM     40  O   UNL A   1      42.523  26.904  25.466  1.00  0.00    -0.246 OA
BRANCH  39  41
ATOM     41  C   UNL A   1      42.967  27.714  27.665  1.00  0.00     0.060 A 
ATOM     42  C   UNL A   1      41.981  26.960  28.323  1.00  0.00     0.016 A 
ATOM     43  C   UNL A   1      43.674  28.709  28.343  1.00  0.00     0.016 A 
ATOM     44  C   UNL A   1      41.690  27.208  29.665  1.00  0.00     0.010 A 
ATOM     45  C   UNL A   1      43.371  28.968  29.675  1.00  0.00     0.010 A 
ATOM     46  C   UNL A   1      42.361  28.240  30.330  1.00  0.00    -0.014 A 
BRANCH  46  47
ATOM     47  C   UNL A   1      41.870  28.782  31.613  1.00  0.00     0.031 A 
ATOM     48  C   UNL A   1      40.636  29.634  31.555  1.00  0.00     0.074 A 
ATOM     49  C   UNL A   1      42.575  28.656  32.749  1.00  0.00     0.049 A 
ATOM     50  N   UNL A   1      40.163  30.471  32.435  1.00  0.00    -0.248 NA
ATOM     51  C   UNL A   1      39.857  29.555  30.306  1.00  0.00     0.031 C 
ATOM     52  C   UNL A   1      43.766  27.828  32.921  1.00  0.00     0.029 A 
ATOM     53  N   UNL A   1      42.411  29.278  33.960  1.00  0.00    -0.354 N 
ATOM     54  C   UNL A   1      39.058  31.056  31.828  1.00  0.00     0.074 A 
ATOM     55  C   UNL A   1      38.936  30.482  30.508  1.00  0.00     0.031 C 
ATOM     56  C   UNL A   1      44.255  28.029  34.159  1.00  0.00     0.029 A 
ATOM     57  C   UNL A   1      43.442  29.038  34.836  1.00  0.00     0.049 A 
ATOM     58  H   UNL A   1      41.633  29.841  34.179  1.00  0.00     0.167 HD
ATOM     59  C   UNL A   1      38.231  32.006  32.323  1.00  0.00     0.031 A 
ATOM     60  C   UNL A   1      43.722  29.612  36.025  1.00  0.00     0.031 A 
ATOM     61  C   UNL A   1      38.390  32.592  33.624  1.00  0.00     0.049 A 
ATOM     62  C   UNL A   1      42.814  30.692  36.551  1.00  0.00     0.074 A 
ATOM     63  C   UNL A   1      37.603  33.545  34.241  1.00  0.00     0.029 A 
ATOM     64  N   UNL A   1      39.418  32.283  34.502  1.00  0.00    -0.354 N 
ATOM     65  N   UNL A   1      41.755  31.226  35.985  1.00  0.00    -0.248 NA
ATOM     66  C   UNL A   1      43.134  31.247  37.873  1.00  0.00     0.031 C 
ATOM     67  C   UNL A   1      38.186  33.850  35.476  1.00  0.00     0.029 A 
ATOM     68  C   UNL A   1      39.299  33.040  35.653  1.00  0.00     0.049 A 
ATOM     69  H   UNL A   1      40.128  31.622  34.332  1.00  0.00     0.167 HD
ATOM     70  C   UNL A   1      41.266  32.157  36.895  1.00  0.00     0.074 A 
ATOM     71  C   UNL A   1      42.143  32.114  38.047  1.00  0.00     0.031 C 
ATOM     72  C   UNL A   1      40.182  32.968  36.790  1.00  0.00     0.031 A 
BRANCH  59  73
ATOM     73  C   UNL A   1      37.142  32.501  31.411  1.00  0.00    -0.014 A 
ATOM     74  C   UNL A   1      35.839  31.969  31.470  1.00  0.00     0.010 A 
ATOM     75  C   UNL A   1      37.437  33.484  30.450  1.00  0.00     0.010 A 
ATOM     76  C   UNL A   1      34.875  32.360  30.538  1.00  0.00     0.020 A 
ATOM     77  C   UNL A   1      36.464  33.901  29.537  1.00  0.00     0.020 A 
ATOM     78  C   UNL A   1      35.198  33.315  29.570  1.00  0.00     0.054 A 
BRANCH  78  79
ATOM     79  S   UNL A   1      33.936  33.785  28.355  1.00  0.00     0.124 S 
ATOM     80  O   UNL A   1      33.571  32.489  27.788  1.00  0.00    -0.237 OA
ATOM     81  O   UNL A   1      32.913  34.418  29.184  1.00  0.00    -0.237 OA
ATOM     82  O   UNL A   1      34.646  34.685  27.450  1.00  0.00    -0.744 OA
ENDBRANCH  78  79
ENDBRANCH  59  73
BRANCH  60  83
ATOM     83  C   UNL A   1      44.931  29.180  36.777  1.00  0.00    -0.014 A 
ATOM     84  C   UNL A   1      44.877  28.065  37.630  1.00  0.00     0.010 A 
ATOM     85  C   UNL A   1      46.160  29.842  36.595  1.00  0.00     0.010 A 
ATOM     86  C   UNL A   1      46.030  27.610  38.276  1.00  0.00     0.020 A 
ATOM     87  C   UNL A   1      47.322  29.376  37.221  1.00  0.00     0.020 A 
ATOM     88  C   UNL A   1      47.248  28.260  38.056  1.00  0.00     0.054 A 
BRANCH  88  89
ATOM     89  S   UNL A   1      48.750  27.577  38.813  1.00  0.00     0.124 S 
ATOM     90  O   UNL A   1      49.684  27.571  37.692  1.00  0.00    -0.237 OA
ATOM     91  O   UNL A   1      49.034  28.546  39.869  1.00  0.00    -0.237 OA
ATOM     92  O   UNL A   1      48.326  26.261  39.286  1.00  0.00    -0.744 OA
ENDBRANCH  88  89
ENDBRANCH  60  83
BRANCH  72  93
ATOM     93  C   UNL A   1      39.842  33.840  37.970  1.00  0.00    -0.014 A 
ATOM     94  C   UNL A   1      39.053  33.365  39.031  1.00  0.00     0.010 A 
ATOM     95  C   UNL A   1      40.419  35.121  38.059  1.00  0.00     0.010 A 
ATOM     96  C   UNL A   1      38.840  34.163  40.159  1.00  0.00     0.020 A 
ATOM     97  C   UNL A   1      40.227  35.911  39.194  1.00  0.00     0.020 A 
ATOM     98  C   UNL A   1      39.433  35.428  40.235  1.00  0.00     0.054 A 
BRANCH  98  99
ATOM     99  S   UNL A   1      39.206  36.413  41.742  1.00  0.00     0.124 S 
ATOM    100  O   UNL A   1      40.475  36.204  42.435  1.00  0.00    -0.237 OA
ATOM    101  O   UNL A   1      38.991  37.759  41.216  1.00  0.00    -0.237 OA
ATOM    102  O   UNL A   1      38.040  35.807  42.380  1.00  0.00    -0.744 OA
ENDBRANCH  98  99
ENDBRANCH  72  93
ENDBRANCH  46  47
ENDBRANCH  39  41
ENDBRANCH  38  39
ENDBRANCH  37  38
ENDBRANCH  36  37
ENDBRANCH  35  36
ENDBRANCH  34  35
ENDBRANCH  33  34
ENDBRANCH  32  33
ENDBRANCH   1  32
TORSDOF 27
ENDMDL
