MODEL 1
REMARK VINA RESULT:     -10.6      0.000      0.000
REMARK SMILES Cc1ncc(CO)c([C@H]2[NH2+][C@@H](C(=O)OCCOCCOCCOCCOC(=O)c3ccc(-c4c5nc(c(-c6ccc(S(=O)(=O)[O-])cc6)c6ccc([nH]6)c(-c6ccc(S(=O)(=O)[O-])cc6)c6nc(c(-c7ccc(S(=O)(=O)[O-])cc7)c7ccc4[nH]7)C=C6)C=C5)cc3)Cc3[nH]cnc32)c1O
REMARK SMILES IDX 20 1 19 2 18 3 17 4 16 5 15 6 14 7 12 8 13 9 11 10 9 11
REMARK SMILES IDX 10 12 94 13 90 16 93 17 89 18 91 19 92 20 8 22 1 23 2 24
REMARK SMILES IDX 3 25 95 26 4 27 5 28 96 29 6 31 7 32 21 34 22 35 23 36 24 37
REMARK SMILES IDX 25 38 26 39 27 40 28 41 29 42 30 43 88 44 31 45 87 46 32 47
REMARK SMILES IDX 33 48 34 49 81 50 35 51 86 52 80 53 82 54 36 55 85 56 79 57
REMARK SMILES IDX 78 58 37 60 67 61 48 62 66 63 49 64 52 65 65 66 83 67 50 68
REMARK SMILES IDX 51 69 64 71 84 72 53 73 38 74 39 75 47 76 40 77 46 78 41 79
REMARK SMILES IDX 42 80 43 81 44 82 45 83 68 84 69 85 77 86 70 87 76 88 71 89
REMARK SMILES IDX 72 90 73 91 74 92 75 93 54 94 55 95 63 96 56 97 62 98 57 99
REMARK SMILES IDX 58 100 59 101 60 102 61 103
REMARK H PARENT 10 14 10 15 91 21 96 30 7 33 82 59 52 70
REMARK Flexibility Score: inf
ROOT
ATOM      1  O   UNL A   1      36.983  23.319  25.016  1.00  0.00    -0.377 OA
ENDROOT
BRANCH   1   2
ATOM      2  C   UNL A   1      36.173  23.588  23.882  1.00  0.00     0.188 C 
BRANCH   2   3
ATOM      3  C   UNL A   1      34.869  22.743  23.774  1.00  0.00     0.188 C 
BRANCH   3   4
ATOM      4  O   UNL A   1      33.666  23.137  24.425  1.00  0.00    -0.376 OA
BRANCH   4   5
ATOM      5  C   UNL A   1      32.418  22.836  23.830  1.00  0.00     0.202 C 
BRANCH   5   6
ATOM      6  C   UNL A   1      32.151  23.260  22.378  1.00  0.00     0.261 C 
BRANCH   6   7
ATOM      7  O   UNL A   1      33.223  23.934  21.701  1.00  0.00    -0.459 OA
BRANCH   7   8
ATOM      8  C   UNL A   1      32.970  25.193  21.232  1.00  0.00     0.365 C 
ATOM      9  O   UNL A   1      33.135  25.552  20.074  1.00  0.00    -0.245 OA
BRANCH   8  10
ATOM     10  C   UNL A   1      32.457  26.080  22.379  1.00  0.00     0.300 C 
ATOM     11  C   UNL A   1      30.836  27.721  23.143  1.00  0.00     0.270 C 
ATOM     12  N   UNL A   1      31.446  27.111  21.934  1.00  0.00    -0.323 N 
ATOM     13  C   UNL A   1      31.926  28.449  23.866  1.00  0.00     0.124 A 
ATOM     14  H   UNL A   1      31.909  27.831  21.381  1.00  0.00     0.347 HD
ATOM     15  H   UNL A   1      30.725  26.671  21.362  1.00  0.00     0.347 HD
ATOM     16  C   UNL A   1      33.211  27.927  23.864  1.00  0.00     0.051 A 
ATOM     17  N   UNL A   1      31.852  29.505  24.733  1.00  0.00    -0.235 NA
ATOM     18  C   UNL A   1      33.673  26.743  23.083  1.00  0.00     0.133 C 
ATOM     19  N   UNL A   1      33.939  28.703  24.708  1.00  0.00    -0.348 N 
ATOM     20  C   UNL A   1      33.077  29.646  25.204  1.00  0.00     0.197 A 
ATOM     21  H   UNL A   1      34.896  28.608  24.922  1.00  0.00     0.167 HD
BRANCH  11  22
ATOM     22  C   UNL A   1      29.511  28.404  22.851  1.00  0.00     0.066 A 
ATOM     23  C   UNL A   1      28.517  31.641  20.994  1.00  0.00     0.071 C 
ATOM     24  C   UNL A   1      28.457  30.406  21.847  1.00  0.00     0.079 A 
ATOM     25  N   UNL A   1      27.242  30.067  22.312  1.00  0.00    -0.257 NA
ATOM     26  C   UNL A   1      29.584  29.614  22.093  1.00  0.00     0.146 A 
ATOM     27  C   UNL A   1      27.164  28.931  23.039  1.00  0.00     0.118 A 
ATOM     28  C   UNL A   1      28.238  28.080  23.359  1.00  0.00     0.009 A 
BRANCH  26  29
ATOM     29  O   UNL A   1      30.791  30.098  21.645  1.00  0.00    -0.505 OA
ATOM     30  H   UNL A   1      31.026  30.991  21.804  1.00  0.00     0.293 HD
ENDBRANCH  26  29
BRANCH  28  31
ATOM     31  C   UNL A   1      27.897  26.880  24.197  1.00  0.00     0.194 C 
BRANCH  31  32
ATOM     32  O   UNL A   1      27.935  25.692  23.403  1.00  0.00    -0.392 OA
ATOM     33  H   UNL A   1      28.856  25.411  23.286  1.00  0.00     0.211 HD
ENDBRANCH  31  32
ENDBRANCH  28  31
ENDBRANCH  11  22
ENDBRANCH   8  10
ENDBRANCH   7   8
ENDBRANCH   6   7
ENDBRANCH   5   6
ENDBRANCH   4   5
ENDBRANCH   3   4
ENDBRANCH   2   3
ENDBRANCH   1   2
BRANCH   1  34
ATOM     34  C   UNL A   1      37.339  21.949  25.183  1.00  0.00     0.188 C 
BRANCH  34  35
ATOM     35  C   UNL A   1      38.700  21.677  25.860  1.00  0.00     0.188 C 
BRANCH  35  36
ATOM     36  O   UNL A   1      39.166  20.342  25.704  1.00  0.00    -0.376 OA
BRANCH  36  37
ATOM     37  C   UNL A   1      40.449  19.942  26.153  1.00  0.00     0.202 C 
BRANCH  37  38
ATOM     38  C   UNL A   1      41.325  21.043  26.743  1.00  0.00     0.261 C 
BRANCH  38  39
ATOM     39  O   UNL A   1      42.700  20.715  26.780  1.00  0.00    -0.460 OA
BRANCH  39  40
ATOM     40  C   UNL A   1      43.344  20.860  25.612  1.00  0.00     0.338 C 
ATOM     41  O   UNL A   1      43.502  20.009  24.740  1.00  0.00    -0.246 OA
BRANCH  40  42
ATOM     42  C   UNL A   1      43.939  22.189  25.571  1.00  0.00     0.060 A 
ATOM     43  C   UNL A   1      44.911  22.448  26.536  1.00  0.00     0.016 A 
ATOM     44  C   UNL A   1      43.264  23.205  24.876  1.00  0.00     0.016 A 
ATOM     45  C   UNL A   1      44.977  23.724  27.029  1.00  0.00     0.010 A 
ATOM     46  C   UNL A   1      43.315  24.473  25.385  1.00  0.00     0.010 A 
ATOM     47  C   UNL A   1      44.087  24.677  26.522  1.00  0.00    -0.014 A 
BRANCH  47  48
ATOM     48  C   UNL A   1      44.015  25.940  27.206  1.00  0.00     0.031 A 
ATOM     49  C   UNL A   1      45.236  26.738  27.015  1.00  0.00     0.074 A 
ATOM     50  C   UNL A   1      42.919  26.328  27.879  1.00  0.00     0.049 A 
ATOM     51  N   UNL A   1      46.176  26.944  27.873  1.00  0.00    -0.248 NA
ATOM     52  C   UNL A   1      45.561  27.152  25.641  1.00  0.00     0.031 C 
ATOM     53  C   UNL A   1      41.586  25.720  27.876  1.00  0.00     0.029 A 
ATOM     54  N   UNL A   1      42.746  27.443  28.628  1.00  0.00    -0.354 N 
ATOM     55  C   UNL A   1      47.103  27.730  27.205  1.00  0.00     0.074 A 
ATOM     56  C   UNL A   1      46.798  27.614  25.803  1.00  0.00     0.031 C 
ATOM     57  C   UNL A   1      40.697  26.610  28.378  1.00  0.00     0.029 A 
ATOM     58  C   UNL A   1      41.419  27.779  28.853  1.00  0.00     0.049 A 
ATOM     59  H   UNL A   1      43.498  27.971  28.983  1.00  0.00     0.167 HD
ATOM     60  C   UNL A   1      47.845  28.656  27.869  1.00  0.00     0.031 A 
ATOM     61  C   UNL A   1      40.965  28.977  29.304  1.00  0.00     0.031 A 
ATOM     62  C   UNL A   1      47.820  28.435  29.293  1.00  0.00     0.049 A 
ATOM     63  C   UNL A   1      42.116  29.668  29.946  1.00  0.00     0.074 A 
ATOM     64  C   UNL A   1      48.202  27.398  30.118  1.00  0.00     0.029 A 
ATOM     65  N   UNL A   1      46.957  29.218  30.027  1.00  0.00    -0.354 N 
ATOM     66  N   UNL A   1      42.689  29.243  31.038  1.00  0.00    -0.248 NA
ATOM     67  C   UNL A   1      42.934  30.549  29.124  1.00  0.00     0.031 C 
ATOM     68  C   UNL A   1      47.218  27.359  31.148  1.00  0.00     0.029 A 
ATOM     69  C   UNL A   1      46.324  28.413  30.939  1.00  0.00     0.049 A 
ATOM     70  H   UNL A   1      46.818  30.186  29.915  1.00  0.00     0.167 HD
ATOM     71  C   UNL A   1      44.049  29.439  30.832  1.00  0.00     0.074 A 
ATOM     72  C   UNL A   1      44.131  30.335  29.681  1.00  0.00     0.031 C 
ATOM     73  C   UNL A   1      44.978  28.635  31.433  1.00  0.00     0.031 A 
BRANCH  60  74
ATOM     74  C   UNL A   1      48.199  29.989  27.263  1.00  0.00    -0.014 A 
ATOM     75  C   UNL A   1      49.548  30.392  27.263  1.00  0.00     0.010 A 
ATOM     76  C   UNL A   1      47.236  30.971  26.949  1.00  0.00     0.010 A 
ATOM     77  C   UNL A   1      49.901  31.726  27.029  1.00  0.00     0.020 A 
ATOM     78  C   UNL A   1      47.580  32.290  26.667  1.00  0.00     0.020 A 
ATOM     79  C   UNL A   1      48.912  32.668  26.744  1.00  0.00     0.054 A 
BRANCH  79  80
ATOM     80  S   UNL A   1      49.364  34.405  26.546  1.00  0.00     0.124 S 
ATOM     81  O   UNL A   1      49.754  34.453  25.141  1.00  0.00    -0.237 OA
ATOM     82  O   UNL A   1      48.119  35.087  26.888  1.00  0.00    -0.237 OA
ATOM     83  O   UNL A   1      50.451  34.586  27.506  1.00  0.00    -0.744 OA
ENDBRANCH  79  80
ENDBRANCH  60  74
BRANCH  61  84
ATOM     84  C   UNL A   1      39.727  29.682  28.882  1.00  0.00    -0.014 A 
ATOM     85  C   UNL A   1      38.743  29.037  28.111  1.00  0.00     0.010 A 
ATOM     86  C   UNL A   1      39.390  30.922  29.465  1.00  0.00     0.010 A 
ATOM     87  C   UNL A   1      37.457  29.591  27.969  1.00  0.00     0.020 A 
ATOM     88  C   UNL A   1      38.117  31.483  29.321  1.00  0.00     0.020 A 
ATOM     89  C   UNL A   1      37.147  30.804  28.589  1.00  0.00     0.054 A 
BRANCH  89  90
ATOM     90  S   UNL A   1      35.442  31.436  28.535  1.00  0.00     0.124 S 
ATOM     91  O   UNL A   1      35.198  31.793  29.928  1.00  0.00    -0.237 OA
ATOM     92  O   UNL A   1      35.548  32.555  27.603  1.00  0.00    -0.237 OA
ATOM     93  O   UNL A   1      34.668  30.297  28.043  1.00  0.00    -0.744 OA
ENDBRANCH  89  90
ENDBRANCH  61  84
BRANCH  73  94
ATOM     94  C   UNL A   1      44.531  27.738  32.564  1.00  0.00    -0.014 A 
ATOM     95  C   UNL A   1      44.174  28.200  33.846  1.00  0.00     0.010 A 
ATOM     96  C   UNL A   1      44.309  26.384  32.254  1.00  0.00     0.010 A 
ATOM     97  C   UNL A   1      43.629  27.322  34.796  1.00  0.00     0.020 A 
ATOM     98  C   UNL A   1      43.749  25.510  33.188  1.00  0.00     0.020 A 
ATOM     99  C   UNL A   1      43.419  25.981  34.459  1.00  0.00     0.054 A 
BRANCH  99 100
ATOM    100  S   UNL A   1      42.665  24.858  35.669  1.00  0.00     0.124 S 
ATOM    101  O   UNL A   1      42.763  23.562  35.003  1.00  0.00    -0.237 OA
ATOM    102  O   UNL A   1      43.516  25.027  36.845  1.00  0.00    -0.237 OA
ATOM    103  O   UNL A   1      41.305  25.372  35.823  1.00  0.00    -0.744 OA
ENDBRANCH  99 100
ENDBRANCH  73  94
ENDBRANCH  47  48
ENDBRANCH  40  42
ENDBRANCH  39  40
ENDBRANCH  38  39
ENDBRANCH  37  38
ENDBRANCH  36  37
ENDBRANCH  35  36
ENDBRANCH  34  35
ENDBRANCH   1  34
TORSDOF 27
ENDMDL
MODEL 2
REMARK VINA RESULT:     -10.4      1.768      2.909
REMARK SMILES Cc1ncc(CO)c([C@H]2[NH2+][C@@H](C(=O)OCCOCCOCCOCCOC(=O)c3ccc(-c4c5nc(c(-c6ccc(S(=O)(=O)[O-])cc6)c6ccc([nH]6)c(-c6ccc(S(=O)(=O)[O-])cc6)c6nc(c(-c7ccc(S(=O)(=O)[O-])cc7)c7ccc4[nH]7)C=C6)C=C5)cc3)Cc3[nH]cnc32)c1O
REMARK SMILES IDX 20 1 19 2 18 3 17 4 16 5 15 6 14 7 12 8 13 9 11 10 9 11
REMARK SMILES IDX 10 12 94 13 90 16 93 17 89 18 91 19 92 20 8 22 1 23 2 24
REMARK SMILES IDX 3 25 95 26 4 27 5 28 96 29 6 31 7 32 21 34 22 35 23 36 24 37
REMARK SMILES IDX 25 38 26 39 27 40 28 41 29 42 30 43 88 44 31 45 87 46 32 47
REMARK SMILES IDX 33 48 34 49 81 50 35 51 86 52 80 53 82 54 36 55 85 56 79 57
REMARK SMILES IDX 78 58 37 60 67 61 48 62 66 63 49 64 52 65 65 66 83 67 50 68
REMARK SMILES IDX 51 69 64 71 84 72 53 73 38 74 39 75 47 76 40 77 46 78 41 79
REMARK SMILES IDX 42 80 43 81 44 82 45 83 68 84 69 85 77 86 70 87 76 88 71 89
REMARK SMILES IDX 72 90 73 91 74 92 75 93 54 94 55 95 63 96 56 97 62 98 57 99
REMARK SMILES IDX 58 100 59 101 60 102 61 103
REMARK H PARENT 10 14 10 15 91 21 96 30 7 33 82 59 52 70
REMARK Flexibility Score: inf
ROOT
ATOM      1  O   UNL A   1      36.640  23.209  25.098  1.00  0.00    -0.377 OA
ENDROOT
BRANCH   1   2
ATOM      2  C   UNL A   1      36.166  23.788  23.892  1.00  0.00     0.188 C 
BRANCH   2   3
ATOM      3  C   UNL A   1      35.021  23.009  23.180  1.00  0.00     0.188 C 
BRANCH   3   4
ATOM      4  O   UNL A   1      33.662  23.422  23.278  1.00  0.00    -0.376 OA
BRANCH   4   5
ATOM      5  C   UNL A   1      32.908  23.635  22.100  1.00  0.00     0.202 C 
BRANCH   5   6
ATOM      6  C   UNL A   1      32.992  24.993  21.385  1.00  0.00     0.261 C 
BRANCH   6   7
ATOM      7  O   UNL A   1      34.062  25.861  21.785  1.00  0.00    -0.459 OA
BRANCH   7   8
ATOM      8  C   UNL A   1      33.730  27.139  22.139  1.00  0.00     0.365 C 
ATOM      9  O   UNL A   1      33.611  28.072  21.356  1.00  0.00    -0.245 OA
BRANCH   8  10
ATOM     10  C   UNL A   1      33.535  27.221  23.663  1.00  0.00     0.300 C 
ATOM     11  C   UNL A   1      32.607  26.224  25.675  1.00  0.00     0.270 C 
ATOM     12  N   UNL A   1      32.520  26.236  24.192  1.00  0.00    -0.323 N 
ATOM     13  C   UNL A   1      32.200  27.583  26.150  1.00  0.00     0.124 A 
ATOM     14  H   UNL A   1      31.583  26.518  23.904  1.00  0.00     0.347 HD
ATOM     15  H   UNL A   1      32.709  25.304  23.822  1.00  0.00     0.347 HD
ATOM     16  C   UNL A   1      32.533  28.697  25.394  1.00  0.00     0.051 A 
ATOM     17  N   UNL A   1      31.683  27.973  27.355  1.00  0.00    -0.235 NA
ATOM     18  C   UNL A   1      33.163  28.681  24.042  1.00  0.00     0.133 C 
ATOM     19  N   UNL A   1      32.174  29.779  26.132  1.00  0.00    -0.348 N 
ATOM     20  C   UNL A   1      31.660  29.292  27.305  1.00  0.00     0.197 A 
ATOM     21  H   UNL A   1      32.265  30.726  25.876  1.00  0.00     0.167 HD
BRANCH  11  22
ATOM     22  C   UNL A   1      31.998  24.975  26.288  1.00  0.00     0.066 A 
ATOM     23  C   UNL A   1      33.468  21.704  27.723  1.00  0.00     0.071 C 
ATOM     24  C   UNL A   1      32.503  22.730  27.202  1.00  0.00     0.079 A 
ATOM     25  N   UNL A   1      31.200  22.409  27.280  1.00  0.00    -0.257 NA
ATOM     26  C   UNL A   1      32.924  23.976  26.723  1.00  0.00     0.146 A 
ATOM     27  C   UNL A   1      30.317  23.342  26.861  1.00  0.00     0.118 A 
ATOM     28  C   UNL A   1      30.639  24.611  26.344  1.00  0.00     0.009 A 
BRANCH  26  29
ATOM     29  O   UNL A   1      34.281  24.167  26.605  1.00  0.00    -0.505 OA
ATOM     30  H   UNL A   1      34.870  23.453  26.751  1.00  0.00     0.293 HD
ENDBRANCH  26  29
BRANCH  28  31
ATOM     31  C   UNL A   1      29.474  25.466  25.931  1.00  0.00     0.194 C 
BRANCH  31  32
ATOM     32  O   UNL A   1      29.507  25.701  24.521  1.00  0.00    -0.392 OA
ATOM     33  H   UNL A   1      29.051  26.534  24.321  1.00  0.00     0.211 HD
ENDBRANCH  31  32
ENDBRANCH  28  31
ENDBRANCH  11  22
ENDBRANCH   8  10
ENDBRANCH   7   8
ENDBRANCH   6   7
ENDBRANCH   5   6
ENDBRANCH   4   5
ENDBRANCH   3   4
ENDBRANCH   2   3
ENDBRANCH   1   2
BRANCH   1  34
ATOM     34  C   UNL A   1      37.198  21.906  24.954  1.00  0.00     0.188 C 
BRANCH  34  35
ATOM     35  C   UNL A   1      38.504  21.634  25.733  1.00  0.00     0.188 C 
BRANCH  35  36
ATOM     36  O   UNL A   1      39.016  20.318  25.561  1.00  0.00    -0.376 OA
BRANCH  36  37
ATOM     37  C   UNL A   1      40.285  19.939  26.065  1.00  0.00     0.202 C 
BRANCH  37  38
ATOM     38  C   UNL A   1      41.082  21.036  26.765  1.00  0.00     0.261 C 
BRANCH  38  39
ATOM     39  O   UNL A   1      42.457  20.736  26.905  1.00  0.00    -0.460 OA
BRANCH  39  40
ATOM     40  C   UNL A   1      43.187  20.908  25.792  1.00  0.00     0.338 C 
ATOM     41  O   UNL A   1      43.470  20.059  24.950  1.00  0.00    -0.246 OA
BRANCH  40  42
ATOM     42  C   UNL A   1      43.699  22.271  25.779  1.00  0.00     0.060 A 
ATOM     43  C   UNL A   1      44.605  22.589  26.789  1.00  0.00     0.016 A 
ATOM     44  C   UNL A   1      42.997  23.245  25.051  1.00  0.00     0.016 A 
ATOM     45  C   UNL A   1      44.569  23.865  27.284  1.00  0.00     0.010 A 
ATOM     46  C   UNL A   1      42.944  24.512  25.561  1.00  0.00     0.010 A 
ATOM     47  C   UNL A   1      43.646  24.762  26.733  1.00  0.00    -0.014 A 
BRANCH  47  48
ATOM     48  C   UNL A   1      43.463  26.017  27.411  1.00  0.00     0.031 A 
ATOM     49  C   UNL A   1      44.552  26.963  27.120  1.00  0.00     0.074 A 
ATOM     50  C   UNL A   1      42.380  26.272  28.165  1.00  0.00     0.049 A 
ATOM     51  N   UNL A   1      45.519  27.303  27.901  1.00  0.00    -0.248 NA
ATOM     52  C   UNL A   1      44.715  27.391  25.722  1.00  0.00     0.031 C 
ATOM     53  C   UNL A   1      41.141  25.497  28.270  1.00  0.00     0.029 A 
ATOM     54  N   UNL A   1      42.122  27.368  28.918  1.00  0.00    -0.354 N 
ATOM     55  C   UNL A   1      46.283  28.190  27.158  1.00  0.00     0.074 A 
ATOM     56  C   UNL A   1      45.890  28.011  25.784  1.00  0.00     0.031 C 
ATOM     57  C   UNL A   1      40.185  26.273  28.834  1.00  0.00     0.029 A 
ATOM     58  C   UNL A   1      40.784  27.534  29.242  1.00  0.00     0.049 A 
ATOM     59  H   UNL A   1      42.824  27.994  29.209  1.00  0.00     0.167 HD
ATOM     60  C   UNL A   1      46.947  29.214  27.755  1.00  0.00     0.031 A 
ATOM     61  C   UNL A   1      40.214  28.671  29.718  1.00  0.00     0.031 A 
ATOM     62  C   UNL A   1      47.060  29.017  29.178  1.00  0.00     0.049 A 
ATOM     63  C   UNL A   1      41.311  29.516  30.264  1.00  0.00     0.074 A 
ATOM     64  C   UNL A   1      47.635  28.052  29.978  1.00  0.00     0.029 A 
ATOM     65  N   UNL A   1      46.161  29.694  29.971  1.00  0.00    -0.354 N 
ATOM     66  N   UNL A   1      42.016  29.187  31.312  1.00  0.00    -0.248 NA
ATOM     67  C   UNL A   1      41.943  30.481  29.375  1.00  0.00     0.031 C 
ATOM     68  C   UNL A   1      46.746  27.904  31.082  1.00  0.00     0.029 A 
ATOM     69  C   UNL A   1      45.709  28.830  30.936  1.00  0.00     0.049 A 
ATOM     70  H   UNL A   1      45.889  30.634  29.864  1.00  0.00     0.167 HD
ATOM     71  C   UNL A   1      43.319  29.552  30.999  1.00  0.00     0.074 A 
ATOM     72  C   UNL A   1      43.196  30.432  29.838  1.00  0.00     0.031 C 
ATOM     73  C   UNL A   1      44.388  28.886  31.531  1.00  0.00     0.031 A 
BRANCH  60  74
ATOM     74  C   UNL A   1      47.078  30.572  27.114  1.00  0.00    -0.014 A 
ATOM     75  C   UNL A   1      48.331  31.213  27.143  1.00  0.00     0.010 A 
ATOM     76  C   UNL A   1      45.967  31.353  26.733  1.00  0.00     0.010 A 
ATOM     77  C   UNL A   1      48.446  32.582  26.873  1.00  0.00     0.020 A 
ATOM     78  C   UNL A   1      46.077  32.704  26.416  1.00  0.00     0.020 A 
ATOM     79  C   UNL A   1      47.315  33.319  26.523  1.00  0.00     0.054 A 
BRANCH  79  80
ATOM     80  S   UNL A   1      47.453  35.103  26.279  1.00  0.00     0.124 S 
ATOM     81  O   UNL A   1      48.404  35.180  25.175  1.00  0.00    -0.237 OA
ATOM     82  O   UNL A   1      46.077  35.477  25.964  1.00  0.00    -0.237 OA
ATOM     83  O   UNL A   1      47.946  35.587  27.567  1.00  0.00    -0.744 OA
ENDBRANCH  79  80
ENDBRANCH  60  74
BRANCH  61  84
ATOM     84  C   UNL A   1      38.866  29.203  29.390  1.00  0.00    -0.014 A 
ATOM     85  C   UNL A   1      38.047  29.786  30.373  1.00  0.00     0.010 A 
ATOM     86  C   UNL A   1      38.487  29.373  28.041  1.00  0.00     0.010 A 
ATOM     87  C   UNL A   1      36.920  30.549  30.018  1.00  0.00     0.020 A 
ATOM     88  C   UNL A   1      37.362  30.123  27.680  1.00  0.00     0.020 A 
ATOM     89  C   UNL A   1      36.594  30.726  28.671  1.00  0.00     0.054 A 
BRANCH  89  90
ATOM     90  S   UNL A   1      35.232  31.841  28.211  1.00  0.00     0.124 S 
ATOM     91  O   UNL A   1      34.566  32.062  29.490  1.00  0.00    -0.237 OA
ATOM     92  O   UNL A   1      35.937  32.993  27.656  1.00  0.00    -0.237 OA
ATOM     93  O   UNL A   1      34.464  31.064  27.239  1.00  0.00    -0.744 OA
ENDBRANCH  89  90
ENDBRANCH  61  84
BRANCH  73  94
ATOM     94  C   UNL A   1      44.148  27.958  32.700  1.00  0.00    -0.014 A 
ATOM     95  C   UNL A   1      43.966  28.390  34.028  1.00  0.00     0.010 A 
ATOM     96  C   UNL A   1      43.937  26.599  32.403  1.00  0.00     0.010 A 
ATOM     97  C   UNL A   1      43.602  27.480  35.033  1.00  0.00     0.020 A 
ATOM     98  C   UNL A   1      43.557  25.692  33.394  1.00  0.00     0.020 A 
ATOM     99  C   UNL A   1      43.399  26.135  34.707  1.00  0.00     0.054 A 
BRANCH  99 100
ATOM    100  S   UNL A   1      42.878  24.967  35.995  1.00  0.00     0.124 S 
ATOM    101  O   UNL A   1      44.054  24.899  36.858  1.00  0.00    -0.237 OA
ATOM    102  O   UNL A   1      41.707  25.623  36.575  1.00  0.00    -0.237 OA
ATOM    103  O   UNL A   1      42.583  23.740  35.255  1.00  0.00    -0.744 OA
ENDBRANCH  99 100
ENDBRANCH  73  94
ENDBRANCH  47  48
ENDBRANCH  40  42
ENDBRANCH  39  40
ENDBRANCH  38  39
ENDBRANCH  37  38
ENDBRANCH  36  37
ENDBRANCH  35  36
ENDBRANCH  34  35
ENDBRANCH   1  34
TORSDOF 27
ENDMDL
MODEL 3
REMARK VINA RESULT:      -9.0      3.244      4.784
REMARK SMILES Cc1ncc(CO)c([C@H]2[NH2+][C@@H](C(=O)OCCOCCOCCOCCOC(=O)c3ccc(-c4c5nc(c(-c6ccc(S(=O)(=O)[O-])cc6)c6ccc([nH]6)c(-c6ccc(S(=O)(=O)[O-])cc6)c6nc(c(-c7ccc(S(=O)(=O)[O-])cc7)c7ccc4[nH]7)C=C6)C=C5)cc3)Cc3[nH]cnc32)c1O
REMARK SMILES IDX 20 1 19 2 18 3 17 4 16 5 15 6 14 7 12 8 13 9 11 10 9 11
REMARK SMILES IDX 10 12 94 13 90 16 93 17 89 18 91 19 92 20 8 22 1 23 2 24
REMARK SMILES IDX 3 25 95 26 4 27 5 28 96 29 6 31 7 32 21 34 22 35 23 36 24 37
REMARK SMILES IDX 25 38 26 39 27 40 28 41 29 42 30 43 88 44 31 45 87 46 32 47
REMARK SMILES IDX 33 48 34 49 81 50 35 51 86 52 80 53 82 54 36 55 85 56 79 57
REMARK SMILES IDX 78 58 37 60 67 61 48 62 66 63 49 64 52 65 65 66 83 67 50 68
REMARK SMILES IDX 51 69 64 71 84 72 53 73 38 74 39 75 47 76 40 77 46 78 41 79
REMARK SMILES IDX 42 80 43 81 44 82 45 83 68 84 69 85 77 86 70 87 76 88 71 89
REMARK SMILES IDX 72 90 73 91 74 92 75 93 54 94 55 95 63 96 56 97 62 98 57 99
REMARK SMILES IDX 58 100 59 101 60 102 61 103
REMARK H PARENT 10 14 10 15 91 21 96 30 7 33 82 59 52 70
REMARK Flexibility Score: inf
ROOT
ATOM      1  O   UNL A   1      36.303  23.456  24.723  1.00  0.00    -0.377 OA
ENDROOT
BRANCH   1   2
ATOM      2  C   UNL A   1      35.887  23.245  23.383  1.00  0.00     0.188 C 
BRANCH   2   3
ATOM      3  C   UNL A   1      34.408  22.789  23.205  1.00  0.00     0.188 C 
BRANCH   3   4
ATOM      4  O   UNL A   1      33.329  23.716  23.253  1.00  0.00    -0.376 OA
BRANCH   4   5
ATOM      5  C   UNL A   1      32.606  24.010  22.072  1.00  0.00     0.202 C 
BRANCH   5   6
ATOM      6  C   UNL A   1      33.025  25.210  21.210  1.00  0.00     0.261 C 
BRANCH   6   7
ATOM      7  O   UNL A   1      34.103  26.014  21.713  1.00  0.00    -0.459 OA
BRANCH   7   8
ATOM      8  C   UNL A   1      33.805  27.294  22.088  1.00  0.00     0.365 C 
ATOM      9  O   UNL A   1      33.690  28.238  21.318  1.00  0.00    -0.245 OA
BRANCH   8  10
ATOM     10  C   UNL A   1      33.642  27.362  23.616  1.00  0.00     0.300 C 
ATOM     11  C   UNL A   1      32.732  26.362  25.634  1.00  0.00     0.270 C 
ATOM     12  N   UNL A   1      32.616  26.393  24.154  1.00  0.00    -0.323 N 
ATOM     13  C   UNL A   1      32.364  27.724  26.134  1.00  0.00     0.124 A 
ATOM     14  H   UNL A   1      31.680  26.700  23.889  1.00  0.00     0.347 HD
ATOM     15  H   UNL A   1      32.777  25.462  23.770  1.00  0.00     0.347 HD
ATOM     16  C   UNL A   1      32.708  28.840  25.384  1.00  0.00     0.051 A 
ATOM     17  N   UNL A   1      31.881  28.111  27.353  1.00  0.00    -0.235 NA
ATOM     18  C   UNL A   1      33.311  28.825  24.020  1.00  0.00     0.133 C 
ATOM     19  N   UNL A   1      32.388  29.920  26.142  1.00  0.00    -0.348 N 
ATOM     20  C   UNL A   1      31.887  29.431  27.319  1.00  0.00     0.197 A 
ATOM     21  H   UNL A   1      32.495  30.868  25.894  1.00  0.00     0.167 HD
BRANCH  11  22
ATOM     22  C   UNL A   1      32.107  25.119  26.246  1.00  0.00     0.066 A 
ATOM     23  C   UNL A   1      33.534  21.818  27.654  1.00  0.00     0.071 C 
ATOM     24  C   UNL A   1      32.582  22.862  27.145  1.00  0.00     0.079 A 
ATOM     25  N   UNL A   1      31.274  22.561  27.230  1.00  0.00    -0.257 NA
ATOM     26  C   UNL A   1      33.020  24.104  26.669  1.00  0.00     0.146 A 
ATOM     27  C   UNL A   1      30.404  23.511  26.821  1.00  0.00     0.118 A 
ATOM     28  C   UNL A   1      30.743  24.777  26.310  1.00  0.00     0.009 A 
BRANCH  26  29
ATOM     29  O   UNL A   1      34.379  24.274  26.543  1.00  0.00    -0.505 OA
ATOM     30  H   UNL A   1      34.805  24.986  26.979  1.00  0.00     0.293 HD
ENDBRANCH  26  29
BRANCH  28  31
ATOM     31  C   UNL A   1      29.589  25.653  25.909  1.00  0.00     0.194 C 
BRANCH  31  32
ATOM     32  O   UNL A   1      29.449  25.669  24.485  1.00  0.00    -0.392 OA
ATOM     33  H   UNL A   1      29.594  24.776  24.136  1.00  0.00     0.211 HD
ENDBRANCH  31  32
ENDBRANCH  28  31
ENDBRANCH  11  22
ENDBRANCH   8  10
ENDBRANCH   7   8
ENDBRANCH   6   7
ENDBRANCH   5   6
ENDBRANCH   4   5
ENDBRANCH   3   4
ENDBRANCH   2   3
ENDBRANCH   1   2
BRANCH   1  34
ATOM     34  C   UNL A   1      37.427  22.677  25.127  1.00  0.00     0.188 C 
BRANCH  34  35
ATOM     35  C   UNL A   1      38.373  23.331  26.158  1.00  0.00     0.188 C 
BRANCH  35  36
ATOM     36  O   UNL A   1      39.450  22.496  26.565  1.00  0.00    -0.376 OA
BRANCH  36  37
ATOM     37  C   UNL A   1      40.703  23.030  26.959  1.00  0.00     0.202 C 
BRANCH  37  38
ATOM     38  C   UNL A   1      40.976  24.471  26.538  1.00  0.00     0.261 C 
BRANCH  38  39
ATOM     39  O   UNL A   1      42.284  24.913  26.849  1.00  0.00    -0.460 OA
BRANCH  39  40
ATOM     40  C   UNL A   1      43.046  25.206  25.784  1.00  0.00     0.338 C 
ATOM     41  O   UNL A   1      43.444  24.431  24.919  1.00  0.00    -0.246 OA
BRANCH  40  42
ATOM     42  C   UNL A   1      43.432  26.609  25.862  1.00  0.00     0.060 A 
ATOM     43  C   UNL A   1      44.447  26.910  26.768  1.00  0.00     0.016 A 
ATOM     44  C   UNL A   1      42.549  27.577  25.358  1.00  0.00     0.016 A 
ATOM     45  C   UNL A   1      44.375  28.117  27.411  1.00  0.00     0.010 A 
ATOM     46  C   UNL A   1      42.463  28.772  26.016  1.00  0.00     0.010 A 
ATOM     47  C   UNL A   1      43.308  28.967  27.102  1.00  0.00    -0.014 A 
BRANCH  47  48
ATOM     48  C   UNL A   1      43.120  30.120  27.942  1.00  0.00     0.031 A 
ATOM     49  C   UNL A   1      43.959  31.251  27.518  1.00  0.00     0.074 A 
ATOM     50  C   UNL A   1      42.229  30.135  28.948  1.00  0.00     0.049 A 
ATOM     51  N   UNL A   1      45.030  31.685  28.090  1.00  0.00    -0.248 NA
ATOM     52  C   UNL A   1      43.713  31.806  26.178  1.00  0.00     0.031 C 
ATOM     53  C   UNL A   1      41.176  29.160  29.246  1.00  0.00     0.029 A 
ATOM     54  N   UNL A   1      42.010  31.112  29.859  1.00  0.00    -0.354 N 
ATOM     55  C   UNL A   1      45.455  32.740  27.297  1.00  0.00     0.074 A 
ATOM     56  C   UNL A   1      44.768  32.605  26.039  1.00  0.00     0.031 C 
ATOM     57  C   UNL A   1      40.286  29.723  30.098  1.00  0.00     0.029 A 
ATOM     58  C   UNL A   1      40.782  31.030  30.499  1.00  0.00     0.049 A 
ATOM     59  H   UNL A   1      42.666  31.821  30.051  1.00  0.00     0.167 HD
ATOM     60  C   UNL A   1      46.093  33.811  27.839  1.00  0.00     0.031 A 
ATOM     61  C   UNL A   1      40.190  32.018  31.219  1.00  0.00     0.031 A 
ATOM     62  C   UNL A   1      46.577  33.527  29.165  1.00  0.00     0.049 A 
ATOM     63  C   UNL A   1      41.257  32.988  31.591  1.00  0.00     0.074 A 
ATOM     64  C   UNL A   1      47.461  32.611  29.697  1.00  0.00     0.029 A 
ATOM     65  N   UNL A   1      45.812  33.984  30.216  1.00  0.00    -0.354 N 
ATOM     66  N   UNL A   1      42.235  32.700  32.405  1.00  0.00    -0.248 NA
ATOM     67  C   UNL A   1      41.509  34.108  30.696  1.00  0.00     0.031 C 
ATOM     68  C   UNL A   1      46.898  32.236  30.951  1.00  0.00     0.029 A 
ATOM     69  C   UNL A   1      45.737  32.986  31.154  1.00  0.00     0.049 A 
ATOM     70  H   UNL A   1      45.392  34.872  30.281  1.00  0.00     0.167 HD
ATOM     71  C   UNL A   1      43.357  33.298  31.845  1.00  0.00     0.074 A 
ATOM     72  C   UNL A   1      42.831  34.232  30.851  1.00  0.00     0.031 C 
ATOM     73  C   UNL A   1      44.607  32.778  32.039  1.00  0.00     0.031 A 
BRANCH  60  74
ATOM     74  C   UNL A   1      45.870  35.217  27.343  1.00  0.00    -0.014 A 
ATOM     75  C   UNL A   1      46.992  36.011  27.039  1.00  0.00     0.010 A 
ATOM     76  C   UNL A   1      44.624  35.874  27.428  1.00  0.00     0.010 A 
ATOM     77  C   UNL A   1      46.876  37.399  26.899  1.00  0.00     0.020 A 
ATOM     78  C   UNL A   1      44.490  37.247  27.242  1.00  0.00     0.020 A 
ATOM     79  C   UNL A   1      45.626  38.007  27.014  1.00  0.00     0.054 A 
BRANCH  79  80
ATOM     80  S   UNL A   1      45.499  39.806  26.936  1.00  0.00     0.124 S 
ATOM     81  O   UNL A   1      45.390  40.036  25.499  1.00  0.00    -0.237 OA
ATOM     82  O   UNL A   1      44.293  40.064  27.718  1.00  0.00    -0.237 OA
ATOM     83  O   UNL A   1      46.743  40.264  27.552  1.00  0.00    -0.744 OA
ENDBRANCH  79  80
ENDBRANCH  60  74
BRANCH  61  84
ATOM     84  C   UNL A   1      38.742  32.344  31.271  1.00  0.00    -0.014 A 
ATOM     85  C   UNL A   1      38.034  32.348  32.486  1.00  0.00     0.010 A 
ATOM     86  C   UNL A   1      38.108  32.912  30.145  1.00  0.00     0.010 A 
ATOM     87  C   UNL A   1      36.760  32.939  32.581  1.00  0.00     0.020 A 
ATOM     88  C   UNL A   1      36.838  33.494  30.229  1.00  0.00     0.020 A 
ATOM     89  C   UNL A   1      36.177  33.523  31.453  1.00  0.00     0.054 A 
BRANCH  89  90
ATOM     90  S   UNL A   1      34.605  34.424  31.615  1.00  0.00     0.124 S 
ATOM     91  O   UNL A   1      34.303  34.774  30.231  1.00  0.00    -0.237 OA
ATOM     92  O   UNL A   1      33.728  33.426  32.221  1.00  0.00    -0.237 OA
ATOM     93  O   UNL A   1      34.942  35.553  32.480  1.00  0.00    -0.744 OA
ENDBRANCH  89  90
ENDBRANCH  61  84
BRANCH  73  94
ATOM     94  C   UNL A   1      44.795  31.736  33.118  1.00  0.00    -0.014 A 
ATOM     95  C   UNL A   1      45.157  32.032  34.447  1.00  0.00     0.010 A 
ATOM     96  C   UNL A   1      44.425  30.416  32.802  1.00  0.00     0.010 A 
ATOM     97  C   UNL A   1      45.167  31.025  35.425  1.00  0.00     0.020 A 
ATOM     98  C   UNL A   1      44.415  29.415  33.774  1.00  0.00     0.020 A 
ATOM     99  C   UNL A   1      44.794  29.722  35.081  1.00  0.00     0.054 A 
BRANCH  99 100
ATOM    100  S   UNL A   1      44.757  28.431  36.357  1.00  0.00     0.124 S 
ATOM    101  O   UNL A   1      43.563  28.777  37.124  1.00  0.00    -0.237 OA
ATOM    102  O   UNL A   1      44.669  27.201  35.573  1.00  0.00    -0.237 OA
ATOM    103  O   UNL A   1      46.022  28.609  37.070  1.00  0.00    -0.744 OA
ENDBRANCH  99 100
ENDBRANCH  73  94
ENDBRANCH  47  48
ENDBRANCH  40  42
ENDBRANCH  39  40
ENDBRANCH  38  39
ENDBRANCH  37  38
ENDBRANCH  36  37
ENDBRANCH  35  36
ENDBRANCH  34  35
ENDBRANCH   1  34
TORSDOF 27
ENDMDL
