MODEL 1
REMARK VINA RESULT:      -8.5      0.000      0.000
REMARK SMILES CCc1c(C)nc(Nc2ccc(Cl)cc2Cl)nc1OCC(=O)OCCOCCOCCOCCOC(=O)c1ccc(-c2c3nc(c(-c4ccc(S(=O)(=O)[O-])cc4)c4ccc([nH]4)c(-c4ccc(S(=O)(=O)[O-])cc4)c4nc(c(-c5ccc(S(=O)(=O)[O-])cc5)c5ccc2[nH]5)C=C4)C=C3)cc1
REMARK SMILES IDX 28 1 27 2 26 3 25 4 24 5 23 6 21 7 22 8 20 9 19 10 18 11
REMARK SMILES IDX 3 12 4 13 5 14 6 15 17 16 7 17 2 18 1 19 8 20 9 22 10 23
REMARK SMILES IDX 15 24 11 25 14 26 16 27 12 28 13 29 29 30 30 31 31 32 32 33
REMARK SMILES IDX 33 34 34 35 35 36 36 37 37 38 38 39 39 40 97 41 40 42 96 43
REMARK SMILES IDX 41 44 42 45 43 46 90 47 44 48 95 49 89 50 91 51 45 52 94 53
REMARK SMILES IDX 88 54 87 55 46 57 76 58 57 59 75 60 58 61 61 62 74 63 92 64
REMARK SMILES IDX 59 65 60 66 73 68 93 69 62 70 47 71 48 72 56 73 49 74 55 75
REMARK SMILES IDX 50 76 51 77 52 78 53 79 54 80 77 81 78 82 86 83 79 84 85 85
REMARK SMILES IDX 80 86 81 87 82 88 83 89 84 90 63 91 64 92 72 93 65 94 71 95
REMARK SMILES IDX 66 96 67 97 68 98 69 99 70 100
REMARK H PARENT 8 21 91 56 61 67
REMARK Flexibility Score: inf
ROOT
ATOM      1  C   UNL A   1      32.163  27.943  27.013  1.00  0.00     0.188 C 
ENDROOT
BRANCH   1   2
ATOM      2  C   UNL A   1      31.231  26.837  26.496  1.00  0.00     0.188 C 
BRANCH   2   3
ATOM      3  O   UNL A   1      31.759  25.823  25.665  1.00  0.00    -0.376 OA
BRANCH   3   4
ATOM      4  C   UNL A   1      32.326  24.651  26.217  1.00  0.00     0.202 C 
BRANCH   4   5
ATOM      5  C   UNL A   1      31.492  23.502  26.819  1.00  0.00     0.261 C 
BRANCH   5   6
ATOM      6  O   UNL A   1      32.035  22.818  27.964  1.00  0.00    -0.461 OA
BRANCH   6   7
ATOM      7  C   UNL A   1      33.266  22.252  27.830  1.00  0.00     0.344 C 
ATOM      8  O   UNL A   1      34.322  22.811  28.105  1.00  0.00    -0.248 OA
BRANCH   7   9
ATOM      9  C   UNL A   1      33.188  20.815  27.268  1.00  0.00     0.353 C 
BRANCH   9  10
ATOM     10  O   UNL A   1      33.483  20.484  25.932  1.00  0.00    -0.465 OA
BRANCH  10  11
ATOM     11  C   UNL A   1      34.149  21.179  24.975  1.00  0.00     0.222 A 
ATOM     12  C   UNL A   1      33.674  22.003  23.961  1.00  0.00     0.035 A 
ATOM     13  C   UNL A   1      34.670  22.796  23.361  1.00  0.00     0.050 A 
ATOM     14  C   UNL A   1      34.388  23.831  22.304  1.00  0.00     0.067 C 
ATOM     15  N   UNL A   1      35.987  22.696  23.649  1.00  0.00    -0.218 NA
ATOM     16  N   UNL A   1      35.482  21.058  25.230  1.00  0.00    -0.177 NA
ATOM     17  C   UNL A   1      36.367  21.802  24.557  1.00  0.00     0.230 A 
BRANCH  12  18
ATOM     18  C   UNL A   1      32.260  22.086  23.443  1.00  0.00     0.040 C 
ATOM     19  C   UNL A   1      31.926  21.336  22.157  1.00  0.00     0.009 C 
ENDBRANCH  12  18
BRANCH  17  20
ATOM     20  N   UNL A   1      37.723  21.636  24.855  1.00  0.00    -0.323 N 
ATOM     21  H   UNL A   1      38.183  20.904  24.383  1.00  0.00     0.170 HD
BRANCH  20  22
ATOM     22  C   UNL A   1      38.508  22.386  25.743  1.00  0.00     0.060 A 
ATOM     23  C   UNL A   1      38.099  23.679  26.095  1.00  0.00     0.029 A 
ATOM     24  C   UNL A   1      39.648  21.872  26.387  1.00  0.00     0.066 A 
ATOM     25  C   UNL A   1      38.886  24.498  26.914  1.00  0.00     0.023 A 
ATOM     26  C   UNL A   1      40.430  22.675  27.228  1.00  0.00     0.043 A 
ATOM     27  Cl  UNL A   1      40.126  20.223  26.174  1.00  0.00    -0.082 Cl
ATOM     28  C   UNL A   1      40.065  23.999  27.455  1.00  0.00     0.042 A 
ATOM     29  Cl  UNL A   1      41.070  25.015  28.414  1.00  0.00    -0.084 Cl
ENDBRANCH  20  22
ENDBRANCH  17  20
ENDBRANCH  10  11
ENDBRANCH   9  10
ENDBRANCH   7   9
ENDBRANCH   6   7
ENDBRANCH   5   6
ENDBRANCH   4   5
ENDBRANCH   3   4
ENDBRANCH   2   3
ENDBRANCH   1   2
BRANCH   1  30
ATOM     30  O   UNL A   1      33.253  28.256  26.154  1.00  0.00    -0.377 OA
BRANCH  30  31
ATOM     31  C   UNL A   1      33.143  29.548  25.597  1.00  0.00     0.188 C 
BRANCH  31  32
ATOM     32  C   UNL A   1      31.779  30.220  25.836  1.00  0.00     0.188 C 
BRANCH  32  33
ATOM     33  O   UNL A   1      31.695  31.485  26.483  1.00  0.00    -0.376 OA
BRANCH  33  34
ATOM     34  C   UNL A   1      32.736  31.924  27.358  1.00  0.00     0.202 C 
BRANCH  34  35
ATOM     35  C   UNL A   1      32.842  33.395  27.720  1.00  0.00     0.261 C 
BRANCH  35  36
ATOM     36  O   UNL A   1      33.903  33.598  28.665  1.00  0.00    -0.460 OA
BRANCH  36  37
ATOM     37  C   UNL A   1      33.580  34.366  29.721  1.00  0.00     0.338 C 
ATOM     38  O   UNL A   1      32.531  34.970  29.898  1.00  0.00    -0.246 OA
BRANCH  37  39
ATOM     39  C   UNL A   1      34.572  34.161  30.788  1.00  0.00     0.060 A 
ATOM     40  C   UNL A   1      34.876  35.284  31.569  1.00  0.00     0.016 A 
ATOM     41  C   UNL A   1      35.184  32.927  31.034  1.00  0.00     0.016 A 
ATOM     42  C   UNL A   1      35.819  35.191  32.577  1.00  0.00     0.010 A 
ATOM     43  C   UNL A   1      36.178  32.847  32.016  1.00  0.00     0.010 A 
ATOM     44  C   UNL A   1      36.522  33.995  32.751  1.00  0.00    -0.014 A 
BRANCH  44  45
ATOM     45  C   UNL A   1      37.800  34.100  33.482  1.00  0.00     0.031 A 
ATOM     46  C   UNL A   1      37.757  33.851  34.966  1.00  0.00     0.074 A 
ATOM     47  C   UNL A   1      38.962  34.216  32.820  1.00  0.00     0.049 A 
ATOM     48  N   UNL A   1      38.741  33.695  35.809  1.00  0.00    -0.248 NA
ATOM     49  C   UNL A   1      36.418  33.736  35.574  1.00  0.00     0.031 C 
ATOM     50  C   UNL A   1      39.100  34.377  31.372  1.00  0.00     0.029 A 
ATOM     51  N   UNL A   1      40.251  34.175  33.280  1.00  0.00    -0.354 N 
ATOM     52  C   UNL A   1      38.141  33.447  37.039  1.00  0.00     0.074 A 
ATOM     53  C   UNL A   1      36.712  33.513  36.845  1.00  0.00     0.031 C 
ATOM     54  C   UNL A   1      40.408  34.407  31.061  1.00  0.00     0.029 A 
ATOM     55  C   UNL A   1      41.194  34.287  32.287  1.00  0.00     0.049 A 
ATOM     56  H   UNL A   1      40.481  34.075  34.233  1.00  0.00     0.167 HD
ATOM     57  C   UNL A   1      38.733  33.177  38.225  1.00  0.00     0.031 A 
ATOM     58  C   UNL A   1      42.539  34.290  32.371  1.00  0.00     0.031 A 
ATOM     59  C   UNL A   1      40.158  33.149  38.404  1.00  0.00     0.049 A 
ATOM     60  C   UNL A   1      43.173  34.087  33.723  1.00  0.00     0.074 A 
ATOM     61  C   UNL A   1      40.877  32.922  39.563  1.00  0.00     0.029 A 
ATOM     62  N   UNL A   1      41.082  33.364  37.391  1.00  0.00    -0.354 N 
ATOM     63  N   UNL A   1      42.596  33.857  34.881  1.00  0.00    -0.248 NA
ATOM     64  C   UNL A   1      44.640  34.126  33.776  1.00  0.00     0.031 C 
ATOM     65  C   UNL A   1      42.236  33.062  39.262  1.00  0.00     0.029 A 
ATOM     66  C   UNL A   1      42.365  33.300  37.902  1.00  0.00     0.049 A 
ATOM     67  H   UNL A   1      40.858  33.536  36.448  1.00  0.00     0.167 HD
ATOM     68  C   UNL A   1      43.632  33.692  35.795  1.00  0.00     0.074 A 
ATOM     69  C   UNL A   1      44.867  33.825  35.047  1.00  0.00     0.031 C 
ATOM     70  C   UNL A   1      43.574  33.450  37.130  1.00  0.00     0.031 A 
BRANCH  57  71
ATOM     71  C   UNL A   1      37.837  32.948  39.413  1.00  0.00    -0.014 A 
ATOM     72  C   UNL A   1      37.094  31.761  39.556  1.00  0.00     0.010 A 
ATOM     73  C   UNL A   1      37.748  33.933  40.412  1.00  0.00     0.010 A 
ATOM     74  C   UNL A   1      36.259  31.577  40.662  1.00  0.00     0.020 A 
ATOM     75  C   UNL A   1      36.938  33.740  41.535  1.00  0.00     0.020 A 
ATOM     76  C   UNL A   1      36.188  32.567  41.646  1.00  0.00     0.054 A 
BRANCH  76  77
ATOM     77  S   UNL A   1      35.128  32.286  43.090  1.00  0.00     0.124 S 
ATOM     78  O   UNL A   1      34.412  33.555  43.193  1.00  0.00    -0.237 OA
ATOM     79  O   UNL A   1      34.321  31.142  42.674  1.00  0.00    -0.237 OA
ATOM     80  O   UNL A   1      36.075  32.016  44.169  1.00  0.00    -0.744 OA
ENDBRANCH  76  77
ENDBRANCH  57  71
BRANCH  58  81
ATOM     81  C   UNL A   1      43.367  34.504  31.151  1.00  0.00    -0.014 A 
ATOM     82  C   UNL A   1      43.505  33.503  30.174  1.00  0.00     0.010 A 
ATOM     83  C   UNL A   1      44.044  35.726  30.972  1.00  0.00     0.010 A 
ATOM     84  C   UNL A   1      44.323  33.707  29.057  1.00  0.00     0.020 A 
ATOM     85  C   UNL A   1      44.836  35.947  29.842  1.00  0.00     0.020 A 
ATOM     86  C   UNL A   1      44.981  34.930  28.898  1.00  0.00     0.054 A 
BRANCH  86  87
ATOM     87  S   UNL A   1      46.007  35.189  27.424  1.00  0.00     0.124 S 
ATOM     88  O   UNL A   1      47.220  34.452  27.763  1.00  0.00    -0.237 OA
ATOM     89  O   UNL A   1      45.186  34.609  26.365  1.00  0.00    -0.237 OA
ATOM     90  O   UNL A   1      46.154  36.641  27.360  1.00  0.00    -0.744 OA
ENDBRANCH  86  87
ENDBRANCH  58  81
BRANCH  70  91
ATOM     91  C   UNL A   1      44.887  33.278  37.849  1.00  0.00    -0.014 A 
ATOM     92  C   UNL A   1      45.525  32.027  37.925  1.00  0.00     0.010 A 
ATOM     93  C   UNL A   1      45.500  34.398  38.442  1.00  0.00     0.010 A 
ATOM     94  C   UNL A   1      46.717  31.886  38.639  1.00  0.00     0.020 A 
ATOM     95  C   UNL A   1      46.711  34.268  39.122  1.00  0.00     0.020 A 
ATOM     96  C   UNL A   1      47.298  33.007  39.238  1.00  0.00     0.054 A 
BRANCH  96  97
ATOM     97  S   UNL A   1      48.842  32.799  40.164  1.00  0.00     0.124 S 
ATOM     98  O   UNL A   1      48.716  33.823  41.196  1.00  0.00    -0.237 OA
ATOM     99  O   UNL A   1      48.749  31.418  40.634  1.00  0.00    -0.237 OA
ATOM    100  O   UNL A   1      49.881  33.043  39.167  1.00  0.00    -0.744 OA
ENDBRANCH  96  97
ENDBRANCH  70  91
ENDBRANCH  44  45
ENDBRANCH  37  39
ENDBRANCH  36  37
ENDBRANCH  35  36
ENDBRANCH  34  35
ENDBRANCH  33  34
ENDBRANCH  32  33
ENDBRANCH  31  32
ENDBRANCH  30  31
ENDBRANCH   1  30
TORSDOF 28
ENDMDL
MODEL 2
REMARK VINA RESULT:      -8.4      4.776      9.591
REMARK SMILES CCc1c(C)nc(Nc2ccc(Cl)cc2Cl)nc1OCC(=O)OCCOCCOCCOCCOC(=O)c1ccc(-c2c3nc(c(-c4ccc(S(=O)(=O)[O-])cc4)c4ccc([nH]4)c(-c4ccc(S(=O)(=O)[O-])cc4)c4nc(c(-c5ccc(S(=O)(=O)[O-])cc5)c5ccc2[nH]5)C=C4)C=C3)cc1
REMARK SMILES IDX 28 1 27 2 26 3 25 4 24 5 23 6 21 7 22 8 20 9 19 10 18 11
REMARK SMILES IDX 3 12 4 13 5 14 6 15 17 16 7 17 2 18 1 19 8 20 9 22 10 23
REMARK SMILES IDX 15 24 11 25 14 26 16 27 12 28 13 29 29 30 30 31 31 32 32 33
REMARK SMILES IDX 33 34 34 35 35 36 36 37 37 38 38 39 39 40 97 41 40 42 96 43
REMARK SMILES IDX 41 44 42 45 43 46 90 47 44 48 95 49 89 50 91 51 45 52 94 53
REMARK SMILES IDX 88 54 87 55 46 57 76 58 57 59 75 60 58 61 61 62 74 63 92 64
REMARK SMILES IDX 59 65 60 66 73 68 93 69 62 70 47 71 48 72 56 73 49 74 55 75
REMARK SMILES IDX 50 76 51 77 52 78 53 79 54 80 77 81 78 82 86 83 79 84 85 85
REMARK SMILES IDX 80 86 81 87 82 88 83 89 84 90 63 91 64 92 72 93 65 94 71 95
REMARK SMILES IDX 66 96 67 97 68 98 69 99 70 100
REMARK H PARENT 8 21 91 56 61 67
REMARK Flexibility Score: inf
ROOT
ATOM      1  C   UNL A   1      39.318  22.223  26.374  1.00  0.00     0.188 C 
ENDROOT
BRANCH   1   2
ATOM      2  C   UNL A   1      37.834  22.282  25.980  1.00  0.00     0.188 C 
BRANCH   2   3
ATOM      3  O   UNL A   1      37.121  23.488  26.162  1.00  0.00    -0.376 OA
BRANCH   3   4
ATOM      4  C   UNL A   1      35.746  23.577  25.845  1.00  0.00     0.202 C 
BRANCH   4   5
ATOM      5  C   UNL A   1      34.719  22.477  26.187  1.00  0.00     0.261 C 
BRANCH   5   6
ATOM      6  O   UNL A   1      33.352  22.885  26.381  1.00  0.00    -0.461 OA
BRANCH   6   7
ATOM      7  C   UNL A   1      32.380  21.977  26.088  1.00  0.00     0.344 C 
ATOM      8  O   UNL A   1      32.585  20.794  25.839  1.00  0.00    -0.248 OA
BRANCH   7   9
ATOM      9  C   UNL A   1      30.972  22.613  26.086  1.00  0.00     0.353 C 
BRANCH   9  10
ATOM     10  O   UNL A   1      30.441  23.326  24.994  1.00  0.00    -0.465 OA
BRANCH  10  11
ATOM     11  C   UNL A   1      31.021  24.222  24.156  1.00  0.00     0.222 A 
ATOM     12  C   UNL A   1      31.897  24.029  23.094  1.00  0.00     0.035 A 
ATOM     13  C   UNL A   1      32.041  25.158  22.265  1.00  0.00     0.050 A 
ATOM     14  C   UNL A   1      32.862  25.168  21.003  1.00  0.00     0.067 C 
ATOM     15  N   UNL A   1      31.479  26.360  22.526  1.00  0.00    -0.218 NA
ATOM     16  N   UNL A   1      30.493  25.447  24.432  1.00  0.00    -0.177 NA
ATOM     17  C   UNL A   1      30.742  26.485  23.626  1.00  0.00     0.230 A 
BRANCH  12  18
ATOM     18  C   UNL A   1      32.703  22.791  22.791  1.00  0.00     0.040 C 
ATOM     19  C   UNL A   1      31.988  21.620  22.123  1.00  0.00     0.009 C 
ENDBRANCH  12  18
BRANCH  17  20
ATOM     20  N   UNL A   1      30.178  27.721  23.956  1.00  0.00    -0.323 N 
ATOM     21  H   UNL A   1      30.216  27.974  24.908  1.00  0.00     0.170 HD
BRANCH  20  22
ATOM     22  C   UNL A   1      29.565  28.646  23.097  1.00  0.00     0.060 A 
ATOM     23  C   UNL A   1      30.365  29.472  22.298  1.00  0.00     0.029 A 
ATOM     24  C   UNL A   1      28.173  28.725  22.918  1.00  0.00     0.066 A 
ATOM     25  C   UNL A   1      29.805  30.465  21.483  1.00  0.00     0.023 A 
ATOM     26  C   UNL A   1      27.602  29.699  22.087  1.00  0.00     0.043 A 
ATOM     27  Cl  UNL A   1      27.106  27.616  23.709  1.00  0.00    -0.082 Cl
ATOM     28  C   UNL A   1      28.424  30.590  21.404  1.00  0.00     0.042 A 
ATOM     29  Cl  UNL A   1      27.727  31.845  20.453  1.00  0.00    -0.084 Cl
ENDBRANCH  20  22
ENDBRANCH  17  20
ENDBRANCH  10  11
ENDBRANCH   9  10
ENDBRANCH   7   9
ENDBRANCH   6   7
ENDBRANCH   5   6
ENDBRANCH   4   5
ENDBRANCH   3   4
ENDBRANCH   2   3
ENDBRANCH   1   2
BRANCH   1  30
ATOM     30  O   UNL A   1      40.049  21.151  25.787  1.00  0.00    -0.377 OA
BRANCH  30  31
ATOM     31  C   UNL A   1      41.048  20.649  26.649  1.00  0.00     0.188 C 
BRANCH  31  32
ATOM     32  C   UNL A   1      41.827  21.737  27.408  1.00  0.00     0.188 C 
BRANCH  32  33
ATOM     33  O   UNL A   1      42.982  22.339  26.832  1.00  0.00    -0.376 OA
BRANCH  33  34
ATOM     34  C   UNL A   1      42.944  22.853  25.500  1.00  0.00     0.202 C 
BRANCH  34  35
ATOM     35  C   UNL A   1      42.969  24.355  25.273  1.00  0.00     0.261 C 
BRANCH  35  36
ATOM     36  O   UNL A   1      43.013  25.045  26.530  1.00  0.00    -0.460 OA
BRANCH  36  37
ATOM     37  C   UNL A   1      44.245  25.399  26.938  1.00  0.00     0.338 C 
ATOM     38  O   UNL A   1      45.292  25.264  26.320  1.00  0.00    -0.246 OA
BRANCH  37  39
ATOM     39  C   UNL A   1      44.131  26.238  28.141  1.00  0.00     0.060 A 
ATOM     40  C   UNL A   1      43.559  25.627  29.265  1.00  0.00     0.016 A 
ATOM     41  C   UNL A   1      44.568  27.566  28.190  1.00  0.00     0.016 A 
ATOM     42  C   UNL A   1      43.386  26.348  30.433  1.00  0.00     0.010 A 
ATOM     43  C   UNL A   1      44.342  28.312  29.352  1.00  0.00     0.010 A 
ATOM     44  C   UNL A   1      43.708  27.709  30.453  1.00  0.00    -0.014 A 
BRANCH  44  45
ATOM     45  C   UNL A   1      43.074  28.504  31.522  1.00  0.00     0.031 A 
ATOM     46  C   UNL A   1      43.851  28.669  32.800  1.00  0.00     0.074 A 
ATOM     47  C   UNL A   1      41.953  29.203  31.285  1.00  0.00     0.049 A 
ATOM     48  N   UNL A   1      43.622  29.457  33.814  1.00  0.00    -0.248 NA
ATOM     49  C   UNL A   1      45.070  27.848  32.938  1.00  0.00     0.031 C 
ATOM     50  C   UNL A   1      41.180  29.168  30.042  1.00  0.00     0.029 A 
ATOM     51  N   UNL A   1      41.293  30.112  32.068  1.00  0.00    -0.354 N 
ATOM     52  C   UNL A   1      44.673  29.240  34.699  1.00  0.00     0.074 A 
ATOM     53  C   UNL A   1      45.519  28.220  34.126  1.00  0.00     0.031 C 
ATOM     54  C   UNL A   1      40.155  30.032  30.144  1.00  0.00     0.029 A 
ATOM     55  C   UNL A   1      40.190  30.663  31.462  1.00  0.00     0.049 A 
ATOM     56  H   UNL A   1      41.582  30.348  32.979  1.00  0.00     0.167 HD
ATOM     57  C   UNL A   1      44.916  29.849  35.882  1.00  0.00     0.031 A 
ATOM     58  C   UNL A   1      39.314  31.575  31.928  1.00  0.00     0.031 A 
ATOM     59  C   UNL A   1      44.045  30.839  36.452  1.00  0.00     0.049 A 
ATOM     60  C   UNL A   1      39.554  32.163  33.295  1.00  0.00     0.074 A 
ATOM     61  C   UNL A   1      44.164  31.502  37.658  1.00  0.00     0.029 A 
ATOM     62  N   UNL A   1      42.882  31.301  35.850  1.00  0.00    -0.354 N 
ATOM     63  N   UNL A   1      40.549  31.949  34.125  1.00  0.00    -0.248 NA
ATOM     64  C   UNL A   1      38.562  33.131  33.779  1.00  0.00     0.031 C 
ATOM     65  C   UNL A   1      43.040  32.319  37.816  1.00  0.00     0.029 A 
ATOM     66  C   UNL A   1      42.261  32.223  36.672  1.00  0.00     0.049 A 
ATOM     67  H   UNL A   1      42.549  31.015  34.969  1.00  0.00     0.167 HD
ATOM     68  C   UNL A   1      40.319  32.780  35.217  1.00  0.00     0.074 A 
ATOM     69  C   UNL A   1      39.104  33.516  34.926  1.00  0.00     0.031 C 
ATOM     70  C   UNL A   1      41.043  32.928  36.356  1.00  0.00     0.031 A 
BRANCH  57  71
ATOM     71  C   UNL A   1      46.138  29.417  36.648  1.00  0.00    -0.014 A 
ATOM     72  C   UNL A   1      46.034  28.680  37.843  1.00  0.00     0.010 A 
ATOM     73  C   UNL A   1      47.415  29.743  36.157  1.00  0.00     0.010 A 
ATOM     74  C   UNL A   1      47.183  28.300  38.544  1.00  0.00     0.020 A 
ATOM     75  C   UNL A   1      48.566  29.340  36.838  1.00  0.00     0.020 A 
ATOM     76  C   UNL A   1      48.443  28.632  38.035  1.00  0.00     0.054 A 
BRANCH  76  77
ATOM     77  S   UNL A   1      49.918  28.093  38.943  1.00  0.00     0.124 S 
ATOM     78  O   UNL A   1      49.921  29.005  40.084  1.00  0.00    -0.237 OA
ATOM     79  O   UNL A   1      49.609  26.699  39.253  1.00  0.00    -0.237 OA
ATOM     80  O   UNL A   1      51.004  28.288  37.987  1.00  0.00    -0.744 OA
ENDBRANCH  76  77
ENDBRANCH  57  71
BRANCH  58  81
ATOM     81  C   UNL A   1      38.134  31.971  31.111  1.00  0.00    -0.014 A 
ATOM     82  C   UNL A   1      36.895  31.321  31.251  1.00  0.00     0.010 A 
ATOM     83  C   UNL A   1      38.255  33.003  30.161  1.00  0.00     0.010 A 
ATOM     84  C   UNL A   1      35.810  31.678  30.443  1.00  0.00     0.020 A 
ATOM     85  C   UNL A   1      37.166  33.385  29.375  1.00  0.00     0.020 A 
ATOM     86  C   UNL A   1      35.952  32.710  29.511  1.00  0.00     0.054 A 
BRANCH  86  87
ATOM     87  S   UNL A   1      34.523  33.182  28.498  1.00  0.00     0.124 S 
ATOM     88  O   UNL A   1      33.648  33.812  29.480  1.00  0.00    -0.237 OA
ATOM     89  O   UNL A   1      35.120  34.078  27.512  1.00  0.00    -0.237 OA
ATOM     90  O   UNL A   1      34.048  31.908  27.962  1.00  0.00    -0.744 OA
ENDBRANCH  86  87
ENDBRANCH  58  81
BRANCH  70  91
ATOM     91  C   UNL A   1      40.552  33.951  37.347  1.00  0.00    -0.014 A 
ATOM     92  C   UNL A   1      39.578  33.634  38.311  1.00  0.00     0.010 A 
ATOM     93  C   UNL A   1      41.094  35.250  37.321  1.00  0.00     0.010 A 
ATOM     94  C   UNL A   1      39.106  34.616  39.185  1.00  0.00     0.020 A 
ATOM     95  C   UNL A   1      40.653  36.222  38.220  1.00  0.00     0.020 A 
ATOM     96  C   UNL A   1      39.642  35.905  39.129  1.00  0.00     0.054 A 
BRANCH  96  97
ATOM     97  S   UNL A   1      39.010  37.163  40.270  1.00  0.00     0.124 S 
ATOM     98  O   UNL A   1      38.433  38.141  39.352  1.00  0.00    -0.237 OA
ATOM     99  O   UNL A   1      38.049  36.411  41.075  1.00  0.00    -0.237 OA
ATOM    100  O   UNL A   1      40.201  37.609  40.989  1.00  0.00    -0.744 OA
ENDBRANCH  96  97
ENDBRANCH  70  91
ENDBRANCH  44  45
ENDBRANCH  37  39
ENDBRANCH  36  37
ENDBRANCH  35  36
ENDBRANCH  34  35
ENDBRANCH  33  34
ENDBRANCH  32  33
ENDBRANCH  31  32
ENDBRANCH  30  31
ENDBRANCH   1  30
TORSDOF 28
ENDMDL
MODEL 3
REMARK VINA RESULT:      -8.2      6.215     12.233
REMARK SMILES CCc1c(C)nc(Nc2ccc(Cl)cc2Cl)nc1OCC(=O)OCCOCCOCCOCCOC(=O)c1ccc(-c2c3nc(c(-c4ccc(S(=O)(=O)[O-])cc4)c4ccc([nH]4)c(-c4ccc(S(=O)(=O)[O-])cc4)c4nc(c(-c5ccc(S(=O)(=O)[O-])cc5)c5ccc2[nH]5)C=C4)C=C3)cc1
REMARK SMILES IDX 28 1 27 2 26 3 25 4 24 5 23 6 21 7 22 8 20 9 19 10 18 11
REMARK SMILES IDX 3 12 4 13 5 14 6 15 17 16 7 17 2 18 1 19 8 20 9 22 10 23
REMARK SMILES IDX 15 24 11 25 14 26 16 27 12 28 13 29 29 30 30 31 31 32 32 33
REMARK SMILES IDX 33 34 34 35 35 36 36 37 37 38 38 39 39 40 97 41 40 42 96 43
REMARK SMILES IDX 41 44 42 45 43 46 90 47 44 48 95 49 89 50 91 51 45 52 94 53
REMARK SMILES IDX 88 54 87 55 46 57 76 58 57 59 75 60 58 61 61 62 74 63 92 64
REMARK SMILES IDX 59 65 60 66 73 68 93 69 62 70 47 71 48 72 56 73 49 74 55 75
REMARK SMILES IDX 50 76 51 77 52 78 53 79 54 80 77 81 78 82 86 83 79 84 85 85
REMARK SMILES IDX 80 86 81 87 82 88 83 89 84 90 63 91 64 92 72 93 65 94 71 95
REMARK SMILES IDX 66 96 67 97 68 98 69 99 70 100
REMARK H PARENT 8 21 91 56 61 67
REMARK Flexibility Score: inf
ROOT
ATOM      1  C   UNL A   1      39.310  22.358  26.228  1.00  0.00     0.188 C 
ENDROOT
BRANCH   1   2
ATOM      2  C   UNL A   1      37.826  22.446  25.841  1.00  0.00     0.188 C 
BRANCH   2   3
ATOM      3  O   UNL A   1      37.361  23.588  25.150  1.00  0.00    -0.376 OA
BRANCH   3   4
ATOM      4  C   UNL A   1      36.019  24.015  25.271  1.00  0.00     0.202 C 
BRANCH   4   5
ATOM      5  C   UNL A   1      35.021  23.419  26.285  1.00  0.00     0.261 C 
BRANCH   5   6
ATOM      6  O   UNL A   1      33.787  24.130  26.497  1.00  0.00    -0.461 OA
BRANCH   6   7
ATOM      7  C   UNL A   1      32.731  23.422  26.986  1.00  0.00     0.344 C 
ATOM      8  O   UNL A   1      32.831  22.406  27.664  1.00  0.00    -0.248 OA
BRANCH   7   9
ATOM      9  C   UNL A   1      31.376  24.039  26.573  1.00  0.00     0.353 C 
BRANCH   9  10
ATOM     10  O   UNL A   1      31.028  24.331  25.240  1.00  0.00    -0.465 OA
BRANCH  10  11
ATOM     11  C   UNL A   1      31.806  24.553  24.151  1.00  0.00     0.222 A 
ATOM     12  C   UNL A   1      32.518  23.665  23.353  1.00  0.00     0.035 A 
ATOM     13  C   UNL A   1      32.954  24.220  22.135  1.00  0.00     0.050 A 
ATOM     14  C   UNL A   1      33.664  23.433  21.066  1.00  0.00     0.067 C 
ATOM     15  N   UNL A   1      32.803  25.523  21.805  1.00  0.00    -0.218 NA
ATOM     16  N   UNL A   1      31.696  25.872  23.827  1.00  0.00    -0.177 NA
ATOM     17  C   UNL A   1      32.205  26.328  22.678  1.00  0.00     0.230 A 
BRANCH  12  18
ATOM     18  C   UNL A   1      32.886  22.239  23.681  1.00  0.00     0.040 C 
ATOM     19  C   UNL A   1      31.774  21.194  23.666  1.00  0.00     0.009 C 
ENDBRANCH  12  18
BRANCH  17  20
ATOM     20  N   UNL A   1      32.067  27.690  22.395  1.00  0.00    -0.323 N 
ATOM     21  H   UNL A   1      32.791  28.097  21.864  1.00  0.00     0.170 HD
BRANCH  20  22
ATOM     22  C   UNL A   1      31.024  28.549  22.775  1.00  0.00     0.060 A 
ATOM     23  C   UNL A   1      29.789  28.454  22.122  1.00  0.00     0.029 A 
ATOM     24  C   UNL A   1      31.118  29.444  23.854  1.00  0.00     0.066 A 
ATOM     25  C   UNL A   1      28.741  29.339  22.408  1.00  0.00     0.023 A 
ATOM     26  C   UNL A   1      30.067  30.319  24.165  1.00  0.00     0.043 A 
ATOM     27  Cl  UNL A   1      32.531  29.498  24.851  1.00  0.00    -0.082 Cl
ATOM     28  C   UNL A   1      28.897  30.287  23.412  1.00  0.00     0.042 A 
ATOM     29  Cl  UNL A   1      27.639  31.418  23.731  1.00  0.00    -0.084 Cl
ENDBRANCH  20  22
ENDBRANCH  17  20
ENDBRANCH  10  11
ENDBRANCH   9  10
ENDBRANCH   7   9
ENDBRANCH   6   7
ENDBRANCH   5   6
ENDBRANCH   4   5
ENDBRANCH   3   4
ENDBRANCH   2   3
ENDBRANCH   1   2
BRANCH   1  30
ATOM     30  O   UNL A   1      39.867  21.049  26.168  1.00  0.00    -0.377 OA
BRANCH  30  31
ATOM     31  C   UNL A   1      40.837  20.833  27.170  1.00  0.00     0.188 C 
BRANCH  31  32
ATOM     32  C   UNL A   1      41.643  22.089  27.545  1.00  0.00     0.188 C 
BRANCH  32  33
ATOM     33  O   UNL A   1      42.922  22.332  26.969  1.00  0.00    -0.376 OA
BRANCH  33  34
ATOM     34  C   UNL A   1      43.129  22.165  25.565  1.00  0.00     0.202 C 
BRANCH  34  35
ATOM     35  C   UNL A   1      43.952  23.188  24.801  1.00  0.00     0.261 C 
BRANCH  35  36
ATOM     36  O   UNL A   1      44.703  24.002  25.714  1.00  0.00    -0.460 OA
BRANCH  36  37
ATOM     37  C   UNL A   1      45.851  24.496  25.217  1.00  0.00     0.338 C 
ATOM     38  O   UNL A   1      46.530  24.019  24.318  1.00  0.00    -0.246 OA
BRANCH  37  39
ATOM     39  C   UNL A   1      46.046  25.864  25.724  1.00  0.00     0.060 A 
ATOM     40  C   UNL A   1      46.400  25.973  27.075  1.00  0.00     0.016 A 
ATOM     41  C   UNL A   1      45.900  27.002  24.925  1.00  0.00     0.016 A 
ATOM     42  C   UNL A   1      46.576  27.221  27.645  1.00  0.00     0.010 A 
ATOM     43  C   UNL A   1      46.022  28.265  25.515  1.00  0.00     0.010 A 
ATOM     44  C   UNL A   1      46.315  28.366  26.886  1.00  0.00    -0.014 A 
BRANCH  44  45
ATOM     45  C   UNL A   1      46.055  29.601  27.651  1.00  0.00     0.031 A 
ATOM     46  C   UNL A   1      47.055  30.716  27.504  1.00  0.00     0.074 A 
ATOM     47  C   UNL A   1      44.885  29.783  28.285  1.00  0.00     0.049 A 
ATOM     48  N   UNL A   1      46.979  31.955  27.905  1.00  0.00    -0.248 NA
ATOM     49  C   UNL A   1      48.299  30.391  26.782  1.00  0.00     0.031 C 
ATOM     50  C   UNL A   1      43.822  28.784  28.405  1.00  0.00     0.029 A 
ATOM     51  N   UNL A   1      44.380  30.890  28.913  1.00  0.00    -0.354 N 
ATOM     52  C   UNL A   1      48.154  32.559  27.469  1.00  0.00     0.074 A 
ATOM     53  C   UNL A   1      48.944  31.546  26.810  1.00  0.00     0.031 C 
ATOM     54  C   UNL A   1      42.782  29.332  29.056  1.00  0.00     0.029 A 
ATOM     55  C   UNL A   1      43.114  30.710  29.414  1.00  0.00     0.049 A 
ATOM     56  H   UNL A   1      44.878  31.736  28.996  1.00  0.00     0.167 HD
ATOM     57  C   UNL A   1      48.534  33.851  27.599  1.00  0.00     0.031 A 
ATOM     58  C   UNL A   1      42.321  31.568  30.084  1.00  0.00     0.031 A 
ATOM     59  C   UNL A   1      47.749  34.837  28.287  1.00  0.00     0.049 A 
ATOM     60  C   UNL A   1      42.814  32.976  30.303  1.00  0.00     0.074 A 
ATOM     61  C   UNL A   1      48.043  36.168  28.515  1.00  0.00     0.029 A 
ATOM     62  N   UNL A   1      46.513  34.591  28.868  1.00  0.00    -0.354 N 
ATOM     63  N   UNL A   1      43.928  33.536  29.889  1.00  0.00    -0.248 NA
ATOM     64  C   UNL A   1      41.933  33.872  31.062  1.00  0.00     0.031 C 
ATOM     65  C   UNL A   1      47.012  36.712  29.289  1.00  0.00     0.029 A 
ATOM     66  C   UNL A   1      46.040  35.740  29.476  1.00  0.00     0.049 A 
ATOM     67  H   UNL A   1      46.041  33.727  28.849  1.00  0.00     0.167 HD
ATOM     68  C   UNL A   1      43.867  34.860  30.312  1.00  0.00     0.074 A 
ATOM     69  C   UNL A   1      42.595  35.018  30.990  1.00  0.00     0.031 C 
ATOM     70  C   UNL A   1      44.774  35.859  30.155  1.00  0.00     0.031 A 
BRANCH  57  71
ATOM     71  C   UNL A   1      49.873  34.242  27.031  1.00  0.00    -0.014 A 
ATOM     72  C   UNL A   1      50.071  34.379  25.644  1.00  0.00     0.010 A 
ATOM     73  C   UNL A   1      50.949  34.490  27.902  1.00  0.00     0.010 A 
ATOM     74  C   UNL A   1      51.327  34.730  25.139  1.00  0.00     0.020 A 
ATOM     75  C   UNL A   1      52.197  34.871  27.403  1.00  0.00     0.020 A 
ATOM     76  C   UNL A   1      52.382  34.977  26.024  1.00  0.00     0.054 A 
BRANCH  76  77
ATOM     77  S   UNL A   1      53.990  35.470  25.345  1.00  0.00     0.124 S 
ATOM     78  O   UNL A   1      53.790  36.896  25.097  1.00  0.00    -0.237 OA
ATOM     79  O   UNL A   1      54.908  35.145  26.433  1.00  0.00    -0.237 OA
ATOM     80  O   UNL A   1      54.130  34.644  24.148  1.00  0.00    -0.744 OA
ENDBRANCH  76  77
ENDBRANCH  57  71
BRANCH  58  81
ATOM     81  C   UNL A   1      40.999  31.121  30.604  1.00  0.00    -0.014 A 
ATOM     82  C   UNL A   1      39.847  31.150  29.799  1.00  0.00     0.010 A 
ATOM     83  C   UNL A   1      40.886  30.674  31.935  1.00  0.00     0.010 A 
ATOM     84  C   UNL A   1      38.606  30.767  30.319  1.00  0.00     0.020 A 
ATOM     85  C   UNL A   1      39.655  30.259  32.449  1.00  0.00     0.020 A 
ATOM     86  C   UNL A   1      38.519  30.322  31.641  1.00  0.00     0.054 A 
BRANCH  86  87
ATOM     87  S   UNL A   1      36.907  29.795  32.286  1.00  0.00     0.124 S 
ATOM     88  O   UNL A   1      36.442  30.998  32.966  1.00  0.00    -0.237 OA
ATOM     89  O   UNL A   1      36.186  29.434  31.068  1.00  0.00    -0.237 OA
ATOM     90  O   UNL A   1      37.238  28.670  33.158  1.00  0.00    -0.744 OA
ENDBRANCH  86  87
ENDBRANCH  58  81
BRANCH  70  91
ATOM     91  C   UNL A   1      44.396  37.213  30.696  1.00  0.00    -0.014 A 
ATOM     92  C   UNL A   1      43.817  38.197  29.876  1.00  0.00     0.010 A 
ATOM     93  C   UNL A   1      44.611  37.494  32.058  1.00  0.00     0.010 A 
ATOM     94  C   UNL A   1      43.522  39.461  30.392  1.00  0.00     0.020 A 
ATOM     95  C   UNL A   1      44.280  38.742  32.587  1.00  0.00     0.020 A 
ATOM     96  C   UNL A   1      43.762  39.727  31.743  1.00  0.00     0.054 A 
BRANCH  96  97
ATOM     97  S   UNL A   1      43.376  41.376  32.390  1.00  0.00     0.124 S 
ATOM     98  O   UNL A   1      44.524  41.637  33.254  1.00  0.00    -0.237 OA
ATOM     99  O   UNL A   1      43.306  42.186  31.175  1.00  0.00    -0.237 OA
ATOM    100  O   UNL A   1      42.104  41.188  33.082  1.00  0.00    -0.744 OA
ENDBRANCH  96  97
ENDBRANCH  70  91
ENDBRANCH  44  45
ENDBRANCH  37  39
ENDBRANCH  36  37
ENDBRANCH  35  36
ENDBRANCH  34  35
ENDBRANCH  33  34
ENDBRANCH  32  33
ENDBRANCH  31  32
ENDBRANCH  30  31
ENDBRANCH   1  30
TORSDOF 28
ENDMDL
