MODEL 1
REMARK VINA RESULT:     -10.3      0.000      0.000
REMARK SMILES O=C(OCCOCCOCCOCCOC(=O)[C@]1(NC(=O)C2CCN(C(=O)C3CC3)CC2)CCCc2ccccc21)c1ccc(-c2c3nc(c(-c4ccc(S(=O)(=O)[O-])cc4)c4ccc([nH]4)c(-c4ccc(S(=O)(=O)[O-])cc4)c4nc(c(-c5ccc(S(=O)(=O)[O-])cc5)c5ccc2[nH]5)C=C4)C=C3)cc1
REMARK SMILES IDX 9 1 8 2 7 3 6 4 5 5 4 6 3 7 2 8 1 9 42 10 43 11 101 12 44 13
REMARK SMILES IDX 100 14 45 15 46 16 47 17 94 18 48 19 99 20 93 21 95 22 49 23
REMARK SMILES IDX 98 24 92 25 91 26 50 28 80 29 61 30 79 31 62 32 65 33 78 34
REMARK SMILES IDX 96 35 63 36 64 37 77 39 97 40 66 41 51 42 52 43 60 44 53 45
REMARK SMILES IDX 59 46 54 47 55 48 56 49 57 50 58 51 81 52 82 53 90 54 83 55
REMARK SMILES IDX 89 56 84 57 85 58 86 59 87 60 88 61 67 62 68 63 76 64 69 65
REMARK SMILES IDX 75 66 70 67 71 68 72 69 73 70 74 71 10 72 11 73 12 74 13 75
REMARK SMILES IDX 14 76 15 77 16 78 17 79 18 80 33 81 41 82 34 83 36 84 40 85
REMARK SMILES IDX 35 86 37 87 39 88 38 89 19 90 20 91 21 93 22 94 23 95 32 96
REMARK SMILES IDX 24 97 31 98 25 99 26 100 27 101 28 102 29 103 30 104
REMARK H PARENT 95 27 65 38 19 92
REMARK Flexibility Score: inf
ROOT
ATOM      1  O   UNL A   1      39.961  22.021  26.095  1.00  0.00    -0.377 OA
ENDROOT
BRANCH   1   2
ATOM      2  C   UNL A   1      40.372  20.690  26.309  1.00  0.00     0.188 C 
BRANCH   2   3
ATOM      3  C   UNL A   1      41.851  20.522  26.583  1.00  0.00     0.188 C 
BRANCH   3   4
ATOM      4  O   UNL A   1      42.620  20.773  25.411  1.00  0.00    -0.376 OA
BRANCH   4   5
ATOM      5  C   UNL A   1      43.612  21.801  25.487  1.00  0.00     0.202 C 
BRANCH   5   6
ATOM      6  C   UNL A   1      43.411  22.874  26.568  1.00  0.00     0.261 C 
BRANCH   6   7
ATOM      7  O   UNL A   1      43.681  24.216  26.132  1.00  0.00    -0.460 OA
BRANCH   7   8
ATOM      8  C   UNL A   1      42.839  25.277  26.027  1.00  0.00     0.338 C 
ATOM      9  O   UNL A   1      42.409  25.587  24.917  1.00  0.00    -0.246 OA
BRANCH   8  10
ATOM     10  C   UNL A   1      42.525  26.198  27.168  1.00  0.00     0.060 A 
ATOM     11  C   UNL A   1      43.193  27.391  27.413  1.00  0.00     0.016 A 
ATOM     12  C   UNL A   1      41.414  25.900  27.982  1.00  0.00     0.016 A 
ATOM     13  C   UNL A   1      42.748  28.316  28.316  1.00  0.00     0.010 A 
ATOM     14  C   UNL A   1      41.012  26.778  28.996  1.00  0.00     0.010 A 
ATOM     15  C   UNL A   1      41.695  27.985  29.150  1.00  0.00    -0.014 A 
BRANCH  15  16
ATOM     16  C   UNL A   1      41.665  28.832  30.340  1.00  0.00     0.031 A 
ATOM     17  C   UNL A   1      40.507  29.784  30.422  1.00  0.00     0.074 A 
ATOM     18  C   UNL A   1      42.376  28.434  31.411  1.00  0.00     0.049 A 
ATOM     19  N   UNL A   1      40.138  30.550  31.404  1.00  0.00    -0.248 NA
ATOM     20  C   UNL A   1      39.599  29.828  29.253  1.00  0.00     0.031 C 
ATOM     21  C   UNL A   1      43.303  27.292  31.428  1.00  0.00     0.029 A 
ATOM     22  N   UNL A   1      42.371  28.873  32.699  1.00  0.00    -0.354 N 
ATOM     23  C   UNL A   1      38.978  31.181  30.965  1.00  0.00     0.074 A 
ATOM     24  C   UNL A   1      38.684  30.698  29.641  1.00  0.00     0.031 C 
ATOM     25  C   UNL A   1      43.776  27.129  32.675  1.00  0.00     0.029 A 
ATOM     26  C   UNL A   1      43.245  28.194  33.514  1.00  0.00     0.049 A 
ATOM     27  H   UNL A   1      41.795  29.607  33.017  1.00  0.00     0.167 HD
ATOM     28  C   UNL A   1      38.247  32.104  31.623  1.00  0.00     0.031 A 
ATOM     29  C   UNL A   1      43.603  28.465  34.781  1.00  0.00     0.031 A 
ATOM     30  C   UNL A   1      38.632  32.570  32.923  1.00  0.00     0.049 A 
ATOM     31  C   UNL A   1      42.911  29.638  35.423  1.00  0.00     0.074 A 
ATOM     32  C   UNL A   1      38.131  33.623  33.658  1.00  0.00     0.029 A 
ATOM     33  N   UNL A   1      39.646  31.988  33.677  1.00  0.00    -0.354 N 
ATOM     34  N   UNL A   1      41.919  30.364  34.948  1.00  0.00    -0.248 NA
ATOM     35  C   UNL A   1      43.381  30.047  36.747  1.00  0.00     0.031 C 
ATOM     36  C   UNL A   1      38.886  33.710  34.835  1.00  0.00     0.029 A 
ATOM     37  C   UNL A   1      39.805  32.668  34.864  1.00  0.00     0.049 A 
ATOM     38  H   UNL A   1      40.173  31.202  33.402  1.00  0.00     0.167 HD
ATOM     39  C   UNL A   1      41.643  31.316  35.917  1.00  0.00     0.074 A 
ATOM     40  C   UNL A   1      42.550  31.042  37.020  1.00  0.00     0.031 C 
ATOM     41  C   UNL A   1      40.742  32.331  35.908  1.00  0.00     0.031 A 
BRANCH  28  42
ATOM     42  C   UNL A   1      37.096  32.722  30.881  1.00  0.00    -0.014 A 
ATOM     43  C   UNL A   1      37.285  33.752  29.940  1.00  0.00     0.010 A 
ATOM     44  C   UNL A   1      35.785  32.308  31.184  1.00  0.00     0.010 A 
ATOM     45  C   UNL A   1      36.186  34.368  29.334  1.00  0.00     0.020 A 
ATOM     46  C   UNL A   1      34.685  32.907  30.564  1.00  0.00     0.020 A 
ATOM     47  C   UNL A   1      34.892  33.941  29.649  1.00  0.00     0.054 A 
BRANCH  47  48
ATOM     48  S   UNL A   1      33.484  34.734  28.823  1.00  0.00     0.124 S 
ATOM     49  O   UNL A   1      33.071  33.705  27.872  1.00  0.00    -0.237 OA
ATOM     50  O   UNL A   1      32.560  34.972  29.930  1.00  0.00    -0.237 OA
ATOM     51  O   UNL A   1      34.061  35.936  28.227  1.00  0.00    -0.744 OA
ENDBRANCH  47  48
ENDBRANCH  28  42
BRANCH  29  52
ATOM     52  C   UNL A   1      44.730  27.735  35.433  1.00  0.00    -0.014 A 
ATOM     53  C   UNL A   1      46.060  28.176  35.344  1.00  0.00     0.010 A 
ATOM     54  C   UNL A   1      44.466  26.539  36.136  1.00  0.00     0.010 A 
ATOM     55  C   UNL A   1      47.101  27.424  35.908  1.00  0.00     0.020 A 
ATOM     56  C   UNL A   1      45.495  25.803  36.730  1.00  0.00     0.020 A 
ATOM     57  C   UNL A   1      46.811  26.239  36.593  1.00  0.00     0.054 A 
BRANCH  57  58
ATOM     58  S   UNL A   1      48.171  25.271  37.307  1.00  0.00     0.124 S 
ATOM     59  O   UNL A   1      48.233  25.794  38.668  1.00  0.00    -0.237 OA
ATOM     60  O   UNL A   1      47.685  23.899  37.176  1.00  0.00    -0.237 OA
ATOM     61  O   UNL A   1      49.312  25.605  36.457  1.00  0.00    -0.744 OA
ENDBRANCH  57  58
ENDBRANCH  29  52
BRANCH  41  62
ATOM     62  C   UNL A   1      40.693  33.176  37.143  1.00  0.00    -0.014 A 
ATOM     63  C   UNL A   1      41.504  34.314  37.275  1.00  0.00     0.010 A 
ATOM     64  C   UNL A   1      39.781  32.842  38.160  1.00  0.00     0.010 A 
ATOM     65  C   UNL A   1      41.438  35.082  38.436  1.00  0.00     0.020 A 
ATOM     66  C   UNL A   1      39.685  33.631  39.303  1.00  0.00     0.020 A 
ATOM     67  C   UNL A   1      40.531  34.734  39.441  1.00  0.00     0.054 A 
BRANCH  67  68
ATOM     68  S   UNL A   1      40.445  35.763  40.927  1.00  0.00     0.124 S 
ATOM     69  O   UNL A   1      40.330  34.759  41.981  1.00  0.00    -0.237 OA
ATOM     70  O   UNL A   1      41.711  36.490  40.884  1.00  0.00    -0.237 OA
ATOM     71  O   UNL A   1      39.255  36.582  40.711  1.00  0.00    -0.744 OA
ENDBRANCH  67  68
ENDBRANCH  41  62
ENDBRANCH  15  16
ENDBRANCH   8  10
ENDBRANCH   7   8
ENDBRANCH   6   7
ENDBRANCH   5   6
ENDBRANCH   4   5
ENDBRANCH   3   4
ENDBRANCH   2   3
ENDBRANCH   1   2
BRANCH   1  72
ATOM     72  C   UNL A   1      38.587  22.376  26.105  1.00  0.00     0.188 C 
BRANCH  72  73
ATOM     73  C   UNL A   1      37.763  22.047  24.871  1.00  0.00     0.188 C 
BRANCH  73  74
ATOM     74  O   UNL A   1      36.353  22.069  25.086  1.00  0.00    -0.376 OA
BRANCH  74  75
ATOM     75  C   UNL A   1      35.880  23.127  25.912  1.00  0.00     0.202 C 
BRANCH  75  76
ATOM     76  C   UNL A   1      35.635  24.448  25.145  1.00  0.00     0.261 C 
BRANCH  76  77
ATOM     77  O   UNL A   1      34.818  24.357  23.941  1.00  0.00    -0.461 OA
BRANCH  77  78
ATOM     78  C   UNL A   1      33.896  25.348  23.838  1.00  0.00     0.336 C 
ATOM     79  O   UNL A   1      34.237  26.524  23.691  1.00  0.00    -0.249 OA
BRANCH  78  80
ATOM     80  C   UNL A   1      32.336  24.940  24.054  1.00  0.00     0.164 C 
ATOM     81  C   UNL A   1      31.638  24.971  22.637  1.00  0.00     0.046 C 
ATOM     82  C   UNL A   1      31.866  26.160  24.866  1.00  0.00    -0.008 A 
ATOM     83  C   UNL A   1      31.702  26.293  21.893  1.00  0.00     0.008 C 
ATOM     84  C   UNL A   1      31.433  27.342  24.234  1.00  0.00    -0.042 A 
ATOM     85  C   UNL A   1      32.090  26.146  26.258  1.00  0.00     0.007 A 
ATOM     86  C   UNL A   1      31.179  27.441  22.746  1.00  0.00     0.036 C 
ATOM     87  C   UNL A   1      31.244  28.485  25.019  1.00  0.00     0.004 A 
ATOM     88  C   UNL A   1      31.897  27.289  27.017  1.00  0.00     0.000 A 
ATOM     89  C   UNL A   1      31.485  28.461  26.395  1.00  0.00     0.000 A 
BRANCH  80  90
ATOM     90  N   UNL A   1      31.625  23.750  24.699  1.00  0.00    -0.336 N 
ATOM     91  C   UNL A   1      31.881  22.592  25.362  1.00  0.00     0.224 C 
ATOM     92  H   UNL A   1      30.652  23.859  24.600  1.00  0.00     0.164 HD
ATOM     93  O   UNL A   1      31.107  22.265  26.268  1.00  0.00    -0.275 OA
BRANCH  91  94
ATOM     94  C   UNL A   1      32.863  21.594  24.819  1.00  0.00     0.082 C 
ATOM     95  C   UNL A   1      32.419  21.282  23.375  1.00  0.00     0.035 C 
ATOM     96  C   UNL A   1      33.109  20.374  25.718  1.00  0.00     0.035 C 
ATOM     97  C   UNL A   1      32.010  19.850  23.017  1.00  0.00     0.120 C 
ATOM     98  C   UNL A   1      32.448  19.086  25.251  1.00  0.00     0.120 C 
ATOM     99  N   UNL A   1      32.685  18.868  23.841  1.00  0.00    -0.342 N 
ATOM    100  C   UNL A   1      33.191  17.722  23.221  1.00  0.00     0.225 C 
ATOM    101  O   UNL A   1      32.849  17.424  22.086  1.00  0.00    -0.275 OA
BRANCH 100 102
ATOM    102  C   UNL A   1      34.223  16.836  23.845  1.00  0.00     0.079 C 
ATOM    103  C   UNL A   1      34.741  16.727  25.249  1.00  0.00     0.014 C 
ATOM    104  C   UNL A   1      33.763  15.708  24.738  1.00  0.00     0.014 C 
ENDBRANCH 100 102
ENDBRANCH  91  94
ENDBRANCH  80  90
ENDBRANCH  78  80
ENDBRANCH  77  78
ENDBRANCH  76  77
ENDBRANCH  75  76
ENDBRANCH  74  75
ENDBRANCH  73  74
ENDBRANCH  72  73
ENDBRANCH   1  72
TORSDOF 26
ENDMDL
MODEL 2
REMARK VINA RESULT:      -9.4      1.424      2.396
REMARK SMILES O=C(OCCOCCOCCOCCOC(=O)[C@]1(NC(=O)C2CCN(C(=O)C3CC3)CC2)CCCc2ccccc21)c1ccc(-c2c3nc(c(-c4ccc(S(=O)(=O)[O-])cc4)c4ccc([nH]4)c(-c4ccc(S(=O)(=O)[O-])cc4)c4nc(c(-c5ccc(S(=O)(=O)[O-])cc5)c5ccc2[nH]5)C=C4)C=C3)cc1
REMARK SMILES IDX 9 1 8 2 7 3 6 4 5 5 4 6 3 7 2 8 1 9 42 10 43 11 101 12 44 13
REMARK SMILES IDX 100 14 45 15 46 16 47 17 94 18 48 19 99 20 93 21 95 22 49 23
REMARK SMILES IDX 98 24 92 25 91 26 50 28 80 29 61 30 79 31 62 32 65 33 78 34
REMARK SMILES IDX 96 35 63 36 64 37 77 39 97 40 66 41 51 42 52 43 60 44 53 45
REMARK SMILES IDX 59 46 54 47 55 48 56 49 57 50 58 51 81 52 82 53 90 54 83 55
REMARK SMILES IDX 89 56 84 57 85 58 86 59 87 60 88 61 67 62 68 63 76 64 69 65
REMARK SMILES IDX 75 66 70 67 71 68 72 69 73 70 74 71 10 72 11 73 12 74 13 75
REMARK SMILES IDX 14 76 15 77 16 78 17 79 18 80 33 81 41 82 34 83 36 84 40 85
REMARK SMILES IDX 35 86 37 87 39 88 38 89 19 90 20 91 21 93 22 94 23 95 32 96
REMARK SMILES IDX 24 97 31 98 25 99 26 100 27 101 28 102 29 103 30 104
REMARK H PARENT 95 27 65 38 19 92
REMARK Flexibility Score: inf
ROOT
ATOM      1  O   UNL A   1      36.454  23.141  25.906  1.00  0.00    -0.377 OA
ENDROOT
BRANCH   1   2
ATOM      2  C   UNL A   1      36.806  21.782  25.783  1.00  0.00     0.188 C 
BRANCH   2   3
ATOM      3  C   UNL A   1      38.211  21.537  25.273  1.00  0.00     0.188 C 
BRANCH   3   4
ATOM      4  O   UNL A   1      39.134  22.446  25.862  1.00  0.00    -0.376 OA
BRANCH   4   5
ATOM      5  C   UNL A   1      40.174  21.889  26.671  1.00  0.00     0.202 C 
BRANCH   5   6
ATOM      6  C   UNL A   1      41.543  22.582  26.605  1.00  0.00     0.261 C 
BRANCH   6   7
ATOM      7  O   UNL A   1      41.500  24.006  26.798  1.00  0.00    -0.460 OA
BRANCH   7   8
ATOM      8  C   UNL A   1      42.452  24.841  27.289  1.00  0.00     0.338 C 
ATOM      9  O   UNL A   1      43.634  24.608  27.037  1.00  0.00    -0.246 OA
BRANCH   8  10
ATOM     10  C   UNL A   1      42.160  25.948  28.258  1.00  0.00     0.060 A 
ATOM     11  C   UNL A   1      43.063  26.950  28.591  1.00  0.00     0.016 A 
ATOM     12  C   UNL A   1      40.857  26.051  28.784  1.00  0.00     0.016 A 
ATOM     13  C   UNL A   1      42.704  28.063  29.297  1.00  0.00     0.010 A 
ATOM     14  C   UNL A   1      40.501  27.122  29.611  1.00  0.00     0.010 A 
ATOM     15  C   UNL A   1      41.441  28.122  29.859  1.00  0.00    -0.014 A 
BRANCH  15  16
ATOM     16  C   UNL A   1      41.383  29.091  30.952  1.00  0.00     0.031 A 
ATOM     17  C   UNL A   1      40.237  30.059  30.891  1.00  0.00     0.074 A 
ATOM     18  C   UNL A   1      42.052  28.801  32.082  1.00  0.00     0.049 A 
ATOM     19  N   UNL A   1      39.846  30.929  31.773  1.00  0.00    -0.248 NA
ATOM     20  C   UNL A   1      39.370  29.988  29.694  1.00  0.00     0.031 C 
ATOM     21  C   UNL A   1      42.962  27.658  32.253  1.00  0.00     0.029 A 
ATOM     22  N   UNL A   1      42.009  29.375  33.317  1.00  0.00    -0.354 N 
ATOM     23  C   UNL A   1      38.711  31.521  31.230  1.00  0.00     0.074 A 
ATOM     24  C   UNL A   1      38.454  30.904  29.955  1.00  0.00     0.031 C 
ATOM     25  C   UNL A   1      43.389  27.623  33.526  1.00  0.00     0.029 A 
ATOM     26  C   UNL A   1      42.845  28.776  34.228  1.00  0.00     0.049 A 
ATOM     27  H   UNL A   1      41.434  30.144  33.535  1.00  0.00     0.167 HD
ATOM     28  C   UNL A   1      37.971  32.516  31.761  1.00  0.00     0.031 A 
ATOM     29  C   UNL A   1      43.165  29.176  35.472  1.00  0.00     0.031 A 
ATOM     30  C   UNL A   1      38.318  33.114  33.017  1.00  0.00     0.049 A 
ATOM     31  C   UNL A   1      42.468  30.418  35.961  1.00  0.00     0.074 A 
ATOM     32  C   UNL A   1      37.807  34.244  33.619  1.00  0.00     0.029 A 
ATOM     33  N   UNL A   1      39.297  32.604  33.863  1.00  0.00    -0.354 N 
ATOM     34  N   UNL A   1      41.504  31.100  35.378  1.00  0.00    -0.248 NA
ATOM     35  C   UNL A   1      42.899  30.960  37.250  1.00  0.00     0.031 C 
ATOM     36  C   UNL A   1      38.523  34.447  34.806  1.00  0.00     0.029 A 
ATOM     37  C   UNL A   1      39.426  33.404  34.977  1.00  0.00     0.049 A 
ATOM     38  H   UNL A   1      39.823  31.788  33.692  1.00  0.00     0.167 HD
ATOM     39  C   UNL A   1      41.208  32.152  36.230  1.00  0.00     0.074 A 
ATOM     40  C   UNL A   1      42.073  31.987  37.388  1.00  0.00     0.031 C 
ATOM     41  C   UNL A   1      40.322  33.170  36.083  1.00  0.00     0.031 A 
BRANCH  28  42
ATOM     42  C   UNL A   1      36.854  33.064  30.918  1.00  0.00    -0.014 A 
ATOM     43  C   UNL A   1      37.083  34.026  29.916  1.00  0.00     0.010 A 
ATOM     44  C   UNL A   1      35.534  32.657  31.183  1.00  0.00     0.010 A 
ATOM     45  C   UNL A   1      36.011  34.583  29.210  1.00  0.00     0.020 A 
ATOM     46  C   UNL A   1      34.461  33.195  30.465  1.00  0.00     0.020 A 
ATOM     47  C   UNL A   1      34.706  34.163  29.489  1.00  0.00     0.054 A 
BRANCH  47  48
ATOM     48  S   UNL A   1      33.336  34.876  28.537  1.00  0.00     0.124 S 
ATOM     49  O   UNL A   1      32.684  35.725  29.531  1.00  0.00    -0.237 OA
ATOM     50  O   UNL A   1      34.032  35.586  27.465  1.00  0.00    -0.237 OA
ATOM     51  O   UNL A   1      32.565  33.712  28.109  1.00  0.00    -0.744 OA
ENDBRANCH  47  48
ENDBRANCH  28  42
BRANCH  29  52
ATOM     52  C   UNL A   1      44.258  28.508  36.237  1.00  0.00    -0.014 A 
ATOM     53  C   UNL A   1      44.007  27.471  37.151  1.00  0.00     0.010 A 
ATOM     54  C   UNL A   1      45.589  28.947  36.071  1.00  0.00     0.010 A 
ATOM     55  C   UNL A   1      45.051  26.917  37.906  1.00  0.00     0.020 A 
ATOM     56  C   UNL A   1      46.639  28.375  36.795  1.00  0.00     0.020 A 
ATOM     57  C   UNL A   1      46.361  27.377  37.726  1.00  0.00     0.054 A 
BRANCH  57  58
ATOM     58  S   UNL A   1      47.699  26.657  38.718  1.00  0.00     0.124 S 
ATOM     59  O   UNL A   1      48.880  27.295  38.143  1.00  0.00    -0.237 OA
ATOM     60  O   UNL A   1      47.348  27.077  40.073  1.00  0.00    -0.237 OA
ATOM     61  O   UNL A   1      47.579  25.223  38.467  1.00  0.00    -0.744 OA
ENDBRANCH  57  58
ENDBRANCH  29  52
BRANCH  41  62
ATOM     62  C   UNL A   1      40.244  34.142  37.220  1.00  0.00    -0.014 A 
ATOM     63  C   UNL A   1      39.315  33.967  38.259  1.00  0.00     0.010 A 
ATOM     64  C   UNL A   1      41.152  35.214  37.262  1.00  0.00     0.010 A 
ATOM     65  C   UNL A   1      39.264  34.886  39.304  1.00  0.00     0.020 A 
ATOM     66  C   UNL A   1      41.128  36.111  38.326  1.00  0.00     0.020 A 
ATOM     67  C   UNL A   1      40.169  35.951  39.329  1.00  0.00     0.054 A 
BRANCH  67  68
ATOM     68  S   UNL A   1      40.100  37.117  40.712  1.00  0.00     0.124 S 
ATOM     69  O   UNL A   1      38.949  36.625  41.462  1.00  0.00    -0.237 OA
ATOM     70  O   UNL A   1      41.399  36.927  41.354  1.00  0.00    -0.237 OA
ATOM     71  O   UNL A   1      39.917  38.413  40.062  1.00  0.00    -0.744 OA
ENDBRANCH  67  68
ENDBRANCH  41  62
ENDBRANCH  15  16
ENDBRANCH   8  10
ENDBRANCH   7   8
ENDBRANCH   6   7
ENDBRANCH   5   6
ENDBRANCH   4   5
ENDBRANCH   3   4
ENDBRANCH   2   3
ENDBRANCH   1   2
BRANCH   1  72
ATOM     72  C   UNL A   1      35.451  23.718  25.084  1.00  0.00     0.188 C 
BRANCH  72  73
ATOM     73  C   UNL A   1      35.598  23.564  23.579  1.00  0.00     0.188 C 
BRANCH  73  74
ATOM     74  O   UNL A   1      34.527  24.132  22.826  1.00  0.00    -0.376 OA
BRANCH  74  75
ATOM     75  C   UNL A   1      34.230  25.491  23.121  1.00  0.00     0.202 C 
BRANCH  75  76
ATOM     76  C   UNL A   1      33.548  26.244  21.954  1.00  0.00     0.261 C 
BRANCH  76  77
ATOM     77  O   UNL A   1      32.201  26.742  22.204  1.00  0.00    -0.461 OA
BRANCH  77  78
ATOM     78  C   UNL A   1      32.140  27.653  23.209  1.00  0.00     0.336 C 
ATOM     79  O   UNL A   1      33.072  28.431  23.422  1.00  0.00    -0.249 OA
BRANCH  78  80
ATOM     80  C   UNL A   1      30.853  27.582  24.201  1.00  0.00     0.164 C 
ATOM     81  C   UNL A   1      29.636  28.247  23.445  1.00  0.00     0.046 C 
ATOM     82  C   UNL A   1      31.333  28.540  25.307  1.00  0.00    -0.008 A 
ATOM     83  C   UNL A   1      29.834  29.684  22.999  1.00  0.00     0.008 C 
ATOM     84  C   UNL A   1      31.139  29.931  25.210  1.00  0.00    -0.042 A 
ATOM     85  C   UNL A   1      32.170  28.011  26.311  1.00  0.00     0.007 A 
ATOM     86  C   UNL A   1      30.265  30.575  24.157  1.00  0.00     0.036 C 
ATOM     87  C   UNL A   1      31.800  30.759  26.125  1.00  0.00     0.004 A 
ATOM     88  C   UNL A   1      32.815  28.850  27.207  1.00  0.00     0.000 A 
ATOM     89  C   UNL A   1      32.638  30.224  27.106  1.00  0.00     0.000 A 
BRANCH  80  90
ATOM     90  N   UNL A   1      30.145  26.452  24.950  1.00  0.00    -0.336 N 
ATOM     91  C   UNL A   1      30.395  25.417  25.794  1.00  0.00     0.224 C 
ATOM     92  H   UNL A   1      29.181  26.486  24.754  1.00  0.00     0.164 HD
ATOM     93  O   UNL A   1      29.557  25.173  26.667  1.00  0.00    -0.275 OA
BRANCH  91  94
ATOM     94  C   UNL A   1      31.472  24.417  25.487  1.00  0.00     0.082 C 
ATOM     95  C   UNL A   1      31.379  24.122  23.976  1.00  0.00     0.035 C 
ATOM     96  C   UNL A   1      31.491  23.186  26.405  1.00  0.00     0.035 C 
ATOM     97  C   UNL A   1      31.059  22.697  23.515  1.00  0.00     0.120 C 
ATOM     98  C   UNL A   1      30.952  21.908  25.781  1.00  0.00     0.120 C 
ATOM     99  N   UNL A   1      31.514  21.701  24.465  1.00  0.00    -0.342 N 
ATOM    100  C   UNL A   1      32.145  20.557  23.969  1.00  0.00     0.225 C 
ATOM    101  O   UNL A   1      32.080  20.272  22.782  1.00  0.00    -0.275 OA
BRANCH 100 102
ATOM    102  C   UNL A   1      32.996  19.657  24.810  1.00  0.00     0.079 C 
ATOM    103  C   UNL A   1      34.290  18.949  24.536  1.00  0.00     0.014 C 
ATOM    104  C   UNL A   1      34.291  20.199  25.369  1.00  0.00     0.014 C 
ENDBRANCH 100 102
ENDBRANCH  91  94
ENDBRANCH  80  90
ENDBRANCH  78  80
ENDBRANCH  77  78
ENDBRANCH  76  77
ENDBRANCH  75  76
ENDBRANCH  74  75
ENDBRANCH  73  74
ENDBRANCH  72  73
ENDBRANCH   1  72
TORSDOF 26
ENDMDL
MODEL 3
REMARK VINA RESULT:      -9.1      6.253     11.375
REMARK SMILES O=C(OCCOCCOCCOCCOC(=O)[C@]1(NC(=O)C2CCN(C(=O)C3CC3)CC2)CCCc2ccccc21)c1ccc(-c2c3nc(c(-c4ccc(S(=O)(=O)[O-])cc4)c4ccc([nH]4)c(-c4ccc(S(=O)(=O)[O-])cc4)c4nc(c(-c5ccc(S(=O)(=O)[O-])cc5)c5ccc2[nH]5)C=C4)C=C3)cc1
REMARK SMILES IDX 9 1 8 2 7 3 6 4 5 5 4 6 3 7 2 8 1 9 42 10 43 11 101 12 44 13
REMARK SMILES IDX 100 14 45 15 46 16 47 17 94 18 48 19 99 20 93 21 95 22 49 23
REMARK SMILES IDX 98 24 92 25 91 26 50 28 80 29 61 30 79 31 62 32 65 33 78 34
REMARK SMILES IDX 96 35 63 36 64 37 77 39 97 40 66 41 51 42 52 43 60 44 53 45
REMARK SMILES IDX 59 46 54 47 55 48 56 49 57 50 58 51 81 52 82 53 90 54 83 55
REMARK SMILES IDX 89 56 84 57 85 58 86 59 87 60 88 61 67 62 68 63 76 64 69 65
REMARK SMILES IDX 75 66 70 67 71 68 72 69 73 70 74 71 10 72 11 73 12 74 13 75
REMARK SMILES IDX 14 76 15 77 16 78 17 79 18 80 33 81 41 82 34 83 36 84 40 85
REMARK SMILES IDX 35 86 37 87 39 88 38 89 19 90 20 91 21 93 22 94 23 95 32 96
REMARK SMILES IDX 24 97 31 98 25 99 26 100 27 101 28 102 29 103 30 104
REMARK H PARENT 95 27 65 38 19 92
REMARK Flexibility Score: inf
ROOT
ATOM      1  O   UNL A   1      35.428  31.219  28.659  1.00  0.00    -0.377 OA
ENDROOT
BRANCH   1   2
ATOM      2  C   UNL A   1      35.828  31.831  29.863  1.00  0.00     0.188 C 
BRANCH   2   3
ATOM      3  C   UNL A   1      35.129  33.139  30.170  1.00  0.00     0.188 C 
BRANCH   3   4
ATOM      4  O   UNL A   1      34.311  33.022  31.329  1.00  0.00    -0.376 OA
BRANCH   4   5
ATOM      5  C   UNL A   1      34.912  32.462  32.500  1.00  0.00     0.202 C 
BRANCH   5   6
ATOM      6  C   UNL A   1      34.951  33.355  33.749  1.00  0.00     0.261 C 
BRANCH   6   7
ATOM      7  O   UNL A   1      36.272  33.725  34.176  1.00  0.00    -0.460 OA
BRANCH   7   8
ATOM      8  C   UNL A   1      37.348  32.939  34.439  1.00  0.00     0.338 C 
ATOM      9  O   UNL A   1      37.253  32.075  35.309  1.00  0.00    -0.246 OA
BRANCH   8  10
ATOM     10  C   UNL A   1      38.704  33.166  33.841  1.00  0.00     0.060 A 
ATOM     11  C   UNL A   1      38.935  33.927  32.701  1.00  0.00     0.016 A 
ATOM     12  C   UNL A   1      39.831  32.677  34.531  1.00  0.00     0.016 A 
ATOM     13  C   UNL A   1      40.188  34.303  32.305  1.00  0.00     0.010 A 
ATOM     14  C   UNL A   1      41.125  32.949  34.074  1.00  0.00     0.010 A 
ATOM     15  C   UNL A   1      41.286  33.765  32.954  1.00  0.00    -0.014 A 
BRANCH  15  16
ATOM     16  C   UNL A   1      42.493  33.858  32.135  1.00  0.00     0.031 A 
ATOM     17  C   UNL A   1      42.633  32.802  31.077  1.00  0.00     0.074 A 
ATOM     18  C   UNL A   1      43.133  35.040  32.095  1.00  0.00     0.049 A 
ATOM     19  N   UNL A   1      43.509  32.704  30.122  1.00  0.00    -0.248 NA
ATOM     20  C   UNL A   1      41.599  31.742  31.054  1.00  0.00     0.031 C 
ATOM     21  C   UNL A   1      42.802  36.206  32.928  1.00  0.00     0.029 A 
ATOM     22  N   UNL A   1      44.122  35.491  31.275  1.00  0.00    -0.354 N 
ATOM     23  C   UNL A   1      43.148  31.568  29.405  1.00  0.00     0.074 A 
ATOM     24  C   UNL A   1      41.964  31.016  30.012  1.00  0.00     0.031 C 
ATOM     25  C   UNL A   1      43.583  37.238  32.570  1.00  0.00     0.029 A 
ATOM     26  C   UNL A   1      44.510  36.782  31.544  1.00  0.00     0.049 A 
ATOM     27  H   UNL A   1      44.521  34.946  30.558  1.00  0.00     0.167 HD
ATOM     28  C   UNL A   1      43.783  31.032  28.342  1.00  0.00     0.031 A 
ATOM     29  C   UNL A   1      45.548  37.474  31.042  1.00  0.00     0.031 A 
ATOM     30  C   UNL A   1      44.987  31.614  27.824  1.00  0.00     0.049 A 
ATOM     31  C   UNL A   1      46.367  36.764  29.997  1.00  0.00     0.074 A 
ATOM     32  C   UNL A   1      45.865  31.116  26.884  1.00  0.00     0.029 A 
ATOM     33  N   UNL A   1      45.477  32.850  28.231  1.00  0.00    -0.354 N 
ATOM     34  N   UNL A   1      46.135  35.600  29.426  1.00  0.00    -0.248 NA
ATOM     35  C   UNL A   1      47.584  37.433  29.537  1.00  0.00     0.031 C 
ATOM     36  C   UNL A   1      46.919  32.030  26.769  1.00  0.00     0.029 A 
ATOM     37  C   UNL A   1      46.658  33.129  27.580  1.00  0.00     0.049 A 
ATOM     38  H   UNL A   1      45.043  33.441  28.889  1.00  0.00     0.167 HD
ATOM     39  C   UNL A   1      47.176  35.396  28.535  1.00  0.00     0.074 A 
ATOM     40  C   UNL A   1      48.016  36.581  28.618  1.00  0.00     0.031 C 
ATOM     41  C   UNL A   1      47.437  34.335  27.729  1.00  0.00     0.031 A 
BRANCH  28  42
ATOM     42  C   UNL A   1      43.257  29.727  27.816  1.00  0.00    -0.014 A 
ATOM     43  C   UNL A   1      42.069  29.654  27.064  1.00  0.00     0.010 A 
ATOM     44  C   UNL A   1      43.931  28.536  28.141  1.00  0.00     0.010 A 
ATOM     45  C   UNL A   1      41.557  28.415  26.666  1.00  0.00     0.020 A 
ATOM     46  C   UNL A   1      43.435  27.297  27.727  1.00  0.00     0.020 A 
ATOM     47  C   UNL A   1      42.244  27.243  27.000  1.00  0.00     0.054 A 
BRANCH  47  48
ATOM     48  S   UNL A   1      41.577  25.650  26.443  1.00  0.00     0.124 S 
ATOM     49  O   UNL A   1      41.488  25.846  24.997  1.00  0.00    -0.237 OA
ATOM     50  O   UNL A   1      42.601  24.706  26.885  1.00  0.00    -0.237 OA
ATOM     51  O   UNL A   1      40.297  25.546  27.137  1.00  0.00    -0.744 OA
ENDBRANCH  47  48
ENDBRANCH  28  42
BRANCH  29  52
ATOM     52  C   UNL A   1      45.937  38.797  31.614  1.00  0.00    -0.014 A 
ATOM     53  C   UNL A   1      46.809  38.912  32.710  1.00  0.00     0.010 A 
ATOM     54  C   UNL A   1      45.389  39.977  31.068  1.00  0.00     0.010 A 
ATOM     55  C   UNL A   1      47.094  40.168  33.265  1.00  0.00     0.020 A 
ATOM     56  C   UNL A   1      45.696  41.234  31.595  1.00  0.00     0.020 A 
ATOM     57  C   UNL A   1      46.530  41.321  32.707  1.00  0.00     0.054 A 
BRANCH  57  58
ATOM     58  S   UNL A   1      46.900  42.937  33.446  1.00  0.00     0.124 S 
ATOM     59  O   UNL A   1      45.889  43.790  32.829  1.00  0.00    -0.237 OA
ATOM     60  O   UNL A   1      46.726  42.679  34.874  1.00  0.00    -0.237 OA
ATOM     61  O   UNL A   1      48.276  43.197  33.030  1.00  0.00    -0.744 OA
ENDBRANCH  57  58
ENDBRANCH  29  52
BRANCH  41  62
ATOM     62  C   UNL A   1      48.658  34.449  26.868  1.00  0.00    -0.014 A 
ATOM     63  C   UNL A   1      49.865  33.834  27.238  1.00  0.00     0.010 A 
ATOM     64  C   UNL A   1      48.568  35.144  25.649  1.00  0.00     0.010 A 
ATOM     65  C   UNL A   1      50.985  33.957  26.419  1.00  0.00     0.020 A 
ATOM     66  C   UNL A   1      49.675  35.233  24.811  1.00  0.00     0.020 A 
ATOM     67  C   UNL A   1      50.881  34.656  25.213  1.00  0.00     0.054 A 
BRANCH  67  68
ATOM     68  S   UNL A   1      52.344  34.778  24.153  1.00  0.00     0.124 S 
ATOM     69  O   UNL A   1      53.427  34.748  25.130  1.00  0.00    -0.237 OA
ATOM     70  O   UNL A   1      52.224  33.593  23.307  1.00  0.00    -0.237 OA
ATOM     71  O   UNL A   1      52.162  36.052  23.460  1.00  0.00    -0.744 OA
ENDBRANCH  67  68
ENDBRANCH  41  62
ENDBRANCH  15  16
ENDBRANCH   8  10
ENDBRANCH   7   8
ENDBRANCH   6   7
ENDBRANCH   5   6
ENDBRANCH   4   5
ENDBRANCH   3   4
ENDBRANCH   2   3
ENDBRANCH   1   2
BRANCH   1  72
ATOM     72  C   UNL A   1      34.160  31.490  28.083  1.00  0.00     0.188 C 
BRANCH  72  73
ATOM     73  C   UNL A   1      33.645  30.527  27.026  1.00  0.00     0.188 C 
BRANCH  73  74
ATOM     74  O   UNL A   1      32.229  30.551  26.853  1.00  0.00    -0.376 OA
BRANCH  74  75
ATOM     75  C   UNL A   1      31.535  29.421  27.368  1.00  0.00     0.202 C 
BRANCH  75  76
ATOM     76  C   UNL A   1      32.421  28.159  27.503  1.00  0.00     0.261 C 
BRANCH  76  77
ATOM     77  O   UNL A   1      32.076  27.031  26.646  1.00  0.00    -0.461 OA
BRANCH  77  78
ATOM     78  C   UNL A   1      33.086  26.649  25.823  1.00  0.00     0.336 C 
ATOM     79  O   UNL A   1      34.142  27.284  25.772  1.00  0.00    -0.249 OA
BRANCH  78  80
ATOM     80  C   UNL A   1      32.794  25.409  24.812  1.00  0.00     0.164 C 
ATOM     81  C   UNL A   1      31.341  24.874  25.125  1.00  0.00     0.046 C 
ATOM     82  C   UNL A   1      33.822  24.397  25.350  1.00  0.00    -0.008 A 
ATOM     83  C   UNL A   1      31.094  24.415  26.551  1.00  0.00     0.008 C 
ATOM     84  C   UNL A   1      33.519  23.544  26.429  1.00  0.00    -0.042 A 
ATOM     85  C   UNL A   1      35.149  24.501  24.883  1.00  0.00     0.007 A 
ATOM     86  C   UNL A   1      32.125  23.384  26.993  1.00  0.00     0.036 C 
ATOM     87  C   UNL A   1      34.563  22.821  27.018  1.00  0.00     0.004 A 
ATOM     88  C   UNL A   1      36.168  23.776  25.481  1.00  0.00     0.000 A 
ATOM     89  C   UNL A   1      35.875  22.945  26.554  1.00  0.00     0.000 A 
BRANCH  80  90
ATOM     90  N   UNL A   1      32.843  25.238  23.293  1.00  0.00    -0.336 N 
ATOM     91  C   UNL A   1      32.940  25.958  22.145  1.00  0.00     0.224 C 
ATOM     92  H   UNL A   1      32.783  24.280  23.071  1.00  0.00     0.164 HD
ATOM     93  O   UNL A   1      33.598  25.476  21.218  1.00  0.00    -0.275 OA
BRANCH  91  94
ATOM     94  C   UNL A   1      32.036  27.130  21.893  1.00  0.00     0.082 C 
ATOM     95  C   UNL A   1      32.701  28.350  22.564  1.00  0.00     0.035 C 
ATOM     96  C   UNL A   1      30.561  26.897  22.251  1.00  0.00     0.035 C 
ATOM     97  C   UNL A   1      31.964  29.067  23.699  1.00  0.00     0.120 C 
ATOM     98  C   UNL A   1      30.093  27.570  23.532  1.00  0.00     0.120 C 
ATOM     99  N   UNL A   1      30.525  28.950  23.575  1.00  0.00    -0.342 N 
ATOM    100  C   UNL A   1      29.748  30.087  23.810  1.00  0.00     0.225 C 
ATOM    101  O   UNL A   1      30.228  31.069  24.359  1.00  0.00    -0.275 OA
BRANCH 100 102
ATOM    102  C   UNL A   1      28.330  30.224  23.352  1.00  0.00     0.079 C 
ATOM    103  C   UNL A   1      27.550  31.393  22.826  1.00  0.00     0.014 C 
ATOM    104  C   UNL A   1      28.057  30.350  21.871  1.00  0.00     0.014 C 
ENDBRANCH 100 102
ENDBRANCH  91  94
ENDBRANCH  80  90
ENDBRANCH  78  80
ENDBRANCH  77  78
ENDBRANCH  76  77
ENDBRANCH  75  76
ENDBRANCH  74  75
ENDBRANCH  73  74
ENDBRANCH  72  73
ENDBRANCH   1  72
TORSDOF 26
ENDMDL
