MODEL 1
REMARK VINA RESULT:      -9.9      0.000      0.000
REMARK SMILES O=C(OCCOCCOCCOCCOC(=O)c1ccc(-c2c3nc(c(-c4ccc(S(=O)(=O)[O-])cc4)c4ccc([nH]4)c(-c4ccc(S(=O)(=O)[O-])cc4)c4nc(c(-c5ccc(S(=O)(=O)[O-])cc5)c5ccc2[nH]5)C=C4)C=C3)cc1)C1=Cc2cc(Cl)cc(Cl)c2O[C@@H]1C(F)(F)F
REMARK SMILES IDX 10 1 9 2 8 3 7 4 6 5 5 6 4 7 3 8 2 9 1 10 78 11 79 12 89 13
REMARK SMILES IDX 80 14 88 15 81 16 87 17 82 18 85 19 83 20 84 21 86 22 90 23
REMARK SMILES IDX 91 24 92 25 93 26 11 27 12 28 13 29 14 30 15 31 16 32 17 33
REMARK SMILES IDX 18 34 19 35 77 36 20 37 76 38 21 39 22 40 23 41 70 42 24 43
REMARK SMILES IDX 75 44 69 45 71 46 25 47 74 48 68 49 67 50 26 52 56 53 37 54
REMARK SMILES IDX 55 55 38 56 41 57 54 58 72 59 39 60 40 61 53 63 73 64 42 65
REMARK SMILES IDX 27 66 28 67 36 68 29 69 35 70 30 71 31 72 32 73 33 74 34 75
REMARK SMILES IDX 57 76 58 77 66 78 59 79 65 80 60 81 61 82 62 83 63 84 64 85
REMARK SMILES IDX 43 86 44 87 52 88 45 89 51 90 46 91 47 92 48 93 49 94 50 95
REMARK H PARENT 71 51 41 62
REMARK Flexibility Score: inf
ROOT
ATOM      1  C   UNL A   1      34.620  32.601  28.642  1.00  0.00     0.188 C 
ENDROOT
BRANCH   1   2
ATOM      2  O   UNL A   1      34.027  31.385  28.249  1.00  0.00    -0.377 OA
BRANCH   2   3
ATOM      3  C   UNL A   1      34.836  30.675  27.345  1.00  0.00     0.188 C 
BRANCH   3   4
ATOM      4  C   UNL A   1      34.771  29.150  27.489  1.00  0.00     0.188 C 
BRANCH   4   5
ATOM      5  O   UNL A   1      33.644  28.316  27.046  1.00  0.00    -0.376 OA
BRANCH   5   6
ATOM      6  C   UNL A   1      33.502  27.074  25.959  1.00  0.00     0.202 C 
BRANCH   6   7
ATOM      7  C   UNL A   1      34.589  25.180  25.964  1.00  0.00     0.261 C 
BRANCH   7   8
ATOM      8  O   UNL A   1      34.194  23.914  25.233  1.00  0.00    -0.460 OA
BRANCH   8   9
ATOM      9  C   UNL A   1      33.773  22.956  26.066  1.00  0.00     0.338 C 
ATOM     10  O   UNL A   1      34.430  22.271  26.811  1.00  0.00    -0.246 OA
BRANCH   9  11
ATOM     11  C   UNL A   1      32.493  22.706  25.420  1.00  0.00     0.087 C 
ATOM     12  C   UNL A   1      31.558  23.835  25.471  1.00  0.00     0.027 C 
ATOM     13  C   UNL A   1      33.316  22.038  23.819  1.00  0.00     0.316 C 
ATOM     14  C   UNL A   1      31.211  24.930  24.082  1.00  0.00     0.020 A 
ATOM     15  O   UNL A   1      33.079  23.277  22.332  1.00  0.00    -0.474 OA
ATOM     16  C   UNL A   1      30.368  25.992  24.268  1.00  0.00     0.032 A 
ATOM     17  C   UNL A   1      32.017  24.765  22.555  1.00  0.00     0.146 A 
ATOM     18  C   UNL A   1      30.233  26.853  23.164  1.00  0.00     0.043 A 
ATOM     19  C   UNL A   1      31.864  25.704  21.563  1.00  0.00     0.085 A 
ATOM     20  Cl  UNL A   1      29.153  28.198  23.362  1.00  0.00    -0.084 Cl
ATOM     21  C   UNL A   1      30.937  26.726  21.896  1.00  0.00     0.045 A 
ATOM     22  Cl  UNL A   1      32.747  25.784  20.110  1.00  0.00    -0.080 Cl
BRANCH  13  23
ATOM     23  C   UNL A   1      32.764  20.484  24.093  1.00  0.00     0.430 C 
ATOM     24  F   UNL A   1      31.795  20.300  25.009  1.00  0.00    -0.167 F 
ATOM     25  F   UNL A   1      32.187  20.066  22.922  1.00  0.00    -0.167 F 
ATOM     26  F   UNL A   1      33.731  19.562  24.330  1.00  0.00    -0.167 F 
ENDBRANCH  13  23
ENDBRANCH   9  11
ENDBRANCH   8   9
ENDBRANCH   7   8
ENDBRANCH   6   7
ENDBRANCH   5   6
ENDBRANCH   4   5
ENDBRANCH   3   4
ENDBRANCH   2   3
ENDBRANCH   1   2
BRANCH   1  27
ATOM     27  C   UNL A   1      34.012  33.878  28.055  1.00  0.00     0.188 C 
BRANCH  27  28
ATOM     28  O   UNL A   1      34.499  35.174  28.359  1.00  0.00    -0.376 OA
BRANCH  28  29
ATOM     29  C   UNL A   1      33.620  36.264  28.564  1.00  0.00     0.202 C 
BRANCH  29  30
ATOM     30  C   UNL A   1      32.652  36.326  29.758  1.00  0.00     0.261 C 
BRANCH  30  31
ATOM     31  O   UNL A   1      32.638  35.197  30.640  1.00  0.00    -0.460 OA
BRANCH  31  32
ATOM     32  C   UNL A   1      33.190  35.405  31.856  1.00  0.00     0.338 C 
ATOM     33  O   UNL A   1      32.700  36.030  32.781  1.00  0.00    -0.246 OA
BRANCH  32  34
ATOM     34  C   UNL A   1      34.419  34.591  31.991  1.00  0.00     0.060 A 
ATOM     35  C   UNL A   1      34.356  33.422  32.766  1.00  0.00     0.016 A 
ATOM     36  C   UNL A   1      35.621  34.968  31.389  1.00  0.00     0.016 A 
ATOM     37  C   UNL A   1      35.495  32.654  32.983  1.00  0.00     0.010 A 
ATOM     38  C   UNL A   1      36.776  34.225  31.647  1.00  0.00     0.010 A 
ATOM     39  C   UNL A   1      36.723  33.094  32.483  1.00  0.00    -0.014 A 
BRANCH  39  40
ATOM     40  C   UNL A   1      37.969  32.522  33.044  1.00  0.00     0.031 A 
ATOM     41  C   UNL A   1      38.671  31.454  32.248  1.00  0.00     0.074 A 
ATOM     42  C   UNL A   1      38.488  32.964  34.202  1.00  0.00     0.049 A 
ATOM     43  N   UNL A   1      39.737  30.762  32.551  1.00  0.00    -0.248 NA
ATOM     44  C   UNL A   1      38.090  31.122  30.935  1.00  0.00     0.031 C 
ATOM     45  C   UNL A   1      37.931  34.038  35.022  1.00  0.00     0.029 A 
ATOM     46  N   UNL A   1      39.600  32.554  34.892  1.00  0.00    -0.354 N 
ATOM     47  C   UNL A   1      39.940  29.899  31.480  1.00  0.00     0.074 A 
ATOM     48  C   UNL A   1      38.875  30.135  30.532  1.00  0.00     0.031 C 
ATOM     49  C   UNL A   1      38.700  34.195  36.114  1.00  0.00     0.029 A 
ATOM     50  C   UNL A   1      39.772  33.201  36.093  1.00  0.00     0.049 A 
ATOM     51  H   UNL A   1      40.217  31.862  34.560  1.00  0.00     0.167 HD
ATOM     52  C   UNL A   1      40.927  28.989  31.306  1.00  0.00     0.031 A 
ATOM     53  C   UNL A   1      40.671  32.990  37.075  1.00  0.00     0.031 A 
ATOM     54  C   UNL A   1      41.973  28.752  32.265  1.00  0.00     0.049 A 
ATOM     55  C   UNL A   1      41.706  31.906  36.897  1.00  0.00     0.074 A 
ATOM     56  C   UNL A   1      43.029  27.863  32.181  1.00  0.00     0.029 A 
ATOM     57  N   UNL A   1      42.089  29.399  33.486  1.00  0.00    -0.354 N 
ATOM     58  N   UNL A   1      41.900  31.109  35.873  1.00  0.00    -0.248 NA
ATOM     59  C   UNL A   1      42.649  31.700  38.005  1.00  0.00     0.031 C 
ATOM     60  C   UNL A   1      43.736  27.914  33.384  1.00  0.00     0.029 A 
ATOM     61  C   UNL A   1      43.178  28.902  34.181  1.00  0.00     0.049 A 
ATOM     62  H   UNL A   1      41.486  30.106  33.811  1.00  0.00     0.167 HD
ATOM     63  C   UNL A   1      43.010  30.334  36.199  1.00  0.00     0.074 A 
ATOM     64  C   UNL A   1      43.453  30.771  37.507  1.00  0.00     0.031 C 
ATOM     65  C   UNL A   1      43.610  29.352  35.480  1.00  0.00     0.031 A 
BRANCH  52  66
ATOM     66  C   UNL A   1      40.896  28.148  30.056  1.00  0.00    -0.014 A 
ATOM     67  C   UNL A   1      41.814  28.348  29.010  1.00  0.00     0.010 A 
ATOM     68  C   UNL A   1      39.964  27.097  29.955  1.00  0.00     0.010 A 
ATOM     69  C   UNL A   1      41.784  27.531  27.876  1.00  0.00     0.020 A 
ATOM     70  C   UNL A   1      39.953  26.256  28.839  1.00  0.00     0.020 A 
ATOM     71  C   UNL A   1      40.858  26.486  27.801  1.00  0.00     0.054 A 
BRANCH  71  72
ATOM     72  S   UNL A   1      40.880  25.408  26.342  1.00  0.00     0.124 S 
ATOM     73  O   UNL A   1      41.203  26.352  25.275  1.00  0.00    -0.237 OA
ATOM     74  O   UNL A   1      41.932  24.450  26.673  1.00  0.00    -0.237 OA
ATOM     75  O   UNL A   1      39.529  24.856  26.296  1.00  0.00    -0.744 OA
ENDBRANCH  71  72
ENDBRANCH  52  66
BRANCH  53  76
ATOM     76  C   UNL A   1      40.616  33.791  38.330  1.00  0.00    -0.014 A 
ATOM     77  C   UNL A   1      39.825  33.379  39.417  1.00  0.00     0.010 A 
ATOM     78  C   UNL A   1      41.344  34.991  38.438  1.00  0.00     0.010 A 
ATOM     79  C   UNL A   1      39.741  34.161  40.572  1.00  0.00     0.020 A 
ATOM     80  C   UNL A   1      41.294  35.757  39.605  1.00  0.00     0.020 A 
ATOM     81  C   UNL A   1      40.482  35.343  40.661  1.00  0.00     0.054 A 
BRANCH  81  82
ATOM     82  S   UNL A   1      40.390  36.318  42.188  1.00  0.00     0.124 S 
ATOM     83  O   UNL A   1      38.963  36.282  42.488  1.00  0.00    -0.237 OA
ATOM     84  O   UNL A   1      41.248  35.557  43.094  1.00  0.00    -0.237 OA
ATOM     85  O   UNL A   1      40.916  37.622  41.794  1.00  0.00    -0.744 OA
ENDBRANCH  81  82
ENDBRANCH  53  76
BRANCH  65  86
ATOM     86  C   UNL A   1      44.851  28.719  36.060  1.00  0.00    -0.014 A 
ATOM     87  C   UNL A   1      46.131  29.258  35.837  1.00  0.00     0.010 A 
ATOM     88  C   UNL A   1      44.720  27.594  36.896  1.00  0.00     0.010 A 
ATOM     89  C   UNL A   1      47.258  28.661  36.410  1.00  0.00     0.020 A 
ATOM     90  C   UNL A   1      45.839  27.018  37.502  1.00  0.00     0.020 A 
ATOM     91  C   UNL A   1      47.104  27.547  37.242  1.00  0.00     0.054 A 
BRANCH  91  92
ATOM     92  S   UNL A   1      48.578  26.822  38.009  1.00  0.00     0.124 S 
ATOM     93  O   UNL A   1      48.053  25.577  38.562  1.00  0.00    -0.237 OA
ATOM     94  O   UNL A   1      49.485  26.672  36.872  1.00  0.00    -0.237 OA
ATOM     95  O   UNL A   1      48.984  27.820  38.996  1.00  0.00    -0.744 OA
ENDBRANCH  91  92
ENDBRANCH  65  86
ENDBRANCH  39  40
ENDBRANCH  32  34
ENDBRANCH  31  32
ENDBRANCH  30  31
ENDBRANCH  29  30
ENDBRANCH  28  29
ENDBRANCH  27  28
ENDBRANCH   1  27
TORSDOF 24
ENDMDL
MODEL 2
REMARK VINA RESULT:      -9.8      1.531      8.014
REMARK SMILES O=C(OCCOCCOCCOCCOC(=O)c1ccc(-c2c3nc(c(-c4ccc(S(=O)(=O)[O-])cc4)c4ccc([nH]4)c(-c4ccc(S(=O)(=O)[O-])cc4)c4nc(c(-c5ccc(S(=O)(=O)[O-])cc5)c5ccc2[nH]5)C=C4)C=C3)cc1)C1=Cc2cc(Cl)cc(Cl)c2O[C@@H]1C(F)(F)F
REMARK SMILES IDX 10 1 9 2 8 3 7 4 6 5 5 6 4 7 3 8 2 9 1 10 78 11 79 12 89 13
REMARK SMILES IDX 80 14 88 15 81 16 87 17 82 18 85 19 83 20 84 21 86 22 90 23
REMARK SMILES IDX 91 24 92 25 93 26 11 27 12 28 13 29 14 30 15 31 16 32 17 33
REMARK SMILES IDX 18 34 19 35 77 36 20 37 76 38 21 39 22 40 23 41 70 42 24 43
REMARK SMILES IDX 75 44 69 45 71 46 25 47 74 48 68 49 67 50 26 52 56 53 37 54
REMARK SMILES IDX 55 55 38 56 41 57 54 58 72 59 39 60 40 61 53 63 73 64 42 65
REMARK SMILES IDX 27 66 28 67 36 68 29 69 35 70 30 71 31 72 32 73 33 74 34 75
REMARK SMILES IDX 57 76 58 77 66 78 59 79 65 80 60 81 61 82 62 83 63 84 64 85
REMARK SMILES IDX 43 86 44 87 52 88 45 89 51 90 46 91 47 92 48 93 49 94 50 95
REMARK H PARENT 71 51 41 62
REMARK Flexibility Score: inf
ROOT
ATOM      1  C   UNL A   1      35.361  31.853  29.104  1.00  0.00     0.188 C 
ENDROOT
BRANCH   1   2
ATOM      2  O   UNL A   1      34.358  31.055  28.519  1.00  0.00    -0.377 OA
BRANCH   2   3
ATOM      3  C   UNL A   1      34.706  30.648  27.218  1.00  0.00     0.188 C 
BRANCH   3   4
ATOM      4  C   UNL A   1      34.121  29.296  26.793  1.00  0.00     0.188 C 
BRANCH   4   5
ATOM      5  O   UNL A   1      32.905  28.696  27.360  1.00  0.00    -0.376 OA
BRANCH   5   6
ATOM      6  C   UNL A   1      31.649  27.831  26.710  1.00  0.00     0.202 C 
BRANCH   6   7
ATOM      7  C   UNL A   1      31.389  25.664  26.723  1.00  0.00     0.261 C 
BRANCH   7   8
ATOM      8  O   UNL A   1      31.852  24.695  25.654  1.00  0.00    -0.460 OA
BRANCH   8   9
ATOM      9  C   UNL A   1      30.939  23.754  25.391  1.00  0.00     0.338 C 
ATOM     10  O   UNL A   1      30.637  22.797  26.060  1.00  0.00    -0.246 OA
BRANCH   9  11
ATOM     11  C   UNL A   1      30.861  23.977  23.955  1.00  0.00     0.087 C 
ATOM     12  C   UNL A   1      30.045  25.133  23.565  1.00  0.00     0.027 C 
ATOM     13  C   UNL A   1      32.764  23.854  23.728  1.00  0.00     0.316 C 
ATOM     14  C   UNL A   1      30.719  26.716  23.031  1.00  0.00     0.020 A 
ATOM     15  O   UNL A   1      33.537  25.590  23.292  1.00  0.00    -0.474 OA
ATOM     16  C   UNL A   1      29.859  27.745  22.754  1.00  0.00     0.032 A 
ATOM     17  C   UNL A   1      32.425  27.026  22.988  1.00  0.00     0.146 A 
ATOM     18  C   UNL A   1      30.470  28.973  22.445  1.00  0.00     0.043 A 
ATOM     19  C   UNL A   1      32.916  28.285  22.738  1.00  0.00     0.085 A 
ATOM     20  Cl  UNL A   1      29.405  30.292  22.069  1.00  0.00    -0.084 Cl
ATOM     21  C   UNL A   1      31.902  29.234  22.442  1.00  0.00     0.045 A 
ATOM     22  Cl  UNL A   1      34.540  28.775  22.873  1.00  0.00    -0.080 Cl
BRANCH  13  23
ATOM     23  C   UNL A   1      32.644  22.422  22.873  1.00  0.00     0.430 C 
ATOM     24  F   UNL A   1      31.419  21.950  22.580  1.00  0.00    -0.167 F 
ATOM     25  F   UNL A   1      33.204  22.658  21.645  1.00  0.00    -0.167 F 
ATOM     26  F   UNL A   1      33.371  21.391  23.372  1.00  0.00    -0.167 F 
ENDBRANCH  13  23
ENDBRANCH   9  11
ENDBRANCH   8   9
ENDBRANCH   7   8
ENDBRANCH   6   7
ENDBRANCH   5   6
ENDBRANCH   4   5
ENDBRANCH   3   4
ENDBRANCH   2   3
ENDBRANCH   1   2
BRANCH   1  27
ATOM     27  C   UNL A   1      35.891  33.014  28.256  1.00  0.00     0.188 C 
BRANCH  27  28
ATOM     28  O   UNL A   1      35.639  34.373  28.567  1.00  0.00    -0.376 OA
BRANCH  28  29
ATOM     29  C   UNL A   1      34.495  35.044  28.072  1.00  0.00     0.202 C 
BRANCH  29  30
ATOM     30  C   UNL A   1      33.267  35.333  28.951  1.00  0.00     0.261 C 
BRANCH  30  31
ATOM     31  O   UNL A   1      33.109  34.530  30.126  1.00  0.00    -0.460 OA
BRANCH  31  32
ATOM     32  C   UNL A   1      33.231  35.189  31.299  1.00  0.00     0.338 C 
ATOM     33  O   UNL A   1      32.484  36.049  31.734  1.00  0.00    -0.246 OA
BRANCH  32  34
ATOM     34  C   UNL A   1      34.316  34.580  32.103  1.00  0.00     0.060 A 
ATOM     35  C   UNL A   1      35.416  35.383  32.445  1.00  0.00     0.016 A 
ATOM     36  C   UNL A   1      34.274  33.243  32.502  1.00  0.00     0.016 A 
ATOM     37  C   UNL A   1      36.494  34.848  33.140  1.00  0.00     0.010 A 
ATOM     38  C   UNL A   1      35.379  32.692  33.158  1.00  0.00     0.010 A 
ATOM     39  C   UNL A   1      36.510  33.482  33.435  1.00  0.00    -0.014 A 
BRANCH  39  40
ATOM     40  C   UNL A   1      37.797  32.842  33.793  1.00  0.00     0.031 A 
ATOM     41  C   UNL A   1      38.321  33.054  35.188  1.00  0.00     0.074 A 
ATOM     42  C   UNL A   1      38.462  32.062  32.924  1.00  0.00     0.049 A 
ATOM     43  N   UNL A   1      39.444  32.651  35.721  1.00  0.00    -0.248 NA
ATOM     44  C   UNL A   1      37.462  33.826  36.105  1.00  0.00     0.031 C 
ATOM     45  C   UNL A   1      38.016  31.733  31.572  1.00  0.00     0.029 A 
ATOM     46  N   UNL A   1      39.662  31.411  33.052  1.00  0.00    -0.354 N 
ATOM     47  C   UNL A   1      39.437  33.139  37.023  1.00  0.00     0.074 A 
ATOM     48  C   UNL A   1      38.212  33.887  37.194  1.00  0.00     0.031 C 
ATOM     49  C   UNL A   1      38.939  30.949  30.988  1.00  0.00     0.029 A 
ATOM     50  C   UNL A   1      40.060  30.762  31.908  1.00  0.00     0.049 A 
ATOM     51  H   UNL A   1      40.188  31.408  33.884  1.00  0.00     0.167 HD
ATOM     52  C   UNL A   1      40.372  32.978  37.988  1.00  0.00     0.031 A 
ATOM     53  C   UNL A   1      41.213  30.122  31.626  1.00  0.00     0.031 A 
ATOM     54  C   UNL A   1      41.594  32.243  37.801  1.00  0.00     0.049 A 
ATOM     55  C   UNL A   1      42.279  30.035  32.690  1.00  0.00     0.074 A 
ATOM     56  C   UNL A   1      42.603  32.007  38.718  1.00  0.00     0.029 A 
ATOM     57  N   UNL A   1      41.980  31.636  36.616  1.00  0.00    -0.354 N 
ATOM     58  N   UNL A   1      42.254  30.483  33.923  1.00  0.00    -0.248 NA
ATOM     59  C   UNL A   1      43.525  29.346  32.326  1.00  0.00     0.031 C 
ATOM     60  C   UNL A   1      43.633  31.328  38.065  1.00  0.00     0.029 A 
ATOM     61  C   UNL A   1      43.228  31.057  36.767  1.00  0.00     0.049 A 
ATOM     62  H   UNL A   1      41.445  31.619  35.789  1.00  0.00     0.167 HD
ATOM     63  C   UNL A   1      43.465  30.097  34.492  1.00  0.00     0.074 A 
ATOM     64  C   UNL A   1      44.189  29.365  33.473  1.00  0.00     0.031 C 
ATOM     65  C   UNL A   1      43.934  30.325  35.745  1.00  0.00     0.031 A 
BRANCH  52  66
ATOM     66  C   UNL A   1      40.133  33.646  39.318  1.00  0.00    -0.014 A 
ATOM     67  C   UNL A   1      40.613  34.941  39.589  1.00  0.00     0.010 A 
ATOM     68  C   UNL A   1      39.363  32.986  40.294  1.00  0.00     0.010 A 
ATOM     69  C   UNL A   1      40.348  35.550  40.819  1.00  0.00     0.020 A 
ATOM     70  C   UNL A   1      39.067  33.605  41.511  1.00  0.00     0.020 A 
ATOM     71  C   UNL A   1      39.571  34.880  41.769  1.00  0.00     0.054 A 
BRANCH  71  72
ATOM     72  S   UNL A   1      39.198  35.719  43.334  1.00  0.00     0.124 S 
ATOM     73  O   UNL A   1      40.018  34.968  44.282  1.00  0.00    -0.237 OA
ATOM     74  O   UNL A   1      39.637  37.088  43.071  1.00  0.00    -0.237 OA
ATOM     75  O   UNL A   1      37.756  35.547  43.486  1.00  0.00    -0.744 OA
ENDBRANCH  71  72
ENDBRANCH  52  66
BRANCH  53  76
ATOM     76  C   UNL A   1      41.440  29.544  30.271  1.00  0.00    -0.014 A 
ATOM     77  C   UNL A   1      42.050  30.301  29.255  1.00  0.00     0.010 A 
ATOM     78  C   UNL A   1      41.025  28.230  29.981  1.00  0.00     0.010 A 
ATOM     79  C   UNL A   1      42.216  29.768  27.974  1.00  0.00     0.020 A 
ATOM     80  C   UNL A   1      41.224  27.679  28.713  1.00  0.00     0.020 A 
ATOM     81  C   UNL A   1      41.807  28.458  27.713  1.00  0.00     0.054 A 
BRANCH  81  82
ATOM     82  S   UNL A   1      42.073  27.774  26.053  1.00  0.00     0.124 S 
ATOM     83  O   UNL A   1      40.955  26.846  25.922  1.00  0.00    -0.237 OA
ATOM     84  O   UNL A   1      42.010  28.967  25.212  1.00  0.00    -0.237 OA
ATOM     85  O   UNL A   1      43.394  27.156  26.146  1.00  0.00    -0.744 OA
ENDBRANCH  81  82
ENDBRANCH  53  76
BRANCH  65  86
ATOM     86  C   UNL A   1      45.269  29.727  36.112  1.00  0.00    -0.014 A 
ATOM     87  C   UNL A   1      46.478  30.395  35.844  1.00  0.00     0.010 A 
ATOM     88  C   UNL A   1      45.305  28.497  36.794  1.00  0.00     0.010 A 
ATOM     89  C   UNL A   1      47.698  29.824  36.220  1.00  0.00     0.020 A 
ATOM     90  C   UNL A   1      46.520  27.942  37.206  1.00  0.00     0.020 A 
ATOM     91  C   UNL A   1      47.710  28.603  36.903  1.00  0.00     0.054 A 
BRANCH  91  92
ATOM     92  S   UNL A   1      49.304  27.910  37.418  1.00  0.00     0.124 S 
ATOM     93  O   UNL A   1      49.795  27.317  36.178  1.00  0.00    -0.237 OA
ATOM     94  O   UNL A   1      50.029  29.091  37.882  1.00  0.00    -0.237 OA
ATOM     95  O   UNL A   1      48.946  26.954  38.465  1.00  0.00    -0.744 OA
ENDBRANCH  91  92
ENDBRANCH  65  86
ENDBRANCH  39  40
ENDBRANCH  32  34
ENDBRANCH  31  32
ENDBRANCH  30  31
ENDBRANCH  29  30
ENDBRANCH  28  29
ENDBRANCH  27  28
ENDBRANCH   1  27
TORSDOF 24
ENDMDL
MODEL 3
REMARK VINA RESULT:      -9.1      8.845     13.338
REMARK SMILES O=C(OCCOCCOCCOCCOC(=O)c1ccc(-c2c3nc(c(-c4ccc(S(=O)(=O)[O-])cc4)c4ccc([nH]4)c(-c4ccc(S(=O)(=O)[O-])cc4)c4nc(c(-c5ccc(S(=O)(=O)[O-])cc5)c5ccc2[nH]5)C=C4)C=C3)cc1)C1=Cc2cc(Cl)cc(Cl)c2O[C@@H]1C(F)(F)F
REMARK SMILES IDX 10 1 9 2 8 3 7 4 6 5 5 6 4 7 3 8 2 9 1 10 78 11 79 12 89 13
REMARK SMILES IDX 80 14 88 15 81 16 87 17 82 18 85 19 83 20 84 21 86 22 90 23
REMARK SMILES IDX 91 24 92 25 93 26 11 27 12 28 13 29 14 30 15 31 16 32 17 33
REMARK SMILES IDX 18 34 19 35 77 36 20 37 76 38 21 39 22 40 23 41 70 42 24 43
REMARK SMILES IDX 75 44 69 45 71 46 25 47 74 48 68 49 67 50 26 52 56 53 37 54
REMARK SMILES IDX 55 55 38 56 41 57 54 58 72 59 39 60 40 61 53 63 73 64 42 65
REMARK SMILES IDX 27 66 28 67 36 68 29 69 35 70 30 71 31 72 32 73 33 74 34 75
REMARK SMILES IDX 57 76 58 77 66 78 59 79 65 80 60 81 61 82 62 83 63 84 64 85
REMARK SMILES IDX 43 86 44 87 52 88 45 89 51 90 46 91 47 92 48 93 49 94 50 95
REMARK H PARENT 71 51 41 62
REMARK Flexibility Score: inf
ROOT
ATOM      1  C   UNL A   1      37.866  34.069  31.087  1.00  0.00     0.188 C 
ENDROOT
BRANCH   1   2
ATOM      2  O   UNL A   1      36.823  33.267  30.585  1.00  0.00    -0.377 OA
BRANCH   2   3
ATOM      3  C   UNL A   1      36.671  33.414  29.195  1.00  0.00     0.188 C 
BRANCH   3   4
ATOM      4  C   UNL A   1      35.868  32.298  28.516  1.00  0.00     0.188 C 
BRANCH   4   5
ATOM      5  O   UNL A   1      35.769  30.919  29.013  1.00  0.00    -0.376 OA
BRANCH   5   6
ATOM      6  C   UNL A   1      36.695  29.561  28.801  1.00  0.00     0.202 C 
BRANCH   6   7
ATOM      7  C   UNL A   1      38.450  28.962  29.953  1.00  0.00     0.261 C 
BRANCH   7   8
ATOM      8  O   UNL A   1      39.809  28.591  29.397  1.00  0.00    -0.460 OA
BRANCH   8   9
ATOM      9  C   UNL A   1      39.719  27.864  28.278  1.00  0.00     0.338 C 
ATOM     10  O   UNL A   1      38.937  26.981  28.022  1.00  0.00    -0.246 OA
BRANCH   9  11
ATOM     11  C   UNL A   1      41.066  28.117  27.791  1.00  0.00     0.087 C 
ATOM     12  C   UNL A   1      41.731  29.266  28.417  1.00  0.00     0.027 C 
ATOM     13  C   UNL A   1      41.602  26.287  28.015  1.00  0.00     0.316 C 
ATOM     14  C   UNL A   1      43.005  29.134  29.683  1.00  0.00     0.020 A 
ATOM     15  O   UNL A   1      42.875  26.097  29.480  1.00  0.00    -0.474 OA
ATOM     16  C   UNL A   1      43.508  30.279  30.243  1.00  0.00     0.032 A 
ATOM     17  C   UNL A   1      43.521  27.604  30.318  1.00  0.00     0.146 A 
ATOM     18  C   UNL A   1      44.422  30.084  31.293  1.00  0.00     0.043 A 
ATOM     19  C   UNL A   1      44.371  27.529  31.395  1.00  0.00     0.085 A 
ATOM     20  Cl  UNL A   1      45.092  31.517  32.008  1.00  0.00    -0.084 Cl
ATOM     21  C   UNL A   1      44.825  28.797  31.842  1.00  0.00     0.045 A 
ATOM     22  Cl  UNL A   1      44.788  26.116  32.249  1.00  0.00    -0.080 Cl
BRANCH  13  23
ATOM     23  C   UNL A   1      41.732  26.045  26.366  1.00  0.00     0.430 C 
ATOM     24  F   UNL A   1      42.864  26.430  25.748  1.00  0.00    -0.167 F 
ATOM     25  F   UNL A   1      41.700  24.689  26.170  1.00  0.00    -0.167 F 
ATOM     26  F   UNL A   1      40.688  26.506  25.632  1.00  0.00    -0.167 F 
ENDBRANCH  13  23
ENDBRANCH   9  11
ENDBRANCH   8   9
ENDBRANCH   7   8
ENDBRANCH   6   7
ENDBRANCH   5   6
ENDBRANCH   4   5
ENDBRANCH   3   4
ENDBRANCH   2   3
ENDBRANCH   1   2
BRANCH   1  27
ATOM     27  C   UNL A   1      39.279  33.482  31.007  1.00  0.00     0.188 C 
BRANCH  27  28
ATOM     28  O   UNL A   1      40.332  34.104  30.292  1.00  0.00    -0.376 OA
BRANCH  28  29
ATOM     29  C   UNL A   1      40.081  34.894  29.145  1.00  0.00     0.202 C 
BRANCH  29  30
ATOM     30  C   UNL A   1      41.128  35.862  28.569  1.00  0.00     0.261 C 
BRANCH  30  31
ATOM     31  O   UNL A   1      41.292  35.867  27.146  1.00  0.00    -0.460 OA
BRANCH  31  32
ATOM     32  C   UNL A   1      42.539  36.146  26.708  1.00  0.00     0.338 C 
ATOM     33  O   UNL A   1      43.018  37.253  26.526  1.00  0.00    -0.246 OA
BRANCH  32  34
ATOM     34  C   UNL A   1      43.340  34.901  26.657  1.00  0.00     0.060 A 
ATOM     35  C   UNL A   1      43.772  34.344  27.871  1.00  0.00     0.016 A 
ATOM     36  C   UNL A   1      43.681  34.294  25.447  1.00  0.00     0.016 A 
ATOM     37  C   UNL A   1      44.583  33.213  27.882  1.00  0.00     0.010 A 
ATOM     38  C   UNL A   1      44.535  33.188  25.456  1.00  0.00     0.010 A 
ATOM     39  C   UNL A   1      45.025  32.676  26.671  1.00  0.00    -0.014 A 
BRANCH  39  40
ATOM     40  C   UNL A   1      46.187  31.757  26.679  1.00  0.00     0.031 A 
ATOM     41  C   UNL A   1      47.562  32.365  26.748  1.00  0.00     0.074 A 
ATOM     42  C   UNL A   1      46.029  30.422  26.669  1.00  0.00     0.049 A 
ATOM     43  N   UNL A   1      48.729  31.779  26.709  1.00  0.00    -0.248 NA
ATOM     44  C   UNL A   1      47.629  33.832  26.876  1.00  0.00     0.031 C 
ATOM     45  C   UNL A   1      44.746  29.723  26.672  1.00  0.00     0.029 A 
ATOM     46  N   UNL A   1      46.962  29.417  26.648  1.00  0.00    -0.354 N 
ATOM     47  C   UNL A   1      49.666  32.804  26.783  1.00  0.00     0.074 A 
ATOM     48  C   UNL A   1      48.934  34.049  26.845  1.00  0.00     0.031 C 
ATOM     49  C   UNL A   1      44.972  28.398  26.640  1.00  0.00     0.029 A 
ATOM     50  C   UNL A   1      46.412  28.159  26.566  1.00  0.00     0.049 A 
ATOM     51  H   UNL A   1      47.932  29.579  26.687  1.00  0.00     0.167 HD
ATOM     52  C   UNL A   1      51.016  32.713  26.796  1.00  0.00     0.031 A 
ATOM     53  C   UNL A   1      47.006  26.958  26.414  1.00  0.00     0.031 A 
ATOM     54  C   UNL A   1      51.733  31.468  26.719  1.00  0.00     0.049 A 
ATOM     55  C   UNL A   1      48.511  26.891  26.339  1.00  0.00     0.074 A 
ATOM     56  C   UNL A   1      53.101  31.263  26.738  1.00  0.00     0.029 A 
ATOM     57  N   UNL A   1      51.142  30.220  26.596  1.00  0.00    -0.354 N 
ATOM     58  N   UNL A   1      49.387  27.864  26.429  1.00  0.00    -0.248 NA
ATOM     59  C   UNL A   1      49.108  25.562  26.150  1.00  0.00     0.031 C 
ATOM     60  C   UNL A   1      53.338  29.901  26.546  1.00  0.00     0.029 A 
ATOM     61  C   UNL A   1      52.118  29.243  26.501  1.00  0.00     0.049 A 
ATOM     62  H   UNL A   1      50.172  30.053  26.578  1.00  0.00     0.167 HD
ATOM     63  C   UNL A   1      50.638  27.259  26.346  1.00  0.00     0.074 A 
ATOM     64  C   UNL A   1      50.404  25.836  26.216  1.00  0.00     0.031 C 
ATOM     65  C   UNL A   1      51.869  27.829  26.379  1.00  0.00     0.031 A 
BRANCH  52  66
ATOM     66  C   UNL A   1      51.808  33.994  26.850  1.00  0.00    -0.014 A 
ATOM     67  C   UNL A   1      52.248  34.638  25.679  1.00  0.00     0.010 A 
ATOM     68  C   UNL A   1      52.064  34.595  28.097  1.00  0.00     0.010 A 
ATOM     69  C   UNL A   1      52.952  35.844  25.757  1.00  0.00     0.020 A 
ATOM     70  C   UNL A   1      52.737  35.817  28.177  1.00  0.00     0.020 A 
ATOM     71  C   UNL A   1      53.185  36.429  27.006  1.00  0.00     0.054 A 
BRANCH  71  72
ATOM     72  S   UNL A   1      54.052  38.020  27.070  1.00  0.00     0.124 S 
ATOM     73  O   UNL A   1      54.641  37.990  28.407  1.00  0.00    -0.237 OA
ATOM     74  O   UNL A   1      55.000  37.910  25.964  1.00  0.00    -0.237 OA
ATOM     75  O   UNL A   1      52.990  39.004  26.882  1.00  0.00    -0.744 OA
ENDBRANCH  71  72
ENDBRANCH  52  66
BRANCH  53  76
ATOM     76  C   UNL A   1      46.181  25.723  26.285  1.00  0.00    -0.014 A 
ATOM     77  C   UNL A   1      45.685  25.063  27.423  1.00  0.00     0.010 A 
ATOM     78  C   UNL A   1      45.903  25.185  25.014  1.00  0.00     0.010 A 
ATOM     79  C   UNL A   1      44.953  23.879  27.296  1.00  0.00     0.020 A 
ATOM     80  C   UNL A   1      45.140  24.023  24.879  1.00  0.00     0.020 A 
ATOM     81  C   UNL A   1      44.680  23.370  26.023  1.00  0.00     0.054 A 
BRANCH  81  82
ATOM     82  S   UNL A   1      43.691  21.856  25.882  1.00  0.00     0.124 S 
ATOM     83  O   UNL A   1      43.048  21.788  27.190  1.00  0.00    -0.237 OA
ATOM     84  O   UNL A   1      42.811  22.164  24.757  1.00  0.00    -0.237 OA
ATOM     85  O   UNL A   1      44.686  20.820  25.618  1.00  0.00    -0.744 OA
ENDBRANCH  81  82
ENDBRANCH  53  76
BRANCH  65  86
ATOM     86  C   UNL A   1      53.066  26.912  26.333  1.00  0.00    -0.014 A 
ATOM     87  C   UNL A   1      53.698  26.459  27.505  1.00  0.00     0.010 A 
ATOM     88  C   UNL A   1      53.527  26.448  25.086  1.00  0.00     0.010 A 
ATOM     89  C   UNL A   1      54.789  25.589  27.428  1.00  0.00     0.020 A 
ATOM     90  C   UNL A   1      54.593  25.548  25.007  1.00  0.00     0.020 A 
ATOM     91  C   UNL A   1      55.227  25.136  26.179  1.00  0.00     0.054 A 
BRANCH  91  92
ATOM     92  S   UNL A   1      56.616  23.973  26.112  1.00  0.00     0.124 S 
ATOM     93  O   UNL A   1      55.975  22.711  26.471  1.00  0.00    -0.237 OA
ATOM     94  O   UNL A   1      57.055  24.082  24.723  1.00  0.00    -0.237 OA
ATOM     95  O   UNL A   1      57.557  24.496  27.101  1.00  0.00    -0.744 OA
ENDBRANCH  91  92
ENDBRANCH  65  86
ENDBRANCH  39  40
ENDBRANCH  32  34
ENDBRANCH  31  32
ENDBRANCH  30  31
ENDBRANCH  29  30
ENDBRANCH  28  29
ENDBRANCH  27  28
ENDBRANCH   1  27
TORSDOF 24
ENDMDL
