MODEL 1
REMARK VINA RESULT:     -10.5      0.000      0.000
REMARK SMILES O=C(Cc1c(C(=O)c2cc3c(cn2)CCCC3)[nH]c2cc(Cl)ccc12)OCCOCCOCCOCCOC(=O)c1ccc(-c2c3nc(c(-c4ccc(S(=O)(=O)[O-])cc4)c4ccc([nH]4)c(-c4ccc(S(=O)(=O)[O-])cc4)c4nc(c(-c5ccc(S(=O)(=O)[O-])cc5)c5ccc2[nH]5)C=C4)C=C3)cc1
REMARK SMILES IDX 32 1 31 2 30 3 29 4 28 5 27 6 26 7 2 8 1 9 3 10 4 11 5 12
REMARK SMILES IDX 25 13 18 14 19 15 24 16 20 18 23 19 21 20 22 21 6 22 7 23
REMARK SMILES IDX 8 24 9 25 13 26 10 27 12 28 11 29 17 30 14 31 16 32 15 33
REMARK SMILES IDX 33 34 34 35 35 36 36 37 37 38 38 39 39 40 40 41 41 42 42 43
REMARK SMILES IDX 100 44 43 45 99 46 44 47 45 48 46 49 93 50 47 51 98 52 92 53
REMARK SMILES IDX 94 54 48 55 97 56 91 57 90 58 49 60 79 61 60 62 78 63 61 64
REMARK SMILES IDX 64 65 77 66 95 67 62 68 63 69 76 71 96 72 65 73 50 74 51 75
REMARK SMILES IDX 59 76 52 77 58 78 53 79 54 80 55 81 56 82 57 83 80 84 81 85
REMARK SMILES IDX 89 86 82 87 88 88 83 89 84 90 85 91 86 92 87 93 66 94 67 95
REMARK SMILES IDX 75 96 68 97 74 98 69 99 70 100 71 101 72 102 73 103
REMARK H PARENT 18 17 94 59 64 70
REMARK Flexibility Score: inf
ROOT
ATOM      1  O   UNL A   1      42.134  19.882  25.789  1.00  0.00    -0.377 OA
ENDROOT
BRANCH   1   2
ATOM      2  C   UNL A   1      41.856  19.893  27.185  1.00  0.00     0.188 C 
BRANCH   2   3
ATOM      3  C   UNL A   1      40.834  20.958  27.607  1.00  0.00     0.188 C 
BRANCH   3   4
ATOM      4  O   UNL A   1      40.008  21.436  26.561  1.00  0.00    -0.376 OA
BRANCH   4   5
ATOM      5  C   UNL A   1      39.282  22.646  26.632  1.00  0.00     0.202 C 
BRANCH   5   6
ATOM      6  C   UNL A   1      38.120  22.935  25.687  1.00  0.00     0.261 C 
BRANCH   6   7
ATOM      7  O   UNL A   1      36.780  22.644  26.138  1.00  0.00    -0.463 OA
BRANCH   7   8
ATOM      8  C   UNL A   1      35.642  23.358  26.072  1.00  0.00     0.310 C 
ATOM      9  O   UNL A   1      35.678  24.474  25.544  1.00  0.00    -0.252 OA
BRANCH   8  10
ATOM     10  C   UNL A   1      34.374  22.905  26.755  1.00  0.00     0.161 C 
BRANCH  10  11
ATOM     11  C   UNL A   1      33.415  22.041  26.006  1.00  0.00     0.000 A 
ATOM     12  C   UNL A   1      32.055  22.250  25.846  1.00  0.00     0.093 A 
ATOM     13  C   UNL A   1      33.739  20.797  25.380  1.00  0.00     0.004 A 
ATOM     14  N   UNL A   1      31.575  21.223  25.065  1.00  0.00    -0.351 N 
ATOM     15  C   UNL A   1      32.558  20.280  24.856  1.00  0.00     0.048 A 
ATOM     16  C   UNL A   1      34.934  20.062  25.231  1.00  0.00     0.012 A 
ATOM     17  H   UNL A   1      30.661  21.171  24.705  1.00  0.00     0.167 HD
ATOM     18  C   UNL A   1      32.497  19.018  24.252  1.00  0.00     0.047 A 
ATOM     19  C   UNL A   1      34.895  18.802  24.625  1.00  0.00     0.021 A 
ATOM     20  C   UNL A   1      33.687  18.285  24.168  1.00  0.00     0.043 A 
ATOM     21  Cl  UNL A   1      33.654  16.700  23.495  1.00  0.00    -0.084 Cl
BRANCH  12  22
ATOM     22  C   UNL A   1      31.283  23.329  26.430  1.00  0.00     0.227 C 
ATOM     23  O   UNL A   1      30.703  23.232  27.510  1.00  0.00    -0.285 OA
BRANCH  22  24
ATOM     24  C   UNL A   1      31.011  24.526  25.646  1.00  0.00     0.113 A 
ATOM     25  C   UNL A   1      31.265  25.707  26.308  1.00  0.00     0.036 A 
ATOM     26  N   UNL A   1      30.634  24.402  24.353  1.00  0.00    -0.252 NA
ATOM     27  C   UNL A   1      31.181  26.879  25.584  1.00  0.00    -0.041 A 
ATOM     28  C   UNL A   1      30.589  25.562  23.657  1.00  0.00     0.115 A 
ATOM     29  C   UNL A   1      30.838  26.816  24.224  1.00  0.00    -0.026 A 
ATOM     30  C   UNL A   1      31.444  28.165  26.307  1.00  0.00     0.036 C 
ATOM     31  C   UNL A   1      30.833  28.058  23.373  1.00  0.00     0.037 C 
ATOM     32  C   UNL A   1      31.726  29.317  25.360  1.00  0.00     0.005 C 
ATOM     33  C   UNL A   1      30.712  29.328  24.220  1.00  0.00     0.005 C 
ENDBRANCH  22  24
ENDBRANCH  12  22
ENDBRANCH  10  11
ENDBRANCH   8  10
ENDBRANCH   7   8
ENDBRANCH   6   7
ENDBRANCH   5   6
ENDBRANCH   4   5
ENDBRANCH   3   4
ENDBRANCH   2   3
ENDBRANCH   1   2
BRANCH   1  34
ATOM     34  C   UNL A   1      43.478  20.198  25.463  1.00  0.00     0.188 C 
BRANCH  34  35
ATOM     35  C   UNL A   1      43.810  21.706  25.395  1.00  0.00     0.188 C 
BRANCH  35  36
ATOM     36  O   UNL A   1      42.987  22.655  24.727  1.00  0.00    -0.376 OA
BRANCH  36  37
ATOM     37  C   UNL A   1      43.026  24.036  25.039  1.00  0.00     0.202 C 
BRANCH  37  38
ATOM     38  C   UNL A   1      42.417  24.583  26.333  1.00  0.00     0.261 C 
BRANCH  38  39
ATOM     39  O   UNL A   1      41.282  25.431  26.175  1.00  0.00    -0.460 OA
BRANCH  39  40
ATOM     40  C   UNL A   1      41.556  26.746  26.019  1.00  0.00     0.338 C 
ATOM     41  O   UNL A   1      41.911  27.310  24.998  1.00  0.00    -0.246 OA
BRANCH  40  42
ATOM     42  C   UNL A   1      41.163  27.443  27.262  1.00  0.00     0.060 A 
ATOM     43  C   UNL A   1      40.290  26.843  28.174  1.00  0.00     0.016 A 
ATOM     44  C   UNL A   1      41.641  28.743  27.483  1.00  0.00     0.016 A 
ATOM     45  C   UNL A   1      39.943  27.526  29.337  1.00  0.00     0.010 A 
ATOM     46  C   UNL A   1      41.282  29.431  28.640  1.00  0.00     0.010 A 
ATOM     47  C   UNL A   1      40.467  28.807  29.593  1.00  0.00    -0.014 A 
BRANCH  47  48
ATOM     48  C   UNL A   1      40.385  29.353  30.965  1.00  0.00     0.031 A 
ATOM     49  C   UNL A   1      41.399  29.045  32.017  1.00  0.00     0.074 A 
ATOM     50  C   UNL A   1      39.341  30.166  31.225  1.00  0.00     0.049 A 
ATOM     51  N   UNL A   1      41.528  29.588  33.199  1.00  0.00    -0.248 NA
ATOM     52  C   UNL A   1      42.389  28.000  31.721  1.00  0.00     0.031 C 
ATOM     53  C   UNL A   1      38.282  30.490  30.262  1.00  0.00     0.029 A 
ATOM     54  N   UNL A   1      39.012  30.891  32.338  1.00  0.00    -0.354 N 
ATOM     55  C   UNL A   1      42.626  28.975  33.783  1.00  0.00     0.074 A 
ATOM     56  C   UNL A   1      43.100  27.979  32.844  1.00  0.00     0.031 C 
ATOM     57  C   UNL A   1      37.459  31.396  30.805  1.00  0.00     0.029 A 
ATOM     58  C   UNL A   1      37.910  31.694  32.161  1.00  0.00     0.049 A 
ATOM     59  H   UNL A   1      39.516  30.842  33.183  1.00  0.00     0.167 HD
ATOM     60  C   UNL A   1      43.186  29.242  34.987  1.00  0.00     0.031 A 
ATOM     61  C   UNL A   1      37.338  32.595  32.983  1.00  0.00     0.031 A 
ATOM     62  C   UNL A   1      42.679  30.234  35.905  1.00  0.00     0.049 A 
ATOM     63  C   UNL A   1      37.974  32.857  34.317  1.00  0.00     0.074 A 
ATOM     64  C   UNL A   1      43.208  30.615  37.127  1.00  0.00     0.029 A 
ATOM     65  N   UNL A   1      41.534  30.995  35.713  1.00  0.00    -0.354 N 
ATOM     66  N   UNL A   1      39.071  32.339  34.817  1.00  0.00    -0.248 NA
ATOM     67  C   UNL A   1      37.316  33.835  35.190  1.00  0.00     0.031 C 
ATOM     68  C   UNL A   1      42.341  31.541  37.708  1.00  0.00     0.029 A 
ATOM     69  C   UNL A   1      41.320  31.814  36.810  1.00  0.00     0.049 A 
ATOM     70  H   UNL A   1      40.960  30.960  34.915  1.00  0.00     0.167 HD
ATOM     71  C   UNL A   1      39.251  32.952  36.051  1.00  0.00     0.074 A 
ATOM     72  C   UNL A   1      38.158  33.889  36.213  1.00  0.00     0.031 C 
ATOM     73  C   UNL A   1      40.233  32.752  36.962  1.00  0.00     0.031 A 
BRANCH  60  74
ATOM     74  C   UNL A   1      44.429  28.492  35.398  1.00  0.00    -0.014 A 
ATOM     75  C   UNL A   1      45.696  28.969  35.011  1.00  0.00     0.010 A 
ATOM     76  C   UNL A   1      44.334  27.227  36.003  1.00  0.00     0.010 A 
ATOM     77  C   UNL A   1      46.837  28.177  35.177  1.00  0.00     0.020 A 
ATOM     78  C   UNL A   1      45.476  26.444  36.198  1.00  0.00     0.020 A 
ATOM     79  C   UNL A   1      46.716  26.912  35.759  1.00  0.00     0.054 A 
BRANCH  79  80
ATOM     80  S   UNL A   1      48.198  25.877  35.917  1.00  0.00     0.124 S 
ATOM     81  O   UNL A   1      48.274  25.658  37.357  1.00  0.00    -0.237 OA
ATOM     82  O   UNL A   1      47.854  24.704  35.114  1.00  0.00    -0.237 OA
ATOM     83  O   UNL A   1      49.260  26.708  35.352  1.00  0.00    -0.744 OA
ENDBRANCH  79  80
ENDBRANCH  60  74
BRANCH  61  84
ATOM     84  C   UNL A   1      36.151  33.360  32.510  1.00  0.00    -0.014 A 
ATOM     85  C   UNL A   1      36.314  34.545  31.767  1.00  0.00     0.010 A 
ATOM     86  C   UNL A   1      34.855  32.958  32.875  1.00  0.00     0.010 A 
ATOM     87  C   UNL A   1      35.210  35.337  31.442  1.00  0.00     0.020 A 
ATOM     88  C   UNL A   1      33.744  33.729  32.521  1.00  0.00     0.020 A 
ATOM     89  C   UNL A   1      33.932  34.928  31.830  1.00  0.00     0.054 A 
BRANCH  89  90
ATOM     90  S   UNL A   1      32.519  35.991  31.424  1.00  0.00     0.124 S 
ATOM     91  O   UNL A   1      31.564  35.631  32.467  1.00  0.00    -0.237 OA
ATOM     92  O   UNL A   1      33.090  37.330  31.529  1.00  0.00    -0.237 OA
ATOM     93  O   UNL A   1      32.156  35.576  30.071  1.00  0.00    -0.744 OA
ENDBRANCH  89  90
ENDBRANCH  61  84
BRANCH  73  94
ATOM     94  C   UNL A   1      40.202  33.561  38.234  1.00  0.00    -0.014 A 
ATOM     95  C   UNL A   1      41.229  34.489  38.492  1.00  0.00     0.010 A 
ATOM     96  C   UNL A   1      39.249  33.301  39.236  1.00  0.00     0.010 A 
ATOM     97  C   UNL A   1      41.336  35.102  39.743  1.00  0.00     0.020 A 
ATOM     98  C   UNL A   1      39.332  33.941  40.475  1.00  0.00     0.020 A 
ATOM     99  C   UNL A   1      40.393  34.813  40.731  1.00  0.00     0.054 A 
BRANCH  99 100
ATOM    100  S   UNL A   1      40.582  35.573  42.366  1.00  0.00     0.124 S 
ATOM    101  O   UNL A   1      39.825  34.662  43.218  1.00  0.00    -0.237 OA
ATOM    102  O   UNL A   1      42.030  35.561  42.560  1.00  0.00    -0.237 OA
ATOM    103  O   UNL A   1      39.995  36.901  42.198  1.00  0.00    -0.744 OA
ENDBRANCH  99 100
ENDBRANCH  73  94
ENDBRANCH  47  48
ENDBRANCH  40  42
ENDBRANCH  39  40
ENDBRANCH  38  39
ENDBRANCH  37  38
ENDBRANCH  36  37
ENDBRANCH  35  36
ENDBRANCH  34  35
ENDBRANCH   1  34
TORSDOF 26
ENDMDL
MODEL 2
REMARK VINA RESULT:     -10.5      5.414      8.609
REMARK SMILES O=C(Cc1c(C(=O)c2cc3c(cn2)CCCC3)[nH]c2cc(Cl)ccc12)OCCOCCOCCOCCOC(=O)c1ccc(-c2c3nc(c(-c4ccc(S(=O)(=O)[O-])cc4)c4ccc([nH]4)c(-c4ccc(S(=O)(=O)[O-])cc4)c4nc(c(-c5ccc(S(=O)(=O)[O-])cc5)c5ccc2[nH]5)C=C4)C=C3)cc1
REMARK SMILES IDX 32 1 31 2 30 3 29 4 28 5 27 6 26 7 2 8 1 9 3 10 4 11 5 12
REMARK SMILES IDX 25 13 18 14 19 15 24 16 20 18 23 19 21 20 22 21 6 22 7 23
REMARK SMILES IDX 8 24 9 25 13 26 10 27 12 28 11 29 17 30 14 31 16 32 15 33
REMARK SMILES IDX 33 34 34 35 35 36 36 37 37 38 38 39 39 40 40 41 41 42 42 43
REMARK SMILES IDX 100 44 43 45 99 46 44 47 45 48 46 49 93 50 47 51 98 52 92 53
REMARK SMILES IDX 94 54 48 55 97 56 91 57 90 58 49 60 79 61 60 62 78 63 61 64
REMARK SMILES IDX 64 65 77 66 95 67 62 68 63 69 76 71 96 72 65 73 50 74 51 75
REMARK SMILES IDX 59 76 52 77 58 78 53 79 54 80 55 81 56 82 57 83 80 84 81 85
REMARK SMILES IDX 89 86 82 87 88 88 83 89 84 90 85 91 86 92 87 93 66 94 67 95
REMARK SMILES IDX 75 96 68 97 74 98 69 99 70 100 71 101 72 102 73 103
REMARK H PARENT 18 17 94 59 64 70
REMARK Flexibility Score: inf
ROOT
ATOM      1  O   UNL A   1      36.939  23.608  24.563  1.00  0.00    -0.377 OA
ENDROOT
BRANCH   1   2
ATOM      2  C   UNL A   1      35.667  23.706  23.931  1.00  0.00     0.188 C 
BRANCH   2   3
ATOM      3  C   UNL A   1      34.630  24.498  24.740  1.00  0.00     0.188 C 
BRANCH   3   4
ATOM      4  O   UNL A   1      33.988  25.539  24.025  1.00  0.00    -0.376 OA
BRANCH   4   5
ATOM      5  C   UNL A   1      33.606  25.432  22.669  1.00  0.00     0.202 C 
BRANCH   5   6
ATOM      6  C   UNL A   1      32.780  26.518  21.986  1.00  0.00     0.261 C 
BRANCH   6   7
ATOM      7  O   UNL A   1      31.341  26.418  22.038  1.00  0.00    -0.463 OA
BRANCH   7   8
ATOM      8  C   UNL A   1      30.415  27.194  22.629  1.00  0.00     0.310 C 
ATOM      9  O   UNL A   1      30.072  28.235  22.061  1.00  0.00    -0.252 OA
BRANCH   8  10
ATOM     10  C   UNL A   1      29.904  26.908  24.021  1.00  0.00     0.161 C 
BRANCH  10  11
ATOM     11  C   UNL A   1      30.857  26.960  25.168  1.00  0.00     0.000 A 
ATOM     12  C   UNL A   1      31.162  25.932  26.045  1.00  0.00     0.093 A 
ATOM     13  C   UNL A   1      31.569  28.123  25.599  1.00  0.00     0.004 A 
ATOM     14  N   UNL A   1      32.105  26.414  26.924  1.00  0.00    -0.351 N 
ATOM     15  C   UNL A   1      32.290  27.766  26.734  1.00  0.00     0.048 A 
ATOM     16  C   UNL A   1      31.646  29.450  25.127  1.00  0.00     0.012 A 
ATOM     17  H   UNL A   1      32.580  25.870  27.593  1.00  0.00     0.167 HD
ATOM     18  C   UNL A   1      33.030  28.698  27.473  1.00  0.00     0.047 A 
ATOM     19  C   UNL A   1      32.385  30.393  25.847  1.00  0.00     0.021 A 
ATOM     20  C   UNL A   1      33.044  30.021  27.014  1.00  0.00     0.043 A 
ATOM     21  Cl  UNL A   1      33.885  31.218  27.923  1.00  0.00    -0.084 Cl
BRANCH  12  22
ATOM     22  C   UNL A   1      30.566  24.610  26.051  1.00  0.00     0.227 C 
ATOM     23  O   UNL A   1      29.644  24.294  26.800  1.00  0.00    -0.285 OA
BRANCH  22  24
ATOM     24  C   UNL A   1      31.183  23.537  25.283  1.00  0.00     0.113 A 
ATOM     25  C   UNL A   1      31.764  22.553  26.050  1.00  0.00     0.036 A 
ATOM     26  N   UNL A   1      31.066  23.534  23.935  1.00  0.00    -0.252 NA
ATOM     27  C   UNL A   1      32.232  21.427  25.403  1.00  0.00    -0.041 A 
ATOM     28  C   UNL A   1      31.503  22.406  23.327  1.00  0.00     0.115 A 
ATOM     29  C   UNL A   1      32.100  21.340  24.008  1.00  0.00    -0.026 A 
ATOM     30  C   UNL A   1      32.876  20.362  26.237  1.00  0.00     0.036 C 
ATOM     31  C   UNL A   1      32.504  20.089  23.273  1.00  0.00     0.037 C 
ATOM     32  C   UNL A   1      32.974  19.033  25.508  1.00  0.00     0.005 C 
ATOM     33  C   UNL A   1      33.488  19.243  24.086  1.00  0.00     0.005 C 
ENDBRANCH  22  24
ENDBRANCH  12  22
ENDBRANCH  10  11
ENDBRANCH   8  10
ENDBRANCH   7   8
ENDBRANCH   6   7
ENDBRANCH   5   6
ENDBRANCH   4   5
ENDBRANCH   3   4
ENDBRANCH   2   3
ENDBRANCH   1   2
BRANCH   1  34
ATOM     34  C   UNL A   1      36.977  22.700  25.652  1.00  0.00     0.188 C 
BRANCH  34  35
ATOM     35  C   UNL A   1      36.573  21.245  25.321  1.00  0.00     0.188 C 
BRANCH  35  36
ATOM     36  O   UNL A   1      37.402  20.356  24.582  1.00  0.00    -0.376 OA
BRANCH  36  37
ATOM     37  C   UNL A   1      38.168  19.344  25.211  1.00  0.00     0.202 C 
BRANCH  37  38
ATOM     38  C   UNL A   1      39.646  19.552  25.551  1.00  0.00     0.261 C 
BRANCH  38  39
ATOM     39  O   UNL A   1      39.950  20.713  26.319  1.00  0.00    -0.460 OA
BRANCH  39  40
ATOM     40  C   UNL A   1      41.075  20.640  27.064  1.00  0.00     0.338 C 
ATOM     41  O   UNL A   1      41.754  19.650  27.281  1.00  0.00    -0.246 OA
BRANCH  40  42
ATOM     42  C   UNL A   1      41.470  22.017  27.428  1.00  0.00     0.060 A 
ATOM     43  C   UNL A   1      42.089  22.284  28.651  1.00  0.00     0.016 A 
ATOM     44  C   UNL A   1      41.162  23.060  26.542  1.00  0.00     0.016 A 
ATOM     45  C   UNL A   1      42.452  23.593  28.962  1.00  0.00     0.010 A 
ATOM     46  C   UNL A   1      41.513  24.371  26.859  1.00  0.00     0.010 A 
ATOM     47  C   UNL A   1      42.199  24.636  28.050  1.00  0.00    -0.014 A 
BRANCH  47  48
ATOM     48  C   UNL A   1      42.901  25.926  28.227  1.00  0.00     0.031 A 
ATOM     49  C   UNL A   1      44.314  26.140  27.794  1.00  0.00     0.074 A 
ATOM     50  C   UNL A   1      42.191  26.921  28.795  1.00  0.00     0.049 A 
ATOM     51  N   UNL A   1      44.982  27.263  27.744  1.00  0.00    -0.248 NA
ATOM     52  C   UNL A   1      45.082  24.961  27.371  1.00  0.00     0.031 C 
ATOM     53  C   UNL A   1      40.814  26.784  29.282  1.00  0.00     0.029 A 
ATOM     54  N   UNL A   1      42.497  28.235  29.028  1.00  0.00    -0.354 N 
ATOM     55  C   UNL A   1      46.240  26.937  27.260  1.00  0.00     0.074 A 
ATOM     56  C   UNL A   1      46.261  25.501  27.078  1.00  0.00     0.031 C 
ATOM     57  C   UNL A   1      40.375  27.980  29.695  1.00  0.00     0.029 A 
ATOM     58  C   UNL A   1      41.444  28.960  29.534  1.00  0.00     0.049 A 
ATOM     59  H   UNL A   1      43.385  28.623  28.849  1.00  0.00     0.167 HD
ATOM     60  C   UNL A   1      47.267  27.774  26.980  1.00  0.00     0.031 A 
ATOM     61  C   UNL A   1      41.335  30.273  29.812  1.00  0.00     0.031 A 
ATOM     62  C   UNL A   1      47.216  29.202  27.186  1.00  0.00     0.049 A 
ATOM     63  C   UNL A   1      42.497  31.172  29.506  1.00  0.00     0.074 A 
ATOM     64  C   UNL A   1      48.188  30.142  26.885  1.00  0.00     0.029 A 
ATOM     65  N   UNL A   1      46.152  29.896  27.744  1.00  0.00    -0.354 N 
ATOM     66  N   UNL A   1      43.648  30.865  28.955  1.00  0.00    -0.248 NA
ATOM     67  C   UNL A   1      42.345  32.595  29.834  1.00  0.00     0.031 C 
ATOM     68  C   UNL A   1      47.745  31.387  27.336  1.00  0.00     0.029 A 
ATOM     69  C   UNL A   1      46.459  31.244  27.832  1.00  0.00     0.049 A 
ATOM     70  H   UNL A   1      45.303  29.490  28.034  1.00  0.00     0.167 HD
ATOM     71  C   UNL A   1      44.345  32.061  28.843  1.00  0.00     0.074 A 
ATOM     72  C   UNL A   1      43.481  33.098  29.369  1.00  0.00     0.031 C 
ATOM     73  C   UNL A   1      45.588  32.274  28.349  1.00  0.00     0.031 A 
BRANCH  60  74
ATOM     74  C   UNL A   1      48.535  27.206  26.392  1.00  0.00    -0.014 A 
ATOM     75  C   UNL A   1      49.594  26.828  27.240  1.00  0.00     0.010 A 
ATOM     76  C   UNL A   1      48.747  27.217  25.003  1.00  0.00     0.010 A 
ATOM     77  C   UNL A   1      50.853  26.521  26.715  1.00  0.00     0.020 A 
ATOM     78  C   UNL A   1      49.997  26.882  24.470  1.00  0.00     0.020 A 
ATOM     79  C   UNL A   1      51.049  26.562  25.331  1.00  0.00     0.054 A 
BRANCH  79  80
ATOM     80  S   UNL A   1      52.703  26.214  24.671  1.00  0.00     0.124 S 
ATOM     81  O   UNL A   1      52.483  26.275  23.231  1.00  0.00    -0.237 OA
ATOM     82  O   UNL A   1      53.506  27.297  25.237  1.00  0.00    -0.237 OA
ATOM     83  O   UNL A   1      53.012  24.887  25.202  1.00  0.00    -0.744 OA
ENDBRANCH  79  80
ENDBRANCH  60  74
BRANCH  61  84
ATOM     84  C   UNL A   1      40.042  30.801  30.330  1.00  0.00    -0.014 A 
ATOM     85  C   UNL A   1      39.009  31.158  29.442  1.00  0.00     0.010 A 
ATOM     86  C   UNL A   1      39.870  31.035  31.705  1.00  0.00     0.010 A 
ATOM     87  C   UNL A   1      37.852  31.782  29.914  1.00  0.00     0.020 A 
ATOM     88  C   UNL A   1      38.698  31.626  32.185  1.00  0.00     0.020 A 
ATOM     89  C   UNL A   1      37.708  32.021  31.282  1.00  0.00     0.054 A 
BRANCH  89  90
ATOM     90  S   UNL A   1      36.210  32.862  31.865  1.00  0.00     0.124 S 
ATOM     91  O   UNL A   1      35.768  31.978  32.939  1.00  0.00    -0.237 OA
ATOM     92  O   UNL A   1      36.722  34.162  32.290  1.00  0.00    -0.237 OA
ATOM     93  O   UNL A   1      35.351  32.889  30.684  1.00  0.00    -0.744 OA
ENDBRANCH  89  90
ENDBRANCH  61  84
BRANCH  73  94
ATOM     94  C   UNL A   1      46.117  33.687  28.333  1.00  0.00    -0.014 A 
ATOM     95  C   UNL A   1      46.761  34.200  29.476  1.00  0.00     0.010 A 
ATOM     96  C   UNL A   1      45.847  34.549  27.256  1.00  0.00     0.010 A 
ATOM     97  C   UNL A   1      47.079  35.558  29.562  1.00  0.00     0.020 A 
ATOM     98  C   UNL A   1      46.196  35.900  27.325  1.00  0.00     0.020 A 
ATOM     99  C   UNL A   1      46.781  36.402  28.491  1.00  0.00     0.054 A 
BRANCH  99 100
ATOM    100  S   UNL A   1      47.147  38.171  28.646  1.00  0.00     0.124 S 
ATOM    101  O   UNL A   1      46.779  38.440  30.033  1.00  0.00    -0.237 OA
ATOM    102  O   UNL A   1      48.577  38.230  28.352  1.00  0.00    -0.237 OA
ATOM    103  O   UNL A   1      46.285  38.790  27.641  1.00  0.00    -0.744 OA
ENDBRANCH  99 100
ENDBRANCH  73  94
ENDBRANCH  47  48
ENDBRANCH  40  42
ENDBRANCH  39  40
ENDBRANCH  38  39
ENDBRANCH  37  38
ENDBRANCH  36  37
ENDBRANCH  35  36
ENDBRANCH  34  35
ENDBRANCH   1  34
TORSDOF 26
ENDMDL
MODEL 3
REMARK VINA RESULT:     -10.1      5.255     10.713
REMARK SMILES O=C(Cc1c(C(=O)c2cc3c(cn2)CCCC3)[nH]c2cc(Cl)ccc12)OCCOCCOCCOCCOC(=O)c1ccc(-c2c3nc(c(-c4ccc(S(=O)(=O)[O-])cc4)c4ccc([nH]4)c(-c4ccc(S(=O)(=O)[O-])cc4)c4nc(c(-c5ccc(S(=O)(=O)[O-])cc5)c5ccc2[nH]5)C=C4)C=C3)cc1
REMARK SMILES IDX 32 1 31 2 30 3 29 4 28 5 27 6 26 7 2 8 1 9 3 10 4 11 5 12
REMARK SMILES IDX 25 13 18 14 19 15 24 16 20 18 23 19 21 20 22 21 6 22 7 23
REMARK SMILES IDX 8 24 9 25 13 26 10 27 12 28 11 29 17 30 14 31 16 32 15 33
REMARK SMILES IDX 33 34 34 35 35 36 36 37 37 38 38 39 39 40 40 41 41 42 42 43
REMARK SMILES IDX 100 44 43 45 99 46 44 47 45 48 46 49 93 50 47 51 98 52 92 53
REMARK SMILES IDX 94 54 48 55 97 56 91 57 90 58 49 60 79 61 60 62 78 63 61 64
REMARK SMILES IDX 64 65 77 66 95 67 62 68 63 69 76 71 96 72 65 73 50 74 51 75
REMARK SMILES IDX 59 76 52 77 58 78 53 79 54 80 55 81 56 82 57 83 80 84 81 85
REMARK SMILES IDX 89 86 82 87 88 88 83 89 84 90 85 91 86 92 87 93 66 94 67 95
REMARK SMILES IDX 75 96 68 97 74 98 69 99 70 100 71 101 72 102 73 103
REMARK H PARENT 18 17 94 59 64 70
REMARK Flexibility Score: inf
ROOT
ATOM      1  O   UNL A   1      36.797  23.179  24.567  1.00  0.00    -0.377 OA
ENDROOT
BRANCH   1   2
ATOM      2  C   UNL A   1      35.616  23.491  23.835  1.00  0.00     0.188 C 
BRANCH   2   3
ATOM      3  C   UNL A   1      34.640  24.404  24.590  1.00  0.00     0.188 C 
BRANCH   3   4
ATOM      4  O   UNL A   1      34.092  25.456  23.817  1.00  0.00    -0.376 OA
BRANCH   4   5
ATOM      5  C   UNL A   1      32.912  25.327  23.049  1.00  0.00     0.202 C 
BRANCH   5   6
ATOM      6  C   UNL A   1      32.502  26.389  22.033  1.00  0.00     0.261 C 
BRANCH   6   7
ATOM      7  O   UNL A   1      31.121  26.804  21.996  1.00  0.00    -0.463 OA
BRANCH   7   8
ATOM      8  C   UNL A   1      30.481  27.827  22.591  1.00  0.00     0.310 C 
ATOM      9  O   UNL A   1      30.484  28.928  22.032  1.00  0.00    -0.252 OA
BRANCH   8  10
ATOM     10  C   UNL A   1      29.899  27.706  23.980  1.00  0.00     0.161 C 
BRANCH  10  11
ATOM     11  C   UNL A   1      30.823  27.602  25.147  1.00  0.00     0.000 A 
ATOM     12  C   UNL A   1      30.991  26.508  25.981  1.00  0.00     0.093 A 
ATOM     13  C   UNL A   1      31.646  28.659  25.645  1.00  0.00     0.004 A 
ATOM     14  N   UNL A   1      31.959  26.845  26.901  1.00  0.00    -0.351 N 
ATOM     15  C   UNL A   1      32.295  28.175  26.777  1.00  0.00     0.048 A 
ATOM     16  C   UNL A   1      31.879  29.989  25.238  1.00  0.00     0.012 A 
ATOM     17  H   UNL A   1      32.355  26.223  27.553  1.00  0.00     0.167 HD
ATOM     18  C   UNL A   1      33.114  28.986  27.573  1.00  0.00     0.047 A 
ATOM     19  C   UNL A   1      32.699  30.813  26.015  1.00  0.00     0.021 A 
ATOM     20  C   UNL A   1      33.283  30.318  27.177  1.00  0.00     0.043 A 
ATOM     21  Cl  UNL A   1      34.227  31.375  28.157  1.00  0.00    -0.084 Cl
BRANCH  12  22
ATOM     22  C   UNL A   1      30.255  25.262  25.914  1.00  0.00     0.227 C 
ATOM     23  O   UNL A   1      29.028  25.210  25.849  1.00  0.00    -0.285 OA
BRANCH  22  24
ATOM     24  C   UNL A   1      30.954  23.999  26.114  1.00  0.00     0.113 A 
ATOM     25  C   UNL A   1      31.050  23.220  24.983  1.00  0.00     0.036 A 
ATOM     26  N   UNL A   1      31.514  23.735  27.316  1.00  0.00    -0.252 NA
ATOM     27  C   UNL A   1      31.830  22.084  25.052  1.00  0.00    -0.041 A 
ATOM     28  C   UNL A   1      32.299  22.633  27.349  1.00  0.00     0.115 A 
ATOM     29  C   UNL A   1      32.478  21.774  26.259  1.00  0.00    -0.026 A 
ATOM     30  C   UNL A   1      31.925  21.228  23.826  1.00  0.00     0.036 C 
ATOM     31  C   UNL A   1      33.418  20.602  26.351  1.00  0.00     0.037 C 
ATOM     32  C   UNL A   1      33.098  20.265  23.878  1.00  0.00     0.005 C 
ATOM     33  C   UNL A   1      33.162  19.579  25.240  1.00  0.00     0.005 C 
ENDBRANCH  22  24
ENDBRANCH  12  22
ENDBRANCH  10  11
ENDBRANCH   8  10
ENDBRANCH   7   8
ENDBRANCH   6   7
ENDBRANCH   5   6
ENDBRANCH   4   5
ENDBRANCH   3   4
ENDBRANCH   2   3
ENDBRANCH   1   2
BRANCH   1  34
ATOM     34  C   UNL A   1      36.620  22.172  25.549  1.00  0.00     0.188 C 
BRANCH  34  35
ATOM     35  C   UNL A   1      36.665  20.717  25.027  1.00  0.00     0.188 C 
BRANCH  35  36
ATOM     36  O   UNL A   1      37.851  20.101  24.542  1.00  0.00    -0.376 OA
BRANCH  36  37
ATOM     37  C   UNL A   1      38.600  19.188  25.325  1.00  0.00     0.202 C 
BRANCH  37  38
ATOM     38  C   UNL A   1      40.003  19.531  25.833  1.00  0.00     0.261 C 
BRANCH  38  39
ATOM     39  O   UNL A   1      40.106  20.712  26.624  1.00  0.00    -0.460 OA
BRANCH  39  40
ATOM     40  C   UNL A   1      41.217  20.805  27.388  1.00  0.00     0.338 C 
ATOM     41  O   UNL A   1      41.994  19.910  27.675  1.00  0.00    -0.246 OA
BRANCH  40  42
ATOM     42  C   UNL A   1      41.455  22.236  27.672  1.00  0.00     0.060 A 
ATOM     43  C   UNL A   1      42.245  22.629  28.755  1.00  0.00     0.016 A 
ATOM     44  C   UNL A   1      40.827  23.195  26.862  1.00  0.00     0.016 A 
ATOM     45  C   UNL A   1      42.452  23.986  28.992  1.00  0.00     0.010 A 
ATOM     46  C   UNL A   1      41.023  24.552  27.109  1.00  0.00     0.010 A 
ATOM     47  C   UNL A   1      41.873  24.952  28.147  1.00  0.00    -0.014 A 
BRANCH  47  48
ATOM     48  C   UNL A   1      42.387  26.338  28.189  1.00  0.00     0.031 A 
ATOM     49  C   UNL A   1      41.579  27.481  28.712  1.00  0.00     0.074 A 
ATOM     50  C   UNL A   1      43.643  26.526  27.739  1.00  0.00     0.049 A 
ATOM     51  N   UNL A   1      41.972  28.704  28.954  1.00  0.00    -0.248 NA
ATOM     52  C   UNL A   1      40.159  27.236  28.996  1.00  0.00     0.031 C 
ATOM     53  C   UNL A   1      44.489  25.469  27.175  1.00  0.00     0.029 A 
ATOM     54  N   UNL A   1      44.440  27.640  27.711  1.00  0.00    -0.354 N 
ATOM     55  C   UNL A   1      40.860  29.373  29.443  1.00  0.00     0.074 A 
ATOM     56  C   UNL A   1      39.759  28.432  29.417  1.00  0.00     0.031 C 
ATOM     57  C   UNL A   1      45.704  25.970  26.918  1.00  0.00     0.029 A 
ATOM     58  C   UNL A   1      45.717  27.386  27.267  1.00  0.00     0.049 A 
ATOM     59  H   UNL A   1      44.129  28.533  27.984  1.00  0.00     0.167 HD
ATOM     60  C   UNL A   1      40.784  30.650  29.886  1.00  0.00     0.031 A 
ATOM     61  C   UNL A   1      46.791  28.194  27.176  1.00  0.00     0.031 A 
ATOM     62  C   UNL A   1      41.900  31.566  29.886  1.00  0.00     0.049 A 
ATOM     63  C   UNL A   1      46.670  29.609  27.661  1.00  0.00     0.074 A 
ATOM     64  C   UNL A   1      41.937  32.866  30.362  1.00  0.00     0.029 A 
ATOM     65  N   UNL A   1      43.165  31.291  29.385  1.00  0.00    -0.354 N 
ATOM     66  N   UNL A   1      45.637  30.200  28.214  1.00  0.00    -0.248 NA
ATOM     67  C   UNL A   1      47.858  30.461  27.535  1.00  0.00     0.031 C 
ATOM     68  C   UNL A   1      43.193  33.401  30.076  1.00  0.00     0.029 A 
ATOM     69  C   UNL A   1      43.976  32.408  29.507  1.00  0.00     0.049 A 
ATOM     70  H   UNL A   1      43.446  30.429  29.002  1.00  0.00     0.167 HD
ATOM     71  C   UNL A   1      46.061  31.485  28.528  1.00  0.00     0.074 A 
ATOM     72  C   UNL A   1      47.447  31.580  28.118  1.00  0.00     0.031 C 
ATOM     73  C   UNL A   1      45.360  32.492  29.103  1.00  0.00     0.031 A 
BRANCH  60  74
ATOM     74  C   UNL A   1      39.476  31.155  30.443  1.00  0.00    -0.014 A 
ATOM     75  C   UNL A   1      38.541  31.770  29.589  1.00  0.00     0.010 A 
ATOM     76  C   UNL A   1      39.254  31.186  31.830  1.00  0.00     0.010 A 
ATOM     77  C   UNL A   1      37.436  32.448  30.113  1.00  0.00     0.020 A 
ATOM     78  C   UNL A   1      38.134  31.837  32.358  1.00  0.00     0.020 A 
ATOM     79  C   UNL A   1      37.246  32.488  31.497  1.00  0.00     0.054 A 
BRANCH  79  80
ATOM     80  S   UNL A   1      35.837  33.418  32.162  1.00  0.00     0.124 S 
ATOM     81  O   UNL A   1      34.912  33.431  31.034  1.00  0.00    -0.237 OA
ATOM     82  O   UNL A   1      35.430  32.604  33.307  1.00  0.00    -0.237 OA
ATOM     83  O   UNL A   1      36.416  34.714  32.514  1.00  0.00    -0.744 OA
ENDBRANCH  79  80
ENDBRANCH  60  74
BRANCH  61  84
ATOM     84  C   UNL A   1      48.080  27.635  26.682  1.00  0.00    -0.014 A 
ATOM     85  C   UNL A   1      49.003  27.065  27.579  1.00  0.00     0.010 A 
ATOM     86  C   UNL A   1      48.431  27.750  25.325  1.00  0.00     0.010 A 
ATOM     87  C   UNL A   1      50.268  26.668  27.140  1.00  0.00     0.020 A 
ATOM     88  C   UNL A   1      49.682  27.320  24.875  1.00  0.00     0.020 A 
ATOM     89  C   UNL A   1      50.603  26.807  25.791  1.00  0.00     0.054 A 
BRANCH  89  90
ATOM     90  S   UNL A   1      52.263  26.314  25.252  1.00  0.00     0.124 S 
ATOM     91  O   UNL A   1      52.164  26.458  23.803  1.00  0.00    -0.237 OA
ATOM     92  O   UNL A   1      53.117  27.290  25.924  1.00  0.00    -0.237 OA
ATOM     93  O   UNL A   1      52.387  24.942  25.739  1.00  0.00    -0.744 OA
ENDBRANCH  89  90
ENDBRANCH  61  84
BRANCH  73  94
ATOM     94  C   UNL A   1      46.064  33.803  29.346  1.00  0.00    -0.014 A 
ATOM     95  C   UNL A   1      46.094  34.775  28.327  1.00  0.00     0.010 A 
ATOM     96  C   UNL A   1      46.818  34.016  30.514  1.00  0.00     0.010 A 
ATOM     97  C   UNL A   1      46.903  35.907  28.448  1.00  0.00     0.020 A 
ATOM     98  C   UNL A   1      47.600  35.165  30.654  1.00  0.00     0.020 A 
ATOM     99  C   UNL A   1      47.662  36.088  29.606  1.00  0.00     0.054 A 
BRANCH  99 100
ATOM    100  S   UNL A   1      48.751  37.533  29.719  1.00  0.00     0.124 S 
ATOM    101  O   UNL A   1      47.891  38.515  30.373  1.00  0.00    -0.237 OA
ATOM    102  O   UNL A   1      49.864  37.035  30.523  1.00  0.00    -0.237 OA
ATOM    103  O   UNL A   1      49.081  37.825  28.325  1.00  0.00    -0.744 OA
ENDBRANCH  99 100
ENDBRANCH  73  94
ENDBRANCH  47  48
ENDBRANCH  40  42
ENDBRANCH  39  40
ENDBRANCH  38  39
ENDBRANCH  37  38
ENDBRANCH  36  37
ENDBRANCH  35  36
ENDBRANCH  34  35
ENDBRANCH   1  34
TORSDOF 26
ENDMDL
