MODEL 1
REMARK VINA RESULT:      -7.6      0.000      0.000
REMARK SMILES CCC(CC)(NC(=O)c1cc(C)ccc1OC)C(=O)OCCOCCOCCOCCOC(=O)c1ccc(-c2c3nc(c(-c4ccc(S(=O)(=O)[O-])cc4)c4ccc([nH]4)c(-c4ccc(S(=O)(=O)[O-])cc4)c4nc(c(-c5ccc(S(=O)(=O)[O-])cc5)c5ccc2[nH]5)C=C4)C=C3)cc1
REMARK SMILES IDX 26 1 25 2 24 3 23 4 22 5 21 6 20 7 18 8 19 9 3 10 2 11 1 12
REMARK SMILES IDX 4 13 5 14 6 15 7 16 8 18 9 19 10 20 15 21 11 22 14 23 12 24
REMARK SMILES IDX 13 25 16 26 17 27 27 28 28 29 29 30 30 31 31 32 32 33 33 34
REMARK SMILES IDX 34 35 35 36 36 37 94 38 37 39 93 40 38 41 39 42 40 43 87 44
REMARK SMILES IDX 41 45 92 46 86 47 88 48 42 49 91 50 85 51 84 52 43 54 73 55
REMARK SMILES IDX 54 56 72 57 55 58 58 59 71 60 89 61 56 62 57 63 70 65 90 66
REMARK SMILES IDX 59 67 44 68 45 69 53 70 46 71 52 72 47 73 48 74 49 75 50 76
REMARK SMILES IDX 51 77 74 78 75 79 83 80 76 81 82 82 77 83 78 84 79 85 80 86
REMARK SMILES IDX 81 87 60 88 61 89 69 90 62 91 68 92 63 93 64 94 65 95 66 96
REMARK SMILES IDX 67 97
REMARK H PARENT 6 17 88 53 58 64
REMARK Flexibility Score: inf
ROOT
ATOM      1  O   UNL A   1      43.268  42.336  25.319  1.00  0.00    -0.377 OA
ENDROOT
BRANCH   1   2
ATOM      2  C   UNL A   1      43.143  42.691  23.949  1.00  0.00     0.188 C 
BRANCH   2   3
ATOM      3  C   UNL A   1      41.967  42.147  23.124  1.00  0.00     0.188 C 
BRANCH   3   4
ATOM      4  O   UNL A   1      41.676  42.583  21.820  1.00  0.00    -0.376 OA
BRANCH   4   5
ATOM      5  C   UNL A   1      42.646  42.580  20.801  1.00  0.00     0.202 C 
BRANCH   5   6
ATOM      6  C   UNL A   1      43.408  43.795  20.337  1.00  0.00     0.261 C 
BRANCH   6   7
ATOM      7  O   UNL A   1      44.796  43.546  20.110  1.00  0.00    -0.461 OA
BRANCH   7   8
ATOM      8  C   UNL A   1      45.527  44.346  20.878  1.00  0.00     0.331 C 
ATOM      9  O   UNL A   1      45.111  44.752  21.976  1.00  0.00    -0.249 OA
BRANCH   8  10
ATOM     10  C   UNL A   1      46.883  44.768  20.313  1.00  0.00     0.137 C 
BRANCH  10  11
ATOM     11  C   UNL A   1      47.457  43.275  20.015  1.00  0.00     0.037 C 
ATOM     12  C   UNL A   1      47.996  42.478  21.238  1.00  0.00     0.007 C 
ENDBRANCH  10  11
BRANCH  10  13
ATOM     13  C   UNL A   1      47.771  45.358  21.444  1.00  0.00     0.037 C 
ATOM     14  C   UNL A   1      47.623  46.873  21.607  1.00  0.00     0.007 C 
ENDBRANCH  10  13
BRANCH  10  15
ATOM     15  N   UNL A   1      46.901  45.514  18.882  1.00  0.00    -0.336 N 
ATOM     16  C   UNL A   1      46.297  46.202  17.808  1.00  0.00     0.255 C 
ATOM     17  H   UNL A   1      47.846  45.461  18.612  1.00  0.00     0.165 HD
ATOM     18  O   UNL A   1      47.125  46.371  16.886  1.00  0.00    -0.269 OA
BRANCH  16  19
ATOM     19  C   UNL A   1      44.893  46.741  17.435  1.00  0.00     0.082 A 
ATOM     20  C   UNL A   1      43.896  45.734  17.096  1.00  0.00     0.021 A 
ATOM     21  C   UNL A   1      44.435  48.055  17.269  1.00  0.00     0.131 A 
ATOM     22  C   UNL A   1      42.509  46.013  16.879  1.00  0.00    -0.050 A 
ATOM     23  C   UNL A   1      43.061  48.327  17.044  1.00  0.00     0.047 A 
ATOM     24  C   UNL A   1      41.428  44.983  16.651  1.00  0.00     0.044 C 
ATOM     25  C   UNL A   1      42.105  47.337  16.893  1.00  0.00     0.007 A 
BRANCH  21  26
ATOM     26  O   UNL A   1      45.127  49.230  17.180  1.00  0.00    -0.496 OA
ATOM     27  C   UNL A   1      44.359  50.324  16.773  1.00  0.00     0.278 C 
ENDBRANCH  21  26
ENDBRANCH  16  19
ENDBRANCH  10  15
ENDBRANCH   8  10
ENDBRANCH   7   8
ENDBRANCH   6   7
ENDBRANCH   5   6
ENDBRANCH   4   5
ENDBRANCH   3   4
ENDBRANCH   2   3
ENDBRANCH   1   2
BRANCH   1  28
ATOM     28  C   UNL A   1      44.431  41.625  25.731  1.00  0.00     0.188 C 
BRANCH  28  29
ATOM     29  C   UNL A   1      44.167  40.245  26.269  1.00  0.00     0.188 C 
BRANCH  29  30
ATOM     30  O   UNL A   1      45.418  39.570  26.164  1.00  0.00    -0.376 OA
BRANCH  30  31
ATOM     31  C   UNL A   1      46.528  40.240  26.713  1.00  0.00     0.202 C 
BRANCH  31  32
ATOM     32  C   UNL A   1      47.814  39.505  26.380  1.00  0.00     0.261 C 
BRANCH  32  33
ATOM     33  O   UNL A   1      47.504  38.522  25.351  1.00  0.00    -0.460 OA
BRANCH  33  34
ATOM     34  C   UNL A   1      47.884  37.217  25.515  1.00  0.00     0.338 C 
ATOM     35  O   UNL A   1      48.925  36.787  25.044  1.00  0.00    -0.246 OA
BRANCH  34  36
ATOM     36  C   UNL A   1      47.012  36.410  26.445  1.00  0.00     0.060 A 
ATOM     37  C   UNL A   1      47.305  36.304  27.814  1.00  0.00     0.016 A 
ATOM     38  C   UNL A   1      45.942  35.668  25.975  1.00  0.00     0.016 A 
ATOM     39  C   UNL A   1      46.663  35.345  28.653  1.00  0.00     0.010 A 
ATOM     40  C   UNL A   1      45.340  34.705  26.801  1.00  0.00     0.010 A 
ATOM     41  C   UNL A   1      45.715  34.462  28.146  1.00  0.00    -0.014 A 
BRANCH  41  42
ATOM     42  C   UNL A   1      45.221  33.188  28.815  1.00  0.00     0.031 A 
ATOM     43  C   UNL A   1      43.997  33.275  29.746  1.00  0.00     0.074 A 
ATOM     44  C   UNL A   1      45.568  31.955  28.315  1.00  0.00     0.049 A 
ATOM     45  N   UNL A   1      43.261  32.286  30.148  1.00  0.00    -0.248 NA
ATOM     46  C   UNL A   1      43.440  34.546  30.238  1.00  0.00     0.031 C 
ATOM     47  C   UNL A   1      44.681  30.789  28.216  1.00  0.00     0.029 A 
ATOM     48  N   UNL A   1      46.733  31.449  27.712  1.00  0.00    -0.354 N 
ATOM     49  C   UNL A   1      42.010  32.773  30.530  1.00  0.00     0.074 A 
ATOM     50  C   UNL A   1      42.208  34.197  30.645  1.00  0.00     0.031 C 
ATOM     51  C   UNL A   1      45.266  29.753  27.594  1.00  0.00     0.029 A 
ATOM     52  C   UNL A   1      46.669  30.023  27.729  1.00  0.00     0.049 A 
ATOM     53  H   UNL A   1      47.468  31.988  27.339  1.00  0.00     0.167 HD
ATOM     54  C   UNL A   1      40.915  31.938  30.536  1.00  0.00     0.031 A 
ATOM     55  C   UNL A   1      47.431  29.238  28.572  1.00  0.00     0.031 A 
ATOM     56  C   UNL A   1      41.288  30.526  30.304  1.00  0.00     0.049 A 
ATOM     57  C   UNL A   1      46.619  28.450  29.617  1.00  0.00     0.074 A 
ATOM     58  C   UNL A   1      40.859  29.519  29.447  1.00  0.00     0.029 A 
ATOM     59  N   UNL A   1      42.406  30.016  30.943  1.00  0.00    -0.354 N 
ATOM     60  N   UNL A   1      45.369  28.707  29.906  1.00  0.00    -0.248 NA
ATOM     61  C   UNL A   1      47.121  27.338  30.422  1.00  0.00     0.031 C 
ATOM     62  C   UNL A   1      41.746  28.414  29.575  1.00  0.00     0.029 A 
ATOM     63  C   UNL A   1      42.658  28.721  30.567  1.00  0.00     0.049 A 
ATOM     64  H   UNL A   1      42.951  30.521  31.589  1.00  0.00     0.167 HD
ATOM     65  C   UNL A   1      44.904  27.874  30.879  1.00  0.00     0.074 A 
ATOM     66  C   UNL A   1      46.062  27.063  31.210  1.00  0.00     0.031 C 
ATOM     67  C   UNL A   1      43.618  27.950  31.334  1.00  0.00     0.031 A 
BRANCH  54  68
ATOM     68  C   UNL A   1      39.422  32.320  30.591  1.00  0.00    -0.014 A 
ATOM     69  C   UNL A   1      38.971  33.107  31.684  1.00  0.00     0.010 A 
ATOM     70  C   UNL A   1      38.406  31.902  29.706  1.00  0.00     0.010 A 
ATOM     71  C   UNL A   1      37.624  33.437  31.906  1.00  0.00     0.020 A 
ATOM     72  C   UNL A   1      37.043  32.265  29.893  1.00  0.00     0.020 A 
ATOM     73  C   UNL A   1      36.660  33.024  30.998  1.00  0.00     0.054 A 
BRANCH  73  74
ATOM     74  S   UNL A   1      34.937  33.539  31.280  1.00  0.00     0.124 S 
ATOM     75  O   UNL A   1      34.497  33.925  29.942  1.00  0.00    -0.237 OA
ATOM     76  O   UNL A   1      34.323  32.323  31.812  1.00  0.00    -0.237 OA
ATOM     77  O   UNL A   1      35.052  34.638  32.236  1.00  0.00    -0.744 OA
ENDBRANCH  73  74
ENDBRANCH  54  68
BRANCH  55  78
ATOM     78  C   UNL A   1      48.791  29.820  28.785  1.00  0.00    -0.014 A 
ATOM     79  C   UNL A   1      49.053  30.350  30.069  1.00  0.00     0.010 A 
ATOM     80  C   UNL A   1      49.841  29.230  28.059  1.00  0.00     0.010 A 
ATOM     81  C   UNL A   1      50.238  30.012  30.729  1.00  0.00     0.020 A 
ATOM     82  C   UNL A   1      51.019  28.876  28.726  1.00  0.00     0.020 A 
ATOM     83  C   UNL A   1      51.168  29.198  30.078  1.00  0.00     0.054 A 
BRANCH  83  84
ATOM     84  S   UNL A   1      52.426  28.371  31.096  1.00  0.00     0.124 S 
ATOM     85  O   UNL A   1      52.360  26.990  30.633  1.00  0.00    -0.237 OA
ATOM     86  O   UNL A   1      53.638  29.094  30.715  1.00  0.00    -0.237 OA
ATOM     87  O   UNL A   1      51.970  28.602  32.464  1.00  0.00    -0.744 OA
ENDBRANCH  83  84
ENDBRANCH  55  78
BRANCH  67  88
ATOM     88  C   UNL A   1      43.118  27.392  32.639  1.00  0.00    -0.014 A 
ATOM     89  C   UNL A   1      43.779  26.420  33.383  1.00  0.00     0.010 A 
ATOM     90  C   UNL A   1      41.901  27.903  33.171  1.00  0.00     0.010 A 
ATOM     91  C   UNL A   1      43.344  26.102  34.674  1.00  0.00     0.020 A 
ATOM     92  C   UNL A   1      41.441  27.574  34.439  1.00  0.00     0.020 A 
ATOM     93  C   UNL A   1      42.201  26.710  35.205  1.00  0.00     0.054 A 
BRANCH  93  94
ATOM     94  S   UNL A   1      41.728  26.359  36.908  1.00  0.00     0.124 S 
ATOM     95  O   UNL A   1      41.295  24.965  36.830  1.00  0.00    -0.237 OA
ATOM     96  O   UNL A   1      42.982  26.588  37.620  1.00  0.00    -0.237 OA
ATOM     97  O   UNL A   1      40.668  27.324  37.186  1.00  0.00    -0.744 OA
ENDBRANCH  93  94
ENDBRANCH  67  88
ENDBRANCH  41  42
ENDBRANCH  34  36
ENDBRANCH  33  34
ENDBRANCH  32  33
ENDBRANCH  31  32
ENDBRANCH  30  31
ENDBRANCH  29  30
ENDBRANCH  28  29
ENDBRANCH   1  28
TORSDOF 28
ENDMDL
MODEL 2
REMARK VINA RESULT:      -7.2     10.589     15.245
REMARK SMILES CCC(CC)(NC(=O)c1cc(C)ccc1OC)C(=O)OCCOCCOCCOCCOC(=O)c1ccc(-c2c3nc(c(-c4ccc(S(=O)(=O)[O-])cc4)c4ccc([nH]4)c(-c4ccc(S(=O)(=O)[O-])cc4)c4nc(c(-c5ccc(S(=O)(=O)[O-])cc5)c5ccc2[nH]5)C=C4)C=C3)cc1
REMARK SMILES IDX 26 1 25 2 24 3 23 4 22 5 21 6 20 7 18 8 19 9 3 10 2 11 1 12
REMARK SMILES IDX 4 13 5 14 6 15 7 16 8 18 9 19 10 20 15 21 11 22 14 23 12 24
REMARK SMILES IDX 13 25 16 26 17 27 27 28 28 29 29 30 30 31 31 32 32 33 33 34
REMARK SMILES IDX 34 35 35 36 36 37 94 38 37 39 93 40 38 41 39 42 40 43 87 44
REMARK SMILES IDX 41 45 92 46 86 47 88 48 42 49 91 50 85 51 84 52 43 54 73 55
REMARK SMILES IDX 54 56 72 57 55 58 58 59 71 60 89 61 56 62 57 63 70 65 90 66
REMARK SMILES IDX 59 67 44 68 45 69 53 70 46 71 52 72 47 73 48 74 49 75 50 76
REMARK SMILES IDX 51 77 74 78 75 79 83 80 76 81 82 82 77 83 78 84 79 85 80 86
REMARK SMILES IDX 81 87 60 88 61 89 69 90 62 91 68 92 63 93 64 94 65 95 66 96
REMARK SMILES IDX 67 97
REMARK H PARENT 6 17 88 53 58 64
REMARK Flexibility Score: inf
ROOT
ATOM      1  O   UNL A   1      49.671  25.565  35.911  1.00  0.00    -0.377 OA
ENDROOT
BRANCH   1   2
ATOM      2  C   UNL A   1      48.984  26.667  36.488  1.00  0.00     0.188 C 
BRANCH   2   3
ATOM      3  C   UNL A   1      49.731  27.620  37.434  1.00  0.00     0.188 C 
BRANCH   3   4
ATOM      4  O   UNL A   1      49.569  29.016  37.404  1.00  0.00    -0.376 OA
BRANCH   4   5
ATOM      5  C   UNL A   1      48.300  29.618  37.474  1.00  0.00     0.202 C 
BRANCH   5   6
ATOM      6  C   UNL A   1      47.459  29.990  36.279  1.00  0.00     0.261 C 
BRANCH   6   7
ATOM      7  O   UNL A   1      47.824  31.240  35.692  1.00  0.00    -0.461 OA
BRANCH   7   8
ATOM      8  C   UNL A   1      48.792  31.052  34.802  1.00  0.00     0.331 C 
ATOM      9  O   UNL A   1      49.970  31.360  35.047  1.00  0.00    -0.249 OA
BRANCH   8  10
ATOM     10  C   UNL A   1      48.363  30.478  33.451  1.00  0.00     0.137 C 
BRANCH  10  11
ATOM     11  C   UNL A   1      49.794  30.638  32.695  1.00  0.00     0.037 C 
ATOM     12  C   UNL A   1      49.786  30.492  31.146  1.00  0.00     0.007 C 
ENDBRANCH  10  11
BRANCH  10  13
ATOM     13  C   UNL A   1      47.384  31.456  32.744  1.00  0.00     0.037 C 
ATOM     14  C   UNL A   1      46.124  30.775  32.206  1.00  0.00     0.007 C 
ENDBRANCH  10  13
BRANCH  10  15
ATOM     15  N   UNL A   1      48.027  28.901  33.378  1.00  0.00    -0.336 N 
ATOM     16  C   UNL A   1      48.227  27.587  32.904  1.00  0.00     0.255 C 
ATOM     17  H   UNL A   1      47.275  28.802  34.005  1.00  0.00     0.165 HD
ATOM     18  O   UNL A   1      47.330  26.833  33.337  1.00  0.00    -0.269 OA
BRANCH  16  19
ATOM     19  C   UNL A   1      49.202  26.847  31.953  1.00  0.00     0.082 A 
ATOM     20  C   UNL A   1      50.586  26.764  32.402  1.00  0.00     0.021 A 
ATOM     21  C   UNL A   1      49.001  26.321  30.669  1.00  0.00     0.131 A 
ATOM     22  C   UNL A   1      51.600  25.992  31.750  1.00  0.00    -0.050 A 
ATOM     23  C   UNL A   1      50.011  25.565  30.023  1.00  0.00     0.047 A 
ATOM     24  C   UNL A   1      53.008  25.781  32.255  1.00  0.00     0.044 C 
ATOM     25  C   UNL A   1      51.272  25.363  30.562  1.00  0.00     0.007 A 
BRANCH  21  26
ATOM     26  O   UNL A   1      47.961  26.485  29.798  1.00  0.00    -0.496 OA
ATOM     27  C   UNL A   1      47.992  25.629  28.694  1.00  0.00     0.278 C 
ENDBRANCH  21  26
ENDBRANCH  16  19
ENDBRANCH  10  15
ENDBRANCH   8  10
ENDBRANCH   7   8
ENDBRANCH   6   7
ENDBRANCH   5   6
ENDBRANCH   4   5
ENDBRANCH   3   4
ENDBRANCH   2   3
ENDBRANCH   1   2
BRANCH   1  28
ATOM     28  C   UNL A   1      50.999  25.292  36.347  1.00  0.00     0.188 C 
BRANCH  28  29
ATOM     29  C   UNL A   1      51.600  24.033  35.783  1.00  0.00     0.188 C 
BRANCH  29  30
ATOM     30  O   UNL A   1      51.193  23.003  36.679  1.00  0.00    -0.376 OA
BRANCH  30  31
ATOM     31  C   UNL A   1      50.830  21.779  36.085  1.00  0.00     0.202 C 
BRANCH  31  32
ATOM     32  C   UNL A   1      49.508  21.912  35.350  1.00  0.00     0.261 C 
BRANCH  32  33
ATOM     33  O   UNL A   1      48.516  22.373  36.312  1.00  0.00    -0.460 OA
BRANCH  33  34
ATOM     34  C   UNL A   1      47.253  21.847  36.297  1.00  0.00     0.338 C 
ATOM     35  O   UNL A   1      47.029  20.702  36.659  1.00  0.00    -0.246 OA
BRANCH  34  36
ATOM     36  C   UNL A   1      46.156  22.828  35.961  1.00  0.00     0.060 A 
ATOM     37  C   UNL A   1      44.932  22.400  35.424  1.00  0.00     0.016 A 
ATOM     38  C   UNL A   1      46.343  24.194  36.082  1.00  0.00     0.016 A 
ATOM     39  C   UNL A   1      43.995  23.312  34.855  1.00  0.00     0.010 A 
ATOM     40  C   UNL A   1      45.429  25.082  35.491  1.00  0.00     0.010 A 
ATOM     41  C   UNL A   1      44.257  24.677  34.803  1.00  0.00    -0.014 A 
BRANCH  41  42
ATOM     42  C   UNL A   1      43.540  25.702  33.935  1.00  0.00     0.031 A 
ATOM     43  C   UNL A   1      42.503  26.627  34.598  1.00  0.00     0.074 A 
ATOM     44  C   UNL A   1      44.063  26.079  32.721  1.00  0.00     0.049 A 
ATOM     45  N   UNL A   1      42.031  27.732  34.110  1.00  0.00    -0.248 NA
ATOM     46  C   UNL A   1      41.969  26.410  35.953  1.00  0.00     0.031 C 
ATOM     47  C   UNL A   1      44.076  27.445  32.180  1.00  0.00     0.029 A 
ATOM     48  N   UNL A   1      44.767  25.393  31.716  1.00  0.00    -0.354 N 
ATOM     49  C   UNL A   1      41.540  28.520  35.153  1.00  0.00     0.074 A 
ATOM     50  C   UNL A   1      41.450  27.608  36.268  1.00  0.00     0.031 C 
ATOM     51  C   UNL A   1      44.743  27.527  31.018  1.00  0.00     0.029 A 
ATOM     52  C   UNL A   1      44.737  26.180  30.524  1.00  0.00     0.049 A 
ATOM     53  H   UNL A   1      45.207  24.518  31.817  1.00  0.00     0.167 HD
ATOM     54  C   UNL A   1      41.431  29.884  34.998  1.00  0.00     0.031 A 
ATOM     55  C   UNL A   1      43.962  25.866  29.425  1.00  0.00     0.031 A 
ATOM     56  C   UNL A   1      41.688  30.310  33.605  1.00  0.00     0.049 A 
ATOM     57  C   UNL A   1      42.844  26.881  29.121  1.00  0.00     0.074 A 
ATOM     58  C   UNL A   1      42.498  31.262  32.998  1.00  0.00     0.029 A 
ATOM     59  N   UNL A   1      41.151  29.566  32.569  1.00  0.00    -0.354 N 
ATOM     60  N   UNL A   1      42.445  27.793  29.971  1.00  0.00    -0.248 NA
ATOM     61  C   UNL A   1      42.082  26.959  27.877  1.00  0.00     0.031 C 
ATOM     62  C   UNL A   1      42.445  31.063  31.591  1.00  0.00     0.029 A 
ATOM     63  C   UNL A   1      41.542  30.047  31.345  1.00  0.00     0.049 A 
ATOM     64  H   UNL A   1      40.560  28.789  32.695  1.00  0.00     0.167 HD
ATOM     65  C   UNL A   1      41.429  28.540  29.453  1.00  0.00     0.074 A 
ATOM     66  C   UNL A   1      41.200  27.942  28.151  1.00  0.00     0.031 C 
ATOM     67  C   UNL A   1      40.860  29.563  30.159  1.00  0.00     0.031 A 
BRANCH  54  68
ATOM     68  C   UNL A   1      41.243  30.957  36.089  1.00  0.00    -0.014 A 
ATOM     69  C   UNL A   1      40.006  31.652  36.140  1.00  0.00     0.010 A 
ATOM     70  C   UNL A   1      42.209  31.402  37.016  1.00  0.00     0.010 A 
ATOM     71  C   UNL A   1      39.745  32.719  37.016  1.00  0.00     0.020 A 
ATOM     72  C   UNL A   1      41.944  32.452  37.939  1.00  0.00     0.020 A 
ATOM     73  C   UNL A   1      40.715  33.110  37.926  1.00  0.00     0.054 A 
BRANCH  73  74
ATOM     74  S   UNL A   1      40.308  34.444  39.096  1.00  0.00     0.124 S 
ATOM     75  O   UNL A   1      40.987  35.598  38.512  1.00  0.00    -0.237 OA
ATOM     76  O   UNL A   1      38.848  34.484  39.040  1.00  0.00    -0.237 OA
ATOM     77  O   UNL A   1      40.863  33.977  40.365  1.00  0.00    -0.744 OA
ENDBRANCH  73  74
ENDBRANCH  54  68
BRANCH  55  78
ATOM     78  C   UNL A   1      43.875  24.388  29.218  1.00  0.00    -0.014 A 
ATOM     79  C   UNL A   1      42.586  23.817  29.304  1.00  0.00     0.010 A 
ATOM     80  C   UNL A   1      44.818  23.827  28.337  1.00  0.00     0.010 A 
ATOM     81  C   UNL A   1      42.154  22.928  28.315  1.00  0.00     0.020 A 
ATOM     82  C   UNL A   1      44.381  22.952  27.337  1.00  0.00     0.020 A 
ATOM     83  C   UNL A   1      43.034  22.578  27.288  1.00  0.00     0.054 A 
BRANCH  83  84
ATOM     84  S   UNL A   1      42.327  21.852  25.779  1.00  0.00     0.124 S 
ATOM     85  O   UNL A   1      42.760  20.462  25.856  1.00  0.00    -0.237 OA
ATOM     86  O   UNL A   1      40.896  22.067  25.990  1.00  0.00    -0.237 OA
ATOM     87  O   UNL A   1      42.921  22.642  24.704  1.00  0.00    -0.744 OA
ENDBRANCH  83  84
ENDBRANCH  55  78
BRANCH  67  88
ATOM     88  C   UNL A   1      39.513  30.172  29.882  1.00  0.00    -0.014 A 
ATOM     89  C   UNL A   1      39.250  31.539  29.894  1.00  0.00     0.010 A 
ATOM     90  C   UNL A   1      38.433  29.305  29.557  1.00  0.00     0.010 A 
ATOM     91  C   UNL A   1      38.022  32.025  29.436  1.00  0.00     0.020 A 
ATOM     92  C   UNL A   1      37.197  29.773  29.128  1.00  0.00     0.020 A 
ATOM     93  C   UNL A   1      37.020  31.140  29.020  1.00  0.00     0.054 A 
BRANCH  93  94
ATOM     94  S   UNL A   1      35.490  31.801  28.335  1.00  0.00     0.124 S 
ATOM     95  O   UNL A   1      35.957  32.983  27.614  1.00  0.00    -0.237 OA
ATOM     96  O   UNL A   1      35.036  30.693  27.498  1.00  0.00    -0.237 OA
ATOM     97  O   UNL A   1      34.667  32.074  29.509  1.00  0.00    -0.744 OA
ENDBRANCH  93  94
ENDBRANCH  67  88
ENDBRANCH  41  42
ENDBRANCH  34  36
ENDBRANCH  33  34
ENDBRANCH  32  33
ENDBRANCH  31  32
ENDBRANCH  30  31
ENDBRANCH  29  30
ENDBRANCH  28  29
ENDBRANCH   1  28
TORSDOF 28
ENDMDL
MODEL 3
REMARK VINA RESULT:      -7.0      9.126     13.326
REMARK SMILES CCC(CC)(NC(=O)c1cc(C)ccc1OC)C(=O)OCCOCCOCCOCCOC(=O)c1ccc(-c2c3nc(c(-c4ccc(S(=O)(=O)[O-])cc4)c4ccc([nH]4)c(-c4ccc(S(=O)(=O)[O-])cc4)c4nc(c(-c5ccc(S(=O)(=O)[O-])cc5)c5ccc2[nH]5)C=C4)C=C3)cc1
REMARK SMILES IDX 26 1 25 2 24 3 23 4 22 5 21 6 20 7 18 8 19 9 3 10 2 11 1 12
REMARK SMILES IDX 4 13 5 14 6 15 7 16 8 18 9 19 10 20 15 21 11 22 14 23 12 24
REMARK SMILES IDX 13 25 16 26 17 27 27 28 28 29 29 30 30 31 31 32 32 33 33 34
REMARK SMILES IDX 34 35 35 36 36 37 94 38 37 39 93 40 38 41 39 42 40 43 87 44
REMARK SMILES IDX 41 45 92 46 86 47 88 48 42 49 91 50 85 51 84 52 43 54 73 55
REMARK SMILES IDX 54 56 72 57 55 58 58 59 71 60 89 61 56 62 57 63 70 65 90 66
REMARK SMILES IDX 59 67 44 68 45 69 53 70 46 71 52 72 47 73 48 74 49 75 50 76
REMARK SMILES IDX 51 77 74 78 75 79 83 80 76 81 82 82 77 83 78 84 79 85 80 86
REMARK SMILES IDX 81 87 60 88 61 89 69 90 62 91 68 92 63 93 64 94 65 95 66 96
REMARK SMILES IDX 67 97
REMARK H PARENT 6 17 88 53 58 64
REMARK Flexibility Score: inf
ROOT
ATOM      1  O   UNL A   1      48.064  34.456  33.848  1.00  0.00    -0.377 OA
ENDROOT
BRANCH   1   2
ATOM      2  C   UNL A   1      47.254  33.289  33.809  1.00  0.00     0.188 C 
BRANCH   2   3
ATOM      3  C   UNL A   1      47.486  32.165  34.831  1.00  0.00     0.188 C 
BRANCH   3   4
ATOM      4  O   UNL A   1      46.863  32.132  36.091  1.00  0.00    -0.376 OA
BRANCH   4   5
ATOM      5  C   UNL A   1      46.447  30.926  36.682  1.00  0.00     0.202 C 
BRANCH   5   6
ATOM      6  C   UNL A   1      45.083  30.307  36.501  1.00  0.00     0.261 C 
BRANCH   6   7
ATOM      7  O   UNL A   1      45.074  29.203  35.595  1.00  0.00    -0.461 OA
BRANCH   7   8
ATOM      8  C   UNL A   1      43.828  28.779  35.417  1.00  0.00     0.331 C 
ATOM      9  O   UNL A   1      42.857  29.403  35.876  1.00  0.00    -0.249 OA
BRANCH   8  10
ATOM     10  C   UNL A   1      43.666  27.463  34.655  1.00  0.00     0.137 C 
BRANCH  10  11
ATOM     11  C   UNL A   1      43.054  28.092  33.285  1.00  0.00     0.037 C 
ATOM     12  C   UNL A   1      41.540  28.452  33.298  1.00  0.00     0.007 C 
ENDBRANCH  10  11
BRANCH  10  13
ATOM     13  C   UNL A   1      42.529  26.617  35.292  1.00  0.00     0.037 C 
ATOM     14  C   UNL A   1      42.466  25.183  34.761  1.00  0.00     0.007 C 
ENDBRANCH  10  13
BRANCH  10  15
ATOM     15  N   UNL A   1      45.007  26.691  34.197  1.00  0.00    -0.336 N 
ATOM     16  C   UNL A   1      45.804  25.984  33.271  1.00  0.00     0.255 C 
ATOM     17  H   UNL A   1      45.579  26.741  34.995  1.00  0.00     0.165 HD
ATOM     18  O   UNL A   1      46.851  25.583  33.825  1.00  0.00    -0.269 OA
BRANCH  16  19
ATOM     19  C   UNL A   1      45.709  25.517  31.796  1.00  0.00     0.082 A 
ATOM     20  C   UNL A   1      44.739  24.465  31.524  1.00  0.00     0.021 A 
ATOM     21  C   UNL A   1      46.478  25.868  30.678  1.00  0.00     0.131 A 
ATOM     22  C   UNL A   1      44.390  24.010  30.214  1.00  0.00    -0.050 A 
ATOM     23  C   UNL A   1      46.135  25.407  29.382  1.00  0.00     0.047 A 
ATOM     24  C   UNL A   1      43.301  23.014  29.887  1.00  0.00     0.044 C 
ATOM     25  C   UNL A   1      45.089  24.531  29.139  1.00  0.00     0.007 A 
BRANCH  21  26
ATOM     26  O   UNL A   1      47.656  26.555  30.593  1.00  0.00    -0.496 OA
ATOM     27  C   UNL A   1      48.795  25.780  30.829  1.00  0.00     0.278 C 
ENDBRANCH  21  26
ENDBRANCH  16  19
ENDBRANCH  10  15
ENDBRANCH   8  10
ENDBRANCH   7   8
ENDBRANCH   6   7
ENDBRANCH   5   6
ENDBRANCH   4   5
ENDBRANCH   3   4
ENDBRANCH   2   3
ENDBRANCH   1   2
BRANCH   1  28
ATOM     28  C   UNL A   1      47.829  35.474  32.881  1.00  0.00     0.188 C 
BRANCH  28  29
ATOM     29  C   UNL A   1      48.989  36.405  32.655  1.00  0.00     0.188 C 
BRANCH  29  30
ATOM     30  O   UNL A   1      50.118  35.715  33.185  1.00  0.00    -0.376 OA
BRANCH  30  31
ATOM     31  C   UNL A   1      51.155  35.441  32.274  1.00  0.00     0.202 C 
BRANCH  31  32
ATOM     32  C   UNL A   1      50.971  34.068  31.651  1.00  0.00     0.261 C 
BRANCH  32  33
ATOM     33  O   UNL A   1      51.500  34.126  30.296  1.00  0.00    -0.460 OA
BRANCH  33  34
ATOM     34  C   UNL A   1      50.657  33.995  29.226  1.00  0.00     0.338 C 
ATOM     35  O   UNL A   1      50.734  34.728  28.252  1.00  0.00    -0.246 OA
BRANCH  34  36
ATOM     36  C   UNL A   1      49.748  32.790  29.273  1.00  0.00     0.060 A 
ATOM     37  C   UNL A   1      50.265  31.488  29.364  1.00  0.00     0.016 A 
ATOM     38  C   UNL A   1      48.376  32.911  29.137  1.00  0.00     0.016 A 
ATOM     39  C   UNL A   1      49.455  30.336  29.142  1.00  0.00     0.010 A 
ATOM     40  C   UNL A   1      47.593  31.772  28.888  1.00  0.00     0.010 A 
ATOM     41  C   UNL A   1      48.107  30.452  28.819  1.00  0.00    -0.014 A 
BRANCH  41  42
ATOM     42  C   UNL A   1      47.225  29.365  28.222  1.00  0.00     0.031 A 
ATOM     43  C   UNL A   1      45.865  29.079  28.884  1.00  0.00     0.074 A 
ATOM     44  C   UNL A   1      47.421  28.935  26.931  1.00  0.00     0.049 A 
ATOM     45  N   UNL A   1      44.871  28.431  28.358  1.00  0.00    -0.248 NA
ATOM     46  C   UNL A   1      45.479  29.600  30.206  1.00  0.00     0.031 C 
ATOM     47  C   UNL A   1      46.363  28.615  25.964  1.00  0.00     0.029 A 
ATOM     48  N   UNL A   1      48.565  28.751  26.136  1.00  0.00    -0.354 N 
ATOM     49  C   UNL A   1      43.691  28.800  29.006  1.00  0.00     0.074 A 
ATOM     50  C   UNL A   1      44.142  29.466  30.204  1.00  0.00     0.031 C 
ATOM     51  C   UNL A   1      46.853  28.318  24.750  1.00  0.00     0.029 A 
ATOM     52  C   UNL A   1      48.212  27.942  25.013  1.00  0.00     0.049 A 
ATOM     53  H   UNL A   1      49.460  29.119  26.321  1.00  0.00     0.167 HD
ATOM     54  C   UNL A   1      42.478  28.652  28.371  1.00  0.00     0.031 A 
ATOM     55  C   UNL A   1      48.586  26.619  24.882  1.00  0.00     0.031 A 
ATOM     56  C   UNL A   1      42.601  27.907  27.099  1.00  0.00     0.049 A 
ATOM     57  C   UNL A   1      47.414  25.620  24.907  1.00  0.00     0.074 A 
ATOM     58  C   UNL A   1      42.185  28.116  25.789  1.00  0.00     0.029 A 
ATOM     59  N   UNL A   1      43.416  26.789  27.055  1.00  0.00    -0.354 N 
ATOM     60  N   UNL A   1      46.209  25.928  25.316  1.00  0.00    -0.248 NA
ATOM     61  C   UNL A   1      47.483  24.218  24.500  1.00  0.00     0.031 C 
ATOM     62  C   UNL A   1      42.776  27.116  24.967  1.00  0.00     0.029 A 
ATOM     63  C   UNL A   1      43.480  26.258  25.791  1.00  0.00     0.049 A 
ATOM     64  H   UNL A   1      43.889  26.419  27.835  1.00  0.00     0.167 HD
ATOM     65  C   UNL A   1      45.375  24.852  25.255  1.00  0.00     0.074 A 
ATOM     66  C   UNL A   1      46.238  23.784  24.783  1.00  0.00     0.031 C 
ATOM     67  C   UNL A   1      44.061  24.940  25.621  1.00  0.00     0.031 A 
BRANCH  54  68
ATOM     68  C   UNL A   1      41.121  29.283  28.743  1.00  0.00    -0.014 A 
ATOM     69  C   UNL A   1      39.963  28.842  28.049  1.00  0.00     0.010 A 
ATOM     70  C   UNL A   1      40.898  30.334  29.657  1.00  0.00     0.010 A 
ATOM     71  C   UNL A   1      38.688  29.406  28.221  1.00  0.00     0.020 A 
ATOM     72  C   UNL A   1      39.604  30.886  29.874  1.00  0.00     0.020 A 
ATOM     73  C   UNL A   1      38.509  30.423  29.146  1.00  0.00     0.054 A 
BRANCH  73  74
ATOM     74  S   UNL A   1      36.826  31.073  29.394  1.00  0.00     0.124 S 
ATOM     75  O   UNL A   1      36.253  30.119  30.341  1.00  0.00    -0.237 OA
ATOM     76  O   UNL A   1      37.076  32.410  29.929  1.00  0.00    -0.237 OA
ATOM     77  O   UNL A   1      36.239  31.044  28.056  1.00  0.00    -0.744 OA
ENDBRANCH  73  74
ENDBRANCH  54  68
BRANCH  55  78
ATOM     78  C   UNL A   1      49.950  26.375  25.443  1.00  0.00    -0.014 A 
ATOM     79  C   UNL A   1      51.034  26.910  24.713  1.00  0.00     0.010 A 
ATOM     80  C   UNL A   1      50.040  26.291  26.844  1.00  0.00     0.010 A 
ATOM     81  C   UNL A   1      52.030  27.630  25.379  1.00  0.00     0.020 A 
ATOM     82  C   UNL A   1      51.026  27.027  27.510  1.00  0.00     0.020 A 
ATOM     83  C   UNL A   1      51.960  27.757  26.769  1.00  0.00     0.054 A 
BRANCH  83  84
ATOM     84  S   UNL A   1      52.937  29.076  27.548  1.00  0.00     0.124 S 
ATOM     85  O   UNL A   1      52.707  28.852  28.970  1.00  0.00    -0.237 OA
ATOM     86  O   UNL A   1      54.286  28.760  27.081  1.00  0.00    -0.237 OA
ATOM     87  O   UNL A   1      52.363  30.301  26.999  1.00  0.00    -0.744 OA
ENDBRANCH  83  84
ENDBRANCH  55  78
BRANCH  67  88
ATOM     88  C   UNL A   1      43.174  23.780  25.979  1.00  0.00    -0.014 A 
ATOM     89  C   UNL A   1      41.786  23.843  26.047  1.00  0.00     0.010 A 
ATOM     90  C   UNL A   1      43.782  22.521  26.242  1.00  0.00     0.010 A 
ATOM     91  C   UNL A   1      41.033  22.674  26.196  1.00  0.00     0.020 A 
ATOM     92  C   UNL A   1      43.046  21.356  26.421  1.00  0.00     0.020 A 
ATOM     93  C   UNL A   1      41.668  21.436  26.343  1.00  0.00     0.054 A 
BRANCH  93  94
ATOM     94  S   UNL A   1      40.671  19.938  26.425  1.00  0.00     0.124 S 
ATOM     95  O   UNL A   1      41.438  19.007  25.600  1.00  0.00    -0.237 OA
ATOM     96  O   UNL A   1      40.672  19.657  27.858  1.00  0.00    -0.237 OA
ATOM     97  O   UNL A   1      39.382  20.341  25.870  1.00  0.00    -0.744 OA
ENDBRANCH  93  94
ENDBRANCH  67  88
ENDBRANCH  41  42
ENDBRANCH  34  36
ENDBRANCH  33  34
ENDBRANCH  32  33
ENDBRANCH  31  32
ENDBRANCH  30  31
ENDBRANCH  29  30
ENDBRANCH  28  29
ENDBRANCH   1  28
TORSDOF 28
ENDMDL
