MODEL 1
REMARK VINA RESULT:      -8.1      0.000      0.000
REMARK SMILES Cc1ccccc1C(=O)Nc1cc(C(=O)OCCOCCOCCOCCOC(=O)c2ccc(-c3c4nc(c(-c5ccc(S(=O)(=O)[O-])cc5)c5ccc([nH]5)c(-c5ccc(S(=O)(=O)[O-])cc5)c5nc(c(-c6ccc(S(=O)(=O)[O-])cc6)c6ccc3[nH]6)C=C5)C=C4)cc2)ccc1N1CC[NH+](CC(=O)Nc2ccc(F)cc2)CC1
REMARK SMILES IDX 21 1 20 2 19 3 18 4 17 5 16 6 14 7 15 8 13 9 11 10 12 11
REMARK SMILES IDX 93 12 92 13 91 14 10 15 8 16 9 17 7 19 1 20 2 21 3 22 4 23
REMARK SMILES IDX 6 24 5 25 94 26 95 27 110 28 96 29 109 30 97 31 98 33 99 34
REMARK SMILES IDX 100 35 101 36 102 38 103 39 108 40 104 41 107 42 105 43
REMARK SMILES IDX 106 44 22 45 23 46 24 47 25 48 26 49 27 50 28 51 29 52 30 53
REMARK SMILES IDX 31 54 32 55 90 56 33 57 89 58 34 59 35 60 36 61 83 62 37 63
REMARK SMILES IDX 88 64 82 65 84 66 38 67 87 68 81 69 80 70 39 72 69 73 50 74
REMARK SMILES IDX 68 75 51 76 54 77 67 78 85 79 52 80 53 81 66 83 86 84 55 85
REMARK SMILES IDX 40 86 41 87 49 88 42 89 48 90 43 91 44 92 45 93 46 94 47 95
REMARK SMILES IDX 70 96 71 97 79 98 72 99 78 100 73 101 74 102 75 103 76 104
REMARK SMILES IDX 77 105 56 106 57 107 65 108 58 109 64 110 59 111 60 112
REMARK SMILES IDX 61 113 62 114 63 115
REMARK H PARENT 10 18 97 32 101 37 84 71 54 82
REMARK Flexibility Score: inf
ROOT
ATOM      1  C   UNL A   1      38.048  28.963  33.013  1.00  0.00     0.188 C 
ENDROOT
BRANCH   1   2
ATOM      2  C   UNL A   1      38.850  28.079  32.063  1.00  0.00     0.188 C 
BRANCH   2   3
ATOM      3  O   UNL A   1      39.907  28.584  31.255  1.00  0.00    -0.376 OA
BRANCH   3   4
ATOM      4  C   UNL A   1      39.866  28.071  29.916  1.00  0.00     0.202 C 
BRANCH   4   5
ATOM      5  C   UNL A   1      38.620  27.320  29.418  1.00  0.00     0.261 C 
BRANCH   5   6
ATOM      6  O   UNL A   1      38.176  27.766  28.143  1.00  0.00    -0.460 OA
BRANCH   6   7
ATOM      7  C   UNL A   1      38.609  28.988  27.802  1.00  0.00     0.338 C 
ATOM      8  O   UNL A   1      39.509  29.289  27.058  1.00  0.00    -0.246 OA
BRANCH   7   9
ATOM      9  C   UNL A   1      37.530  29.903  28.215  1.00  0.00     0.062 A 
ATOM     10  C   UNL A   1      35.477  31.115  27.897  1.00  0.00     0.065 A 
ATOM     11  C   UNL A   1      36.435  30.249  27.405  1.00  0.00     0.044 A 
ATOM     12  C   UNL A   1      35.723  31.811  29.135  1.00  0.00     0.061 A 
ATOM     13  C   UNL A   1      36.941  31.578  29.800  1.00  0.00     0.029 A 
ATOM     14  C   UNL A   1      37.786  30.568  29.402  1.00  0.00     0.018 A 
BRANCH  10  15
ATOM     15  N   UNL A   1      34.249  31.306  27.234  1.00  0.00    -0.320 N 
ATOM     16  C   UNL A   1      33.258  30.490  26.713  1.00  0.00     0.255 C 
ATOM     17  O   UNL A   1      32.171  31.072  26.541  1.00  0.00    -0.269 OA
ATOM     18  H   UNL A   1      34.042  32.260  27.110  1.00  0.00     0.170 HD
BRANCH  16  19
ATOM     19  C   UNL A   1      33.278  29.024  26.359  1.00  0.00     0.043 A 
ATOM     20  C   UNL A   1      31.486  27.970  27.918  1.00  0.00     0.045 C 
ATOM     21  C   UNL A   1      32.616  27.928  26.938  1.00  0.00    -0.038 A 
ATOM     22  C   UNL A   1      32.935  26.616  26.511  1.00  0.00     0.004 A 
ATOM     23  C   UNL A   1      33.725  26.376  25.396  1.00  0.00     0.000 A 
ATOM     24  C   UNL A   1      34.026  28.748  25.181  1.00  0.00     0.014 A 
ATOM     25  C   UNL A   1      34.224  27.453  24.689  1.00  0.00     0.001 A 
ENDBRANCH  16  19
ENDBRANCH  10  15
BRANCH  12  26
ATOM     26  N   UNL A   1      34.716  32.563  29.815  1.00  0.00    -0.359 N 
ATOM     27  C   UNL A   1      34.314  33.875  29.208  1.00  0.00     0.178 C 
ATOM     28  C   UNL A   1      35.063  32.720  31.231  1.00  0.00     0.178 C 
ATOM     29  C   UNL A   1      33.460  34.776  30.139  1.00  0.00     0.284 C 
ATOM     30  C   UNL A   1      33.913  33.395  31.980  1.00  0.00     0.284 C 
ATOM     31  N   UNL A   1      33.781  34.778  31.576  1.00  0.00    -0.324 N 
ATOM     32  H   UNL A   1      32.996  35.278  31.992  1.00  0.00     0.348 HD
BRANCH  31  33
ATOM     33  C   UNL A   1      34.842  35.646  32.145  1.00  0.00     0.364 C 
BRANCH  33  34
ATOM     34  C   UNL A   1      35.914  35.119  33.120  1.00  0.00     0.279 C 
ATOM     35  O   UNL A   1      35.612  35.069  34.327  1.00  0.00    -0.268 OA
ATOM     36  N   UNL A   1      37.136  34.556  32.831  1.00  0.00    -0.321 N 
ATOM     37  H   UNL A   1      37.402  33.995  33.594  1.00  0.00     0.170 HD
BRANCH  36  38
ATOM     38  C   UNL A   1      38.162  34.477  31.843  1.00  0.00     0.041 A 
ATOM     39  C   UNL A   1      39.462  34.244  32.332  1.00  0.00     0.029 A 
ATOM     40  C   UNL A   1      38.084  34.738  30.478  1.00  0.00     0.029 A 
ATOM     41  C   UNL A   1      40.596  34.246  31.495  1.00  0.00     0.041 A 
ATOM     42  C   UNL A   1      39.211  34.794  29.635  1.00  0.00     0.041 A 
ATOM     43  C   UNL A   1      40.460  34.525  30.148  1.00  0.00     0.123 A 
ATOM     44  F   UNL A   1      41.530  34.540  29.345  1.00  0.00    -0.207 F 
ENDBRANCH  36  38
ENDBRANCH  33  34
ENDBRANCH  31  33
ENDBRANCH  12  26
ENDBRANCH   7   9
ENDBRANCH   6   7
ENDBRANCH   5   6
ENDBRANCH   4   5
ENDBRANCH   3   4
ENDBRANCH   2   3
ENDBRANCH   1   2
BRANCH   1  45
ATOM     45  O   UNL A   1      38.418  30.346  33.008  1.00  0.00    -0.377 OA
BRANCH  45  46
ATOM     46  C   UNL A   1      37.441  31.269  33.498  1.00  0.00     0.188 C 
BRANCH  46  47
ATOM     47  C   UNL A   1      37.768  31.832  34.873  1.00  0.00     0.188 C 
BRANCH  47  48
ATOM     48  O   UNL A   1      39.182  32.029  34.961  1.00  0.00    -0.376 OA
BRANCH  48  49
ATOM     49  C   UNL A   1      39.697  32.617  36.148  1.00  0.00     0.202 C 
BRANCH  49  50
ATOM     50  C   UNL A   1      41.037  32.057  36.623  1.00  0.00     0.261 C 
BRANCH  50  51
ATOM     51  O   UNL A   1      41.100  30.625  36.449  1.00  0.00    -0.460 OA
BRANCH  51  52
ATOM     52  C   UNL A   1      42.342  30.093  36.242  1.00  0.00     0.338 C 
ATOM     53  O   UNL A   1      42.893  29.354  37.038  1.00  0.00    -0.246 OA
BRANCH  52  54
ATOM     54  C   UNL A   1      42.867  30.448  34.890  1.00  0.00     0.060 A 
ATOM     55  C   UNL A   1      42.075  30.343  33.738  1.00  0.00     0.016 A 
ATOM     56  C   UNL A   1      44.219  30.698  34.749  1.00  0.00     0.016 A 
ATOM     57  C   UNL A   1      42.666  30.265  32.457  1.00  0.00     0.010 A 
ATOM     58  C   UNL A   1      44.796  30.528  33.507  1.00  0.00     0.010 A 
ATOM     59  C   UNL A   1      44.053  30.266  32.340  1.00  0.00    -0.014 A 
BRANCH  59  60
ATOM     60  C   UNL A   1      44.873  29.865  31.159  1.00  0.00     0.031 A 
ATOM     61  C   UNL A   1      44.824  28.406  30.732  1.00  0.00     0.074 A 
ATOM     62  C   UNL A   1      45.223  30.854  30.291  1.00  0.00     0.049 A 
ATOM     63  N   UNL A   1      45.205  27.911  29.603  1.00  0.00    -0.248 NA
ATOM     64  C   UNL A   1      44.279  27.350  31.600  1.00  0.00     0.031 C 
ATOM     65  C   UNL A   1      45.176  30.815  28.824  1.00  0.00     0.029 A 
ATOM     66  N   UNL A   1      45.601  32.169  30.515  1.00  0.00    -0.354 N 
ATOM     67  C   UNL A   1      44.673  26.623  29.466  1.00  0.00     0.074 A 
ATOM     68  C   UNL A   1      44.138  26.314  30.764  1.00  0.00     0.031 C 
ATOM     69  C   UNL A   1      45.554  31.987  28.293  1.00  0.00     0.029 A 
ATOM     70  C   UNL A   1      46.165  32.728  29.355  1.00  0.00     0.049 A 
ATOM     71  H   UNL A   1      45.489  32.645  31.369  1.00  0.00     0.167 HD
ATOM     72  C   UNL A   1      44.636  26.020  28.231  1.00  0.00     0.031 A 
ATOM     73  C   UNL A   1      47.505  32.999  29.305  1.00  0.00     0.031 A 
ATOM     74  C   UNL A   1      45.423  26.794  27.251  1.00  0.00     0.049 A 
ATOM     75  C   UNL A   1      48.299  31.931  28.523  1.00  0.00     0.074 A 
ATOM     76  C   UNL A   1      45.163  27.345  26.008  1.00  0.00     0.029 A 
ATOM     77  N   UNL A   1      46.672  27.290  27.628  1.00  0.00    -0.354 N 
ATOM     78  N   UNL A   1      47.840  30.722  28.257  1.00  0.00    -0.248 NA
ATOM     79  C   UNL A   1      49.589  32.152  27.870  1.00  0.00     0.031 C 
ATOM     80  C   UNL A   1      46.176  28.311  25.741  1.00  0.00     0.029 A 
ATOM     81  C   UNL A   1      47.104  28.281  26.772  1.00  0.00     0.049 A 
ATOM     82  H   UNL A   1      47.180  26.972  28.408  1.00  0.00     0.167 HD
ATOM     83  C   UNL A   1      48.683  30.048  27.413  1.00  0.00     0.074 A 
ATOM     84  C   UNL A   1      49.772  30.991  27.212  1.00  0.00     0.031 C 
ATOM     85  C   UNL A   1      48.464  28.795  26.897  1.00  0.00     0.031 A 
BRANCH  72  86
ATOM     86  C   UNL A   1      43.744  24.831  27.802  1.00  0.00    -0.014 A 
ATOM     87  C   UNL A   1      43.802  23.619  28.538  1.00  0.00     0.010 A 
ATOM     88  C   UNL A   1      42.898  24.781  26.671  1.00  0.00     0.010 A 
ATOM     89  C   UNL A   1      43.103  22.449  28.177  1.00  0.00     0.020 A 
ATOM     90  C   UNL A   1      42.158  23.620  26.312  1.00  0.00     0.020 A 
ATOM     91  C   UNL A   1      42.271  22.456  27.067  1.00  0.00     0.054 A 
BRANCH  91  92
ATOM     92  S   UNL A   1      41.326  20.952  26.667  1.00  0.00     0.124 S 
ATOM     93  O   UNL A   1      40.303  21.449  25.750  1.00  0.00    -0.237 OA
ATOM     94  O   UNL A   1      42.339  20.089  26.064  1.00  0.00    -0.237 OA
ATOM     95  O   UNL A   1      40.824  20.499  27.962  1.00  0.00    -0.744 OA
ENDBRANCH  91  92
ENDBRANCH  72  86
BRANCH  73  96
ATOM     96  C   UNL A   1      47.832  34.022  30.368  1.00  0.00    -0.014 A 
ATOM     97  C   UNL A   1      47.129  35.246  30.171  1.00  0.00     0.010 A 
ATOM     98  C   UNL A   1      47.957  33.559  31.697  1.00  0.00     0.010 A 
ATOM     99  C   UNL A   1      46.267  35.742  31.165  1.00  0.00     0.020 A 
ATOM    100  C   UNL A   1      47.104  34.070  32.701  1.00  0.00     0.020 A 
ATOM    101  C   UNL A   1      46.203  35.099  32.399  1.00  0.00     0.054 A 
BRANCH 101 102
ATOM    102  S   UNL A   1      44.745  35.401  33.460  1.00  0.00     0.124 S 
ATOM    103  O   UNL A   1      45.333  36.015  34.643  1.00  0.00    -0.237 OA
ATOM    104  O   UNL A   1      43.922  36.276  32.627  1.00  0.00    -0.237 OA
ATOM    105  O   UNL A   1      44.197  34.062  33.651  1.00  0.00    -0.744 OA
ENDBRANCH 101 102
ENDBRANCH  73  96
BRANCH  85 106
ATOM    106  C   UNL A   1      49.557  27.863  26.399  1.00  0.00    -0.014 A 
ATOM    107  C   UNL A   1      49.806  27.629  25.042  1.00  0.00     0.010 A 
ATOM    108  C   UNL A   1      50.512  27.341  27.316  1.00  0.00     0.010 A 
ATOM    109  C   UNL A   1      50.894  26.857  24.624  1.00  0.00     0.020 A 
ATOM    110  C   UNL A   1      51.638  26.623  26.907  1.00  0.00     0.020 A 
ATOM    111  C   UNL A   1      51.803  26.360  25.557  1.00  0.00     0.054 A 
BRANCH 111 112
ATOM    112  S   UNL A   1      53.227  25.422  24.966  1.00  0.00     0.124 S 
ATOM    113  O   UNL A   1      52.926  24.082  25.464  1.00  0.00    -0.237 OA
ATOM    114  O   UNL A   1      53.136  25.586  23.516  1.00  0.00    -0.237 OA
ATOM    115  O   UNL A   1      54.367  26.084  25.592  1.00  0.00    -0.744 OA
ENDBRANCH 111 112
ENDBRANCH  85 106
ENDBRANCH  59  60
ENDBRANCH  52  54
ENDBRANCH  51  52
ENDBRANCH  50  51
ENDBRANCH  49  50
ENDBRANCH  48  49
ENDBRANCH  47  48
ENDBRANCH  46  47
ENDBRANCH  45  46
ENDBRANCH   1  45
TORSDOF 29
ENDMDL
MODEL 2
REMARK VINA RESULT:      -8.0      7.548     14.491
REMARK SMILES Cc1ccccc1C(=O)Nc1cc(C(=O)OCCOCCOCCOCCOC(=O)c2ccc(-c3c4nc(c(-c5ccc(S(=O)(=O)[O-])cc5)c5ccc([nH]5)c(-c5ccc(S(=O)(=O)[O-])cc5)c5nc(c(-c6ccc(S(=O)(=O)[O-])cc6)c6ccc3[nH]6)C=C5)C=C4)cc2)ccc1N1CC[NH+](CC(=O)Nc2ccc(F)cc2)CC1
REMARK SMILES IDX 21 1 20 2 19 3 18 4 17 5 16 6 14 7 15 8 13 9 11 10 12 11
REMARK SMILES IDX 93 12 92 13 91 14 10 15 8 16 9 17 7 19 1 20 2 21 3 22 4 23
REMARK SMILES IDX 6 24 5 25 94 26 95 27 110 28 96 29 109 30 97 31 98 33 99 34
REMARK SMILES IDX 100 35 101 36 102 38 103 39 108 40 104 41 107 42 105 43
REMARK SMILES IDX 106 44 22 45 23 46 24 47 25 48 26 49 27 50 28 51 29 52 30 53
REMARK SMILES IDX 31 54 32 55 90 56 33 57 89 58 34 59 35 60 36 61 83 62 37 63
REMARK SMILES IDX 88 64 82 65 84 66 38 67 87 68 81 69 80 70 39 72 69 73 50 74
REMARK SMILES IDX 68 75 51 76 54 77 67 78 85 79 52 80 53 81 66 83 86 84 55 85
REMARK SMILES IDX 40 86 41 87 49 88 42 89 48 90 43 91 44 92 45 93 46 94 47 95
REMARK SMILES IDX 70 96 71 97 79 98 72 99 78 100 73 101 74 102 75 103 76 104
REMARK SMILES IDX 77 105 56 106 57 107 65 108 58 109 64 110 59 111 60 112
REMARK SMILES IDX 61 113 62 114 63 115
REMARK H PARENT 10 18 97 32 101 37 84 71 54 82
REMARK Flexibility Score: inf
ROOT
ATOM      1  C   UNL A   1      33.144  34.009  41.271  1.00  0.00     0.188 C 
ENDROOT
BRANCH   1   2
ATOM      2  C   UNL A   1      34.229  33.371  40.408  1.00  0.00     0.188 C 
BRANCH   2   3
ATOM      3  O   UNL A   1      35.077  32.333  40.888  1.00  0.00    -0.376 OA
BRANCH   3   4
ATOM      4  C   UNL A   1      35.563  31.492  39.833  1.00  0.00     0.202 C 
BRANCH   4   5
ATOM      5  C   UNL A   1      37.015  31.628  39.347  1.00  0.00     0.261 C 
BRANCH   5   6
ATOM      6  O   UNL A   1      37.226  32.781  38.543  1.00  0.00    -0.460 OA
BRANCH   6   7
ATOM      7  C   UNL A   1      38.322  32.726  37.772  1.00  0.00     0.338 C 
ATOM      8  O   UNL A   1      39.448  32.430  38.082  1.00  0.00    -0.246 OA
BRANCH   7   9
ATOM      9  C   UNL A   1      37.813  32.730  36.388  1.00  0.00     0.062 A 
ATOM     10  C   UNL A   1      37.369  31.743  34.241  1.00  0.00     0.065 A 
ATOM     11  C   UNL A   1      37.881  31.628  35.519  1.00  0.00     0.044 A 
ATOM     12  C   UNL A   1      36.973  33.040  33.752  1.00  0.00     0.061 A 
ATOM     13  C   UNL A   1      37.126  34.148  34.605  1.00  0.00     0.029 A 
ATOM     14  C   UNL A   1      37.445  33.985  35.933  1.00  0.00     0.018 A 
BRANCH  10  15
ATOM     15  N   UNL A   1      37.190  30.615  33.417  1.00  0.00    -0.320 N 
ATOM     16  C   UNL A   1      38.006  29.643  32.861  1.00  0.00     0.255 C 
ATOM     17  O   UNL A   1      37.393  28.622  32.500  1.00  0.00    -0.269 OA
ATOM     18  H   UNL A   1      36.245  30.484  33.173  1.00  0.00     0.170 HD
BRANCH  16  19
ATOM     19  C   UNL A   1      39.501  29.614  32.661  1.00  0.00     0.043 A 
ATOM     20  C   UNL A   1      40.083  32.018  31.867  1.00  0.00     0.045 C 
ATOM     21  C   UNL A   1      40.378  30.576  32.132  1.00  0.00    -0.038 A 
ATOM     22  C   UNL A   1      41.733  30.233  31.904  1.00  0.00     0.004 A 
ATOM     23  C   UNL A   1      42.283  29.050  32.373  1.00  0.00     0.000 A 
ATOM     24  C   UNL A   1      40.109  28.441  33.189  1.00  0.00     0.014 A 
ATOM     25  C   UNL A   1      41.478  28.175  33.076  1.00  0.00     0.001 A 
ENDBRANCH  16  19
ENDBRANCH  10  15
BRANCH  12  26
ATOM     26  N   UNL A   1      36.253  33.222  32.531  1.00  0.00    -0.359 N 
ATOM     27  C   UNL A   1      35.411  32.076  32.053  1.00  0.00     0.178 C 
ATOM     28  C   UNL A   1      37.151  33.695  31.474  1.00  0.00     0.178 C 
ATOM     29  C   UNL A   1      34.911  32.215  30.591  1.00  0.00     0.284 C 
ATOM     30  C   UNL A   1      36.349  34.029  30.215  1.00  0.00     0.284 C 
ATOM     31  N   UNL A   1      35.823  32.825  29.610  1.00  0.00    -0.324 N 
ATOM     32  H   UNL A   1      35.226  32.975  28.796  1.00  0.00     0.348 HD
BRANCH  31  33
ATOM     33  C   UNL A   1      36.862  32.038  28.902  1.00  0.00     0.364 C 
BRANCH  33  34
ATOM     34  C   UNL A   1      36.528  30.800  28.045  1.00  0.00     0.279 C 
ATOM     35  O   UNL A   1      35.419  30.781  27.478  1.00  0.00    -0.268 OA
ATOM     36  N   UNL A   1      37.346  29.750  27.696  1.00  0.00    -0.321 N 
ATOM     37  H   UNL A   1      36.990  29.346  26.872  1.00  0.00     0.170 HD
BRANCH  36  38
ATOM     38  C   UNL A   1      38.515  29.027  28.075  1.00  0.00     0.041 A 
ATOM     39  C   UNL A   1      38.386  28.217  29.219  1.00  0.00     0.029 A 
ATOM     40  C   UNL A   1      39.805  29.117  27.559  1.00  0.00     0.029 A 
ATOM     41  C   UNL A   1      39.477  27.525  29.782  1.00  0.00     0.041 A 
ATOM     42  C   UNL A   1      40.917  28.474  28.137  1.00  0.00     0.041 A 
ATOM     43  C   UNL A   1      40.740  27.663  29.236  1.00  0.00     0.123 A 
ATOM     44  F   UNL A   1      41.786  27.019  29.767  1.00  0.00    -0.207 F 
ENDBRANCH  36  38
ENDBRANCH  33  34
ENDBRANCH  31  33
ENDBRANCH  12  26
ENDBRANCH   7   9
ENDBRANCH   6   7
ENDBRANCH   5   6
ENDBRANCH   4   5
ENDBRANCH   3   4
ENDBRANCH   2   3
ENDBRANCH   1   2
BRANCH   1  45
ATOM     45  O   UNL A   1      32.425  33.098  42.109  1.00  0.00    -0.377 OA
BRANCH  45  46
ATOM     46  C   UNL A   1      32.628  33.234  43.519  1.00  0.00     0.188 C 
BRANCH  46  47
ATOM     47  C   UNL A   1      32.700  34.679  43.989  1.00  0.00     0.188 C 
BRANCH  47  48
ATOM     48  O   UNL A   1      34.074  35.065  44.071  1.00  0.00    -0.376 OA
BRANCH  48  49
ATOM     49  C   UNL A   1      34.965  34.207  44.771  1.00  0.00     0.202 C 
BRANCH  49  50
ATOM     50  C   UNL A   1      36.339  34.803  45.072  1.00  0.00     0.261 C 
BRANCH  50  51
ATOM     51  O   UNL A   1      36.981  35.280  43.871  1.00  0.00    -0.460 OA
BRANCH  51  52
ATOM     52  C   UNL A   1      37.732  34.370  43.181  1.00  0.00     0.338 C 
ATOM     53  O   UNL A   1      37.337  33.251  42.907  1.00  0.00    -0.246 OA
BRANCH  52  54
ATOM     54  C   UNL A   1      39.026  34.962  42.729  1.00  0.00     0.060 A 
ATOM     55  C   UNL A   1      39.687  35.950  43.472  1.00  0.00     0.016 A 
ATOM     56  C   UNL A   1      39.479  34.670  41.456  1.00  0.00     0.016 A 
ATOM     57  C   UNL A   1      40.647  36.791  42.866  1.00  0.00     0.010 A 
ATOM     58  C   UNL A   1      40.347  35.551  40.846  1.00  0.00     0.010 A 
ATOM     59  C   UNL A   1      40.920  36.653  41.508  1.00  0.00    -0.014 A 
BRANCH  59  60
ATOM     60  C   UNL A   1      41.622  37.620  40.613  1.00  0.00     0.031 A 
ATOM     61  C   UNL A   1      40.954  38.965  40.369  1.00  0.00     0.074 A 
ATOM     62  C   UNL A   1      42.964  37.447  40.454  1.00  0.00     0.049 A 
ATOM     63  N   UNL A   1      41.499  40.030  39.886  1.00  0.00    -0.248 NA
ATOM     64  C   UNL A   1      39.544  39.215  40.706  1.00  0.00     0.031 C 
ATOM     65  C   UNL A   1      44.007  38.479  40.476  1.00  0.00     0.029 A 
ATOM     66  N   UNL A   1      43.725  36.294  40.344  1.00  0.00    -0.354 N 
ATOM     67  C   UNL A   1      40.673  41.128  40.154  1.00  0.00     0.074 A 
ATOM     68  C   UNL A   1      39.447  40.548  40.632  1.00  0.00     0.031 C 
ATOM     69  C   UNL A   1      45.227  37.942  40.330  1.00  0.00     0.029 A 
ATOM     70  C   UNL A   1      45.019  36.596  39.888  1.00  0.00     0.049 A 
ATOM     71  H   UNL A   1      43.403  35.389  40.557  1.00  0.00     0.167 HD
ATOM     72  C   UNL A   1      41.171  42.405  40.058  1.00  0.00     0.031 A 
ATOM     73  C   UNL A   1      45.405  36.232  38.627  1.00  0.00     0.031 A 
ATOM     74  C   UNL A   1      42.506  42.396  39.427  1.00  0.00     0.049 A 
ATOM     75  C   UNL A   1      45.365  37.410  37.630  1.00  0.00     0.074 A 
ATOM     76  C   UNL A   1      43.753  42.886  39.776  1.00  0.00     0.029 A 
ATOM     77  N   UNL A   1      42.717  41.596  38.304  1.00  0.00    -0.354 N 
ATOM     78  N   UNL A   1      44.695  38.528  37.840  1.00  0.00    -0.248 NA
ATOM     79  C   UNL A   1      46.154  37.499  36.401  1.00  0.00     0.031 C 
ATOM     80  C   UNL A   1      44.721  42.221  38.970  1.00  0.00     0.029 A 
ATOM     81  C   UNL A   1      44.061  41.401  38.066  1.00  0.00     0.049 A 
ATOM     82  H   UNL A   1      41.997  41.216  37.752  1.00  0.00     0.167 HD
ATOM     83  C   UNL A   1      44.970  39.457  36.871  1.00  0.00     0.074 A 
ATOM     84  C   UNL A   1      45.884  38.753  35.987  1.00  0.00     0.031 C 
ATOM     85  C   UNL A   1      44.484  40.741  36.835  1.00  0.00     0.031 A 
BRANCH  72  86
ATOM     86  C   UNL A   1      40.579  43.686  40.694  1.00  0.00    -0.014 A 
ATOM     87  C   UNL A   1      41.454  44.632  41.288  1.00  0.00     0.010 A 
ATOM     88  C   UNL A   1      39.208  44.003  40.826  1.00  0.00     0.010 A 
ATOM     89  C   UNL A   1      41.014  45.782  41.974  1.00  0.00     0.020 A 
ATOM     90  C   UNL A   1      38.748  45.176  41.484  1.00  0.00     0.020 A 
ATOM     91  C   UNL A   1      39.657  46.058  42.062  1.00  0.00     0.054 A 
BRANCH  91  92
ATOM     92  S   UNL A   1      39.122  47.587  42.893  1.00  0.00     0.124 S 
ATOM     93  O   UNL A   1      38.491  47.087  44.112  1.00  0.00    -0.237 OA
ATOM     94  O   UNL A   1      40.381  48.303  43.088  1.00  0.00    -0.237 OA
ATOM     95  O   UNL A   1      38.207  48.204  41.934  1.00  0.00    -0.744 OA
ENDBRANCH  91  92
ENDBRANCH  72  86
BRANCH  73  96
ATOM     96  C   UNL A   1      45.350  34.726  38.519  1.00  0.00    -0.014 A 
ATOM     97  C   UNL A   1      45.944  34.083  39.643  1.00  0.00     0.010 A 
ATOM     98  C   UNL A   1      44.164  34.156  38.006  1.00  0.00     0.010 A 
ATOM     99  C   UNL A   1      45.194  33.202  40.442  1.00  0.00     0.020 A 
ATOM    100  C   UNL A   1      43.418  33.255  38.800  1.00  0.00     0.020 A 
ATOM    101  C   UNL A   1      43.902  32.857  40.052  1.00  0.00     0.054 A 
BRANCH 101 102
ATOM    102  S   UNL A   1      42.769  32.171  41.313  1.00  0.00     0.124 S 
ATOM    103  O   UNL A   1      42.668  33.261  42.275  1.00  0.00    -0.237 OA
ATOM    104  O   UNL A   1      41.563  31.890  40.536  1.00  0.00    -0.237 OA
ATOM    105  O   UNL A   1      43.477  30.984  41.778  1.00  0.00    -0.744 OA
ENDBRANCH 101 102
ENDBRANCH  73  96
BRANCH  85 106
ATOM    106  C   UNL A   1      44.364  41.583  35.574  1.00  0.00    -0.014 A 
ATOM    107  C   UNL A   1      43.423  41.330  34.570  1.00  0.00     0.010 A 
ATOM    108  C   UNL A   1      45.089  42.803  35.468  1.00  0.00     0.010 A 
ATOM    109  C   UNL A   1      43.267  42.196  33.484  1.00  0.00     0.020 A 
ATOM    110  C   UNL A   1      44.897  43.708  34.422  1.00  0.00     0.020 A 
ATOM    111  C   UNL A   1      44.003  43.378  33.416  1.00  0.00     0.054 A 
BRANCH 111 112
ATOM    112  S   UNL A   1      43.722  44.496  32.028  1.00  0.00     0.124 S 
ATOM    113  O   UNL A   1      42.659  43.804  31.303  1.00  0.00    -0.237 OA
ATOM    114  O   UNL A   1      43.322  45.735  32.692  1.00  0.00    -0.237 OA
ATOM    115  O   UNL A   1      45.014  44.546  31.351  1.00  0.00    -0.744 OA
ENDBRANCH 111 112
ENDBRANCH  85 106
ENDBRANCH  59  60
ENDBRANCH  52  54
ENDBRANCH  51  52
ENDBRANCH  50  51
ENDBRANCH  49  50
ENDBRANCH  48  49
ENDBRANCH  47  48
ENDBRANCH  46  47
ENDBRANCH  45  46
ENDBRANCH   1  45
TORSDOF 29
ENDMDL
MODEL 3
REMARK VINA RESULT:      -7.8      3.626      8.808
REMARK SMILES Cc1ccccc1C(=O)Nc1cc(C(=O)OCCOCCOCCOCCOC(=O)c2ccc(-c3c4nc(c(-c5ccc(S(=O)(=O)[O-])cc5)c5ccc([nH]5)c(-c5ccc(S(=O)(=O)[O-])cc5)c5nc(c(-c6ccc(S(=O)(=O)[O-])cc6)c6ccc3[nH]6)C=C5)C=C4)cc2)ccc1N1CC[NH+](CC(=O)Nc2ccc(F)cc2)CC1
REMARK SMILES IDX 21 1 20 2 19 3 18 4 17 5 16 6 14 7 15 8 13 9 11 10 12 11
REMARK SMILES IDX 93 12 92 13 91 14 10 15 8 16 9 17 7 19 1 20 2 21 3 22 4 23
REMARK SMILES IDX 6 24 5 25 94 26 95 27 110 28 96 29 109 30 97 31 98 33 99 34
REMARK SMILES IDX 100 35 101 36 102 38 103 39 108 40 104 41 107 42 105 43
REMARK SMILES IDX 106 44 22 45 23 46 24 47 25 48 26 49 27 50 28 51 29 52 30 53
REMARK SMILES IDX 31 54 32 55 90 56 33 57 89 58 34 59 35 60 36 61 83 62 37 63
REMARK SMILES IDX 88 64 82 65 84 66 38 67 87 68 81 69 80 70 39 72 69 73 50 74
REMARK SMILES IDX 68 75 51 76 54 77 67 78 85 79 52 80 53 81 66 83 86 84 55 85
REMARK SMILES IDX 40 86 41 87 49 88 42 89 48 90 43 91 44 92 45 93 46 94 47 95
REMARK SMILES IDX 70 96 71 97 79 98 72 99 78 100 73 101 74 102 75 103 76 104
REMARK SMILES IDX 77 105 56 106 57 107 65 108 58 109 64 110 59 111 60 112
REMARK SMILES IDX 61 113 62 114 63 115
REMARK H PARENT 10 18 97 32 101 37 84 71 54 82
REMARK Flexibility Score: inf
ROOT
ATOM      1  C   UNL A   1      33.406  27.057  25.763  1.00  0.00     0.188 C 
ENDROOT
BRANCH   1   2
ATOM      2  C   UNL A   1      34.268  25.984  25.105  1.00  0.00     0.188 C 
BRANCH   2   3
ATOM      3  O   UNL A   1      34.709  24.823  25.801  1.00  0.00    -0.376 OA
BRANCH   3   4
ATOM      4  C   UNL A   1      36.006  24.387  25.371  1.00  0.00     0.202 C 
BRANCH   4   5
ATOM      5  C   UNL A   1      36.761  23.313  26.170  1.00  0.00     0.261 C 
BRANCH   5   6
ATOM      6  O   UNL A   1      38.163  23.541  26.220  1.00  0.00    -0.460 OA
BRANCH   6   7
ATOM      7  C   UNL A   1      38.891  22.453  26.512  1.00  0.00     0.338 C 
ATOM      8  O   UNL A   1      38.577  21.292  26.437  1.00  0.00    -0.246 OA
BRANCH   7   9
ATOM      9  C   UNL A   1      40.282  22.936  26.583  1.00  0.00     0.062 A 
ATOM     10  C   UNL A   1      42.015  24.460  27.263  1.00  0.00     0.065 A 
ATOM     11  C   UNL A   1      40.680  24.102  27.259  1.00  0.00     0.044 A 
ATOM     12  C   UNL A   1      42.936  23.758  26.405  1.00  0.00     0.061 A 
ATOM     13  C   UNL A   1      42.435  22.728  25.589  1.00  0.00     0.029 A 
ATOM     14  C   UNL A   1      41.152  22.256  25.748  1.00  0.00     0.018 A 
BRANCH  10  15
ATOM     15  N   UNL A   1      42.502  25.470  28.114  1.00  0.00    -0.320 N 
ATOM     16  C   UNL A   1      42.030  26.676  28.607  1.00  0.00     0.255 C 
ATOM     17  O   UNL A   1      42.637  27.075  29.618  1.00  0.00    -0.269 OA
ATOM     18  H   UNL A   1      43.409  25.269  28.442  1.00  0.00     0.170 HD
BRANCH  16  19
ATOM     19  C   UNL A   1      40.893  27.550  28.140  1.00  0.00     0.043 A 
ATOM     20  C   UNL A   1      41.704  28.478  25.852  1.00  0.00     0.045 C 
ATOM     21  C   UNL A   1      40.786  28.408  27.032  1.00  0.00    -0.038 A 
ATOM     22  C   UNL A   1      39.653  29.248  26.907  1.00  0.00     0.004 A 
ATOM     23  C   UNL A   1      38.541  29.111  27.725  1.00  0.00     0.000 A 
ATOM     24  C   UNL A   1      39.713  27.388  28.917  1.00  0.00     0.014 A 
ATOM     25  C   UNL A   1      38.547  28.130  28.698  1.00  0.00     0.001 A 
ENDBRANCH  16  19
ENDBRANCH  10  15
BRANCH  12  26
ATOM     26  N   UNL A   1      44.353  23.922  26.491  1.00  0.00    -0.359 N 
ATOM     27  C   UNL A   1      44.944  24.082  27.861  1.00  0.00     0.178 C 
ATOM     28  C   UNL A   1      44.800  24.992  25.594  1.00  0.00     0.178 C 
ATOM     29  C   UNL A   1      46.420  24.561  27.869  1.00  0.00     0.284 C 
ATOM     30  C   UNL A   1      46.328  25.061  25.580  1.00  0.00     0.284 C 
ATOM     31  N   UNL A   1      46.830  25.539  26.849  1.00  0.00    -0.324 N 
ATOM     32  H   UNL A   1      47.846  25.556  26.934  1.00  0.00     0.348 HD
BRANCH  31  33
ATOM     33  C   UNL A   1      46.631  26.999  27.032  1.00  0.00     0.364 C 
BRANCH  33  34
ATOM     34  C   UNL A   1      47.742  27.931  27.554  1.00  0.00     0.279 C 
ATOM     35  O   UNL A   1      48.680  27.405  28.182  1.00  0.00    -0.268 OA
ATOM     36  N   UNL A   1      47.925  29.273  27.307  1.00  0.00    -0.321 N 
ATOM     37  H   UNL A   1      48.877  29.482  27.446  1.00  0.00     0.170 HD
BRANCH  36  38
ATOM     38  C   UNL A   1      47.259  30.474  26.924  1.00  0.00     0.041 A 
ATOM     39  C   UNL A   1      47.991  31.663  27.110  1.00  0.00     0.029 A 
ATOM     40  C   UNL A   1      45.937  30.652  26.527  1.00  0.00     0.029 A 
ATOM     41  C   UNL A   1      47.434  32.937  26.881  1.00  0.00     0.041 A 
ATOM     42  C   UNL A   1      45.348  31.918  26.342  1.00  0.00     0.041 A 
ATOM     43  C   UNL A   1      46.110  33.053  26.501  1.00  0.00     0.123 A 
ATOM     44  F   UNL A   1      45.566  34.258  26.289  1.00  0.00    -0.207 F 
ENDBRANCH  36  38
ENDBRANCH  33  34
ENDBRANCH  31  33
ENDBRANCH  12  26
ENDBRANCH   7   9
ENDBRANCH   6   7
ENDBRANCH   5   6
ENDBRANCH   4   5
ENDBRANCH   3   4
ENDBRANCH   2   3
ENDBRANCH   1   2
BRANCH   1  45
ATOM     45  O   UNL A   1      33.944  28.382  25.711  1.00  0.00    -0.377 OA
BRANCH  45  46
ATOM     46  C   UNL A   1      34.717  28.801  26.840  1.00  0.00     0.188 C 
BRANCH  46  47
ATOM     47  C   UNL A   1      34.194  30.068  27.500  1.00  0.00     0.188 C 
BRANCH  47  48
ATOM     48  O   UNL A   1      35.308  30.850  27.936  1.00  0.00    -0.376 OA
BRANCH  48  49
ATOM     49  C   UNL A   1      35.242  32.258  27.758  1.00  0.00     0.202 C 
BRANCH  49  50
ATOM     50  C   UNL A   1      34.695  33.040  28.950  1.00  0.00     0.261 C 
BRANCH  50  51
ATOM     51  O   UNL A   1      35.374  32.681  30.172  1.00  0.00    -0.460 OA
BRANCH  51  52
ATOM     52  C   UNL A   1      35.781  33.716  30.967  1.00  0.00     0.338 C 
ATOM     53  O   UNL A   1      35.095  34.698  31.187  1.00  0.00    -0.246 OA
BRANCH  52  54
ATOM     54  C   UNL A   1      37.103  33.428  31.600  1.00  0.00     0.060 A 
ATOM     55  C   UNL A   1      37.828  34.417  32.279  1.00  0.00     0.016 A 
ATOM     56  C   UNL A   1      37.710  32.214  31.343  1.00  0.00     0.016 A 
ATOM     57  C   UNL A   1      39.217  34.274  32.498  1.00  0.00     0.010 A 
ATOM     58  C   UNL A   1      39.080  32.120  31.475  1.00  0.00     0.010 A 
ATOM     59  C   UNL A   1      39.876  33.149  32.010  1.00  0.00    -0.014 A 
BRANCH  59  60
ATOM     60  C   UNL A   1      41.345  32.955  31.832  1.00  0.00     0.031 A 
ATOM     61  C   UNL A   1      42.041  31.966  32.754  1.00  0.00     0.074 A 
ATOM     62  C   UNL A   1      41.867  33.293  30.620  1.00  0.00     0.049 A 
ATOM     63  N   UNL A   1      43.207  31.437  32.594  1.00  0.00    -0.248 NA
ATOM     64  C   UNL A   1      41.408  31.456  33.981  1.00  0.00     0.031 C 
ATOM     65  C   UNL A   1      42.833  32.531  29.819  1.00  0.00     0.029 A 
ATOM     66  N   UNL A   1      41.574  34.343  29.765  1.00  0.00    -0.354 N 
ATOM     67  C   UNL A   1      43.329  30.332  33.445  1.00  0.00     0.074 A 
ATOM     68  C   UNL A   1      42.188  30.421  34.316  1.00  0.00     0.031 C 
ATOM     69  C   UNL A   1      43.091  33.144  28.654  1.00  0.00     0.029 A 
ATOM     70  C   UNL A   1      42.566  34.471  28.777  1.00  0.00     0.049 A 
ATOM     71  H   UNL A   1      40.780  34.920  29.839  1.00  0.00     0.167 HD
ATOM     72  C   UNL A   1      44.316  29.401  33.229  1.00  0.00     0.031 A 
ATOM     73  C   UNL A   1      43.422  35.537  28.798  1.00  0.00     0.031 A 
ATOM     74  C   UNL A   1      45.273  29.884  32.214  1.00  0.00     0.049 A 
ATOM     75  C   UNL A   1      44.808  35.175  29.375  1.00  0.00     0.074 A 
ATOM     76  C   UNL A   1      45.767  29.382  31.022  1.00  0.00     0.029 A 
ATOM     77  N   UNL A   1      45.714  31.207  32.276  1.00  0.00    -0.354 N 
ATOM     78  N   UNL A   1      45.042  34.100  30.105  1.00  0.00    -0.248 NA
ATOM     79  C   UNL A   1      46.052  35.890  29.087  1.00  0.00     0.031 C 
ATOM     80  C   UNL A   1      46.339  30.468  30.298  1.00  0.00     0.029 A 
ATOM     81  C   UNL A   1      46.281  31.609  31.086  1.00  0.00     0.049 A 
ATOM     82  H   UNL A   1      45.629  31.781  33.071  1.00  0.00     0.167 HD
ATOM     83  C   UNL A   1      46.383  33.946  30.340  1.00  0.00     0.074 A 
ATOM     84  C   UNL A   1      46.969  35.106  29.687  1.00  0.00     0.031 C 
ATOM     85  C   UNL A   1      46.961  32.898  31.013  1.00  0.00     0.031 A 
BRANCH  72  86
ATOM     86  C   UNL A   1      44.362  27.950  33.766  1.00  0.00    -0.014 A 
ATOM     87  C   UNL A   1      45.206  27.644  34.865  1.00  0.00     0.010 A 
ATOM     88  C   UNL A   1      43.692  26.831  33.221  1.00  0.00     0.010 A 
ATOM     89  C   UNL A   1      45.391  26.341  35.370  1.00  0.00     0.020 A 
ATOM     90  C   UNL A   1      43.840  25.516  33.740  1.00  0.00     0.020 A 
ATOM     91  C   UNL A   1      44.697  25.277  34.811  1.00  0.00     0.054 A 
BRANCH  91  92
ATOM     92  S   UNL A   1      44.903  23.617  35.530  1.00  0.00     0.124 S 
ATOM     93  O   UNL A   1      45.936  23.026  34.684  1.00  0.00    -0.237 OA
ATOM     94  O   UNL A   1      45.310  23.911  36.902  1.00  0.00    -0.237 OA
ATOM     95  O   UNL A   1      43.579  23.013  35.399  1.00  0.00    -0.744 OA
ENDBRANCH  91  92
ENDBRANCH  72  86
BRANCH  73  96
ATOM     96  C   UNL A   1      42.619  36.807  28.638  1.00  0.00    -0.014 A 
ATOM     97  C   UNL A   1      43.042  37.828  29.537  1.00  0.00     0.010 A 
ATOM     98  C   UNL A   1      42.291  37.204  27.323  1.00  0.00     0.010 A 
ATOM     99  C   UNL A   1      43.500  39.065  29.049  1.00  0.00     0.020 A 
ATOM    100  C   UNL A   1      42.733  38.455  26.837  1.00  0.00     0.020 A 
ATOM    101  C   UNL A   1      43.413  39.337  27.685  1.00  0.00     0.054 A 
BRANCH 101 102
ATOM    102  S   UNL A   1      44.462  40.668  26.998  1.00  0.00     0.124 S 
ATOM    103  O   UNL A   1      43.760  41.874  27.419  1.00  0.00    -0.237 OA
ATOM    104  O   UNL A   1      45.751  40.421  27.642  1.00  0.00    -0.237 OA
ATOM    105  O   UNL A   1      44.441  40.394  25.565  1.00  0.00    -0.744 OA
ENDBRANCH 101 102
ENDBRANCH  73  96
BRANCH  85 106
ATOM    106  C   UNL A   1      48.317  32.955  31.700  1.00  0.00    -0.014 A 
ATOM    107  C   UNL A   1      48.472  33.188  33.071  1.00  0.00     0.010 A 
ATOM    108  C   UNL A   1      49.486  32.567  30.988  1.00  0.00     0.010 A 
ATOM    109  C   UNL A   1      49.726  33.117  33.684  1.00  0.00     0.020 A 
ATOM    110  C   UNL A   1      50.733  32.429  31.601  1.00  0.00     0.020 A 
ATOM    111  C   UNL A   1      50.848  32.738  32.947  1.00  0.00     0.054 A 
BRANCH 111 112
ATOM    112  S   UNL A   1      52.435  32.598  33.795  1.00  0.00     0.124 S 
ATOM    113  O   UNL A   1      52.501  31.164  34.063  1.00  0.00    -0.237 OA
ATOM    114  O   UNL A   1      53.376  33.092  32.791  1.00  0.00    -0.237 OA
ATOM    115  O   UNL A   1      52.281  33.450  34.970  1.00  0.00    -0.744 OA
ENDBRANCH 111 112
ENDBRANCH  85 106
ENDBRANCH  59  60
ENDBRANCH  52  54
ENDBRANCH  51  52
ENDBRANCH  50  51
ENDBRANCH  49  50
ENDBRANCH  48  49
ENDBRANCH  47  48
ENDBRANCH  46  47
ENDBRANCH  45  46
ENDBRANCH   1  45
TORSDOF 29
ENDMDL
