MODEL 1
REMARK VINA RESULT:      -9.1      0.000      0.000
REMARK SMILES Cc1ccc(O)c(C(=O)NCc2ccc(C(=O)OCCOCCOCCOCCOC(=O)c3ccc(-c4c5nc(c(-c6ccc(S(=O)(=O)[O-])cc6)c6ccc([nH]6)c(-c6ccc(S(=O)(=O)[O-])cc6)c6nc(c(-c7ccc(S(=O)(=O)[O-])cc7)c7ccc4[nH]7)C=C6)C=C5)cc3)o2)c1
REMARK SMILES IDX 23 1 22 2 21 3 20 4 19 5 18 6 16 7 17 8 15 9 12 10 13 11
REMARK SMILES IDX 93 12 14 13 11 14 10 15 8 16 9 17 7 19 1 20 2 21 3 22 94 23
REMARK SMILES IDX 4 24 5 25 6 26 24 28 25 29 26 30 27 31 28 32 29 33 30 34
REMARK SMILES IDX 31 35 32 36 33 37 34 38 92 39 35 40 91 41 36 42 37 43 38 44
REMARK SMILES IDX 85 45 39 46 90 47 84 48 86 49 40 50 89 51 83 52 82 53 41 55
REMARK SMILES IDX 71 56 52 57 70 58 53 59 56 60 69 61 87 62 54 63 55 64 68 66
REMARK SMILES IDX 88 67 57 68 42 69 43 70 51 71 44 72 50 73 45 74 46 75 47 76
REMARK SMILES IDX 48 77 49 78 72 79 73 80 81 81 74 82 80 83 75 84 76 85 77 86
REMARK SMILES IDX 78 87 79 88 58 89 59 90 67 91 60 92 66 93 61 94 62 95 63 96
REMARK SMILES IDX 64 97 65 98
REMARK H PARENT 10 18 6 27 86 54 56 65
REMARK Flexibility Score: inf
ROOT
ATOM      1  C   UNL A   1      34.894  21.216  26.076  1.00  0.00     0.188 C 
ENDROOT
BRANCH   1   2
ATOM      2  C   UNL A   1      33.438  21.356  25.609  1.00  0.00     0.188 C 
BRANCH   2   3
ATOM      3  O   UNL A   1      33.123  22.658  25.113  1.00  0.00    -0.376 OA
BRANCH   3   4
ATOM      4  C   UNL A   1      32.075  22.728  24.148  1.00  0.00     0.202 C 
BRANCH   4   5
ATOM      5  C   UNL A   1      32.477  23.236  22.753  1.00  0.00     0.261 C 
BRANCH   5   6
ATOM      6  O   UNL A   1      32.045  24.572  22.447  1.00  0.00    -0.457 OA
BRANCH   6   7
ATOM      7  C   UNL A   1      32.888  25.377  21.751  1.00  0.00     0.374 C 
ATOM      8  O   UNL A   1      33.171  25.244  20.566  1.00  0.00    -0.242 OA
BRANCH   7   9
ATOM      9  C   UNL A   1      33.236  26.494  22.596  1.00  0.00     0.211 A 
ATOM     10  C   UNL A   1      33.938  27.400  24.484  1.00  0.00     0.124 A 
ATOM     11  C   UNL A   1      34.074  28.367  23.506  1.00  0.00     0.048 A 
ATOM     12  O   UNL A   1      33.388  26.274  23.941  1.00  0.00    -0.452 OA
ATOM     13  C   UNL A   1      33.615  27.790  22.300  1.00  0.00     0.058 A 
BRANCH  10  14
ATOM     14  C   UNL A   1      34.309  27.324  25.921  1.00  0.00     0.191 C 
BRANCH  14  15
ATOM     15  N   UNL A   1      33.389  28.146  26.684  1.00  0.00    -0.345 N 
ATOM     16  C   UNL A   1      32.044  28.377  26.619  1.00  0.00     0.255 C 
ATOM     17  O   UNL A   1      31.550  29.054  27.528  1.00  0.00    -0.269 OA
ATOM     18  H   UNL A   1      33.831  28.648  27.407  1.00  0.00     0.164 HD
BRANCH  16  19
ATOM     19  C   UNL A   1      31.127  27.860  25.561  1.00  0.00     0.081 A 
ATOM     20  C   UNL A   1      29.255  28.964  22.418  1.00  0.00     0.044 C 
ATOM     21  C   UNL A   1      29.763  28.107  23.541  1.00  0.00    -0.050 A 
ATOM     22  C   UNL A   1      29.329  26.785  23.665  1.00  0.00     0.007 A 
ATOM     23  C   UNL A   1      30.639  28.637  24.504  1.00  0.00     0.021 A 
ATOM     24  C   UNL A   1      29.775  26.001  24.726  1.00  0.00     0.047 A 
ATOM     25  C   UNL A   1      30.660  26.535  25.663  1.00  0.00     0.128 A 
BRANCH  25  26
ATOM     26  O   UNL A   1      31.015  25.683  26.680  1.00  0.00    -0.507 OA
ATOM     27  H   UNL A   1      31.464  26.013  27.433  1.00  0.00     0.293 HD
ENDBRANCH  25  26
ENDBRANCH  16  19
ENDBRANCH  14  15
ENDBRANCH  10  14
ENDBRANCH   7   9
ENDBRANCH   6   7
ENDBRANCH   5   6
ENDBRANCH   4   5
ENDBRANCH   3   4
ENDBRANCH   2   3
ENDBRANCH   1   2
BRANCH   1  28
ATOM     28  O   UNL A   1      35.757  20.802  25.026  1.00  0.00    -0.377 OA
BRANCH  28  29
ATOM     29  C   UNL A   1      37.031  21.440  24.993  1.00  0.00     0.188 C 
BRANCH  29  30
ATOM     30  C   UNL A   1      37.055  22.942  24.664  1.00  0.00     0.188 C 
BRANCH  30  31
ATOM     31  O   UNL A   1      37.294  23.749  25.825  1.00  0.00    -0.376 OA
BRANCH  31  32
ATOM     32  C   UNL A   1      38.583  23.601  26.421  1.00  0.00     0.202 C 
BRANCH  32  33
ATOM     33  C   UNL A   1      39.480  24.835  26.249  1.00  0.00     0.261 C 
BRANCH  33  34
ATOM     34  O   UNL A   1      40.889  24.556  26.287  1.00  0.00    -0.460 OA
BRANCH  34  35
ATOM     35  C   UNL A   1      41.718  25.608  26.110  1.00  0.00     0.338 C 
ATOM     36  O   UNL A   1      42.210  25.984  25.062  1.00  0.00    -0.246 OA
BRANCH  35  37
ATOM     37  C   UNL A   1      41.789  26.358  27.380  1.00  0.00     0.060 A 
ATOM     38  C   UNL A   1      41.161  25.816  28.507  1.00  0.00     0.016 A 
ATOM     39  C   UNL A   1      42.444  27.591  27.452  1.00  0.00     0.016 A 
ATOM     40  C   UNL A   1      41.145  26.532  29.703  1.00  0.00     0.010 A 
ATOM     41  C   UNL A   1      42.414  28.314  28.646  1.00  0.00     0.010 A 
ATOM     42  C   UNL A   1      41.732  27.803  29.764  1.00  0.00    -0.014 A 
BRANCH  42  43
ATOM     43  C   UNL A   1      41.464  28.683  30.924  1.00  0.00     0.031 A 
ATOM     44  C   UNL A   1      40.329  29.666  30.827  1.00  0.00     0.074 A 
ATOM     45  C   UNL A   1      42.213  28.618  32.038  1.00  0.00     0.049 A 
ATOM     46  N   UNL A   1      39.915  30.543  31.703  1.00  0.00    -0.248 NA
ATOM     47  C   UNL A   1      39.558  29.656  29.572  1.00  0.00     0.031 C 
ATOM     48  C   UNL A   1      43.326  27.696  32.262  1.00  0.00     0.029 A 
ATOM     49  N   UNL A   1      42.149  29.358  33.192  1.00  0.00    -0.354 N 
ATOM     50  C   UNL A   1      38.835  31.184  31.110  1.00  0.00     0.074 A 
ATOM     51  C   UNL A   1      38.672  30.616  29.790  1.00  0.00     0.031 C 
ATOM     52  C   UNL A   1      43.848  27.934  33.478  1.00  0.00     0.029 A 
ATOM     53  C   UNL A   1      43.121  29.035  34.108  1.00  0.00     0.049 A 
ATOM     54  H   UNL A   1      41.471  30.054  33.349  1.00  0.00     0.167 HD
ATOM     55  C   UNL A   1      38.044  32.158  31.619  1.00  0.00     0.031 A 
ATOM     56  C   UNL A   1      43.397  29.577  35.309  1.00  0.00     0.031 A 
ATOM     57  C   UNL A   1      38.222  32.749  32.916  1.00  0.00     0.049 A 
ATOM     58  C   UNL A   1      42.546  30.707  35.827  1.00  0.00     0.074 A 
ATOM     59  C   UNL A   1      37.471  33.740  33.522  1.00  0.00     0.029 A 
ATOM     60  N   UNL A   1      39.233  32.411  33.802  1.00  0.00    -0.354 N 
ATOM     61  N   UNL A   1      41.506  31.278  35.269  1.00  0.00    -0.248 NA
ATOM     62  C   UNL A   1      42.906  31.261  37.142  1.00  0.00     0.031 C 
ATOM     63  C   UNL A   1      38.052  34.028  34.762  1.00  0.00     0.029 A 
ATOM     64  C   UNL A   1      39.139  33.188  34.942  1.00  0.00     0.049 A 
ATOM     65  H   UNL A   1      39.916  31.720  33.643  1.00  0.00     0.167 HD
ATOM     66  C   UNL A   1      41.073  32.242  36.174  1.00  0.00     0.074 A 
ATOM     67  C   UNL A   1      41.959  32.172  37.317  1.00  0.00     0.031 C 
ATOM     68  C   UNL A   1      40.032  33.105  36.070  1.00  0.00     0.031 A 
BRANCH  55  69
ATOM     69  C   UNL A   1      36.931  32.658  30.742  1.00  0.00    -0.014 A 
ATOM     70  C   UNL A   1      37.125  33.764  29.895  1.00  0.00     0.010 A 
ATOM     71  C   UNL A   1      35.680  32.017  30.764  1.00  0.00     0.010 A 
ATOM     72  C   UNL A   1      36.072  34.245  29.113  1.00  0.00     0.020 A 
ATOM     73  C   UNL A   1      34.631  32.484  29.969  1.00  0.00     0.020 A 
ATOM     74  C   UNL A   1      34.829  33.608  29.163  1.00  0.00     0.054 A 
BRANCH  74  75
ATOM     75  S   UNL A   1      33.476  34.249  28.138  1.00  0.00     0.124 S 
ATOM     76  O   UNL A   1      34.203  35.021  27.133  1.00  0.00    -0.237 OA
ATOM     77  O   UNL A   1      32.832  33.033  27.651  1.00  0.00    -0.237 OA
ATOM     78  O   UNL A   1      32.681  35.040  29.075  1.00  0.00    -0.744 OA
ENDBRANCH  74  75
ENDBRANCH  55  69
BRANCH  56  79
ATOM     79  C   UNL A   1      44.544  29.067  36.106  1.00  0.00    -0.014 A 
ATOM     80  C   UNL A   1      45.821  29.637  35.967  1.00  0.00     0.010 A 
ATOM     81  C   UNL A   1      44.361  28.005  37.010  1.00  0.00     0.010 A 
ATOM     82  C   UNL A   1      46.899  29.146  36.709  1.00  0.00     0.020 A 
ATOM     83  C   UNL A   1      45.432  27.525  37.768  1.00  0.00     0.020 A 
ATOM     84  C   UNL A   1      46.698  28.092  37.606  1.00  0.00     0.054 A 
BRANCH  84  85
ATOM     85  S   UNL A   1      48.095  27.504  38.604  1.00  0.00     0.124 S 
ATOM     86  O   UNL A   1      49.058  27.118  37.579  1.00  0.00    -0.237 OA
ATOM     87  O   UNL A   1      48.445  28.684  39.390  1.00  0.00    -0.237 OA
ATOM     88  O   UNL A   1      47.520  26.403  39.374  1.00  0.00    -0.744 OA
ENDBRANCH  84  85
ENDBRANCH  56  79
BRANCH  68  89
ATOM     89  C   UNL A   1      39.775  34.025  37.230  1.00  0.00    -0.014 A 
ATOM     90  C   UNL A   1      38.911  33.650  38.274  1.00  0.00     0.010 A 
ATOM     91  C   UNL A   1      40.459  35.251  37.310  1.00  0.00     0.010 A 
ATOM     92  C   UNL A   1      38.716  34.499  39.366  1.00  0.00     0.020 A 
ATOM     93  C   UNL A   1      40.281  36.094  38.409  1.00  0.00     0.020 A 
ATOM     94  C   UNL A   1      39.401  35.717  39.427  1.00  0.00     0.054 A 
BRANCH  94  95
ATOM     95  S   UNL A   1      39.176  36.782  40.878  1.00  0.00     0.124 S 
ATOM     96  O   UNL A   1      38.451  35.903  41.790  1.00  0.00    -0.237 OA
ATOM     97  O   UNL A   1      40.548  37.097  41.266  1.00  0.00    -0.237 OA
ATOM     98  O   UNL A   1      38.408  37.912  40.358  1.00  0.00    -0.744 OA
ENDBRANCH  94  95
ENDBRANCH  68  89
ENDBRANCH  42  43
ENDBRANCH  35  37
ENDBRANCH  34  35
ENDBRANCH  33  34
ENDBRANCH  32  33
ENDBRANCH  31  32
ENDBRANCH  30  31
ENDBRANCH  29  30
ENDBRANCH  28  29
ENDBRANCH   1  28
TORSDOF 27
ENDMDL
MODEL 2
REMARK VINA RESULT:      -9.1      6.097     10.414
REMARK SMILES Cc1ccc(O)c(C(=O)NCc2ccc(C(=O)OCCOCCOCCOCCOC(=O)c3ccc(-c4c5nc(c(-c6ccc(S(=O)(=O)[O-])cc6)c6ccc([nH]6)c(-c6ccc(S(=O)(=O)[O-])cc6)c6nc(c(-c7ccc(S(=O)(=O)[O-])cc7)c7ccc4[nH]7)C=C6)C=C5)cc3)o2)c1
REMARK SMILES IDX 23 1 22 2 21 3 20 4 19 5 18 6 16 7 17 8 15 9 12 10 13 11
REMARK SMILES IDX 93 12 14 13 11 14 10 15 8 16 9 17 7 19 1 20 2 21 3 22 94 23
REMARK SMILES IDX 4 24 5 25 6 26 24 28 25 29 26 30 27 31 28 32 29 33 30 34
REMARK SMILES IDX 31 35 32 36 33 37 34 38 92 39 35 40 91 41 36 42 37 43 38 44
REMARK SMILES IDX 85 45 39 46 90 47 84 48 86 49 40 50 89 51 83 52 82 53 41 55
REMARK SMILES IDX 71 56 52 57 70 58 53 59 56 60 69 61 87 62 54 63 55 64 68 66
REMARK SMILES IDX 88 67 57 68 42 69 43 70 51 71 44 72 50 73 45 74 46 75 47 76
REMARK SMILES IDX 48 77 49 78 72 79 73 80 81 81 74 82 80 83 75 84 76 85 77 86
REMARK SMILES IDX 78 87 79 88 58 89 59 90 67 91 60 92 66 93 61 94 62 95 63 96
REMARK SMILES IDX 64 97 65 98
REMARK H PARENT 10 18 6 27 86 54 56 65
REMARK Flexibility Score: inf
ROOT
ATOM      1  C   UNL A   1      37.365  21.366  24.760  1.00  0.00     0.188 C 
ENDROOT
BRANCH   1   2
ATOM      2  C   UNL A   1      36.312  21.876  25.755  1.00  0.00     0.188 C 
BRANCH   2   3
ATOM      3  O   UNL A   1      34.968  21.632  25.335  1.00  0.00    -0.376 OA
BRANCH   3   4
ATOM      4  C   UNL A   1      34.626  20.270  25.080  1.00  0.00     0.202 C 
BRANCH   4   5
ATOM      5  C   UNL A   1      33.183  19.863  25.423  1.00  0.00     0.261 C 
BRANCH   5   6
ATOM      6  O   UNL A   1      32.164  20.615  24.743  1.00  0.00    -0.457 OA
BRANCH   6   7
ATOM      7  C   UNL A   1      32.208  20.676  23.387  1.00  0.00     0.374 C 
ATOM      8  O   UNL A   1      32.122  19.712  22.635  1.00  0.00    -0.242 OA
BRANCH   7   9
ATOM      9  C   UNL A   1      32.189  22.067  23.004  1.00  0.00     0.211 A 
ATOM     10  C   UNL A   1      31.723  24.201  23.330  1.00  0.00     0.124 A 
ATOM     11  C   UNL A   1      32.669  24.152  22.324  1.00  0.00     0.048 A 
ATOM     12  O   UNL A   1      31.398  22.932  23.715  1.00  0.00    -0.452 OA
ATOM     13  C   UNL A   1      32.960  22.786  22.109  1.00  0.00     0.058 A 
BRANCH  10  14
ATOM     14  C   UNL A   1      31.067  25.304  24.081  1.00  0.00     0.191 C 
BRANCH  14  15
ATOM     15  N   UNL A   1      30.747  26.373  23.154  1.00  0.00    -0.345 N 
ATOM     16  C   UNL A   1      31.037  27.708  23.107  1.00  0.00     0.255 C 
ATOM     17  O   UNL A   1      30.705  28.314  22.081  1.00  0.00    -0.269 OA
ATOM     18  H   UNL A   1      30.201  26.071  22.392  1.00  0.00     0.164 HD
BRANCH  16  19
ATOM     19  C   UNL A   1      31.738  28.481  24.174  1.00  0.00     0.081 A 
ATOM     20  C   UNL A   1      31.279  31.485  26.490  1.00  0.00     0.044 C 
ATOM     21  C   UNL A   1      31.896  30.296  25.811  1.00  0.00    -0.050 A 
ATOM     22  C   UNL A   1      33.200  29.909  26.123  1.00  0.00     0.007 A 
ATOM     23  C   UNL A   1      31.187  29.592  24.822  1.00  0.00     0.021 A 
ATOM     24  C   UNL A   1      33.783  28.827  25.469  1.00  0.00     0.047 A 
ATOM     25  C   UNL A   1      33.060  28.124  24.504  1.00  0.00     0.128 A 
BRANCH  25  26
ATOM     26  O   UNL A   1      33.739  27.092  23.905  1.00  0.00    -0.507 OA
ATOM     27  H   UNL A   1      33.267  26.372  23.536  1.00  0.00     0.293 HD
ENDBRANCH  25  26
ENDBRANCH  16  19
ENDBRANCH  14  15
ENDBRANCH  10  14
ENDBRANCH   7   9
ENDBRANCH   6   7
ENDBRANCH   5   6
ENDBRANCH   4   5
ENDBRANCH   3   4
ENDBRANCH   2   3
ENDBRANCH   1   2
BRANCH   1  28
ATOM     28  O   UNL A   1      38.461  20.741  25.413  1.00  0.00    -0.377 OA
BRANCH  28  29
ATOM     29  C   UNL A   1      39.349  21.620  26.099  1.00  0.00     0.188 C 
BRANCH  29  30
ATOM     30  C   UNL A   1      40.820  21.186  26.209  1.00  0.00     0.188 C 
BRANCH  30  31
ATOM     31  O   UNL A   1      40.974  19.763  26.127  1.00  0.00    -0.376 OA
BRANCH  31  32
ATOM     32  C   UNL A   1      42.189  19.245  26.671  1.00  0.00     0.202 C 
BRANCH  32  33
ATOM     33  C   UNL A   1      43.101  18.599  25.618  1.00  0.00     0.261 C 
BRANCH  33  34
ATOM     34  O   UNL A   1      43.473  19.472  24.538  1.00  0.00    -0.460 OA
BRANCH  34  35
ATOM     35  C   UNL A   1      44.712  20.008  24.594  1.00  0.00     0.338 C 
ATOM     36  O   UNL A   1      45.740  19.521  24.161  1.00  0.00    -0.246 OA
BRANCH  35  37
ATOM     37  C   UNL A   1      44.594  21.388  25.106  1.00  0.00     0.060 A 
ATOM     38  C   UNL A   1      44.355  22.418  24.189  1.00  0.00     0.016 A 
ATOM     39  C   UNL A   1      44.742  21.666  26.468  1.00  0.00     0.016 A 
ATOM     40  C   UNL A   1      44.312  23.740  24.629  1.00  0.00     0.010 A 
ATOM     41  C   UNL A   1      44.714  22.991  26.904  1.00  0.00     0.010 A 
ATOM     42  C   UNL A   1      44.536  24.035  25.980  1.00  0.00    -0.014 A 
BRANCH  42  43
ATOM     43  C   UNL A   1      44.784  25.434  26.398  1.00  0.00     0.031 A 
ATOM     44  C   UNL A   1      46.191  25.963  26.316  1.00  0.00     0.074 A 
ATOM     45  C   UNL A   1      43.788  26.217  26.844  1.00  0.00     0.049 A 
ATOM     46  N   UNL A   1      46.651  27.144  26.637  1.00  0.00    -0.248 NA
ATOM     47  C   UNL A   1      47.213  25.034  25.805  1.00  0.00     0.031 C 
ATOM     48  C   UNL A   1      42.383  25.828  26.950  1.00  0.00     0.029 A 
ATOM     49  N   UNL A   1      43.817  27.510  27.302  1.00  0.00    -0.354 N 
ATOM     50  C   UNL A   1      48.012  27.103  26.361  1.00  0.00     0.074 A 
ATOM     51  C   UNL A   1      48.309  25.774  25.873  1.00  0.00     0.031 C 
ATOM     52  C   UNL A   1      41.683  26.860  27.454  1.00  0.00     0.029 A 
ATOM     53  C   UNL A   1      42.593  27.973  27.723  1.00  0.00     0.049 A 
ATOM     54  H   UNL A   1      44.636  28.055  27.327  1.00  0.00     0.167 HD
ATOM     55  C   UNL A   1      48.935  28.084  26.499  1.00  0.00     0.031 A 
ATOM     56  C   UNL A   1      42.253  29.153  28.276  1.00  0.00     0.031 A 
ATOM     57  C   UNL A   1      48.650  29.393  27.015  1.00  0.00     0.049 A 
ATOM     58  C   UNL A   1      43.309  30.207  28.483  1.00  0.00     0.074 A 
ATOM     59  C   UNL A   1      49.517  30.458  27.189  1.00  0.00     0.029 A 
ATOM     60  N   UNL A   1      47.405  29.813  27.453  1.00  0.00    -0.354 N 
ATOM     61  N   UNL A   1      44.586  30.165  28.183  1.00  0.00    -0.248 NA
ATOM     62  C   UNL A   1      42.875  31.470  29.098  1.00  0.00     0.031 C 
ATOM     63  C   UNL A   1      48.801  31.510  27.770  1.00  0.00     0.029 A 
ATOM     64  C   UNL A   1      47.482  31.114  27.918  1.00  0.00     0.049 A 
ATOM     65  H   UNL A   1      46.586  29.266  27.436  1.00  0.00     0.167 HD
ATOM     66  C   UNL A   1      45.101  31.404  28.552  1.00  0.00     0.074 A 
ATOM     67  C   UNL A   1      43.999  32.174  29.090  1.00  0.00     0.031 C 
ATOM     68  C   UNL A   1      46.373  31.863  28.451  1.00  0.00     0.031 A 
BRANCH  55  69
ATOM     69  C   UNL A   1      50.346  27.751  26.106  1.00  0.00    -0.014 A 
ATOM     70  C   UNL A   1      51.210  27.106  27.009  1.00  0.00     0.010 A 
ATOM     71  C   UNL A   1      50.813  28.083  24.822  1.00  0.00     0.010 A 
ATOM     72  C   UNL A   1      52.533  26.837  26.648  1.00  0.00     0.020 A 
ATOM     73  C   UNL A   1      52.128  27.798  24.451  1.00  0.00     0.020 A 
ATOM     74  C   UNL A   1      52.986  27.193  25.374  1.00  0.00     0.054 A 
BRANCH  74  75
ATOM     75  S   UNL A   1      54.706  26.833  24.926  1.00  0.00     0.124 S 
ATOM     76  O   UNL A   1      54.576  25.541  24.255  1.00  0.00    -0.237 OA
ATOM     77  O   UNL A   1      55.060  27.956  24.062  1.00  0.00    -0.237 OA
ATOM     78  O   UNL A   1      55.397  26.798  26.213  1.00  0.00    -0.744 OA
ENDBRANCH  74  75
ENDBRANCH  55  69
BRANCH  56  79
ATOM     79  C   UNL A   1      40.846  29.401  28.687  1.00  0.00    -0.014 A 
ATOM     80  C   UNL A   1      39.827  29.496  27.724  1.00  0.00     0.010 A 
ATOM     81  C   UNL A   1      40.521  29.543  30.047  1.00  0.00     0.010 A 
ATOM     82  C   UNL A   1      38.507  29.742  28.114  1.00  0.00     0.020 A 
ATOM     83  C   UNL A   1      39.200  29.770  30.442  1.00  0.00     0.020 A 
ATOM     84  C   UNL A   1      38.202  29.877  29.472  1.00  0.00     0.054 A 
BRANCH  84  85
ATOM     85  S   UNL A   1      36.475  30.139  29.966  1.00  0.00     0.124 S 
ATOM     86  O   UNL A   1      36.417  31.589  30.110  1.00  0.00    -0.237 OA
ATOM     87  O   UNL A   1      35.733  29.584  28.836  1.00  0.00    -0.237 OA
ATOM     88  O   UNL A   1      36.360  29.378  31.208  1.00  0.00    -0.744 OA
ENDBRANCH  84  85
ENDBRANCH  56  79
BRANCH  68  89
ATOM     89  C   UNL A   1      46.639  33.272  28.905  1.00  0.00    -0.014 A 
ATOM     90  C   UNL A   1      46.726  34.326  27.979  1.00  0.00     0.010 A 
ATOM     91  C   UNL A   1      46.737  33.552  30.279  1.00  0.00     0.010 A 
ATOM     92  C   UNL A   1      46.931  35.635  28.421  1.00  0.00     0.020 A 
ATOM     93  C   UNL A   1      46.924  34.862  30.725  1.00  0.00     0.020 A 
ATOM     94  C   UNL A   1      47.031  35.896  29.791  1.00  0.00     0.054 A 
BRANCH  94  95
ATOM     95  S   UNL A   1      47.245  37.609  30.348  1.00  0.00     0.124 S 
ATOM     96  O   UNL A   1      48.661  37.840  30.082  1.00  0.00    -0.237 OA
ATOM     97  O   UNL A   1      46.316  38.347  29.495  1.00  0.00    -0.237 OA
ATOM     98  O   UNL A   1      46.875  37.560  31.761  1.00  0.00    -0.744 OA
ENDBRANCH  94  95
ENDBRANCH  68  89
ENDBRANCH  42  43
ENDBRANCH  35  37
ENDBRANCH  34  35
ENDBRANCH  33  34
ENDBRANCH  32  33
ENDBRANCH  31  32
ENDBRANCH  30  31
ENDBRANCH  29  30
ENDBRANCH  28  29
ENDBRANCH   1  28
TORSDOF 27
ENDMDL
MODEL 3
REMARK VINA RESULT:      -8.3      2.436      3.676
REMARK SMILES Cc1ccc(O)c(C(=O)NCc2ccc(C(=O)OCCOCCOCCOCCOC(=O)c3ccc(-c4c5nc(c(-c6ccc(S(=O)(=O)[O-])cc6)c6ccc([nH]6)c(-c6ccc(S(=O)(=O)[O-])cc6)c6nc(c(-c7ccc(S(=O)(=O)[O-])cc7)c7ccc4[nH]7)C=C6)C=C5)cc3)o2)c1
REMARK SMILES IDX 23 1 22 2 21 3 20 4 19 5 18 6 16 7 17 8 15 9 12 10 13 11
REMARK SMILES IDX 93 12 14 13 11 14 10 15 8 16 9 17 7 19 1 20 2 21 3 22 94 23
REMARK SMILES IDX 4 24 5 25 6 26 24 28 25 29 26 30 27 31 28 32 29 33 30 34
REMARK SMILES IDX 31 35 32 36 33 37 34 38 92 39 35 40 91 41 36 42 37 43 38 44
REMARK SMILES IDX 85 45 39 46 90 47 84 48 86 49 40 50 89 51 83 52 82 53 41 55
REMARK SMILES IDX 71 56 52 57 70 58 53 59 56 60 69 61 87 62 54 63 55 64 68 66
REMARK SMILES IDX 88 67 57 68 42 69 43 70 51 71 44 72 50 73 45 74 46 75 47 76
REMARK SMILES IDX 48 77 49 78 72 79 73 80 81 81 74 82 80 83 75 84 76 85 77 86
REMARK SMILES IDX 78 87 79 88 58 89 59 90 67 91 60 92 66 93 61 94 62 95 63 96
REMARK SMILES IDX 64 97 65 98
REMARK H PARENT 10 18 6 27 86 54 56 65
REMARK Flexibility Score: inf
ROOT
ATOM      1  C   UNL A   1      34.868  21.475  26.449  1.00  0.00     0.188 C 
ENDROOT
BRANCH   1   2
ATOM      2  C   UNL A   1      33.407  21.355  26.911  1.00  0.00     0.188 C 
BRANCH   2   3
ATOM      3  O   UNL A   1      32.492  22.089  26.097  1.00  0.00    -0.376 OA
BRANCH   3   4
ATOM      4  C   UNL A   1      31.791  21.341  25.105  1.00  0.00     0.202 C 
BRANCH   4   5
ATOM      5  C   UNL A   1      32.202  21.604  23.647  1.00  0.00     0.261 C 
BRANCH   5   6
ATOM      6  O   UNL A   1      31.621  22.779  23.056  1.00  0.00    -0.457 OA
BRANCH   6   7
ATOM      7  C   UNL A   1      32.343  23.929  23.071  1.00  0.00     0.374 C 
ATOM      8  O   UNL A   1      33.360  24.131  22.418  1.00  0.00    -0.242 OA
BRANCH   7   9
ATOM      9  C   UNL A   1      31.605  24.906  23.836  1.00  0.00     0.211 A 
ATOM     10  C   UNL A   1      29.836  26.157  24.263  1.00  0.00     0.124 A 
ATOM     11  C   UNL A   1      30.581  26.116  25.425  1.00  0.00     0.048 A 
ATOM     12  O   UNL A   1      30.479  25.458  23.281  1.00  0.00    -0.452 OA
ATOM     13  C   UNL A   1      31.718  25.323  25.149  1.00  0.00     0.058 A 
BRANCH  10  14
ATOM     14  C   UNL A   1      28.512  26.729  23.902  1.00  0.00     0.191 C 
BRANCH  14  15
ATOM     15  N   UNL A   1      28.705  27.744  22.883  1.00  0.00    -0.345 N 
ATOM     16  C   UNL A   1      29.682  28.666  22.636  1.00  0.00     0.255 C 
ATOM     17  O   UNL A   1      29.591  29.306  21.581  1.00  0.00    -0.269 OA
ATOM     18  H   UNL A   1      27.971  27.775  22.228  1.00  0.00     0.164 HD
BRANCH  16  19
ATOM     19  C   UNL A   1      30.855  28.945  23.516  1.00  0.00     0.081 A 
ATOM     20  C   UNL A   1      31.837  30.832  26.690  1.00  0.00     0.044 C 
ATOM     21  C   UNL A   1      31.932  29.980  25.457  1.00  0.00    -0.050 A 
ATOM     22  C   UNL A   1      33.165  29.463  25.057  1.00  0.00     0.007 A 
ATOM     23  C   UNL A   1      30.794  29.735  24.670  1.00  0.00     0.021 A 
ATOM     24  C   UNL A   1      33.258  28.701  23.895  1.00  0.00     0.047 A 
ATOM     25  C   UNL A   1      32.116  28.448  23.134  1.00  0.00     0.128 A 
BRANCH  25  26
ATOM     26  O   UNL A   1      32.326  27.708  21.997  1.00  0.00    -0.507 OA
ATOM     27  H   UNL A   1      31.994  26.834  21.938  1.00  0.00     0.293 HD
ENDBRANCH  25  26
ENDBRANCH  16  19
ENDBRANCH  14  15
ENDBRANCH  10  14
ENDBRANCH   7   9
ENDBRANCH   6   7
ENDBRANCH   5   6
ENDBRANCH   4   5
ENDBRANCH   3   4
ENDBRANCH   2   3
ENDBRANCH   1   2
BRANCH   1  28
ATOM     28  O   UNL A   1      35.111  20.756  25.248  1.00  0.00    -0.377 OA
BRANCH  28  29
ATOM     29  C   UNL A   1      36.472  20.405  25.010  1.00  0.00     0.188 C 
BRANCH  29  30
ATOM     30  C   UNL A   1      37.424  21.535  24.584  1.00  0.00     0.188 C 
BRANCH  30  31
ATOM     31  O   UNL A   1      38.127  22.102  25.698  1.00  0.00    -0.376 OA
BRANCH  31  32
ATOM     32  C   UNL A   1      39.368  21.475  26.023  1.00  0.00     0.202 C 
BRANCH  32  33
ATOM     33  C   UNL A   1      40.491  22.473  26.341  1.00  0.00     0.261 C 
BRANCH  33  34
ATOM     34  O   UNL A   1      41.817  21.941  26.195  1.00  0.00    -0.460 OA
BRANCH  34  35
ATOM     35  C   UNL A   1      42.776  22.808  25.801  1.00  0.00     0.338 C 
ATOM     36  O   UNL A   1      43.201  22.965  24.671  1.00  0.00    -0.246 OA
BRANCH  35  37
ATOM     37  C   UNL A   1      43.102  23.685  26.943  1.00  0.00     0.060 A 
ATOM     38  C   UNL A   1      42.946  23.176  28.237  1.00  0.00     0.016 A 
ATOM     39  C   UNL A   1      43.534  24.999  26.741  1.00  0.00     0.016 A 
ATOM     40  C   UNL A   1      43.174  24.000  29.338  1.00  0.00     0.010 A 
ATOM     41  C   UNL A   1      43.747  25.827  27.844  1.00  0.00     0.010 A 
ATOM     42  C   UNL A   1      43.532  25.341  29.145  1.00  0.00    -0.014 A 
BRANCH  42  43
ATOM     43  C   UNL A   1      43.486  26.287  30.283  1.00  0.00     0.031 A 
ATOM     44  C   UNL A   1      42.375  27.301  30.323  1.00  0.00     0.074 A 
ATOM     45  C   UNL A   1      44.410  26.252  31.258  1.00  0.00     0.049 A 
ATOM     46  N   UNL A   1      42.138  28.235  31.207  1.00  0.00    -0.248 NA
ATOM     47  C   UNL A   1      41.404  27.255  29.217  1.00  0.00     0.031 C 
ATOM     48  C   UNL A   1      45.521  25.305  31.343  1.00  0.00     0.029 A 
ATOM     49  N   UNL A   1      44.561  27.051  32.364  1.00  0.00    -0.354 N 
ATOM     50  C   UNL A   1      40.989  28.882  30.769  1.00  0.00     0.074 A 
ATOM     51  C   UNL A   1      40.592  28.254  29.528  1.00  0.00     0.031 C 
ATOM     52  C   UNL A   1      46.248  25.586  32.440  1.00  0.00     0.029 A 
ATOM     53  C   UNL A   1      45.665  26.742  33.121  1.00  0.00     0.049 A 
ATOM     54  H   UNL A   1      43.936  27.776  32.593  1.00  0.00     0.167 HD
ATOM     55  C   UNL A   1      40.320  29.906  31.348  1.00  0.00     0.031 A 
ATOM     56  C   UNL A   1      46.154  27.334  34.227  1.00  0.00     0.031 A 
ATOM     57  C   UNL A   1      40.730  30.555  32.562  1.00  0.00     0.049 A 
ATOM     58  C   UNL A   1      45.431  28.517  34.817  1.00  0.00     0.074 A 
ATOM     59  C   UNL A   1      40.117  31.600  33.230  1.00  0.00     0.029 A 
ATOM     60  N   UNL A   1      41.867  30.228  33.283  1.00  0.00    -0.354 N 
ATOM     61  N   UNL A   1      44.326  29.094  34.410  1.00  0.00    -0.248 NA
ATOM     62  C   UNL A   1      46.022  29.123  36.020  1.00  0.00     0.031 C 
ATOM     63  C   UNL A   1      40.906  31.930  34.337  1.00  0.00     0.029 A 
ATOM     64  C   UNL A   1      41.986  31.064  34.379  1.00  0.00     0.049 A 
ATOM     65  H   UNL A   1      42.496  29.507  33.051  1.00  0.00     0.167 HD
ATOM     66  C   UNL A   1      44.076  30.116  35.320  1.00  0.00     0.074 A 
ATOM     67  C   UNL A   1      45.141  30.074  36.301  1.00  0.00     0.031 C 
ATOM     68  C   UNL A   1      43.055  31.007  35.344  1.00  0.00     0.031 A 
BRANCH  55  69
ATOM     69  C   UNL A   1      39.088  30.399  30.644  1.00  0.00    -0.014 A 
ATOM     70  C   UNL A   1      37.891  29.662  30.689  1.00  0.00     0.010 A 
ATOM     71  C   UNL A   1      39.126  31.610  29.930  1.00  0.00     0.010 A 
ATOM     72  C   UNL A   1      36.762  30.109  29.997  1.00  0.00     0.020 A 
ATOM     73  C   UNL A   1      37.994  32.070  29.254  1.00  0.00     0.020 A 
ATOM     74  C   UNL A   1      36.825  31.306  29.276  1.00  0.00     0.054 A 
BRANCH  74  75
ATOM     75  S   UNL A   1      35.347  31.868  28.386  1.00  0.00     0.124 S 
ATOM     76  O   UNL A   1      34.445  32.202  29.486  1.00  0.00    -0.237 OA
ATOM     77  O   UNL A   1      35.843  33.004  27.615  1.00  0.00    -0.237 OA
ATOM     78  O   UNL A   1      34.958  30.703  27.595  1.00  0.00    -0.744 OA
ENDBRANCH  74  75
ENDBRANCH  55  69
BRANCH  56  79
ATOM     79  C   UNL A   1      47.406  26.826  34.848  1.00  0.00    -0.014 A 
ATOM     80  C   UNL A   1      47.385  25.683  35.666  1.00  0.00     0.010 A 
ATOM     81  C   UNL A   1      48.626  27.486  34.621  1.00  0.00     0.010 A 
ATOM     82  C   UNL A   1      48.562  25.216  36.258  1.00  0.00     0.020 A 
ATOM     83  C   UNL A   1      49.809  27.011  35.195  1.00  0.00     0.020 A 
ATOM     84  C   UNL A   1      49.767  25.883  36.019  1.00  0.00     0.054 A 
BRANCH  84  85
ATOM     85  S   UNL A   1      51.296  25.231  36.748  1.00  0.00     0.124 S 
ATOM     86  O   UNL A   1      52.286  25.570  35.731  1.00  0.00    -0.237 OA
ATOM     87  O   UNL A   1      51.394  25.976  38.001  1.00  0.00    -0.237 OA
ATOM     88  O   UNL A   1      51.015  23.806  36.902  1.00  0.00    -0.744 OA
ENDBRANCH  84  85
ENDBRANCH  56  79
BRANCH  68  89
ATOM     89  C   UNL A   1      43.021  31.993  36.479  1.00  0.00    -0.014 A 
ATOM     90  C   UNL A   1      42.320  31.708  37.664  1.00  0.00     0.010 A 
ATOM     91  C   UNL A   1      43.754  33.189  36.382  1.00  0.00     0.010 A 
ATOM     92  C   UNL A   1      42.334  32.616  38.725  1.00  0.00     0.020 A 
ATOM     93  C   UNL A   1      43.785  34.090  37.449  1.00  0.00     0.020 A 
ATOM     94  C   UNL A   1      43.065  33.803  38.611  1.00  0.00     0.054 A 
BRANCH  94  95
ATOM     95  S   UNL A   1      43.114  34.946  40.019  1.00  0.00     0.124 S 
ATOM     96  O   UNL A   1      43.082  34.030  41.155  1.00  0.00    -0.237 OA
ATOM     97  O   UNL A   1      44.375  35.655  39.818  1.00  0.00    -0.237 OA
ATOM     98  O   UNL A   1      41.914  35.762  39.841  1.00  0.00    -0.744 OA
ENDBRANCH  94  95
ENDBRANCH  68  89
ENDBRANCH  42  43
ENDBRANCH  35  37
ENDBRANCH  34  35
ENDBRANCH  33  34
ENDBRANCH  32  33
ENDBRANCH  31  32
ENDBRANCH  30  31
ENDBRANCH  29  30
ENDBRANCH  28  29
ENDBRANCH   1  28
TORSDOF 27
ENDMDL
