MODEL 1
REMARK VINA RESULT:     -10.5      0.000      0.000
REMARK SMILES Cc1ccc(-c2cc(Cl)ccc2Cl)c(C(=O)OCCOCCOCCOCCOC(=O)c2ccc(-c3c4nc(c(-c5ccc(S(=O)(=O)[O-])cc5)c5ccc([nH]5)c(-c5ccc(S(=O)(=O)[O-])cc5)c5nc(c(-c6ccc(S(=O)(=O)[O-])cc6)c6ccc3[nH]6)C=C5)C=C4)cc2)c1
REMARK SMILES IDX 24 1 23 2 22 3 21 4 20 5 19 6 18 7 17 8 15 9 16 10 14 11
REMARK SMILES IDX 1 12 2 13 3 14 92 15 4 16 5 17 6 18 7 19 12 20 8 21 11 22
REMARK SMILES IDX 13 23 9 24 10 25 25 26 26 27 27 28 28 29 29 30 30 31 31 32
REMARK SMILES IDX 32 33 33 34 91 35 34 36 90 37 35 38 36 39 37 40 84 41 38 42
REMARK SMILES IDX 89 43 83 44 85 45 39 46 88 47 82 48 81 49 40 51 70 52 51 53
REMARK SMILES IDX 69 54 52 55 55 56 68 57 86 58 53 59 54 60 67 62 87 63 56 64
REMARK SMILES IDX 41 65 42 66 50 67 43 68 49 69 44 70 45 71 46 72 47 73 48 74
REMARK SMILES IDX 71 75 72 76 80 77 73 78 79 79 74 80 75 81 76 82 77 83 78 84
REMARK SMILES IDX 57 85 58 86 66 87 59 88 65 89 60 90 61 91 62 92 63 93 64 94
REMARK H PARENT 85 50 55 61
REMARK Flexibility Score: inf
ROOT
ATOM      1  C   UNL A   1      35.037  33.640  29.993  1.00  0.00     0.188 C 
ENDROOT
BRANCH   1   2
ATOM      2  O   UNL A   1      33.703  33.929  29.546  1.00  0.00    -0.377 OA
BRANCH   2   3
ATOM      3  C   UNL A   1      33.436  33.538  28.199  1.00  0.00     0.188 C 
BRANCH   3   4
ATOM      4  C   UNL A   1      34.261  32.343  27.755  1.00  0.00     0.188 C 
BRANCH   4   5
ATOM      5  O   UNL A   1      33.625  31.071  27.921  1.00  0.00    -0.376 OA
BRANCH   5   6
ATOM      6  C   UNL A   1      34.315  30.017  27.237  1.00  0.00     0.202 C 
BRANCH   6   7
ATOM      7  C   UNL A   1      33.534  29.238  26.174  1.00  0.00     0.261 C 
BRANCH   7   8
ATOM      8  O   UNL A   1      33.976  27.882  26.151  1.00  0.00    -0.460 OA
BRANCH   8   9
ATOM      9  C   UNL A   1      33.001  26.962  26.255  1.00  0.00     0.338 C 
ATOM     10  O   UNL A   1      31.964  27.034  26.861  1.00  0.00    -0.246 OA
BRANCH   9  11
ATOM     11  C   UNL A   1      33.279  25.973  25.200  1.00  0.00     0.068 A 
ATOM     12  C   UNL A   1      36.060  23.517  24.441  1.00  0.00     0.044 C 
ATOM     13  C   UNL A   1      34.799  24.321  24.307  1.00  0.00    -0.050 A 
ATOM     14  C   UNL A   1      34.030  24.309  23.132  1.00  0.00     0.004 A 
ATOM     15  C   UNL A   1      34.382  25.123  25.366  1.00  0.00     0.019 A 
ATOM     16  C   UNL A   1      32.943  25.190  22.957  1.00  0.00     0.010 A 
ATOM     17  C   UNL A   1      32.578  26.084  23.969  1.00  0.00    -0.002 A 
BRANCH  17  18
ATOM     18  C   UNL A   1      31.685  27.259  23.733  1.00  0.00     0.003 A 
ATOM     19  C   UNL A   1      30.299  27.107  23.968  1.00  0.00     0.030 A 
ATOM     20  C   UNL A   1      32.090  28.376  22.975  1.00  0.00     0.049 A 
ATOM     21  C   UNL A   1      29.359  27.911  23.310  1.00  0.00     0.041 A 
ATOM     22  C   UNL A   1      31.146  29.157  22.293  1.00  0.00     0.023 A 
ATOM     23  Cl  UNL A   1      33.767  28.762  22.783  1.00  0.00    -0.084 Cl
ATOM     24  Cl  UNL A   1      27.675  27.598  23.497  1.00  0.00    -0.084 Cl
ATOM     25  C   UNL A   1      29.780  28.899  22.428  1.00  0.00     0.022 A 
ENDBRANCH  17  18
ENDBRANCH   9  11
ENDBRANCH   8   9
ENDBRANCH   7   8
ENDBRANCH   6   7
ENDBRANCH   5   6
ENDBRANCH   4   5
ENDBRANCH   3   4
ENDBRANCH   2   3
ENDBRANCH   1   2
BRANCH   1  26
ATOM     26  C   UNL A   1      35.044  32.948  31.349  1.00  0.00     0.188 C 
BRANCH  26  27
ATOM     27  O   UNL A   1      35.234  31.547  31.121  1.00  0.00    -0.376 OA
BRANCH  27  28
ATOM     28  C   UNL A   1      36.447  30.987  31.604  1.00  0.00     0.202 C 
BRANCH  28  29
ATOM     29  C   UNL A   1      36.815  29.646  30.964  1.00  0.00     0.261 C 
BRANCH  29  30
ATOM     30  O   UNL A   1      36.839  29.738  29.523  1.00  0.00    -0.460 OA
BRANCH  30  31
ATOM     31  C   UNL A   1      37.813  30.540  28.999  1.00  0.00     0.338 C 
ATOM     32  O   UNL A   1      37.651  31.721  28.751  1.00  0.00    -0.246 OA
BRANCH  31  33
ATOM     33  C   UNL A   1      39.087  29.783  28.836  1.00  0.00     0.060 A 
ATOM     34  C   UNL A   1      40.111  29.840  29.795  1.00  0.00     0.016 A 
ATOM     35  C   UNL A   1      39.334  29.153  27.629  1.00  0.00     0.016 A 
ATOM     36  C   UNL A   1      41.423  29.422  29.477  1.00  0.00     0.010 A 
ATOM     37  C   UNL A   1      40.631  28.812  27.305  1.00  0.00     0.010 A 
ATOM     38  C   UNL A   1      41.712  28.966  28.193  1.00  0.00    -0.014 A 
BRANCH  38  39
ATOM     39  C   UNL A   1      43.050  28.706  27.593  1.00  0.00     0.031 A 
ATOM     40  C   UNL A   1      43.781  29.886  26.969  1.00  0.00     0.074 A 
ATOM     41  C   UNL A   1      43.760  27.612  27.995  1.00  0.00     0.049 A 
ATOM     42  N   UNL A   1      45.022  29.901  26.618  1.00  0.00    -0.248 NA
ATOM     43  C   UNL A   1      43.173  31.208  26.757  1.00  0.00     0.031 C 
ATOM     44  C   UNL A   1      45.223  27.520  28.090  1.00  0.00     0.029 A 
ATOM     45  N   UNL A   1      43.390  26.358  28.477  1.00  0.00    -0.354 N 
ATOM     46  C   UNL A   1      45.454  31.216  26.575  1.00  0.00     0.074 A 
ATOM     47  C   UNL A   1      44.244  31.994  26.581  1.00  0.00     0.031 C 
ATOM     48  C   UNL A   1      45.616  26.297  28.475  1.00  0.00     0.029 A 
ATOM     49  C   UNL A   1      44.459  25.465  28.286  1.00  0.00     0.049 A 
ATOM     50  H   UNL A   1      42.522  26.134  28.884  1.00  0.00     0.167 HD
ATOM     51  C   UNL A   1      46.790  31.490  26.691  1.00  0.00     0.031 A 
ATOM     52  C   UNL A   1      44.457  24.465  27.345  1.00  0.00     0.031 A 
ATOM     53  C   UNL A   1      47.605  30.267  26.594  1.00  0.00     0.049 A 
ATOM     54  C   UNL A   1      45.500  24.756  26.254  1.00  0.00     0.074 A 
ATOM     55  C   UNL A   1      48.631  29.725  27.341  1.00  0.00     0.029 A 
ATOM     56  N   UNL A   1      47.293  29.299  25.638  1.00  0.00    -0.354 N 
ATOM     57  N   UNL A   1      45.865  25.975  25.921  1.00  0.00    -0.248 NA
ATOM     58  C   UNL A   1      46.343  23.749  25.603  1.00  0.00     0.031 C 
ATOM     59  C   UNL A   1      48.750  28.349  26.997  1.00  0.00     0.029 A 
ATOM     60  C   UNL A   1      47.911  28.100  25.920  1.00  0.00     0.049 A 
ATOM     61  H   UNL A   1      46.707  29.453  24.863  1.00  0.00     0.167 HD
ATOM     62  C   UNL A   1      47.036  25.932  25.213  1.00  0.00     0.074 A 
ATOM     63  C   UNL A   1      47.248  24.517  24.960  1.00  0.00     0.031 C 
ATOM     64  C   UNL A   1      47.849  27.004  24.967  1.00  0.00     0.031 A 
BRANCH  51  65
ATOM     65  C   UNL A   1      47.394  32.839  27.099  1.00  0.00    -0.014 A 
ATOM     66  C   UNL A   1      47.162  33.338  28.403  1.00  0.00     0.010 A 
ATOM     67  C   UNL A   1      48.100  33.711  26.241  1.00  0.00     0.010 A 
ATOM     68  C   UNL A   1      47.592  34.610  28.826  1.00  0.00     0.020 A 
ATOM     69  C   UNL A   1      48.575  34.974  26.663  1.00  0.00     0.020 A 
ATOM     70  C   UNL A   1      48.308  35.422  27.954  1.00  0.00     0.054 A 
BRANCH  70  71
ATOM     71  S   UNL A   1      48.891  37.041  28.536  1.00  0.00     0.124 S 
ATOM     72  O   UNL A   1      47.640  37.721  28.866  1.00  0.00    -0.237 OA
ATOM     73  O   UNL A   1      49.737  36.690  29.672  1.00  0.00    -0.237 OA
ATOM     74  O   UNL A   1      49.603  37.589  27.382  1.00  0.00    -0.744 OA
ENDBRANCH  70  71
ENDBRANCH  51  65
BRANCH  52  75
ATOM     75  C   UNL A   1      43.133  23.774  27.279  1.00  0.00    -0.014 A 
ATOM     76  C   UNL A   1      42.699  23.474  25.961  1.00  0.00     0.010 A 
ATOM     77  C   UNL A   1      42.760  22.899  28.318  1.00  0.00     0.010 A 
ATOM     78  C   UNL A   1      42.189  22.207  25.650  1.00  0.00     0.020 A 
ATOM     79  C   UNL A   1      42.226  21.634  28.006  1.00  0.00     0.020 A 
ATOM     80  C   UNL A   1      42.027  21.269  26.669  1.00  0.00     0.054 A 
BRANCH  80  81
ATOM     81  S   UNL A   1      41.819  19.518  26.201  1.00  0.00     0.124 S 
ATOM     82  O   UNL A   1      40.386  19.428  25.944  1.00  0.00    -0.237 OA
ATOM     83  O   UNL A   1      42.681  19.404  25.026  1.00  0.00    -0.237 OA
ATOM     84  O   UNL A   1      42.297  18.802  27.378  1.00  0.00    -0.744 OA
ENDBRANCH  80  81
ENDBRANCH  52  75
BRANCH  64  85
ATOM     85  C   UNL A   1      48.745  27.127  23.759  1.00  0.00    -0.014 A 
ATOM     86  C   UNL A   1      48.239  27.370  22.477  1.00  0.00     0.010 A 
ATOM     87  C   UNL A   1      50.147  27.258  23.940  1.00  0.00     0.010 A 
ATOM     88  C   UNL A   1      49.093  27.687  21.417  1.00  0.00     0.020 A 
ATOM     89  C   UNL A   1      51.002  27.621  22.902  1.00  0.00     0.020 A 
ATOM     90  C   UNL A   1      50.467  27.813  21.637  1.00  0.00     0.054 A 
BRANCH  90  91
ATOM     91  S   UNL A   1      51.528  28.289  20.258  1.00  0.00     0.124 S 
ATOM     92  O   UNL A   1      51.010  27.447  19.182  1.00  0.00    -0.237 OA
ATOM     93  O   UNL A   1      51.254  29.718  20.121  1.00  0.00    -0.237 OA
ATOM     94  O   UNL A   1      52.873  27.961  20.720  1.00  0.00    -0.744 OA
ENDBRANCH  90  91
ENDBRANCH  64  85
ENDBRANCH  38  39
ENDBRANCH  31  33
ENDBRANCH  30  31
ENDBRANCH  29  30
ENDBRANCH  28  29
ENDBRANCH  27  28
ENDBRANCH  26  27
ENDBRANCH   1  26
TORSDOF 24
ENDMDL
MODEL 2
REMARK VINA RESULT:     -10.0      5.045     10.159
REMARK SMILES Cc1ccc(-c2cc(Cl)ccc2Cl)c(C(=O)OCCOCCOCCOCCOC(=O)c2ccc(-c3c4nc(c(-c5ccc(S(=O)(=O)[O-])cc5)c5ccc([nH]5)c(-c5ccc(S(=O)(=O)[O-])cc5)c5nc(c(-c6ccc(S(=O)(=O)[O-])cc6)c6ccc3[nH]6)C=C5)C=C4)cc2)c1
REMARK SMILES IDX 24 1 23 2 22 3 21 4 20 5 19 6 18 7 17 8 15 9 16 10 14 11
REMARK SMILES IDX 1 12 2 13 3 14 92 15 4 16 5 17 6 18 7 19 12 20 8 21 11 22
REMARK SMILES IDX 13 23 9 24 10 25 25 26 26 27 27 28 28 29 29 30 30 31 31 32
REMARK SMILES IDX 32 33 33 34 91 35 34 36 90 37 35 38 36 39 37 40 84 41 38 42
REMARK SMILES IDX 89 43 83 44 85 45 39 46 88 47 82 48 81 49 40 51 70 52 51 53
REMARK SMILES IDX 69 54 52 55 55 56 68 57 86 58 53 59 54 60 67 62 87 63 56 64
REMARK SMILES IDX 41 65 42 66 50 67 43 68 49 69 44 70 45 71 46 72 47 73 48 74
REMARK SMILES IDX 71 75 72 76 80 77 73 78 79 79 74 80 75 81 76 82 77 83 78 84
REMARK SMILES IDX 57 85 58 86 66 87 59 88 65 89 60 90 61 91 62 92 63 93 64 94
REMARK H PARENT 85 50 55 61
REMARK Flexibility Score: inf
ROOT
ATOM      1  C   UNL A   1      31.363  28.571  22.932  1.00  0.00     0.188 C 
ENDROOT
BRANCH   1   2
ATOM      2  O   UNL A   1      30.586  27.395  22.657  1.00  0.00    -0.377 OA
BRANCH   2   3
ATOM      3  C   UNL A   1      29.915  26.853  23.795  1.00  0.00     0.188 C 
BRANCH   3   4
ATOM      4  C   UNL A   1      30.292  25.408  24.072  1.00  0.00     0.188 C 
BRANCH   4   5
ATOM      5  O   UNL A   1      30.229  25.017  25.447  1.00  0.00    -0.376 OA
BRANCH   5   6
ATOM      6  C   UNL A   1      31.008  23.846  25.723  1.00  0.00     0.202 C 
BRANCH   6   7
ATOM      7  C   UNL A   1      31.940  23.891  26.939  1.00  0.00     0.261 C 
BRANCH   7   8
ATOM      8  O   UNL A   1      33.296  23.780  26.509  1.00  0.00    -0.460 OA
BRANCH   8   9
ATOM      9  C   UNL A   1      33.953  22.701  26.968  1.00  0.00     0.338 C 
ATOM     10  O   UNL A   1      33.533  21.797  27.642  1.00  0.00    -0.246 OA
BRANCH   9  11
ATOM     11  C   UNL A   1      35.209  22.650  26.199  1.00  0.00     0.068 A 
ATOM     12  C   UNL A   1      38.572  24.380  26.370  1.00  0.00     0.044 C 
ATOM     13  C   UNL A   1      37.447  23.505  25.897  1.00  0.00    -0.050 A 
ATOM     14  C   UNL A   1      37.491  22.841  24.661  1.00  0.00     0.004 A 
ATOM     15  C   UNL A   1      36.314  23.359  26.692  1.00  0.00     0.019 A 
ATOM     16  C   UNL A   1      36.365  22.158  24.156  1.00  0.00     0.010 A 
ATOM     17  C   UNL A   1      35.177  22.095  24.892  1.00  0.00    -0.002 A 
BRANCH  17  18
ATOM     18  C   UNL A   1      33.867  21.702  24.288  1.00  0.00     0.003 A 
ATOM     19  C   UNL A   1      33.423  20.371  24.457  1.00  0.00     0.030 A 
ATOM     20  C   UNL A   1      33.233  22.471  23.292  1.00  0.00     0.049 A 
ATOM     21  C   UNL A   1      32.540  19.780  23.544  1.00  0.00     0.041 A 
ATOM     22  C   UNL A   1      32.375  21.866  22.362  1.00  0.00     0.023 A 
ATOM     23  Cl  UNL A   1      33.566  24.162  23.124  1.00  0.00    -0.084 Cl
ATOM     24  Cl  UNL A   1      32.141  18.110  23.688  1.00  0.00    -0.084 Cl
ATOM     25  C   UNL A   1      32.060  20.510  22.463  1.00  0.00     0.022 A 
ENDBRANCH  17  18
ENDBRANCH   9  11
ENDBRANCH   8   9
ENDBRANCH   7   8
ENDBRANCH   6   7
ENDBRANCH   5   6
ENDBRANCH   4   5
ENDBRANCH   3   4
ENDBRANCH   2   3
ENDBRANCH   1   2
BRANCH   1  26
ATOM     26  C   UNL A   1      32.269  28.384  24.140  1.00  0.00     0.188 C 
BRANCH  26  27
ATOM     27  O   UNL A   1      32.601  29.683  24.640  1.00  0.00    -0.376 OA
BRANCH  27  28
ATOM     28  C   UNL A   1      33.159  29.735  25.946  1.00  0.00     0.202 C 
BRANCH  28  29
ATOM     29  C   UNL A   1      32.747  30.969  26.753  1.00  0.00     0.261 C 
BRANCH  29  30
ATOM     30  O   UNL A   1      33.536  31.099  27.955  1.00  0.00    -0.460 OA
BRANCH  30  31
ATOM     31  C   UNL A   1      34.655  31.875  27.847  1.00  0.00     0.338 C 
ATOM     32  O   UNL A   1      34.634  33.041  27.497  1.00  0.00    -0.246 OA
BRANCH  31  33
ATOM     33  C   UNL A   1      35.867  31.115  28.267  1.00  0.00     0.060 A 
ATOM     34  C   UNL A   1      35.778  29.840  28.848  1.00  0.00     0.016 A 
ATOM     35  C   UNL A   1      37.093  31.757  28.243  1.00  0.00     0.016 A 
ATOM     36  C   UNL A   1      36.872  29.290  29.554  1.00  0.00     0.010 A 
ATOM     37  C   UNL A   1      38.131  31.243  28.993  1.00  0.00     0.010 A 
ATOM     38  C   UNL A   1      38.046  30.026  29.693  1.00  0.00    -0.014 A 
BRANCH  38  39
ATOM     39  C   UNL A   1      39.208  29.737  30.579  1.00  0.00     0.031 A 
ATOM     40  C   UNL A   1      40.018  28.482  30.289  1.00  0.00     0.074 A 
ATOM     41  C   UNL A   1      39.779  30.758  31.283  1.00  0.00     0.049 A 
ATOM     42  N   UNL A   1      41.171  28.198  30.792  1.00  0.00    -0.248 NA
ATOM     43  C   UNL A   1      39.614  27.451  29.321  1.00  0.00     0.031 C 
ATOM     44  C   UNL A   1      41.202  30.877  31.628  1.00  0.00     0.029 A 
ATOM     45  N   UNL A   1      39.286  31.952  31.802  1.00  0.00    -0.354 N 
ATOM     46  C   UNL A   1      41.805  27.290  29.961  1.00  0.00     0.074 A 
ATOM     47  C   UNL A   1      40.760  26.789  29.109  1.00  0.00     0.031 C 
ATOM     48  C   UNL A   1      41.440  31.972  32.364  1.00  0.00     0.029 A 
ATOM     49  C   UNL A   1      40.145  32.393  32.824  1.00  0.00     0.049 A 
ATOM     50  H   UNL A   1      38.470  32.414  31.502  1.00  0.00     0.167 HD
ATOM     51  C   UNL A   1      43.169  27.184  29.996  1.00  0.00     0.031 A 
ATOM     52  C   UNL A   1      39.824  32.351  34.158  1.00  0.00     0.031 A 
ATOM     53  C   UNL A   1      43.741  27.915  31.139  1.00  0.00     0.049 A 
ATOM     54  C   UNL A   1      40.713  31.332  34.890  1.00  0.00     0.074 A 
ATOM     55  C   UNL A   1      44.768  28.825  31.292  1.00  0.00     0.029 A 
ATOM     56  N   UNL A   1      43.122  27.844  32.388  1.00  0.00    -0.354 N 
ATOM     57  N   UNL A   1      41.220  30.272  34.300  1.00  0.00    -0.248 NA
ATOM     58  C   UNL A   1      41.260  31.505  36.239  1.00  0.00     0.031 C 
ATOM     59  C   UNL A   1      44.597  29.478  32.545  1.00  0.00     0.029 A 
ATOM     60  C   UNL A   1      43.567  28.844  33.225  1.00  0.00     0.049 A 
ATOM     61  H   UNL A   1      42.454  27.166  32.639  1.00  0.00     0.167 HD
ATOM     62  C   UNL A   1      42.238  29.760  35.058  1.00  0.00     0.074 A 
ATOM     63  C   UNL A   1      42.166  30.508  36.303  1.00  0.00     0.031 C 
ATOM     64  C   UNL A   1      43.170  28.858  34.623  1.00  0.00     0.031 A 
BRANCH  51  65
ATOM     65  C   UNL A   1      44.049  26.589  28.889  1.00  0.00    -0.014 A 
ATOM     66  C   UNL A   1      44.727  25.369  29.123  1.00  0.00     0.010 A 
ATOM     67  C   UNL A   1      44.340  27.210  27.654  1.00  0.00     0.010 A 
ATOM     68  C   UNL A   1      45.632  24.806  28.204  1.00  0.00     0.020 A 
ATOM     69  C   UNL A   1      45.215  26.636  26.703  1.00  0.00     0.020 A 
ATOM     70  C   UNL A   1      45.865  25.439  26.988  1.00  0.00     0.054 A 
BRANCH  70  71
ATOM     71  S   UNL A   1      47.004  24.671  25.799  1.00  0.00     0.124 S 
ATOM     72  O   UNL A   1      48.310  25.092  26.304  1.00  0.00    -0.237 OA
ATOM     73  O   UNL A   1      46.703  23.249  25.936  1.00  0.00    -0.237 OA
ATOM     74  O   UNL A   1      46.620  25.262  24.519  1.00  0.00    -0.744 OA
ENDBRANCH  70  71
ENDBRANCH  51  65
BRANCH  52  75
ATOM     75  C   UNL A   1      38.410  32.771  34.399  1.00  0.00    -0.014 A 
ATOM     76  C   UNL A   1      38.160  34.145  34.145  1.00  0.00     0.010 A 
ATOM     77  C   UNL A   1      37.370  31.851  34.165  1.00  0.00     0.010 A 
ATOM     78  C   UNL A   1      37.040  34.540  33.402  1.00  0.00     0.020 A 
ATOM     79  C   UNL A   1      36.233  32.253  33.439  1.00  0.00     0.020 A 
ATOM     80  C   UNL A   1      36.121  33.575  32.991  1.00  0.00     0.054 A 
BRANCH  80  81
ATOM     81  S   UNL A   1      34.952  34.013  31.660  1.00  0.00     0.124 S 
ATOM     82  O   UNL A   1      35.793  33.953  30.470  1.00  0.00    -0.237 OA
ATOM     83  O   UNL A   1      33.940  32.964  31.774  1.00  0.00    -0.237 OA
ATOM     84  O   UNL A   1      34.495  35.343  32.046  1.00  0.00    -0.744 OA
ENDBRANCH  80  81
ENDBRANCH  52  75
BRANCH  64  85
ATOM     85  C   UNL A   1      43.869  27.865  35.519  1.00  0.00    -0.014 A 
ATOM     86  C   UNL A   1      43.242  26.697  35.968  1.00  0.00     0.010 A 
ATOM     87  C   UNL A   1      45.271  27.966  35.713  1.00  0.00     0.010 A 
ATOM     88  C   UNL A   1      43.971  25.696  36.617  1.00  0.00     0.020 A 
ATOM     89  C   UNL A   1      46.015  26.955  36.316  1.00  0.00     0.020 A 
ATOM     90  C   UNL A   1      45.352  25.831  36.784  1.00  0.00     0.054 A 
BRANCH  90  91
ATOM     91  S   UNL A   1      46.267  24.488  37.567  1.00  0.00     0.124 S 
ATOM     92  O   UNL A   1      47.454  24.405  36.720  1.00  0.00    -0.237 OA
ATOM     93  O   UNL A   1      46.496  25.001  38.917  1.00  0.00    -0.237 OA
ATOM     94  O   UNL A   1      45.358  23.348  37.487  1.00  0.00    -0.744 OA
ENDBRANCH  90  91
ENDBRANCH  64  85
ENDBRANCH  38  39
ENDBRANCH  31  33
ENDBRANCH  30  31
ENDBRANCH  29  30
ENDBRANCH  28  29
ENDBRANCH  27  28
ENDBRANCH  26  27
ENDBRANCH   1  26
TORSDOF 24
ENDMDL
MODEL 3
REMARK VINA RESULT:      -9.9      6.256     11.266
REMARK SMILES Cc1ccc(-c2cc(Cl)ccc2Cl)c(C(=O)OCCOCCOCCOCCOC(=O)c2ccc(-c3c4nc(c(-c5ccc(S(=O)(=O)[O-])cc5)c5ccc([nH]5)c(-c5ccc(S(=O)(=O)[O-])cc5)c5nc(c(-c6ccc(S(=O)(=O)[O-])cc6)c6ccc3[nH]6)C=C5)C=C4)cc2)c1
REMARK SMILES IDX 24 1 23 2 22 3 21 4 20 5 19 6 18 7 17 8 15 9 16 10 14 11
REMARK SMILES IDX 1 12 2 13 3 14 92 15 4 16 5 17 6 18 7 19 12 20 8 21 11 22
REMARK SMILES IDX 13 23 9 24 10 25 25 26 26 27 27 28 28 29 29 30 30 31 31 32
REMARK SMILES IDX 32 33 33 34 91 35 34 36 90 37 35 38 36 39 37 40 84 41 38 42
REMARK SMILES IDX 89 43 83 44 85 45 39 46 88 47 82 48 81 49 40 51 70 52 51 53
REMARK SMILES IDX 69 54 52 55 55 56 68 57 86 58 53 59 54 60 67 62 87 63 56 64
REMARK SMILES IDX 41 65 42 66 50 67 43 68 49 69 44 70 45 71 46 72 47 73 48 74
REMARK SMILES IDX 71 75 72 76 80 77 73 78 79 79 74 80 75 81 76 82 77 83 78 84
REMARK SMILES IDX 57 85 58 86 66 87 59 88 65 89 60 90 61 91 62 92 63 93 64 94
REMARK H PARENT 85 50 55 61
REMARK Flexibility Score: inf
ROOT
ATOM      1  C   UNL A   1      34.318  35.570  29.012  1.00  0.00     0.188 C 
ENDROOT
BRANCH   1   2
ATOM      2  O   UNL A   1      34.679  34.460  28.175  1.00  0.00    -0.377 OA
BRANCH   2   3
ATOM      3  C   UNL A   1      35.388  33.421  28.849  1.00  0.00     0.188 C 
BRANCH   3   4
ATOM      4  C   UNL A   1      35.621  32.200  27.976  1.00  0.00     0.188 C 
BRANCH   4   5
ATOM      5  O   UNL A   1      35.352  30.943  28.604  1.00  0.00    -0.376 OA
BRANCH   5   6
ATOM      6  C   UNL A   1      35.034  29.913  27.660  1.00  0.00     0.202 C 
BRANCH   6   7
ATOM      7  C   UNL A   1      33.558  29.725  27.292  1.00  0.00     0.261 C 
BRANCH   7   8
ATOM      8  O   UNL A   1      33.383  28.475  26.630  1.00  0.00    -0.460 OA
BRANCH   8   9
ATOM      9  C   UNL A   1      32.154  27.939  26.738  1.00  0.00     0.338 C 
ATOM     10  O   UNL A   1      31.410  27.953  27.684  1.00  0.00    -0.246 OA
BRANCH   9  11
ATOM     11  C   UNL A   1      31.740  27.627  25.360  1.00  0.00     0.068 A 
ATOM     12  C   UNL A   1      29.494  29.230  22.767  1.00  0.00     0.044 C 
ATOM     13  C   UNL A   1      30.408  28.249  23.443  1.00  0.00    -0.050 A 
ATOM     14  C   UNL A   1      30.681  26.986  22.894  1.00  0.00     0.004 A 
ATOM     15  C   UNL A   1      30.990  28.585  24.662  1.00  0.00     0.019 A 
ATOM     16  C   UNL A   1      31.406  26.014  23.615  1.00  0.00     0.010 A 
ATOM     17  C   UNL A   1      31.905  26.295  24.892  1.00  0.00    -0.002 A 
BRANCH  17  18
ATOM     18  C   UNL A   1      32.366  25.233  25.836  1.00  0.00     0.003 A 
ATOM     19  C   UNL A   1      33.745  24.921  25.873  1.00  0.00     0.030 A 
ATOM     20  C   UNL A   1      31.481  24.308  26.424  1.00  0.00     0.049 A 
ATOM     21  C   UNL A   1      34.192  23.661  26.290  1.00  0.00     0.041 A 
ATOM     22  C   UNL A   1      31.930  23.036  26.810  1.00  0.00     0.023 A 
ATOM     23  Cl  UNL A   1      29.798  24.673  26.600  1.00  0.00    -0.084 Cl
ATOM     24  Cl  UNL A   1      35.864  23.258  26.176  1.00  0.00    -0.084 Cl
ATOM     25  C   UNL A   1      33.280  22.698  26.705  1.00  0.00     0.022 A 
ENDBRANCH  17  18
ENDBRANCH   9  11
ENDBRANCH   8   9
ENDBRANCH   7   8
ENDBRANCH   6   7
ENDBRANCH   5   6
ENDBRANCH   4   5
ENDBRANCH   3   4
ENDBRANCH   2   3
ENDBRANCH   1   2
BRANCH   1  26
ATOM     26  C   UNL A   1      32.872  35.994  28.799  1.00  0.00     0.188 C 
BRANCH  26  27
ATOM     27  O   UNL A   1      32.458  36.725  29.959  1.00  0.00    -0.376 OA
BRANCH  27  28
ATOM     28  C   UNL A   1      33.453  37.512  30.598  1.00  0.00     0.202 C 
BRANCH  28  29
ATOM     29  C   UNL A   1      33.364  37.512  32.127  1.00  0.00     0.261 C 
BRANCH  29  30
ATOM     30  O   UNL A   1      34.234  36.516  32.706  1.00  0.00    -0.460 OA
BRANCH  30  31
ATOM     31  C   UNL A   1      33.766  35.233  32.678  1.00  0.00     0.338 C 
ATOM     32  O   UNL A   1      32.584  34.947  32.734  1.00  0.00    -0.246 OA
BRANCH  31  33
ATOM     33  C   UNL A   1      34.888  34.265  32.514  1.00  0.00     0.060 A 
ATOM     34  C   UNL A   1      34.739  32.901  32.807  1.00  0.00     0.016 A 
ATOM     35  C   UNL A   1      36.151  34.757  32.234  1.00  0.00     0.016 A 
ATOM     36  C   UNL A   1      35.870  32.073  32.989  1.00  0.00     0.010 A 
ATOM     37  C   UNL A   1      37.249  33.959  32.481  1.00  0.00     0.010 A 
ATOM     38  C   UNL A   1      37.149  32.618  32.897  1.00  0.00    -0.014 A 
BRANCH  38  39
ATOM     39  C   UNL A   1      38.443  31.988  33.278  1.00  0.00     0.031 A 
ATOM     40  C   UNL A   1      38.847  30.716  32.548  1.00  0.00     0.074 A 
ATOM     41  C   UNL A   1      39.400  32.747  33.886  1.00  0.00     0.049 A 
ATOM     42  N   UNL A   1      40.015  30.171  32.577  1.00  0.00    -0.248 NA
ATOM     43  C   UNL A   1      37.961  29.977  31.636  1.00  0.00     0.031 C 
ATOM     44  C   UNL A   1      40.853  32.586  33.736  1.00  0.00     0.029 A 
ATOM     45  N   UNL A   1      39.349  33.868  34.712  1.00  0.00    -0.354 N 
ATOM     46  C   UNL A   1      40.160  29.372  31.455  1.00  0.00     0.074 A 
ATOM     47  C   UNL A   1      38.823  29.215  30.949  1.00  0.00     0.031 C 
ATOM     48  C   UNL A   1      41.527  33.460  34.498  1.00  0.00     0.029 A 
ATOM     49  C   UNL A   1      40.553  33.959  35.431  1.00  0.00     0.049 A 
ATOM     50  H   UNL A   1      38.592  34.494  34.781  1.00  0.00     0.167 HD
ATOM     51  C   UNL A   1      41.416  29.066  31.005  1.00  0.00     0.031 A 
ATOM     52  C   UNL A   1      40.661  33.689  36.772  1.00  0.00     0.031 A 
ATOM     53  C   UNL A   1      42.451  29.454  31.977  1.00  0.00     0.049 A 
ATOM     54  C   UNL A   1      41.505  32.424  36.997  1.00  0.00     0.074 A 
ATOM     55  C   UNL A   1      43.638  30.154  31.901  1.00  0.00     0.029 A 
ATOM     56  N   UNL A   1      42.249  29.217  33.338  1.00  0.00    -0.354 N 
ATOM     57  N   UNL A   1      41.575  31.447  36.120  1.00  0.00    -0.248 NA
ATOM     58  C   UNL A   1      42.466  32.234  38.087  1.00  0.00     0.031 C 
ATOM     59  C   UNL A   1      44.002  30.552  33.218  1.00  0.00     0.029 A 
ATOM     60  C   UNL A   1      43.127  29.948  34.109  1.00  0.00     0.049 A 
ATOM     61  H   UNL A   1      41.569  28.606  33.700  1.00  0.00     0.167 HD
ATOM     62  C   UNL A   1      42.650  30.647  36.399  1.00  0.00     0.074 A 
ATOM     63  C   UNL A   1      43.123  31.124  37.689  1.00  0.00     0.031 C 
ATOM     64  C   UNL A   1      43.195  29.729  35.545  1.00  0.00     0.031 A 
BRANCH  51  65
ATOM     65  C   UNL A   1      41.767  28.591  29.589  1.00  0.00    -0.014 A 
ATOM     66  C   UNL A   1      42.326  27.303  29.408  1.00  0.00     0.010 A 
ATOM     67  C   UNL A   1      41.681  29.377  28.419  1.00  0.00     0.010 A 
ATOM     68  C   UNL A   1      42.771  26.829  28.160  1.00  0.00     0.020 A 
ATOM     69  C   UNL A   1      42.084  28.899  27.150  1.00  0.00     0.020 A 
ATOM     70  C   UNL A   1      42.638  27.627  27.030  1.00  0.00     0.054 A 
BRANCH  70  71
ATOM     71  S   UNL A   1      43.179  26.977  25.422  1.00  0.00     0.124 S 
ATOM     72  O   UNL A   1      42.559  27.911  24.485  1.00  0.00    -0.237 OA
ATOM     73  O   UNL A   1      44.634  27.052  25.517  1.00  0.00    -0.237 OA
ATOM     74  O   UNL A   1      42.632  25.622  25.394  1.00  0.00    -0.744 OA
ENDBRANCH  70  71
ENDBRANCH  51  65
BRANCH  52  75
ATOM     75  C   UNL A   1      39.508  34.251  37.542  1.00  0.00    -0.014 A 
ATOM     76  C   UNL A   1      38.923  33.340  38.458  1.00  0.00     0.010 A 
ATOM     77  C   UNL A   1      39.501  35.621  37.867  1.00  0.00     0.010 A 
ATOM     78  C   UNL A   1      38.628  33.738  39.768  1.00  0.00     0.020 A 
ATOM     79  C   UNL A   1      39.182  36.024  39.178  1.00  0.00     0.020 A 
ATOM     80  C   UNL A   1      38.831  35.067  40.138  1.00  0.00     0.054 A 
BRANCH  80  81
ATOM     81  S   UNL A   1      38.896  35.464  41.918  1.00  0.00     0.124 S 
ATOM     82  O   UNL A   1      39.889  34.518  42.415  1.00  0.00    -0.237 OA
ATOM     83  O   UNL A   1      39.306  36.867  41.911  1.00  0.00    -0.237 OA
ATOM     84  O   UNL A   1      37.525  35.233  42.359  1.00  0.00    -0.744 OA
ENDBRANCH  80  81
ENDBRANCH  52  75
BRANCH  64  85
ATOM     85  C   UNL A   1      43.919  28.482  35.990  1.00  0.00    -0.014 A 
ATOM     86  C   UNL A   1      45.316  28.396  36.004  1.00  0.00     0.010 A 
ATOM     87  C   UNL A   1      43.197  27.456  36.655  1.00  0.00     0.010 A 
ATOM     88  C   UNL A   1      45.961  27.317  36.614  1.00  0.00     0.020 A 
ATOM     89  C   UNL A   1      43.832  26.402  37.308  1.00  0.00     0.020 A 
ATOM     90  C   UNL A   1      45.216  26.330  37.264  1.00  0.00     0.054 A 
BRANCH  90  91
ATOM     91  S   UNL A   1      46.090  24.989  38.097  1.00  0.00     0.124 S 
ATOM     92  O   UNL A   1      47.031  25.726  38.936  1.00  0.00    -0.237 OA
ATOM     93  O   UNL A   1      45.015  24.304  38.813  1.00  0.00    -0.237 OA
ATOM     94  O   UNL A   1      46.687  24.226  37.004  1.00  0.00    -0.744 OA
ENDBRANCH  90  91
ENDBRANCH  64  85
ENDBRANCH  38  39
ENDBRANCH  31  33
ENDBRANCH  30  31
ENDBRANCH  29  30
ENDBRANCH  28  29
ENDBRANCH  27  28
ENDBRANCH  26  27
ENDBRANCH   1  26
TORSDOF 24
ENDMDL
