MODEL 1
REMARK VINA RESULT:      -8.7      0.000      0.000
REMARK SMILES Cc1cc2c(cc1C(=O)c1ccccc1C(=O)OCCOCCOCCOCCOC(=O)c1ccc(-c3c4nc(c(-c5ccc(S(=O)(=O)[O-])cc5)c5ccc([nH]5)c(-c5ccc(S(=O)(=O)[O-])cc5)c5nc(c(-c6ccc(S(=O)(=O)[O-])cc6)c6ccc3[nH]6)C=C5)C=C4)cc1)CCCC2
REMARK SMILES IDX 25 1 24 2 23 3 22 4 21 5 20 6 19 7 18 8 16 9 17 10 15 11
REMARK SMILES IDX 10 12 11 13 12 14 14 15 13 16 8 17 9 18 7 19 1 20 2 21 3 22
REMARK SMILES IDX 4 23 6 24 5 25 96 26 93 27 95 28 94 29 26 30 27 31 28 32
REMARK SMILES IDX 29 33 30 34 31 35 32 36 33 37 34 38 92 39 35 40 91 41 36 42
REMARK SMILES IDX 37 43 38 44 85 45 39 46 90 47 84 48 86 49 40 50 89 51 83 52
REMARK SMILES IDX 82 53 41 55 71 56 52 57 70 58 53 59 56 60 69 61 87 62 54 63
REMARK SMILES IDX 55 64 68 66 88 67 57 68 42 69 43 70 51 71 44 72 50 73 45 74
REMARK SMILES IDX 46 75 47 76 48 77 49 78 72 79 73 80 81 81 74 82 80 83 75 84
REMARK SMILES IDX 76 85 77 86 78 87 79 88 58 89 59 90 67 91 60 92 66 93 61 94
REMARK SMILES IDX 62 95 63 96 64 97 65 98
REMARK H PARENT 86 54 56 65
REMARK Flexibility Score: inf
ROOT
ATOM      1  C   UNL A   1      36.762  31.423  29.140  1.00  0.00     0.188 C 
ENDROOT
BRANCH   1   2
ATOM      2  O   UNL A   1      35.486  30.827  28.935  1.00  0.00    -0.377 OA
BRANCH   2   3
ATOM      3  C   UNL A   1      34.434  31.615  28.411  1.00  0.00     0.188 C 
BRANCH   3   4
ATOM      4  C   UNL A   1      33.659  30.954  27.262  1.00  0.00     0.188 C 
BRANCH   4   5
ATOM      5  O   UNL A   1      33.157  29.671  27.580  1.00  0.00    -0.376 OA
BRANCH   5   6
ATOM      6  C   UNL A   1      31.913  29.232  27.054  1.00  0.00     0.202 C 
BRANCH   6   7
ATOM      7  C   UNL A   1      31.399  27.776  27.072  1.00  0.00     0.261 C 
BRANCH   7   8
ATOM      8  O   UNL A   1      31.529  27.018  25.870  1.00  0.00    -0.460 OA
BRANCH   8   9
ATOM      9  C   UNL A   1      32.705  26.419  25.638  1.00  0.00     0.338 C 
ATOM     10  O   UNL A   1      33.546  26.135  26.479  1.00  0.00    -0.246 OA
BRANCH   9  11
ATOM     11  C   UNL A   1      32.766  25.907  24.245  1.00  0.00     0.071 A 
ATOM     12  C   UNL A   1      32.374  24.629  23.812  1.00  0.00     0.037 A 
ATOM     13  C   UNL A   1      32.244  24.392  22.434  1.00  0.00     0.013 A 
ATOM     14  C   UNL A   1      32.727  25.316  21.504  1.00  0.00     0.001 A 
ATOM     15  C   UNL A   1      33.265  26.824  23.299  1.00  0.00     0.016 A 
ATOM     16  C   UNL A   1      33.287  26.511  21.941  1.00  0.00     0.001 A 
BRANCH  12  17
ATOM     17  C   UNL A   1      32.050  23.523  24.738  1.00  0.00     0.194 C 
ATOM     18  O   UNL A   1      31.010  23.665  25.379  1.00  0.00    -0.289 OA
BRANCH  17  19
ATOM     19  C   UNL A   1      32.866  22.239  24.853  1.00  0.00     0.026 A 
ATOM     20  C   UNL A   1      34.934  23.060  26.227  1.00  0.00     0.045 C 
ATOM     21  C   UNL A   1      34.136  22.053  25.450  1.00  0.00    -0.040 A 
ATOM     22  C   UNL A   1      34.791  20.806  25.300  1.00  0.00     0.008 A 
ATOM     23  C   UNL A   1      34.196  19.713  24.669  1.00  0.00    -0.044 A 
ATOM     24  C   UNL A   1      32.258  21.104  24.264  1.00  0.00     0.016 A 
ATOM     25  C   UNL A   1      32.899  19.850  24.172  1.00  0.00    -0.044 A 
ATOM     26  C   UNL A   1      35.002  18.454  24.478  1.00  0.00     0.036 C 
ATOM     27  C   UNL A   1      32.157  18.663  23.605  1.00  0.00     0.036 C 
ATOM     28  C   UNL A   1      34.158  17.227  24.158  1.00  0.00     0.005 C 
ATOM     29  C   UNL A   1      33.084  17.543  23.127  1.00  0.00     0.005 C 
ENDBRANCH  17  19
ENDBRANCH  12  17
ENDBRANCH   9  11
ENDBRANCH   8   9
ENDBRANCH   7   8
ENDBRANCH   6   7
ENDBRANCH   5   6
ENDBRANCH   4   5
ENDBRANCH   3   4
ENDBRANCH   2   3
ENDBRANCH   1   2
BRANCH   1  30
ATOM     30  C   UNL A   1      37.074  32.266  30.395  1.00  0.00     0.188 C 
BRANCH  30  31
ATOM     31  O   UNL A   1      36.364  33.500  30.470  1.00  0.00    -0.376 OA
BRANCH  31  32
ATOM     32  C   UNL A   1      36.089  34.003  31.771  1.00  0.00     0.202 C 
BRANCH  32  33
ATOM     33  C   UNL A   1      35.375  33.016  32.705  1.00  0.00     0.261 C 
BRANCH  33  34
ATOM     34  O   UNL A   1      36.194  32.436  33.732  1.00  0.00    -0.460 OA
BRANCH  34  35
ATOM     35  C   UNL A   1      36.963  33.264  34.473  1.00  0.00     0.338 C 
ATOM     36  O   UNL A   1      36.614  34.293  35.027  1.00  0.00    -0.246 OA
BRANCH  35  37
ATOM     37  C   UNL A   1      38.271  32.605  34.669  1.00  0.00     0.060 A 
ATOM     38  C   UNL A   1      38.340  31.340  35.251  1.00  0.00     0.016 A 
ATOM     39  C   UNL A   1      39.441  33.266  34.269  1.00  0.00     0.016 A 
ATOM     40  C   UNL A   1      39.581  30.720  35.378  1.00  0.00     0.010 A 
ATOM     41  C   UNL A   1      40.686  32.642  34.411  1.00  0.00     0.010 A 
ATOM     42  C   UNL A   1      40.758  31.347  34.937  1.00  0.00    -0.014 A 
BRANCH  42  43
ATOM     43  C   UNL A   1      41.984  30.522  34.806  1.00  0.00     0.031 A 
ATOM     44  C   UNL A   1      42.903  30.240  35.954  1.00  0.00     0.074 A 
ATOM     45  C   UNL A   1      42.219  29.972  33.599  1.00  0.00     0.049 A 
ATOM     46  N   UNL A   1      43.914  29.409  35.998  1.00  0.00    -0.248 NA
ATOM     47  C   UNL A   1      42.672  30.979  37.203  1.00  0.00     0.031 C 
ATOM     48  C   UNL A   1      41.390  30.194  32.409  1.00  0.00     0.029 A 
ATOM     49  N   UNL A   1      43.185  29.097  33.173  1.00  0.00    -0.354 N 
ATOM     50  C   UNL A   1      44.436  29.509  37.281  1.00  0.00     0.074 A 
ATOM     51  C   UNL A   1      43.653  30.514  37.972  1.00  0.00     0.031 C 
ATOM     52  C   UNL A   1      41.851  29.436  31.407  1.00  0.00     0.029 A 
ATOM     53  C   UNL A   1      43.026  28.703  31.866  1.00  0.00     0.049 A 
ATOM     54  H   UNL A   1      43.920  28.783  33.747  1.00  0.00     0.167 HD
ATOM     55  C   UNL A   1      45.464  28.813  37.826  1.00  0.00     0.031 A 
ATOM     56  C   UNL A   1      43.733  27.838  31.113  1.00  0.00     0.031 A 
ATOM     57  C   UNL A   1      46.246  27.827  37.112  1.00  0.00     0.049 A 
ATOM     58  C   UNL A   1      44.877  27.097  31.735  1.00  0.00     0.074 A 
ATOM     59  C   UNL A   1      47.276  27.038  37.598  1.00  0.00     0.029 A 
ATOM     60  N   UNL A   1      46.100  27.501  35.772  1.00  0.00    -0.354 N 
ATOM     61  N   UNL A   1      45.310  27.148  32.973  1.00  0.00    -0.248 NA
ATOM     62  C   UNL A   1      45.621  26.173  30.870  1.00  0.00     0.031 C 
ATOM     63  C   UNL A   1      47.798  26.293  36.538  1.00  0.00     0.029 A 
ATOM     64  C   UNL A   1      47.046  26.555  35.405  1.00  0.00     0.049 A 
ATOM     65  H   UNL A   1      45.422  27.885  35.168  1.00  0.00     0.167 HD
ATOM     66  C   UNL A   1      46.379  26.264  33.035  1.00  0.00     0.074 A 
ATOM     67  C   UNL A   1      46.501  25.663  31.721  1.00  0.00     0.031 C 
ATOM     68  C   UNL A   1      47.189  25.985  34.087  1.00  0.00     0.031 A 
BRANCH  55  69
ATOM     69  C   UNL A   1      45.816  29.059  39.273  1.00  0.00    -0.014 A 
ATOM     70  C   UNL A   1      45.276  28.234  40.279  1.00  0.00     0.010 A 
ATOM     71  C   UNL A   1      46.552  30.196  39.650  1.00  0.00     0.010 A 
ATOM     72  C   UNL A   1      45.429  28.563  41.629  1.00  0.00     0.020 A 
ATOM     73  C   UNL A   1      46.733  30.513  41.001  1.00  0.00     0.020 A 
ATOM     74  C   UNL A   1      46.146  29.708  41.981  1.00  0.00     0.054 A 
BRANCH  74  75
ATOM     75  S   UNL A   1      46.290  30.146  43.737  1.00  0.00     0.124 S 
ATOM     76  O   UNL A   1      45.383  29.191  44.368  1.00  0.00    -0.237 OA
ATOM     77  O   UNL A   1      47.711  29.937  44.002  1.00  0.00    -0.237 OA
ATOM     78  O   UNL A   1      45.856  31.540  43.780  1.00  0.00    -0.744 OA
ENDBRANCH  74  75
ENDBRANCH  55  69
BRANCH  56  79
ATOM     79  C   UNL A   1      43.314  27.608  29.704  1.00  0.00    -0.014 A 
ATOM     80  C   UNL A   1      42.438  26.552  29.387  1.00  0.00     0.010 A 
ATOM     81  C   UNL A   1      43.878  28.365  28.663  1.00  0.00     0.010 A 
ATOM     82  C   UNL A   1      42.189  26.212  28.058  1.00  0.00     0.020 A 
ATOM     83  C   UNL A   1      43.604  28.048  27.329  1.00  0.00     0.020 A 
ATOM     84  C   UNL A   1      42.788  26.952  27.036  1.00  0.00     0.054 A 
BRANCH  84  85
ATOM     85  S   UNL A   1      42.509  26.448  25.316  1.00  0.00     0.124 S 
ATOM     86  O   UNL A   1      43.578  25.473  25.114  1.00  0.00    -0.237 OA
ATOM     87  O   UNL A   1      41.157  25.899  25.360  1.00  0.00    -0.237 OA
ATOM     88  O   UNL A   1      42.648  27.695  24.568  1.00  0.00    -0.744 OA
ENDBRANCH  84  85
ENDBRANCH  56  79
BRANCH  68  89
ATOM     89  C   UNL A   1      48.319  25.012  33.857  1.00  0.00    -0.014 A 
ATOM     90  C   UNL A   1      48.157  23.651  34.173  1.00  0.00     0.010 A 
ATOM     91  C   UNL A   1      49.574  25.462  33.406  1.00  0.00     0.010 A 
ATOM     92  C   UNL A   1      49.230  22.762  34.063  1.00  0.00     0.020 A 
ATOM     93  C   UNL A   1      50.641  24.570  33.263  1.00  0.00     0.020 A 
ATOM     94  C   UNL A   1      50.468  23.229  33.614  1.00  0.00     0.054 A 
BRANCH  94  95
ATOM     95  S   UNL A   1      51.850  22.062  33.474  1.00  0.00     0.124 S 
ATOM     96  O   UNL A   1      53.009  22.942  33.595  1.00  0.00    -0.237 OA
ATOM     97  O   UNL A   1      51.625  21.160  34.600  1.00  0.00    -0.237 OA
ATOM     98  O   UNL A   1      51.658  21.459  32.157  1.00  0.00    -0.744 OA
ENDBRANCH  94  95
ENDBRANCH  68  89
ENDBRANCH  42  43
ENDBRANCH  35  37
ENDBRANCH  34  35
ENDBRANCH  33  34
ENDBRANCH  32  33
ENDBRANCH  31  32
ENDBRANCH  30  31
ENDBRANCH   1  30
TORSDOF 25
ENDMDL
MODEL 2
REMARK VINA RESULT:      -8.4      6.285     13.845
REMARK SMILES Cc1cc2c(cc1C(=O)c1ccccc1C(=O)OCCOCCOCCOCCOC(=O)c1ccc(-c3c4nc(c(-c5ccc(S(=O)(=O)[O-])cc5)c5ccc([nH]5)c(-c5ccc(S(=O)(=O)[O-])cc5)c5nc(c(-c6ccc(S(=O)(=O)[O-])cc6)c6ccc3[nH]6)C=C5)C=C4)cc1)CCCC2
REMARK SMILES IDX 25 1 24 2 23 3 22 4 21 5 20 6 19 7 18 8 16 9 17 10 15 11
REMARK SMILES IDX 10 12 11 13 12 14 14 15 13 16 8 17 9 18 7 19 1 20 2 21 3 22
REMARK SMILES IDX 4 23 6 24 5 25 96 26 93 27 95 28 94 29 26 30 27 31 28 32
REMARK SMILES IDX 29 33 30 34 31 35 32 36 33 37 34 38 92 39 35 40 91 41 36 42
REMARK SMILES IDX 37 43 38 44 85 45 39 46 90 47 84 48 86 49 40 50 89 51 83 52
REMARK SMILES IDX 82 53 41 55 71 56 52 57 70 58 53 59 56 60 69 61 87 62 54 63
REMARK SMILES IDX 55 64 68 66 88 67 57 68 42 69 43 70 51 71 44 72 50 73 45 74
REMARK SMILES IDX 46 75 47 76 48 77 49 78 72 79 73 80 81 81 74 82 80 83 75 84
REMARK SMILES IDX 76 85 77 86 78 87 79 88 58 89 59 90 67 91 60 92 66 93 61 94
REMARK SMILES IDX 62 95 63 96 64 97 65 98
REMARK H PARENT 86 54 56 65
REMARK Flexibility Score: inf
ROOT
ATOM      1  C   UNL A   1      52.433  27.877  29.196  1.00  0.00     0.188 C 
ENDROOT
BRANCH   1   2
ATOM      2  O   UNL A   1      51.777  27.514  30.406  1.00  0.00    -0.377 OA
BRANCH   2   3
ATOM      3  C   UNL A   1      50.395  27.213  30.375  1.00  0.00     0.188 C 
BRANCH   3   4
ATOM      4  C   UNL A   1      50.072  25.712  30.432  1.00  0.00     0.188 C 
BRANCH   4   5
ATOM      5  O   UNL A   1      49.571  25.286  31.683  1.00  0.00    -0.376 OA
BRANCH   5   6
ATOM      6  C   UNL A   1      48.410  25.888  32.239  1.00  0.00     0.202 C 
BRANCH   6   7
ATOM      7  C   UNL A   1      47.062  26.071  31.508  1.00  0.00     0.261 C 
BRANCH   7   8
ATOM      8  O   UNL A   1      46.014  25.155  31.822  1.00  0.00    -0.460 OA
BRANCH   8   9
ATOM      9  C   UNL A   1      44.799  25.663  32.074  1.00  0.00     0.338 C 
ATOM     10  O   UNL A   1      44.120  26.320  31.298  1.00  0.00    -0.246 OA
BRANCH   9  11
ATOM     11  C   UNL A   1      44.256  25.119  33.345  1.00  0.00     0.071 A 
ATOM     12  C   UNL A   1      44.007  25.848  34.520  1.00  0.00     0.037 A 
ATOM     13  C   UNL A   1      43.250  25.249  35.539  1.00  0.00     0.013 A 
ATOM     14  C   UNL A   1      42.960  23.883  35.502  1.00  0.00     0.001 A 
ATOM     15  C   UNL A   1      43.972  23.740  33.325  1.00  0.00     0.016 A 
ATOM     16  C   UNL A   1      43.369  23.117  34.416  1.00  0.00     0.001 A 
BRANCH  12  17
ATOM     17  C   UNL A   1      44.468  27.237  34.726  1.00  0.00     0.194 C 
ATOM     18  O   UNL A   1      45.506  27.353  35.379  1.00  0.00    -0.289 OA
BRANCH  17  19
ATOM     19  C   UNL A   1      43.794  28.461  34.115  1.00  0.00     0.026 A 
ATOM     20  C   UNL A   1      45.637  29.297  32.459  1.00  0.00     0.045 C 
ATOM     21  C   UNL A   1      44.320  29.380  33.176  1.00  0.00    -0.040 A 
ATOM     22  C   UNL A   1      43.579  30.546  32.864  1.00  0.00     0.008 A 
ATOM     23  C   UNL A   1      42.301  30.785  33.372  1.00  0.00    -0.044 A 
ATOM     24  C   UNL A   1      42.476  28.695  34.577  1.00  0.00     0.016 A 
ATOM     25  C   UNL A   1      41.725  29.833  34.213  1.00  0.00    -0.044 A 
ATOM     26  C   UNL A   1      41.626  32.095  33.055  1.00  0.00     0.036 C 
ATOM     27  C   UNL A   1      40.295  29.975  34.678  1.00  0.00     0.036 C 
ATOM     28  C   UNL A   1      40.124  32.087  33.307  1.00  0.00     0.005 C 
ATOM     29  C   UNL A   1      39.783  31.416  34.630  1.00  0.00     0.005 C 
ENDBRANCH  17  19
ENDBRANCH  12  17
ENDBRANCH   9  11
ENDBRANCH   8   9
ENDBRANCH   7   8
ENDBRANCH   6   7
ENDBRANCH   5   6
ENDBRANCH   4   5
ENDBRANCH   3   4
ENDBRANCH   2   3
ENDBRANCH   1   2
BRANCH   1  30
ATOM     30  C   UNL A   1      53.768  27.232  28.770  1.00  0.00     0.188 C 
BRANCH  30  31
ATOM     31  O   UNL A   1      54.413  27.876  27.674  1.00  0.00    -0.376 OA
BRANCH  31  32
ATOM     32  C   UNL A   1      54.937  27.037  26.654  1.00  0.00     0.202 C 
BRANCH  32  33
ATOM     33  C   UNL A   1      54.495  25.569  26.739  1.00  0.00     0.261 C 
BRANCH  33  34
ATOM     34  O   UNL A   1      54.117  24.965  25.492  1.00  0.00    -0.460 OA
BRANCH  34  35
ATOM     35  C   UNL A   1      53.462  25.729  24.590  1.00  0.00     0.338 C 
ATOM     36  O   UNL A   1      53.854  26.059  23.483  1.00  0.00    -0.246 OA
BRANCH  35  37
ATOM     37  C   UNL A   1      52.088  25.939  25.094  1.00  0.00     0.060 A 
ATOM     38  C   UNL A   1      51.678  25.342  26.285  1.00  0.00     0.016 A 
ATOM     39  C   UNL A   1      51.201  26.739  24.360  1.00  0.00     0.016 A 
ATOM     40  C   UNL A   1      50.395  25.597  26.764  1.00  0.00     0.010 A 
ATOM     41  C   UNL A   1      49.910  26.981  24.840  1.00  0.00     0.010 A 
ATOM     42  C   UNL A   1      49.511  26.437  26.066  1.00  0.00    -0.014 A 
BRANCH  42  43
ATOM     43  C   UNL A   1      48.298  26.919  26.773  1.00  0.00     0.031 A 
ATOM     44  C   UNL A   1      48.177  28.302  27.332  1.00  0.00     0.074 A 
ATOM     45  C   UNL A   1      47.260  26.063  26.848  1.00  0.00     0.049 A 
ATOM     46  N   UNL A   1      47.115  28.885  27.829  1.00  0.00    -0.248 NA
ATOM     47  C   UNL A   1      49.387  29.135  27.346  1.00  0.00     0.031 C 
ATOM     48  C   UNL A   1      47.280  24.686  26.344  1.00  0.00     0.029 A 
ATOM     49  N   UNL A   1      45.987  26.222  27.333  1.00  0.00    -0.354 N 
ATOM     50  C   UNL A   1      47.518  30.160  28.203  1.00  0.00     0.074 A 
ATOM     51  C   UNL A   1      48.935  30.251  27.912  1.00  0.00     0.031 C 
ATOM     52  C   UNL A   1      46.065  24.145  26.498  1.00  0.00     0.029 A 
ATOM     53  C   UNL A   1      45.190  25.119  27.143  1.00  0.00     0.049 A 
ATOM     54  H   UNL A   1      45.677  27.045  27.773  1.00  0.00     0.167 HD
ATOM     55  C   UNL A   1      46.766  31.159  28.727  1.00  0.00     0.031 A 
ATOM     56  C   UNL A   1      43.893  24.906  27.438  1.00  0.00     0.031 A 
ATOM     57  C   UNL A   1      45.356  31.041  29.028  1.00  0.00     0.049 A 
ATOM     58  C   UNL A   1      43.090  26.022  28.036  1.00  0.00     0.074 A 
ATOM     59  C   UNL A   1      44.502  32.017  29.516  1.00  0.00     0.029 A 
ATOM     60  N   UNL A   1      44.596  29.889  28.885  1.00  0.00    -0.354 N 
ATOM     61  N   UNL A   1      43.469  27.246  28.313  1.00  0.00    -0.248 NA
ATOM     62  C   UNL A   1      41.683  25.736  28.347  1.00  0.00     0.031 C 
ATOM     63  C   UNL A   1      43.250  31.437  29.737  1.00  0.00     0.029 A 
ATOM     64  C   UNL A   1      43.297  30.119  29.314  1.00  0.00     0.049 A 
ATOM     65  H   UNL A   1      44.930  29.034  28.530  1.00  0.00     0.167 HD
ATOM     66  C   UNL A   1      42.348  27.880  28.835  1.00  0.00     0.074 A 
ATOM     67  C   UNL A   1      41.267  26.913  28.796  1.00  0.00     0.031 C 
ATOM     68  C   UNL A   1      42.232  29.144  29.309  1.00  0.00     0.031 A 
BRANCH  55  69
ATOM     69  C   UNL A   1      47.423  32.490  29.003  1.00  0.00    -0.014 A 
ATOM     70  C   UNL A   1      47.759  32.848  30.323  1.00  0.00     0.010 A 
ATOM     71  C   UNL A   1      47.562  33.447  27.983  1.00  0.00     0.010 A 
ATOM     72  C   UNL A   1      48.183  34.146  30.623  1.00  0.00     0.020 A 
ATOM     73  C   UNL A   1      48.014  34.740  28.274  1.00  0.00     0.020 A 
ATOM     74  C   UNL A   1      48.295  35.088  29.598  1.00  0.00     0.054 A 
BRANCH  74  75
ATOM     75  S   UNL A   1      48.796  36.781  30.016  1.00  0.00     0.124 S 
ATOM     76  O   UNL A   1      47.520  37.407  30.352  1.00  0.00    -0.237 OA
ATOM     77  O   UNL A   1      49.713  36.576  31.135  1.00  0.00    -0.237 OA
ATOM     78  O   UNL A   1      49.424  37.266  28.789  1.00  0.00    -0.744 OA
ENDBRANCH  74  75
ENDBRANCH  55  69
BRANCH  56  79
ATOM     79  C   UNL A   1      43.291  23.586  27.108  1.00  0.00    -0.014 A 
ATOM     80  C   UNL A   1      42.950  22.686  28.136  1.00  0.00     0.010 A 
ATOM     81  C   UNL A   1      43.165  23.177  25.770  1.00  0.00     0.010 A 
ATOM     82  C   UNL A   1      42.562  21.380  27.835  1.00  0.00     0.020 A 
ATOM     83  C   UNL A   1      42.745  21.880  25.463  1.00  0.00     0.020 A 
ATOM     84  C   UNL A   1      42.479  20.980  26.498  1.00  0.00     0.054 A 
BRANCH  84  85
ATOM     85  S   UNL A   1      42.044  19.257  26.131  1.00  0.00     0.124 S 
ATOM     86  O   UNL A   1      40.628  19.374  25.792  1.00  0.00    -0.237 OA
ATOM     87  O   UNL A   1      42.932  18.934  25.018  1.00  0.00    -0.237 OA
ATOM     88  O   UNL A   1      42.334  18.558  27.380  1.00  0.00    -0.744 OA
ENDBRANCH  84  85
ENDBRANCH  56  79
BRANCH  68  89
ATOM     89  C   UNL A   1      40.894  29.558  29.873  1.00  0.00    -0.014 A 
ATOM     90  C   UNL A   1      40.317  28.833  30.932  1.00  0.00     0.010 A 
ATOM     91  C   UNL A   1      40.168  30.616  29.295  1.00  0.00     0.010 A 
ATOM     92  C   UNL A   1      39.034  29.144  31.389  1.00  0.00     0.020 A 
ATOM     93  C   UNL A   1      38.897  30.951  29.772  1.00  0.00     0.020 A 
ATOM     94  C   UNL A   1      38.329  30.198  30.802  1.00  0.00     0.054 A 
BRANCH  94  95
ATOM     95  S   UNL A   1      36.665  30.590  31.410  1.00  0.00     0.124 S 
ATOM     96  O   UNL A   1      35.862  29.529  30.810  1.00  0.00    -0.237 OA
ATOM     97  O   UNL A   1      36.826  30.515  32.859  1.00  0.00    -0.237 OA
ATOM     98  O   UNL A   1      36.417  31.932  30.888  1.00  0.00    -0.744 OA
ENDBRANCH  94  95
ENDBRANCH  68  89
ENDBRANCH  42  43
ENDBRANCH  35  37
ENDBRANCH  34  35
ENDBRANCH  33  34
ENDBRANCH  32  33
ENDBRANCH  31  32
ENDBRANCH  30  31
ENDBRANCH   1  30
TORSDOF 25
ENDMDL
MODEL 3
REMARK VINA RESULT:      -8.1      6.201     10.219
REMARK SMILES Cc1cc2c(cc1C(=O)c1ccccc1C(=O)OCCOCCOCCOCCOC(=O)c1ccc(-c3c4nc(c(-c5ccc(S(=O)(=O)[O-])cc5)c5ccc([nH]5)c(-c5ccc(S(=O)(=O)[O-])cc5)c5nc(c(-c6ccc(S(=O)(=O)[O-])cc6)c6ccc3[nH]6)C=C5)C=C4)cc1)CCCC2
REMARK SMILES IDX 25 1 24 2 23 3 22 4 21 5 20 6 19 7 18 8 16 9 17 10 15 11
REMARK SMILES IDX 10 12 11 13 12 14 14 15 13 16 8 17 9 18 7 19 1 20 2 21 3 22
REMARK SMILES IDX 4 23 6 24 5 25 96 26 93 27 95 28 94 29 26 30 27 31 28 32
REMARK SMILES IDX 29 33 30 34 31 35 32 36 33 37 34 38 92 39 35 40 91 41 36 42
REMARK SMILES IDX 37 43 38 44 85 45 39 46 90 47 84 48 86 49 40 50 89 51 83 52
REMARK SMILES IDX 82 53 41 55 71 56 52 57 70 58 53 59 56 60 69 61 87 62 54 63
REMARK SMILES IDX 55 64 68 66 88 67 57 68 42 69 43 70 51 71 44 72 50 73 45 74
REMARK SMILES IDX 46 75 47 76 48 77 49 78 72 79 73 80 81 81 74 82 80 83 75 84
REMARK SMILES IDX 76 85 77 86 78 87 79 88 58 89 59 90 67 91 60 92 66 93 61 94
REMARK SMILES IDX 62 95 63 96 64 97 65 98
REMARK H PARENT 86 54 56 65
REMARK Flexibility Score: inf
ROOT
ATOM      1  C   UNL A   1      36.371  31.701  29.443  1.00  0.00     0.188 C 
ENDROOT
BRANCH   1   2
ATOM      2  O   UNL A   1      35.025  31.344  29.150  1.00  0.00    -0.377 OA
BRANCH   2   3
ATOM      3  C   UNL A   1      34.168  32.310  28.573  1.00  0.00     0.188 C 
BRANCH   3   4
ATOM      4  C   UNL A   1      33.490  31.857  27.272  1.00  0.00     0.188 C 
BRANCH   4   5
ATOM      5  O   UNL A   1      33.371  30.454  27.151  1.00  0.00    -0.376 OA
BRANCH   5   6
ATOM      6  C   UNL A   1      32.112  29.857  26.872  1.00  0.00     0.202 C 
BRANCH   6   7
ATOM      7  C   UNL A   1      31.717  28.403  27.210  1.00  0.00     0.261 C 
BRANCH   7   8
ATOM      8  O   UNL A   1      31.694  27.462  26.138  1.00  0.00    -0.460 OA
BRANCH   8   9
ATOM      9  C   UNL A   1      32.844  26.850  25.824  1.00  0.00     0.338 C 
ATOM     10  O   UNL A   1      33.439  26.036  26.516  1.00  0.00    -0.246 OA
BRANCH   9  11
ATOM     11  C   UNL A   1      33.196  27.095  24.401  1.00  0.00     0.071 A 
ATOM     12  C   UNL A   1      32.941  26.232  23.322  1.00  0.00     0.037 A 
ATOM     13  C   UNL A   1      33.093  26.721  22.015  1.00  0.00     0.013 A 
ATOM     14  C   UNL A   1      33.718  27.949  21.782  1.00  0.00     0.001 A 
ATOM     15  C   UNL A   1      33.839  28.324  24.155  1.00  0.00     0.016 A 
ATOM     16  C   UNL A   1      34.138  28.727  22.855  1.00  0.00     0.001 A 
BRANCH  12  17
ATOM     17  C   UNL A   1      32.480  24.838  23.490  1.00  0.00     0.194 C 
ATOM     18  O   UNL A   1      31.269  24.666  23.351  1.00  0.00    -0.289 OA
BRANCH  17  19
ATOM     19  C   UNL A   1      33.411  23.653  23.726  1.00  0.00     0.026 A 
ATOM     20  C   UNL A   1      31.867  21.643  23.083  1.00  0.00     0.045 C 
ATOM     21  C   UNL A   1      33.128  22.272  23.601  1.00  0.00    -0.040 A 
ATOM     22  C   UNL A   1      34.095  21.330  24.030  1.00  0.00     0.008 A 
ATOM     23  C   UNL A   1      35.360  21.702  24.485  1.00  0.00    -0.044 A 
ATOM     24  C   UNL A   1      34.718  24.009  24.139  1.00  0.00     0.016 A 
ATOM     25  C   UNL A   1      35.693  23.057  24.509  1.00  0.00    -0.044 A 
ATOM     26  C   UNL A   1      36.291  20.635  25.004  1.00  0.00     0.036 C 
ATOM     27  C   UNL A   1      37.092  23.506  24.858  1.00  0.00     0.036 C 
ATOM     28  C   UNL A   1      37.745  21.079  25.090  1.00  0.00     0.005 C 
ATOM     29  C   UNL A   1      37.869  22.476  25.681  1.00  0.00     0.005 C 
ENDBRANCH  17  19
ENDBRANCH  12  17
ENDBRANCH   9  11
ENDBRANCH   8   9
ENDBRANCH   7   8
ENDBRANCH   6   7
ENDBRANCH   5   6
ENDBRANCH   4   5
ENDBRANCH   3   4
ENDBRANCH   2   3
ENDBRANCH   1   2
BRANCH   1  30
ATOM     30  C   UNL A   1      36.760  32.388  30.769  1.00  0.00     0.188 C 
BRANCH  30  31
ATOM     31  O   UNL A   1      36.007  33.561  31.071  1.00  0.00    -0.376 OA
BRANCH  31  32
ATOM     32  C   UNL A   1      35.527  33.689  32.402  1.00  0.00     0.202 C 
BRANCH  32  33
ATOM     33  C   UNL A   1      35.475  32.378  33.197  1.00  0.00     0.261 C 
BRANCH  33  34
ATOM     34  O   UNL A   1      36.648  32.076  33.968  1.00  0.00    -0.460 OA
BRANCH  34  35
ATOM     35  C   UNL A   1      37.164  33.052  34.747  1.00  0.00     0.338 C 
ATOM     36  O   UNL A   1      36.727  33.449  35.814  1.00  0.00    -0.246 OA
BRANCH  35  37
ATOM     37  C   UNL A   1      38.476  33.431  34.181  1.00  0.00     0.060 A 
ATOM     38  C   UNL A   1      39.636  32.781  34.600  1.00  0.00     0.016 A 
ATOM     39  C   UNL A   1      38.543  34.452  33.222  1.00  0.00     0.016 A 
ATOM     40  C   UNL A   1      40.853  33.122  34.015  1.00  0.00     0.010 A 
ATOM     41  C   UNL A   1      39.771  34.798  32.648  1.00  0.00     0.010 A 
ATOM     42  C   UNL A   1      40.931  34.108  33.018  1.00  0.00    -0.014 A 
BRANCH  42  43
ATOM     43  C   UNL A   1      42.178  34.199  32.219  1.00  0.00     0.031 A 
ATOM     44  C   UNL A   1      42.574  33.170  31.206  1.00  0.00     0.074 A 
ATOM     45  C   UNL A   1      42.935  35.299  32.400  1.00  0.00     0.049 A 
ATOM     46  N   UNL A   1      43.555  33.220  30.340  1.00  0.00    -0.248 NA
ATOM     47  C   UNL A   1      41.786  31.931  31.156  1.00  0.00     0.031 C 
ATOM     48  C   UNL A   1      42.644  36.358  33.372  1.00  0.00     0.029 A 
ATOM     49  N   UNL A   1      44.071  35.733  31.765  1.00  0.00    -0.354 N 
ATOM     50  C   UNL A   1      43.499  32.029  29.629  1.00  0.00     0.074 A 
ATOM     51  C   UNL A   1      42.410  31.258  30.194  1.00  0.00     0.031 C 
ATOM     52  C   UNL A   1      43.542  37.340  33.233  1.00  0.00     0.029 A 
ATOM     53  C   UNL A   1      44.495  36.969  32.192  1.00  0.00     0.049 A 
ATOM     54  H   UNL A   1      44.535  35.211  31.073  1.00  0.00     0.167 HD
ATOM     55  C   UNL A   1      44.279  31.632  28.594  1.00  0.00     0.031 A 
ATOM     56  C   UNL A   1      45.526  37.736  31.788  1.00  0.00     0.031 A 
ATOM     57  C   UNL A   1      45.375  32.410  28.057  1.00  0.00     0.049 A 
ATOM     58  C   UNL A   1      46.385  37.263  30.655  1.00  0.00     0.074 A 
ATOM     59  C   UNL A   1      46.189  32.108  26.978  1.00  0.00     0.029 A 
ATOM     60  N   UNL A   1      45.818  33.626  28.556  1.00  0.00    -0.354 N 
ATOM     61  N   UNL A   1      46.271  36.167  29.942  1.00  0.00    -0.248 NA
ATOM     62  C   UNL A   1      47.501  38.131  30.258  1.00  0.00     0.031 C 
ATOM     63  C   UNL A   1      47.167  33.100  26.871  1.00  0.00     0.029 A 
ATOM     64  C   UNL A   1      46.918  34.065  27.833  1.00  0.00     0.049 A 
ATOM     65  H   UNL A   1      45.410  34.108  29.312  1.00  0.00     0.167 HD
ATOM     66  C   UNL A   1      47.303  36.211  29.013  1.00  0.00     0.074 A 
ATOM     67  C   UNL A   1      48.005  37.462  29.229  1.00  0.00     0.031 C 
ATOM     68  C   UNL A   1      47.639  35.293  28.074  1.00  0.00     0.031 A 
BRANCH  55  69
ATOM     69  C   UNL A   1      43.988  30.304  27.937  1.00  0.00    -0.014 A 
ATOM     70  C   UNL A   1      43.062  30.231  26.878  1.00  0.00     0.010 A 
ATOM     71  C   UNL A   1      44.509  29.111  28.468  1.00  0.00     0.010 A 
ATOM     72  C   UNL A   1      42.633  28.992  26.392  1.00  0.00     0.020 A 
ATOM     73  C   UNL A   1      44.104  27.869  27.964  1.00  0.00     0.020 A 
ATOM     74  C   UNL A   1      43.147  27.819  26.947  1.00  0.00     0.054 A 
BRANCH  74  75
ATOM     75  S   UNL A   1      42.539  26.221  26.338  1.00  0.00     0.124 S 
ATOM     76  O   UNL A   1      42.647  26.382  24.890  1.00  0.00    -0.237 OA
ATOM     77  O   UNL A   1      43.473  25.273  26.939  1.00  0.00    -0.237 OA
ATOM     78  O   UNL A   1      41.175  26.152  26.857  1.00  0.00    -0.744 OA
ENDBRANCH  74  75
ENDBRANCH  55  69
BRANCH  56  79
ATOM     79  C   UNL A   1      45.740  39.053  32.447  1.00  0.00    -0.014 A 
ATOM     80  C   UNL A   1      46.492  39.136  33.635  1.00  0.00     0.010 A 
ATOM     81  C   UNL A   1      45.099  40.204  31.960  1.00  0.00     0.010 A 
ATOM     82  C   UNL A   1      46.543  40.327  34.359  1.00  0.00     0.020 A 
ATOM     83  C   UNL A   1      45.175  41.408  32.666  1.00  0.00     0.020 A 
ATOM     84  C   UNL A   1      45.868  41.452  33.878  1.00  0.00     0.054 A 
BRANCH  84  85
ATOM     85  S   UNL A   1      45.886  42.969  34.873  1.00  0.00     0.124 S 
ATOM     86  O   UNL A   1      44.464  43.161  35.149  1.00  0.00    -0.237 OA
ATOM     87  O   UNL A   1      46.703  42.589  36.021  1.00  0.00    -0.237 OA
ATOM     88  O   UNL A   1      46.489  43.955  33.980  1.00  0.00    -0.744 OA
ENDBRANCH  84  85
ENDBRANCH  56  79
BRANCH  68  89
ATOM     89  C   UNL A   1      48.853  35.577  27.224  1.00  0.00    -0.014 A 
ATOM     90  C   UNL A   1      50.138  35.244  27.690  1.00  0.00     0.010 A 
ATOM     91  C   UNL A   1      48.727  36.252  25.996  1.00  0.00     0.010 A 
ATOM     92  C   UNL A   1      51.274  35.598  26.957  1.00  0.00     0.020 A 
ATOM     93  C   UNL A   1      49.860  36.579  25.243  1.00  0.00     0.020 A 
ATOM     94  C   UNL A   1      51.127  36.269  25.740  1.00  0.00     0.054 A 
BRANCH  94  95
ATOM     95  S   UNL A   1      52.613  36.719  24.800  1.00  0.00     0.124 S 
ATOM     96  O   UNL A   1      53.615  35.816  25.359  1.00  0.00    -0.237 OA
ATOM     97  O   UNL A   1      52.217  36.445  23.422  1.00  0.00    -0.237 OA
ATOM     98  O   UNL A   1      52.801  38.134  25.115  1.00  0.00    -0.744 OA
ENDBRANCH  94  95
ENDBRANCH  68  89
ENDBRANCH  42  43
ENDBRANCH  35  37
ENDBRANCH  34  35
ENDBRANCH  33  34
ENDBRANCH  32  33
ENDBRANCH  31  32
ENDBRANCH  30  31
ENDBRANCH   1  30
TORSDOF 25
ENDMDL
