MODEL 1
REMARK VINA RESULT:      -9.1      0.000      0.000
REMARK SMILES CC(C)OC(=O)c1c(NC(=O)[C@H]2[C@@H](C(=O)OCCOCCOCCOCCOC(=O)c3ccc(-c4c5nc(c(-c6ccc(S(=O)(=O)[O-])cc6)c6ccc([nH]6)c(-c6ccc(S(=O)(=O)[O-])cc6)c6nc(c(-c7ccc(S(=O)(=O)[O-])cc7)c7ccc4[nH]7)C=C6)C=C5)cc3)[C@@H]3C=C[C@H]2CC3)sc2c1CCC2
REMARK SMILES IDX 21 1 20 2 19 3 18 4 17 5 16 6 14 7 15 8 13 9 12 10 94 11
REMARK SMILES IDX 91 12 93 13 95 14 92 15 96 16 10 17 9 18 11 20 8 21 7 22
REMARK SMILES IDX 99 23 97 24 98 25 100 26 102 27 101 28 5 29 6 30 4 31 2 32
REMARK SMILES IDX 1 33 3 34 22 35 23 36 24 37 25 38 26 39 27 40 28 41 29 42
REMARK SMILES IDX 30 43 31 44 32 45 90 46 33 47 89 48 34 49 35 50 36 51 83 52
REMARK SMILES IDX 37 53 88 54 82 55 84 56 38 57 87 58 81 59 80 60 39 62 69 63
REMARK SMILES IDX 50 64 68 65 51 66 54 67 67 68 85 69 52 70 53 71 66 73 86 74
REMARK SMILES IDX 55 75 40 76 41 77 49 78 42 79 48 80 43 81 44 82 45 83 46 84
REMARK SMILES IDX 47 85 70 86 71 87 79 88 72 89 78 90 73 91 74 92 75 93 76 94
REMARK SMILES IDX 77 95 56 96 57 97 65 98 58 99 64 100 59 101 60 102 61 103
REMARK SMILES IDX 62 104 63 105
REMARK H PARENT 9 19 84 61 54 72
REMARK Flexibility Score: inf
ROOT
ATOM      1  C   UNL A   1      36.805  22.339  25.160  1.00  0.00     0.188 C 
ENDROOT
BRANCH   1   2
ATOM      2  C   UNL A   1      36.227  20.901  25.194  1.00  0.00     0.188 C 
BRANCH   2   3
ATOM      3  O   UNL A   1      34.808  20.837  25.209  1.00  0.00    -0.376 OA
BRANCH   3   4
ATOM      4  C   UNL A   1      34.149  20.706  26.453  1.00  0.00     0.202 C 
BRANCH   4   5
ATOM      5  C   UNL A   1      32.939  21.630  26.654  1.00  0.00     0.261 C 
BRANCH   5   6
ATOM      6  O   UNL A   1      32.748  22.572  25.590  1.00  0.00    -0.463 OA
BRANCH   6   7
ATOM      7  C   UNL A   1      33.435  23.743  25.715  1.00  0.00     0.310 C 
ATOM      8  O   UNL A   1      34.090  24.034  26.698  1.00  0.00    -0.252 OA
BRANCH   7   9
ATOM      9  C   UNL A   1      33.382  24.482  24.388  1.00  0.00     0.119 C 
ATOM     10  C   UNL A   1      32.104  25.287  24.025  1.00  0.00     0.100 C 
ATOM     11  C   UNL A   1      31.464  24.640  22.769  1.00  0.00     0.025 C 
ATOM     12  C   UNL A   1      33.787  23.559  23.208  1.00  0.00     0.026 C 
ATOM     13  C   UNL A   1      32.479  24.872  21.661  1.00  0.00    -0.027 C 
ATOM     14  C   UNL A   1      31.334  23.106  22.970  1.00  0.00     0.009 C 
ATOM     15  C   UNL A   1      33.694  24.354  21.913  1.00  0.00    -0.027 C 
ATOM     16  C   UNL A   1      32.727  22.451  23.102  1.00  0.00     0.009 C 
BRANCH  10  17
ATOM     17  C   UNL A   1      31.050  25.586  25.082  1.00  0.00     0.229 C 
ATOM     18  N   UNL A   1      30.432  26.806  25.171  1.00  0.00    -0.317 N 
ATOM     19  H   UNL A   1      30.320  27.143  26.090  1.00  0.00     0.170 HD
ATOM     20  O   UNL A   1      30.679  24.726  25.884  1.00  0.00    -0.274 OA
BRANCH  18  21
ATOM     21  C   UNL A   1      29.936  27.650  24.180  1.00  0.00     0.110 A 
ATOM     22  C   UNL A   1      30.626  28.733  23.614  1.00  0.00     0.098 A 
ATOM     23  C   UNL A   1      29.746  29.490  22.787  1.00  0.00    -0.017 A 
ATOM     24  S   UNL A   1      28.319  27.567  23.622  1.00  0.00    -0.122 S 
ATOM     25  C   UNL A   1      28.514  28.914  22.680  1.00  0.00     0.011 A 
ATOM     26  C   UNL A   1      29.797  30.746  21.991  1.00  0.00     0.038 C 
ATOM     27  C   UNL A   1      27.566  29.630  21.803  1.00  0.00     0.047 C 
ATOM     28  C   UNL A   1      28.280  31.007  21.694  1.00  0.00     0.010 C 
BRANCH  22  29
ATOM     29  C   UNL A   1      32.019  29.027  23.936  1.00  0.00     0.341 C 
ATOM     30  O   UNL A   1      32.949  28.605  23.270  1.00  0.00    -0.246 OA
BRANCH  29  31
ATOM     31  O   UNL A   1      32.144  29.742  25.091  1.00  0.00    -0.459 OA
BRANCH  31  32
ATOM     32  C   UNL A   1      32.973  29.233  26.162  1.00  0.00     0.170 C 
ATOM     33  C   UNL A   1      32.227  28.992  27.474  1.00  0.00     0.052 C 
ATOM     34  C   UNL A   1      33.768  28.020  25.699  1.00  0.00     0.052 C 
ENDBRANCH  31  32
ENDBRANCH  29  31
ENDBRANCH  22  29
ENDBRANCH  18  21
ENDBRANCH  10  17
ENDBRANCH   7   9
ENDBRANCH   6   7
ENDBRANCH   5   6
ENDBRANCH   4   5
ENDBRANCH   3   4
ENDBRANCH   2   3
ENDBRANCH   1   2
BRANCH   1  35
ATOM     35  O   UNL A   1      38.204  22.537  25.030  1.00  0.00    -0.377 OA
BRANCH  35  36
ATOM     36  C   UNL A   1      39.067  22.153  26.094  1.00  0.00     0.188 C 
BRANCH  36  37
ATOM     37  C   UNL A   1      39.878  20.827  26.063  1.00  0.00     0.188 C 
BRANCH  37  38
ATOM     38  O   UNL A   1      40.815  20.649  27.118  1.00  0.00    -0.376 OA
BRANCH  38  39
ATOM     39  C   UNL A   1      41.743  19.580  27.116  1.00  0.00     0.202 C 
BRANCH  39  40
ATOM     40  C   UNL A   1      42.804  19.606  26.017  1.00  0.00     0.261 C 
BRANCH  40  41
ATOM     41  O   UNL A   1      43.275  20.911  25.750  1.00  0.00    -0.460 OA
BRANCH  41  42
ATOM     42  C   UNL A   1      43.938  21.017  24.583  1.00  0.00     0.338 C 
ATOM     43  O   UNL A   1      44.254  20.114  23.831  1.00  0.00    -0.246 OA
BRANCH  42  44
ATOM     44  C   UNL A   1      44.274  22.428  24.377  1.00  0.00     0.060 A 
ATOM     45  C   UNL A   1      45.623  22.658  24.121  1.00  0.00     0.016 A 
ATOM     46  C   UNL A   1      43.424  23.380  24.954  1.00  0.00     0.016 A 
ATOM     47  C   UNL A   1      46.210  23.664  24.835  1.00  0.00     0.010 A 
ATOM     48  C   UNL A   1      44.014  24.364  25.693  1.00  0.00     0.010 A 
ATOM     49  C   UNL A   1      45.404  24.394  25.714  1.00  0.00    -0.014 A 
BRANCH  49  50
ATOM     50  C   UNL A   1      46.077  25.210  26.686  1.00  0.00     0.031 A 
ATOM     51  C   UNL A   1      45.530  25.020  28.033  1.00  0.00     0.074 A 
ATOM     52  C   UNL A   1      47.114  25.996  26.359  1.00  0.00     0.049 A 
ATOM     53  N   UNL A   1      44.766  25.826  28.687  1.00  0.00    -0.248 NA
ATOM     54  C   UNL A   1      45.653  23.676  28.615  1.00  0.00     0.031 C 
ATOM     55  C   UNL A   1      47.889  26.019  25.115  1.00  0.00     0.029 A 
ATOM     56  N   UNL A   1      47.777  26.869  27.155  1.00  0.00    -0.354 N 
ATOM     57  C   UNL A   1      44.503  25.173  29.880  1.00  0.00     0.074 A 
ATOM     58  C   UNL A   1      44.854  23.791  29.673  1.00  0.00     0.031 C 
ATOM     59  C   UNL A   1      49.054  26.671  25.341  1.00  0.00     0.029 A 
ATOM     60  C   UNL A   1      49.038  27.207  26.694  1.00  0.00     0.049 A 
ATOM     61  H   UNL A   1      47.396  27.232  27.987  1.00  0.00     0.167 HD
ATOM     62  C   UNL A   1      44.318  25.866  31.033  1.00  0.00     0.031 A 
ATOM     63  C   UNL A   1      50.019  27.782  27.433  1.00  0.00     0.031 A 
ATOM     64  C   UNL A   1      44.060  27.261  30.784  1.00  0.00     0.049 A 
ATOM     65  C   UNL A   1      49.371  28.394  28.626  1.00  0.00     0.074 A 
ATOM     66  C   UNL A   1      43.088  27.956  30.092  1.00  0.00     0.029 A 
ATOM     67  N   UNL A   1      45.114  28.132  30.949  1.00  0.00    -0.354 N 
ATOM     68  N   UNL A   1      48.559  29.413  28.560  1.00  0.00    -0.248 NA
ATOM     69  C   UNL A   1      49.257  27.595  29.840  1.00  0.00     0.031 C 
ATOM     70  C   UNL A   1      43.766  29.062  29.502  1.00  0.00     0.029 A 
ATOM     71  C   UNL A   1      45.105  29.015  29.901  1.00  0.00     0.049 A 
ATOM     72  H   UNL A   1      45.761  28.121  31.691  1.00  0.00     0.167 HD
ATOM     73  C   UNL A   1      47.564  29.145  29.493  1.00  0.00     0.074 A 
ATOM     74  C   UNL A   1      48.105  28.071  30.323  1.00  0.00     0.031 C 
ATOM     75  C   UNL A   1      46.292  29.617  29.326  1.00  0.00     0.031 A 
BRANCH  62  76
ATOM     76  C   UNL A   1      44.827  25.363  32.361  1.00  0.00    -0.014 A 
ATOM     77  C   UNL A   1      46.189  25.537  32.666  1.00  0.00     0.010 A 
ATOM     78  C   UNL A   1      44.093  24.482  33.185  1.00  0.00     0.010 A 
ATOM     79  C   UNL A   1      46.801  24.792  33.680  1.00  0.00     0.020 A 
ATOM     80  C   UNL A   1      44.679  23.774  34.228  1.00  0.00     0.020 A 
ATOM     81  C   UNL A   1      46.042  23.899  34.439  1.00  0.00     0.054 A 
BRANCH  81  82
ATOM     82  S   UNL A   1      46.862  22.834  35.644  1.00  0.00     0.124 S 
ATOM     83  O   UNL A   1      46.807  21.538  34.978  1.00  0.00    -0.237 OA
ATOM     84  O   UNL A   1      48.184  23.445  35.745  1.00  0.00    -0.237 OA
ATOM     85  O   UNL A   1      46.028  22.964  36.837  1.00  0.00    -0.744 OA
ENDBRANCH  81  82
ENDBRANCH  62  76
BRANCH  63  86
ATOM     86  C   UNL A   1      51.477  27.518  27.347  1.00  0.00    -0.014 A 
ATOM     87  C   UNL A   1      51.985  26.213  27.477  1.00  0.00     0.010 A 
ATOM     88  C   UNL A   1      52.354  28.516  26.873  1.00  0.00     0.010 A 
ATOM     89  C   UNL A   1      53.303  25.909  27.094  1.00  0.00     0.020 A 
ATOM     90  C   UNL A   1      53.671  28.225  26.500  1.00  0.00     0.020 A 
ATOM     91  C   UNL A   1      54.132  26.915  26.589  1.00  0.00     0.054 A 
BRANCH  91  92
ATOM     92  S   UNL A   1      55.769  26.484  25.931  1.00  0.00     0.124 S 
ATOM     93  O   UNL A   1      55.458  25.388  25.018  1.00  0.00    -0.237 OA
ATOM     94  O   UNL A   1      56.196  27.730  25.301  1.00  0.00    -0.237 OA
ATOM     95  O   UNL A   1      56.530  26.103  27.121  1.00  0.00    -0.744 OA
ENDBRANCH  91  92
ENDBRANCH  63  86
BRANCH  75  96
ATOM     96  C   UNL A   1      46.056  30.684  28.281  1.00  0.00    -0.014 A 
ATOM     97  C   UNL A   1      45.913  30.408  26.908  1.00  0.00     0.010 A 
ATOM     98  C   UNL A   1      45.802  31.990  28.733  1.00  0.00     0.010 A 
ATOM     99  C   UNL A   1      45.545  31.421  26.009  1.00  0.00     0.020 A 
ATOM    100  C   UNL A   1      45.417  32.999  27.847  1.00  0.00     0.020 A 
ATOM    101  C   UNL A   1      45.296  32.711  26.486  1.00  0.00     0.054 A 
BRANCH 101 102
ATOM    102  S   UNL A   1      44.756  34.003  25.331  1.00  0.00     0.124 S 
ATOM    103  O   UNL A   1      44.199  33.228  24.227  1.00  0.00    -0.237 OA
ATOM    104  O   UNL A   1      43.787  34.761  26.120  1.00  0.00    -0.237 OA
ATOM    105  O   UNL A   1      45.987  34.728  25.019  1.00  0.00    -0.744 OA
ENDBRANCH 101 102
ENDBRANCH  75  96
ENDBRANCH  49  50
ENDBRANCH  42  44
ENDBRANCH  41  42
ENDBRANCH  40  41
ENDBRANCH  39  40
ENDBRANCH  38  39
ENDBRANCH  37  38
ENDBRANCH  36  37
ENDBRANCH  35  36
ENDBRANCH   1  35
TORSDOF 28
ENDMDL
MODEL 2
REMARK VINA RESULT:      -9.1      2.088      3.124
REMARK SMILES CC(C)OC(=O)c1c(NC(=O)[C@H]2[C@@H](C(=O)OCCOCCOCCOCCOC(=O)c3ccc(-c4c5nc(c(-c6ccc(S(=O)(=O)[O-])cc6)c6ccc([nH]6)c(-c6ccc(S(=O)(=O)[O-])cc6)c6nc(c(-c7ccc(S(=O)(=O)[O-])cc7)c7ccc4[nH]7)C=C6)C=C5)cc3)[C@@H]3C=C[C@H]2CC3)sc2c1CCC2
REMARK SMILES IDX 21 1 20 2 19 3 18 4 17 5 16 6 14 7 15 8 13 9 12 10 94 11
REMARK SMILES IDX 91 12 93 13 95 14 92 15 96 16 10 17 9 18 11 20 8 21 7 22
REMARK SMILES IDX 99 23 97 24 98 25 100 26 102 27 101 28 5 29 6 30 4 31 2 32
REMARK SMILES IDX 1 33 3 34 22 35 23 36 24 37 25 38 26 39 27 40 28 41 29 42
REMARK SMILES IDX 30 43 31 44 32 45 90 46 33 47 89 48 34 49 35 50 36 51 83 52
REMARK SMILES IDX 37 53 88 54 82 55 84 56 38 57 87 58 81 59 80 60 39 62 69 63
REMARK SMILES IDX 50 64 68 65 51 66 54 67 67 68 85 69 52 70 53 71 66 73 86 74
REMARK SMILES IDX 55 75 40 76 41 77 49 78 42 79 48 80 43 81 44 82 45 83 46 84
REMARK SMILES IDX 47 85 70 86 71 87 79 88 72 89 78 90 73 91 74 92 75 93 76 94
REMARK SMILES IDX 77 95 56 96 57 97 65 98 58 99 64 100 59 101 60 102 61 103
REMARK SMILES IDX 62 104 63 105
REMARK H PARENT 9 19 84 61 54 72
REMARK Flexibility Score: inf
ROOT
ATOM      1  C   UNL A   1      36.135  23.486  26.178  1.00  0.00     0.188 C 
ENDROOT
BRANCH   1   2
ATOM      2  C   UNL A   1      34.981  22.465  26.355  1.00  0.00     0.188 C 
BRANCH   2   3
ATOM      3  O   UNL A   1      33.896  22.933  27.144  1.00  0.00    -0.376 OA
BRANCH   3   4
ATOM      4  C   UNL A   1      32.660  23.191  26.509  1.00  0.00     0.202 C 
BRANCH   4   5
ATOM      5  C   UNL A   1      32.757  23.657  25.050  1.00  0.00     0.261 C 
BRANCH   5   6
ATOM      6  O   UNL A   1      32.484  25.053  24.869  1.00  0.00    -0.463 OA
BRANCH   6   7
ATOM      7  C   UNL A   1      33.387  25.732  24.108  1.00  0.00     0.310 C 
ATOM      8  O   UNL A   1      34.396  25.225  23.653  1.00  0.00    -0.252 OA
BRANCH   7   9
ATOM      9  C   UNL A   1      32.824  27.109  23.796  1.00  0.00     0.119 C 
ATOM     10  C   UNL A   1      32.288  27.985  24.961  1.00  0.00     0.100 C 
ATOM     11  C   UNL A   1      30.768  28.202  24.744  1.00  0.00     0.025 C 
ATOM     12  C   UNL A   1      31.782  27.048  22.647  1.00  0.00     0.026 C 
ATOM     13  C   UNL A   1      30.677  29.029  23.472  1.00  0.00    -0.027 C 
ATOM     14  C   UNL A   1      30.072  26.842  24.467  1.00  0.00     0.009 C 
ATOM     15  C   UNL A   1      31.247  28.452  22.400  1.00  0.00    -0.027 C 
ATOM     16  C   UNL A   1      30.587  26.222  23.149  1.00  0.00     0.009 C 
BRANCH  10  17
ATOM     17  C   UNL A   1      32.587  27.618  26.407  1.00  0.00     0.229 C 
ATOM     18  N   UNL A   1      33.445  28.352  27.184  1.00  0.00    -0.317 N 
ATOM     19  H   UNL A   1      34.051  27.815  27.745  1.00  0.00     0.170 HD
ATOM     20  O   UNL A   1      32.038  26.659  26.956  1.00  0.00    -0.274 OA
BRANCH  18  21
ATOM     21  C   UNL A   1      33.603  29.730  27.313  1.00  0.00     0.110 A 
ATOM     22  C   UNL A   1      34.730  30.372  27.847  1.00  0.00     0.098 A 
ATOM     23  C   UNL A   1      34.464  31.763  28.012  1.00  0.00    -0.017 A 
ATOM     24  S   UNL A   1      32.343  30.839  26.971  1.00  0.00    -0.122 S 
ATOM     25  C   UNL A   1      33.241  32.117  27.517  1.00  0.00     0.011 A 
ATOM     26  C   UNL A   1      35.155  32.954  28.573  1.00  0.00     0.038 C 
ATOM     27  C   UNL A   1      32.921  33.555  27.622  1.00  0.00     0.047 C 
ATOM     28  C   UNL A   1      33.990  34.000  28.658  1.00  0.00     0.010 C 
BRANCH  22  29
ATOM     29  C   UNL A   1      35.937  29.645  28.231  1.00  0.00     0.341 C 
ATOM     30  O   UNL A   1      36.762  29.270  27.417  1.00  0.00    -0.246 OA
BRANCH  29  31
ATOM     31  O   UNL A   1      35.974  29.374  29.567  1.00  0.00    -0.459 OA
BRANCH  31  32
ATOM     32  C   UNL A   1      37.164  29.687  30.329  1.00  0.00     0.170 C 
ATOM     33  C   UNL A   1      36.893  30.109  31.772  1.00  0.00     0.052 C 
ATOM     34  C   UNL A   1      38.185  28.563  30.220  1.00  0.00     0.052 C 
ENDBRANCH  31  32
ENDBRANCH  29  31
ENDBRANCH  22  29
ENDBRANCH  18  21
ENDBRANCH  10  17
ENDBRANCH   7   9
ENDBRANCH   6   7
ENDBRANCH   5   6
ENDBRANCH   4   5
ENDBRANCH   3   4
ENDBRANCH   2   3
ENDBRANCH   1   2
BRANCH   1  35
ATOM     35  O   UNL A   1      36.956  23.434  25.022  1.00  0.00    -0.377 OA
BRANCH  35  36
ATOM     36  C   UNL A   1      37.519  22.190  24.619  1.00  0.00     0.188 C 
BRANCH  36  37
ATOM     37  C   UNL A   1      38.283  21.268  25.611  1.00  0.00     0.188 C 
BRANCH  37  38
ATOM     38  O   UNL A   1      39.554  21.739  26.040  1.00  0.00    -0.376 OA
BRANCH  38  39
ATOM     39  C   UNL A   1      40.424  20.934  26.814  1.00  0.00     0.202 C 
BRANCH  39  40
ATOM     40  C   UNL A   1      41.730  20.509  26.145  1.00  0.00     0.261 C 
BRANCH  40  41
ATOM     41  O   UNL A   1      42.303  21.543  25.372  1.00  0.00    -0.460 OA
BRANCH  41  42
ATOM     42  C   UNL A   1      43.498  21.222  24.842  1.00  0.00     0.338 C 
ATOM     43  O   UNL A   1      43.955  20.106  24.678  1.00  0.00    -0.246 OA
BRANCH  42  44
ATOM     44  C   UNL A   1      44.207  22.466  24.530  1.00  0.00     0.060 A 
ATOM     45  C   UNL A   1      45.594  22.358  24.589  1.00  0.00     0.016 A 
ATOM     46  C   UNL A   1      43.517  23.667  24.739  1.00  0.00     0.016 A 
ATOM     47  C   UNL A   1      46.247  23.341  25.277  1.00  0.00     0.010 A 
ATOM     48  C   UNL A   1      44.162  24.631  25.456  1.00  0.00     0.010 A 
ATOM     49  C   UNL A   1      45.481  24.377  25.817  1.00  0.00    -0.014 A 
BRANCH  49  50
ATOM     50  C   UNL A   1      46.114  25.209  26.802  1.00  0.00     0.031 A 
ATOM     51  C   UNL A   1      45.531  25.023  28.133  1.00  0.00     0.074 A 
ATOM     52  C   UNL A   1      47.151  26.006  26.498  1.00  0.00     0.049 A 
ATOM     53  N   UNL A   1      44.738  25.825  28.758  1.00  0.00    -0.248 NA
ATOM     54  C   UNL A   1      45.654  23.685  28.730  1.00  0.00     0.031 C 
ATOM     55  C   UNL A   1      47.962  26.028  25.278  1.00  0.00     0.029 A 
ATOM     56  N   UNL A   1      47.779  26.893  27.306  1.00  0.00    -0.354 N 
ATOM     57  C   UNL A   1      44.449  25.178  29.948  1.00  0.00     0.074 A 
ATOM     58  C   UNL A   1      44.822  23.799  29.763  1.00  0.00     0.031 C 
ATOM     59  C   UNL A   1      49.112  26.696  25.532  1.00  0.00     0.029 A 
ATOM     60  C   UNL A   1      49.050  27.243  26.880  1.00  0.00     0.049 A 
ATOM     61  H   UNL A   1      47.370  27.258  28.124  1.00  0.00     0.167 HD
ATOM     62  C   UNL A   1      44.222  25.878  31.090  1.00  0.00     0.031 A 
ATOM     63  C   UNL A   1      50.001  27.836  27.642  1.00  0.00     0.031 A 
ATOM     64  C   UNL A   1      43.953  27.268  30.821  1.00  0.00     0.049 A 
ATOM     65  C   UNL A   1      49.311  28.450  28.810  1.00  0.00     0.074 A 
ATOM     66  C   UNL A   1      42.993  27.945  30.096  1.00  0.00     0.029 A 
ATOM     67  N   UNL A   1      44.992  28.153  31.010  1.00  0.00    -0.354 N 
ATOM     68  N   UNL A   1      48.489  29.458  28.712  1.00  0.00    -0.248 NA
ATOM     69  C   UNL A   1      49.172  27.659  30.027  1.00  0.00     0.031 C 
ATOM     70  C   UNL A   1      43.675  29.054  29.517  1.00  0.00     0.029 A 
ATOM     71  C   UNL A   1      45.002  29.027  29.955  1.00  0.00     0.049 A 
ATOM     72  H   UNL A   1      45.617  28.156  31.771  1.00  0.00     0.167 HD
ATOM     73  C   UNL A   1      47.470  29.185  29.618  1.00  0.00     0.074 A 
ATOM     74  C   UNL A   1      48.000  28.124  30.472  1.00  0.00     0.031 C 
ATOM     75  C   UNL A   1      46.198  29.640  29.410  1.00  0.00     0.031 A 
BRANCH  62  76
ATOM     76  C   UNL A   1      44.698  25.392  32.436  1.00  0.00    -0.014 A 
ATOM     77  C   UNL A   1      43.750  25.226  33.461  1.00  0.00     0.010 A 
ATOM     78  C   UNL A   1      46.059  25.371  32.811  1.00  0.00     0.010 A 
ATOM     79  C   UNL A   1      44.146  25.142  34.801  1.00  0.00     0.020 A 
ATOM     80  C   UNL A   1      46.466  25.237  34.134  1.00  0.00     0.020 A 
ATOM     81  C   UNL A   1      45.503  25.170  35.127  1.00  0.00     0.054 A 
BRANCH  81  82
ATOM     82  S   UNL A   1      46.002  25.211  36.862  1.00  0.00     0.124 S 
ATOM     83  O   UNL A   1      46.954  24.108  36.921  1.00  0.00    -0.237 OA
ATOM     84  O   UNL A   1      46.567  26.550  36.988  1.00  0.00    -0.237 OA
ATOM     85  O   UNL A   1      44.748  24.998  37.581  1.00  0.00    -0.744 OA
ENDBRANCH  81  82
ENDBRANCH  62  76
BRANCH  63  86
ATOM     86  C   UNL A   1      51.464  27.590  27.601  1.00  0.00    -0.014 A 
ATOM     87  C   UNL A   1      51.980  26.283  27.652  1.00  0.00     0.010 A 
ATOM     88  C   UNL A   1      52.351  28.629  27.246  1.00  0.00     0.010 A 
ATOM     89  C   UNL A   1      53.316  26.019  27.305  1.00  0.00     0.020 A 
ATOM     90  C   UNL A   1      53.686  28.376  26.910  1.00  0.00     0.020 A 
ATOM     91  C   UNL A   1      54.156  27.066  26.917  1.00  0.00     0.054 A 
BRANCH  91  92
ATOM     92  S   UNL A   1      55.825  26.700  26.301  1.00  0.00     0.124 S 
ATOM     93  O   UNL A   1      55.750  27.151  24.915  1.00  0.00    -0.237 OA
ATOM     94  O   UNL A   1      56.671  27.500  27.181  1.00  0.00    -0.237 OA
ATOM     95  O   UNL A   1      55.948  25.253  26.478  1.00  0.00    -0.744 OA
ENDBRANCH  91  92
ENDBRANCH  63  86
BRANCH  75  96
ATOM     96  C   UNL A   1      45.979  30.695  28.350  1.00  0.00    -0.014 A 
ATOM     97  C   UNL A   1      45.893  30.408  26.974  1.00  0.00     0.010 A 
ATOM     98  C   UNL A   1      45.683  31.999  28.783  1.00  0.00     0.010 A 
ATOM     99  C   UNL A   1      45.538  31.408  26.055  1.00  0.00     0.020 A 
ATOM    100  C   UNL A   1      45.311  32.994  27.876  1.00  0.00     0.020 A 
ATOM    101  C   UNL A   1      45.246  32.696  26.514  1.00  0.00     0.054 A 
BRANCH 101 102
ATOM    102  S   UNL A   1      44.724  33.969  25.332  1.00  0.00     0.124 S 
ATOM    103  O   UNL A   1      44.152  33.178  24.245  1.00  0.00    -0.237 OA
ATOM    104  O   UNL A   1      43.768  34.760  26.105  1.00  0.00    -0.237 OA
ATOM    105  O   UNL A   1      45.965  34.668  25.001  1.00  0.00    -0.744 OA
ENDBRANCH 101 102
ENDBRANCH  75  96
ENDBRANCH  49  50
ENDBRANCH  42  44
ENDBRANCH  41  42
ENDBRANCH  40  41
ENDBRANCH  39  40
ENDBRANCH  38  39
ENDBRANCH  37  38
ENDBRANCH  36  37
ENDBRANCH  35  36
ENDBRANCH   1  35
TORSDOF 28
ENDMDL
MODEL 3
REMARK VINA RESULT:      -9.0      2.708      4.553
REMARK SMILES CC(C)OC(=O)c1c(NC(=O)[C@H]2[C@@H](C(=O)OCCOCCOCCOCCOC(=O)c3ccc(-c4c5nc(c(-c6ccc(S(=O)(=O)[O-])cc6)c6ccc([nH]6)c(-c6ccc(S(=O)(=O)[O-])cc6)c6nc(c(-c7ccc(S(=O)(=O)[O-])cc7)c7ccc4[nH]7)C=C6)C=C5)cc3)[C@@H]3C=C[C@H]2CC3)sc2c1CCC2
REMARK SMILES IDX 21 1 20 2 19 3 18 4 17 5 16 6 14 7 15 8 13 9 12 10 94 11
REMARK SMILES IDX 91 12 93 13 95 14 92 15 96 16 10 17 9 18 11 20 8 21 7 22
REMARK SMILES IDX 99 23 97 24 98 25 100 26 102 27 101 28 5 29 6 30 4 31 2 32
REMARK SMILES IDX 1 33 3 34 22 35 23 36 24 37 25 38 26 39 27 40 28 41 29 42
REMARK SMILES IDX 30 43 31 44 32 45 90 46 33 47 89 48 34 49 35 50 36 51 83 52
REMARK SMILES IDX 37 53 88 54 82 55 84 56 38 57 87 58 81 59 80 60 39 62 69 63
REMARK SMILES IDX 50 64 68 65 51 66 54 67 67 68 85 69 52 70 53 71 66 73 86 74
REMARK SMILES IDX 55 75 40 76 41 77 49 78 42 79 48 80 43 81 44 82 45 83 46 84
REMARK SMILES IDX 47 85 70 86 71 87 79 88 72 89 78 90 73 91 74 92 75 93 76 94
REMARK SMILES IDX 77 95 56 96 57 97 65 98 58 99 64 100 59 101 60 102 61 103
REMARK SMILES IDX 62 104 63 105
REMARK H PARENT 9 19 84 61 54 72
REMARK Flexibility Score: inf
ROOT
ATOM      1  C   UNL A   1      36.081  23.966  25.602  1.00  0.00     0.188 C 
ENDROOT
BRANCH   1   2
ATOM      2  C   UNL A   1      34.666  23.476  26.004  1.00  0.00     0.188 C 
BRANCH   2   3
ATOM      3  O   UNL A   1      33.658  24.476  25.949  1.00  0.00    -0.376 OA
BRANCH   3   4
ATOM      4  C   UNL A   1      32.998  24.706  24.720  1.00  0.00     0.202 C 
BRANCH   4   5
ATOM      5  C   UNL A   1      33.418  25.983  23.979  1.00  0.00     0.261 C 
BRANCH   5   6
ATOM      6  O   UNL A   1      33.191  27.186  24.726  1.00  0.00    -0.463 OA
BRANCH   6   7
ATOM      7  C   UNL A   1      33.773  28.308  24.218  1.00  0.00     0.310 C 
ATOM      8  O   UNL A   1      34.570  28.292  23.298  1.00  0.00    -0.252 OA
BRANCH   7   9
ATOM      9  C   UNL A   1      33.123  29.525  24.855  1.00  0.00     0.119 C 
ATOM     10  C   UNL A   1      33.582  29.969  26.271  1.00  0.00     0.100 C 
ATOM     11  C   UNL A   1      32.378  29.823  27.238  1.00  0.00     0.025 C 
ATOM     12  C   UNL A   1      31.575  29.437  24.796  1.00  0.00     0.026 C 
ATOM     13  C   UNL A   1      31.367  30.845  26.745  1.00  0.00    -0.027 C 
ATOM     14  C   UNL A   1      31.737  28.418  27.080  1.00  0.00     0.009 C 
ATOM     15  C   UNL A   1      30.990  30.673  25.466  1.00  0.00    -0.027 C 
ATOM     16  C   UNL A   1      31.146  28.242  25.663  1.00  0.00     0.009 C 
BRANCH  10  17
ATOM     17  C   UNL A   1      34.851  29.398  26.889  1.00  0.00     0.229 C 
ATOM     18  N   UNL A   1      35.768  30.187  27.531  1.00  0.00    -0.317 N 
ATOM     19  H   UNL A   1      36.708  29.972  27.329  1.00  0.00     0.170 HD
ATOM     20  O   UNL A   1      35.090  28.188  26.869  1.00  0.00    -0.274 OA
BRANCH  18  21
ATOM     21  C   UNL A   1      35.594  31.244  28.423  1.00  0.00     0.110 A 
ATOM     22  C   UNL A   1      35.977  31.240  29.772  1.00  0.00     0.098 A 
ATOM     23  C   UNL A   1      35.464  32.399  30.426  1.00  0.00    -0.017 A 
ATOM     24  S   UNL A   1      34.723  32.661  28.014  1.00  0.00    -0.122 S 
ATOM     25  C   UNL A   1      34.835  33.245  29.559  1.00  0.00     0.011 A 
ATOM     26  C   UNL A   1      35.427  32.956  31.805  1.00  0.00     0.038 C 
ATOM     27  C   UNL A   1      34.315  34.486  30.168  1.00  0.00     0.047 C 
ATOM     28  C   UNL A   1      34.355  34.091  31.671  1.00  0.00     0.010 C 
BRANCH  22  29
ATOM     29  C   UNL A   1      36.723  30.137  30.371  1.00  0.00     0.341 C 
ATOM     30  O   UNL A   1      36.205  29.328  31.122  1.00  0.00    -0.246 OA
BRANCH  29  31
ATOM     31  O   UNL A   1      38.050  30.181  30.060  1.00  0.00    -0.459 OA
BRANCH  31  32
ATOM     32  C   UNL A   1      38.926  31.076  30.783  1.00  0.00     0.170 C 
ATOM     33  C   UNL A   1      39.085  30.740  32.265  1.00  0.00     0.052 C 
ATOM     34  C   UNL A   1      40.259  31.225  30.062  1.00  0.00     0.052 C 
ENDBRANCH  31  32
ENDBRANCH  29  31
ENDBRANCH  22  29
ENDBRANCH  18  21
ENDBRANCH  10  17
ENDBRANCH   7   9
ENDBRANCH   6   7
ENDBRANCH   5   6
ENDBRANCH   4   5
ENDBRANCH   3   4
ENDBRANCH   2   3
ENDBRANCH   1   2
BRANCH   1  35
ATOM     35  O   UNL A   1      36.695  23.468  24.424  1.00  0.00    -0.377 OA
BRANCH  35  36
ATOM     36  C   UNL A   1      37.117  22.109  24.376  1.00  0.00     0.188 C 
BRANCH  36  37
ATOM     37  C   UNL A   1      37.946  21.459  25.520  1.00  0.00     0.188 C 
BRANCH  37  38
ATOM     38  O   UNL A   1      39.209  22.056  25.785  1.00  0.00    -0.376 OA
BRANCH  38  39
ATOM     39  C   UNL A   1      40.103  21.513  26.739  1.00  0.00     0.202 C 
BRANCH  39  40
ATOM     40  C   UNL A   1      41.507  21.178  26.239  1.00  0.00     0.261 C 
BRANCH  40  41
ATOM     41  O   UNL A   1      42.184  22.309  25.730  1.00  0.00    -0.460 OA
BRANCH  41  42
ATOM     42  C   UNL A   1      43.337  22.011  25.102  1.00  0.00     0.338 C 
ATOM     43  O   UNL A   1      43.760  20.903  24.827  1.00  0.00    -0.246 OA
BRANCH  42  44
ATOM     44  C   UNL A   1      44.049  23.263  24.838  1.00  0.00     0.060 A 
ATOM     45  C   UNL A   1      45.436  23.146  24.876  1.00  0.00     0.016 A 
ATOM     46  C   UNL A   1      43.368  24.457  25.106  1.00  0.00     0.016 A 
ATOM     47  C   UNL A   1      46.102  24.094  25.600  1.00  0.00     0.010 A 
ATOM     48  C   UNL A   1      44.026  25.386  25.858  1.00  0.00     0.010 A 
ATOM     49  C   UNL A   1      45.347  25.109  26.194  1.00  0.00    -0.014 A 
BRANCH  49  50
ATOM     50  C   UNL A   1      45.996  25.894  27.207  1.00  0.00     0.031 A 
ATOM     51  C   UNL A   1      45.404  25.677  28.530  1.00  0.00     0.074 A 
ATOM     52  C   UNL A   1      47.052  26.676  26.933  1.00  0.00     0.049 A 
ATOM     53  N   UNL A   1      44.627  26.476  29.179  1.00  0.00    -0.248 NA
ATOM     54  C   UNL A   1      45.494  24.318  29.082  1.00  0.00     0.031 C 
ATOM     55  C   UNL A   1      47.867  26.721  25.716  1.00  0.00     0.029 A 
ATOM     56  N   UNL A   1      47.697  27.522  27.772  1.00  0.00    -0.354 N 
ATOM     57  C   UNL A   1      44.319  25.796  30.346  1.00  0.00     0.074 A 
ATOM     58  C   UNL A   1      44.662  24.415  30.116  1.00  0.00     0.031 C 
ATOM     59  C   UNL A   1      49.031  27.354  25.996  1.00  0.00     0.029 A 
ATOM     60  C   UNL A   1      48.976  27.857  27.360  1.00  0.00     0.049 A 
ATOM     61  H   UNL A   1      47.293  27.868  28.600  1.00  0.00     0.167 HD
ATOM     62  C   UNL A   1      44.104  26.463  31.510  1.00  0.00     0.031 A 
ATOM     63  C   UNL A   1      49.938  28.403  28.145  1.00  0.00     0.031 A 
ATOM     64  C   UNL A   1      43.868  27.866  31.286  1.00  0.00     0.049 A 
ATOM     65  C   UNL A   1      49.258  28.993  29.331  1.00  0.00     0.074 A 
ATOM     66  C   UNL A   1      42.926  28.589  30.581  1.00  0.00     0.029 A 
ATOM     67  N   UNL A   1      44.925  28.721  31.507  1.00  0.00    -0.354 N 
ATOM     68  N   UNL A   1      48.459  30.022  29.264  1.00  0.00    -0.248 NA
ATOM     69  C   UNL A   1      49.096  28.166  30.520  1.00  0.00     0.031 C 
ATOM     70  C   UNL A   1      43.635  29.701  30.041  1.00  0.00     0.029 A 
ATOM     71  C   UNL A   1      44.959  29.630  30.482  1.00  0.00     0.049 A 
ATOM     72  H   UNL A   1      45.547  28.685  32.269  1.00  0.00     0.167 HD
ATOM     73  C   UNL A   1      47.431  29.743  30.157  1.00  0.00     0.074 A 
ATOM     74  C   UNL A   1      47.934  28.642  30.977  1.00  0.00     0.031 C 
ATOM     75  C   UNL A   1      46.171  30.232  29.961  1.00  0.00     0.031 A 
BRANCH  62  76
ATOM     76  C   UNL A   1      44.564  25.922  32.840  1.00  0.00    -0.014 A 
ATOM     77  C   UNL A   1      45.942  25.739  33.049  1.00  0.00     0.010 A 
ATOM     78  C   UNL A   1      43.689  25.324  33.774  1.00  0.00     0.010 A 
ATOM     79  C   UNL A   1      46.412  24.919  34.081  1.00  0.00     0.020 A 
ATOM     80  C   UNL A   1      44.146  24.548  34.833  1.00  0.00     0.020 A 
ATOM     81  C   UNL A   1      45.505  24.312  34.952  1.00  0.00     0.054 A 
BRANCH  81  82
ATOM     82  S   UNL A   1      46.105  23.140  36.187  1.00  0.00     0.124 S 
ATOM     83  O   UNL A   1      45.859  23.865  37.428  1.00  0.00    -0.237 OA
ATOM     84  O   UNL A   1      45.255  21.978  35.947  1.00  0.00    -0.237 OA
ATOM     85  O   UNL A   1      47.512  22.962  35.831  1.00  0.00    -0.744 OA
ENDBRANCH  81  82
ENDBRANCH  62  76
BRANCH  63  86
ATOM     86  C   UNL A   1      51.395  28.125  28.099  1.00  0.00    -0.014 A 
ATOM     87  C   UNL A   1      52.333  29.126  28.408  1.00  0.00     0.010 A 
ATOM     88  C   UNL A   1      51.864  26.797  28.005  1.00  0.00     0.010 A 
ATOM     89  C   UNL A   1      53.676  28.802  28.669  1.00  0.00     0.020 A 
ATOM     90  C   UNL A   1      53.201  26.467  28.253  1.00  0.00     0.020 A 
ATOM     91  C   UNL A   1      54.097  27.471  28.608  1.00  0.00     0.054 A 
BRANCH  91  92
ATOM     92  S   UNL A   1      55.786  27.039  29.118  1.00  0.00     0.124 S 
ATOM     93  O   UNL A   1      55.629  26.812  30.552  1.00  0.00    -0.237 OA
ATOM     94  O   UNL A   1      56.065  25.851  28.317  1.00  0.00    -0.237 OA
ATOM     95  O   UNL A   1      56.568  28.221  28.759  1.00  0.00    -0.744 OA
ENDBRANCH  91  92
ENDBRANCH  63  86
BRANCH  75  96
ATOM     96  C   UNL A   1      45.979  31.327  28.936  1.00  0.00    -0.014 A 
ATOM     97  C   UNL A   1      45.881  32.692  29.265  1.00  0.00     0.010 A 
ATOM     98  C   UNL A   1      46.072  30.969  27.580  1.00  0.00     0.010 A 
ATOM     99  C   UNL A   1      45.856  33.672  28.261  1.00  0.00     0.020 A 
ATOM    100  C   UNL A   1      46.067  31.940  26.575  1.00  0.00     0.020 A 
ATOM    101  C   UNL A   1      45.952  33.288  26.920  1.00  0.00     0.054 A 
BRANCH 101 102
ATOM    102  S   UNL A   1      45.987  34.560  25.626  1.00  0.00     0.124 S 
ATOM    103  O   UNL A   1      45.521  35.748  26.336  1.00  0.00    -0.237 OA
ATOM    104  O   UNL A   1      47.392  34.578  25.224  1.00  0.00    -0.237 OA
ATOM    105  O   UNL A   1      45.069  34.048  24.609  1.00  0.00    -0.744 OA
ENDBRANCH 101 102
ENDBRANCH  75  96
ENDBRANCH  49  50
ENDBRANCH  42  44
ENDBRANCH  41  42
ENDBRANCH  40  41
ENDBRANCH  39  40
ENDBRANCH  38  39
ENDBRANCH  37  38
ENDBRANCH  36  37
ENDBRANCH  35  36
ENDBRANCH   1  35
TORSDOF 28
ENDMDL
