MODEL 1
REMARK VINA RESULT:      -8.6      0.000      0.000
REMARK SMILES C[NH2+][C@]1(C(=O)OCCOCCOCCOCCOC(=O)c2ccc(-c3c4nc(c(-c5ccc(S(=O)(=O)[O-])cc5)c5ccc([nH]5)c(-c5ccc(S(=O)(=O)[O-])cc5)c5nc(c(-c6ccc(S(=O)(=O)[O-])cc6)c6ccc3[nH]6)C=C5)C=C4)cc2)CCC[C@H](Oc2ccc(C)cc2)C1
REMARK SMILES IDX 13 1 12 2 11 3 10 4 9 5 8 6 7 7 6 8 4 9 5 10 3 11 81 12
REMARK SMILES IDX 93 13 82 14 84 15 83 16 2 17 1 18 85 21 86 22 87 23 92 24
REMARK SMILES IDX 88 25 91 26 89 27 90 28 14 29 15 30 16 31 17 32 18 33 19 34
REMARK SMILES IDX 20 35 21 36 22 37 80 38 23 39 79 40 24 41 25 42 26 43 73 44
REMARK SMILES IDX 27 45 78 46 72 47 74 48 28 49 77 50 71 51 70 52 29 54 59 55
REMARK SMILES IDX 40 56 58 57 41 58 44 59 57 60 75 61 42 62 43 63 56 65 76 66
REMARK SMILES IDX 45 67 30 68 31 69 39 70 32 71 38 72 33 73 34 74 35 75 36 76
REMARK SMILES IDX 37 77 60 78 61 79 69 80 62 81 68 82 63 83 64 84 65 85 66 86
REMARK SMILES IDX 67 87 46 88 47 89 55 90 48 91 54 92 49 93 50 94 51 95 52 96
REMARK SMILES IDX 53 97
REMARK H PARENT 2 19 2 20 74 53 44 64
REMARK Flexibility Score: inf
ROOT
ATOM      1  C   UNL A   1      35.629  22.530  24.424  1.00  0.00     0.188 C 
ENDROOT
BRANCH   1   2
ATOM      2  O   UNL A   1      34.808  22.777  23.291  1.00  0.00    -0.377 OA
BRANCH   2   3
ATOM      3  C   UNL A   1      33.446  22.413  23.350  1.00  0.00     0.188 C 
BRANCH   3   4
ATOM      4  C   UNL A   1      33.119  21.081  24.027  1.00  0.00     0.188 C 
BRANCH   4   5
ATOM      5  O   UNL A   1      32.818  21.053  25.406  1.00  0.00    -0.376 OA
BRANCH   5   6
ATOM      6  C   UNL A   1      32.109  22.112  26.032  1.00  0.00     0.202 C 
BRANCH   6   7
ATOM      7  C   UNL A   1      30.716  22.638  25.627  1.00  0.00     0.261 C 
BRANCH   7   8
ATOM      8  O   UNL A   1      30.641  23.875  24.907  1.00  0.00    -0.459 OA
BRANCH   8   9
ATOM      9  C   UNL A   1      30.635  24.989  25.674  1.00  0.00     0.368 C 
ATOM     10  O   UNL A   1      30.119  25.039  26.791  1.00  0.00    -0.245 OA
BRANCH   9  11
ATOM     11  C   UNL A   1      31.373  26.220  25.042  1.00  0.00     0.197 C 
ATOM     12  C   UNL A   1      30.810  26.809  23.718  1.00  0.00     0.081 C 
ATOM     13  C   UNL A   1      31.136  27.308  26.145  1.00  0.00     0.126 C 
ATOM     14  C   UNL A   1      31.454  28.155  23.377  1.00  0.00     0.011 C 
ATOM     15  C   UNL A   1      31.603  28.740  25.832  1.00  0.00     0.180 C 
ATOM     16  C   UNL A   1      31.105  29.169  24.446  1.00  0.00     0.046 C 
BRANCH  11  17
ATOM     17  N   UNL A   1      32.714  25.673  24.715  1.00  0.00    -0.334 N 
ATOM     18  C   UNL A   1      33.690  25.441  25.740  1.00  0.00     0.331 C 
ATOM     19  H   UNL A   1      32.557  24.776  24.255  1.00  0.00     0.347 HD
ATOM     20  H   UNL A   1      33.136  26.427  24.172  1.00  0.00     0.347 HD
ENDBRANCH  11  17
BRANCH  15  21
ATOM     21  O   UNL A   1      33.015  28.691  25.997  1.00  0.00    -0.490 OA
BRANCH  21  22
ATOM     22  C   UNL A   1      33.718  29.591  26.721  1.00  0.00     0.119 A 
ATOM     23  C   UNL A   1      33.279  30.825  27.172  1.00  0.00     0.047 A 
ATOM     24  C   UNL A   1      35.032  29.191  26.977  1.00  0.00     0.047 A 
ATOM     25  C   UNL A   1      34.186  31.700  27.776  1.00  0.00     0.007 A 
ATOM     26  C   UNL A   1      35.936  30.051  27.585  1.00  0.00     0.007 A 
ATOM     27  C   UNL A   1      35.523  31.325  27.971  1.00  0.00    -0.051 A 
ATOM     28  C   UNL A   1      36.498  32.284  28.577  1.00  0.00     0.044 C 
ENDBRANCH  21  22
ENDBRANCH  15  21
ENDBRANCH   9  11
ENDBRANCH   8   9
ENDBRANCH   7   8
ENDBRANCH   6   7
ENDBRANCH   5   6
ENDBRANCH   4   5
ENDBRANCH   3   4
ENDBRANCH   2   3
ENDBRANCH   1   2
BRANCH   1  29
ATOM     29  C   UNL A   1      37.009  21.865  24.245  1.00  0.00     0.188 C 
BRANCH  29  30
ATOM     30  O   UNL A   1      37.521  21.215  25.399  1.00  0.00    -0.376 OA
BRANCH  30  31
ATOM     31  C   UNL A   1      38.825  20.657  25.366  1.00  0.00     0.202 C 
BRANCH  31  32
ATOM     32  C   UNL A   1      39.826  21.031  26.474  1.00  0.00     0.261 C 
BRANCH  32  33
ATOM     33  O   UNL A   1      40.925  20.132  26.685  1.00  0.00    -0.460 OA
BRANCH  33  34
ATOM     34  C   UNL A   1      42.109  20.430  26.116  1.00  0.00     0.338 C 
ATOM     35  O   UNL A   1      42.685  19.798  25.243  1.00  0.00    -0.246 OA
BRANCH  34  36
ATOM     36  C   UNL A   1      42.505  21.776  26.578  1.00  0.00     0.060 A 
ATOM     37  C   UNL A   1      42.559  22.822  25.648  1.00  0.00     0.016 A 
ATOM     38  C   UNL A   1      42.818  22.004  27.920  1.00  0.00     0.016 A 
ATOM     39  C   UNL A   1      42.966  24.093  26.049  1.00  0.00     0.010 A 
ATOM     40  C   UNL A   1      43.251  23.272  28.315  1.00  0.00     0.010 A 
ATOM     41  C   UNL A   1      43.364  24.311  27.373  1.00  0.00    -0.014 A 
BRANCH  41  42
ATOM     42  C   UNL A   1      44.102  25.551  27.718  1.00  0.00     0.031 A 
ATOM     43  C   UNL A   1      43.372  26.619  28.487  1.00  0.00     0.074 A 
ATOM     44  C   UNL A   1      45.395  25.715  27.389  1.00  0.00     0.049 A 
ATOM     45  N   UNL A   1      43.784  27.800  28.863  1.00  0.00    -0.248 NA
ATOM     46  C   UNL A   1      41.986  26.310  28.883  1.00  0.00     0.031 C 
ATOM     47  C   UNL A   1      46.226  24.730  26.698  1.00  0.00     0.029 A 
ATOM     48  N   UNL A   1      46.234  26.782  27.593  1.00  0.00    -0.354 N 
ATOM     49  C   UNL A   1      42.710  28.380  29.529  1.00  0.00     0.074 A 
ATOM     50  C   UNL A   1      41.618  27.434  29.478  1.00  0.00     0.031 C 
ATOM     51  C   UNL A   1      47.456  25.246  26.524  1.00  0.00     0.029 A 
ATOM     52  C   UNL A   1      47.488  26.608  27.055  1.00  0.00     0.049 A 
ATOM     53  H   UNL A   1      45.965  27.595  28.078  1.00  0.00     0.167 HD
ATOM     54  C   UNL A   1      42.641  29.589  30.133  1.00  0.00     0.031 A 
ATOM     55  C   UNL A   1      48.529  27.461  26.979  1.00  0.00     0.031 A 
ATOM     56  C   UNL A   1      43.725  30.533  30.165  1.00  0.00     0.049 A 
ATOM     57  C   UNL A   1      48.400  28.838  27.580  1.00  0.00     0.074 A 
ATOM     58  C   UNL A   1      43.758  31.784  30.755  1.00  0.00     0.029 A 
ATOM     59  N   UNL A   1      44.964  30.336  29.573  1.00  0.00    -0.354 N 
ATOM     60  N   UNL A   1      47.385  29.367  28.222  1.00  0.00    -0.248 NA
ATOM     61  C   UNL A   1      49.562  29.730  27.456  1.00  0.00     0.031 C 
ATOM     62  C   UNL A   1      44.993  32.371  30.462  1.00  0.00     0.029 A 
ATOM     63  C   UNL A   1      45.759  31.455  29.758  1.00  0.00     0.049 A 
ATOM     64  H   UNL A   1      45.238  29.521  29.094  1.00  0.00     0.167 HD
ATOM     65  C   UNL A   1      47.798  30.641  28.603  1.00  0.00     0.074 A 
ATOM     66  C   UNL A   1      49.160  30.795  28.135  1.00  0.00     0.031 C 
ATOM     67  C   UNL A   1      47.114  31.594  29.285  1.00  0.00     0.031 A 
BRANCH  54  68
ATOM     68  C   UNL A   1      41.332  29.972  30.774  1.00  0.00    -0.014 A 
ATOM     69  C   UNL A   1      40.957  29.471  32.033  1.00  0.00     0.010 A 
ATOM     70  C   UNL A   1      40.477  30.877  30.116  1.00  0.00     0.010 A 
ATOM     71  C   UNL A   1      39.735  29.837  32.605  1.00  0.00     0.020 A 
ATOM     72  C   UNL A   1      39.270  31.270  30.699  1.00  0.00     0.020 A 
ATOM     73  C   UNL A   1      38.899  30.734  31.934  1.00  0.00     0.054 A 
BRANCH  73  74
ATOM     74  S   UNL A   1      37.332  31.209  32.712  1.00  0.00     0.124 S 
ATOM     75  O   UNL A   1      37.748  31.489  34.083  1.00  0.00    -0.237 OA
ATOM     76  O   UNL A   1      36.926  32.373  31.928  1.00  0.00    -0.237 OA
ATOM     77  O   UNL A   1      36.489  30.027  32.548  1.00  0.00    -0.744 OA
ENDBRANCH  73  74
ENDBRANCH  54  68
BRANCH  55  78
ATOM     78  C   UNL A   1      49.779  27.049  26.279  1.00  0.00    -0.014 A 
ATOM     79  C   UNL A   1      50.829  26.429  26.978  1.00  0.00     0.010 A 
ATOM     80  C   UNL A   1      49.927  27.287  24.899  1.00  0.00     0.010 A 
ATOM     81  C   UNL A   1      52.008  26.068  26.316  1.00  0.00     0.020 A 
ATOM     82  C   UNL A   1      51.090  26.899  24.228  1.00  0.00     0.020 A 
ATOM     83  C   UNL A   1      52.127  26.302  24.943  1.00  0.00     0.054 A 
BRANCH  83  84
ATOM     84  S   UNL A   1      53.644  25.778  24.096  1.00  0.00     0.124 S 
ATOM     85  O   UNL A   1      54.627  26.721  24.618  1.00  0.00    -0.237 OA
ATOM     86  O   UNL A   1      53.791  24.395  24.545  1.00  0.00    -0.237 OA
ATOM     87  O   UNL A   1      53.316  25.934  22.680  1.00  0.00    -0.744 OA
ENDBRANCH  83  84
ENDBRANCH  55  78
BRANCH  67  88
ATOM     88  C   UNL A   1      47.836  32.878  29.608  1.00  0.00    -0.014 A 
ATOM     89  C   UNL A   1      47.878  33.948  28.696  1.00  0.00     0.010 A 
ATOM     90  C   UNL A   1      48.430  33.036  30.874  1.00  0.00     0.010 A 
ATOM     91  C   UNL A   1      48.529  35.138  29.035  1.00  0.00     0.020 A 
ATOM     92  C   UNL A   1      49.052  34.236  31.228  1.00  0.00     0.020 A 
ATOM     93  C   UNL A   1      49.110  35.275  30.299  1.00  0.00     0.054 A 
BRANCH  93  94
ATOM     94  S   UNL A   1      49.910  36.847  30.727  1.00  0.00     0.124 S 
ATOM     95  O   UNL A   1      49.980  36.766  32.183  1.00  0.00    -0.237 OA
ATOM     96  O   UNL A   1      51.189  36.753  30.028  1.00  0.00    -0.237 OA
ATOM     97  O   UNL A   1      48.994  37.857  30.202  1.00  0.00    -0.744 OA
ENDBRANCH  93  94
ENDBRANCH  67  88
ENDBRANCH  41  42
ENDBRANCH  34  36
ENDBRANCH  33  34
ENDBRANCH  32  33
ENDBRANCH  31  32
ENDBRANCH  30  31
ENDBRANCH  29  30
ENDBRANCH   1  29
TORSDOF 26
ENDMDL
MODEL 2
REMARK VINA RESULT:      -8.3      2.284      3.625
REMARK SMILES C[NH2+][C@]1(C(=O)OCCOCCOCCOCCOC(=O)c2ccc(-c3c4nc(c(-c5ccc(S(=O)(=O)[O-])cc5)c5ccc([nH]5)c(-c5ccc(S(=O)(=O)[O-])cc5)c5nc(c(-c6ccc(S(=O)(=O)[O-])cc6)c6ccc3[nH]6)C=C5)C=C4)cc2)CCC[C@H](Oc2ccc(C)cc2)C1
REMARK SMILES IDX 13 1 12 2 11 3 10 4 9 5 8 6 7 7 6 8 4 9 5 10 3 11 81 12
REMARK SMILES IDX 93 13 82 14 84 15 83 16 2 17 1 18 85 21 86 22 87 23 92 24
REMARK SMILES IDX 88 25 91 26 89 27 90 28 14 29 15 30 16 31 17 32 18 33 19 34
REMARK SMILES IDX 20 35 21 36 22 37 80 38 23 39 79 40 24 41 25 42 26 43 73 44
REMARK SMILES IDX 27 45 78 46 72 47 74 48 28 49 77 50 71 51 70 52 29 54 59 55
REMARK SMILES IDX 40 56 58 57 41 58 44 59 57 60 75 61 42 62 43 63 56 65 76 66
REMARK SMILES IDX 45 67 30 68 31 69 39 70 32 71 38 72 33 73 34 74 35 75 36 76
REMARK SMILES IDX 37 77 60 78 61 79 69 80 62 81 68 82 63 83 64 84 65 85 66 86
REMARK SMILES IDX 67 87 46 88 47 89 55 90 48 91 54 92 49 93 50 94 51 95 52 96
REMARK SMILES IDX 53 97
REMARK H PARENT 2 19 2 20 74 53 44 64
REMARK Flexibility Score: inf
ROOT
ATOM      1  C   UNL A   1      35.450  23.294  23.854  1.00  0.00     0.188 C 
ENDROOT
BRANCH   1   2
ATOM      2  O   UNL A   1      34.861  23.277  22.561  1.00  0.00    -0.377 OA
BRANCH   2   3
ATOM      3  C   UNL A   1      33.478  23.533  22.444  1.00  0.00     0.188 C 
BRANCH   3   4
ATOM      4  C   UNL A   1      32.549  22.319  22.494  1.00  0.00     0.188 C 
BRANCH   4   5
ATOM      5  O   UNL A   1      32.664  21.393  23.553  1.00  0.00    -0.376 OA
BRANCH   5   6
ATOM      6  C   UNL A   1      32.229  21.711  24.867  1.00  0.00     0.202 C 
BRANCH   6   7
ATOM      7  C   UNL A   1      30.932  22.461  25.239  1.00  0.00     0.261 C 
BRANCH   7   8
ATOM      8  O   UNL A   1      30.906  23.886  25.087  1.00  0.00    -0.459 OA
BRANCH   8   9
ATOM      9  C   UNL A   1      31.250  24.590  26.190  1.00  0.00     0.368 C 
ATOM     10  O   UNL A   1      31.169  24.139  27.333  1.00  0.00    -0.245 OA
BRANCH   9  11
ATOM     11  C   UNL A   1      31.801  26.029  25.899  1.00  0.00     0.197 C 
ATOM     12  C   UNL A   1      33.342  26.216  25.804  1.00  0.00     0.081 C 
ATOM     13  C   UNL A   1      31.238  26.279  24.458  1.00  0.00     0.126 C 
ATOM     14  C   UNL A   1      33.713  27.592  25.248  1.00  0.00     0.011 C 
ATOM     15  C   UNL A   1      31.683  27.565  23.741  1.00  0.00     0.180 C 
ATOM     16  C   UNL A   1      33.207  27.717  23.827  1.00  0.00     0.046 C 
BRANCH  11  17
ATOM     17  N   UNL A   1      31.363  26.802  27.089  1.00  0.00    -0.334 N 
ATOM     18  C   UNL A   1      31.957  28.067  27.411  1.00  0.00     0.331 C 
ATOM     19  H   UNL A   1      30.364  26.971  26.971  1.00  0.00     0.347 HD
ATOM     20  H   UNL A   1      31.665  26.210  27.862  1.00  0.00     0.347 HD
ENDBRANCH  11  17
BRANCH  15  21
ATOM     21  O   UNL A   1      30.920  28.593  24.361  1.00  0.00    -0.490 OA
BRANCH  21  22
ATOM     22  C   UNL A   1      30.279  29.568  23.677  1.00  0.00     0.119 A 
ATOM     23  C   UNL A   1      29.619  30.663  24.209  1.00  0.00     0.047 A 
ATOM     24  C   UNL A   1      30.288  29.372  22.294  1.00  0.00     0.047 A 
ATOM     25  C   UNL A   1      28.875  31.493  23.365  1.00  0.00     0.007 A 
ATOM     26  C   UNL A   1      29.559  30.197  21.450  1.00  0.00     0.007 A 
ATOM     27  C   UNL A   1      28.827  31.256  21.985  1.00  0.00    -0.051 A 
ATOM     28  C   UNL A   1      27.992  32.123  21.095  1.00  0.00     0.044 C 
ENDBRANCH  21  22
ENDBRANCH  15  21
ENDBRANCH   9  11
ENDBRANCH   8   9
ENDBRANCH   7   8
ENDBRANCH   6   7
ENDBRANCH   5   6
ENDBRANCH   4   5
ENDBRANCH   3   4
ENDBRANCH   2   3
ENDBRANCH   1   2
BRANCH   1  29
ATOM     29  C   UNL A   1      36.812  22.608  24.089  1.00  0.00     0.188 C 
BRANCH  29  30
ATOM     30  O   UNL A   1      37.131  22.347  25.447  1.00  0.00    -0.376 OA
BRANCH  30  31
ATOM     31  C   UNL A   1      38.396  21.793  25.774  1.00  0.00     0.202 C 
BRANCH  31  32
ATOM     32  C   UNL A   1      39.256  22.480  26.850  1.00  0.00     0.261 C 
BRANCH  32  33
ATOM     33  O   UNL A   1      40.575  21.953  27.059  1.00  0.00    -0.460 OA
BRANCH  33  34
ATOM     34  C   UNL A   1      41.601  22.525  26.400  1.00  0.00     0.338 C 
ATOM     35  O   UNL A   1      42.152  22.107  25.393  1.00  0.00    -0.246 OA
BRANCH  34  36
ATOM     36  C   UNL A   1      41.819  23.865  26.981  1.00  0.00     0.060 A 
ATOM     37  C   UNL A   1      41.646  24.993  26.168  1.00  0.00     0.016 A 
ATOM     38  C   UNL A   1      42.188  24.008  28.321  1.00  0.00     0.016 A 
ATOM     39  C   UNL A   1      41.881  26.267  26.680  1.00  0.00     0.010 A 
ATOM     40  C   UNL A   1      42.449  25.285  28.826  1.00  0.00     0.010 A 
ATOM     41  C   UNL A   1      42.334  26.415  27.996  1.00  0.00    -0.014 A 
BRANCH  41  42
ATOM     42  C   UNL A   1      42.897  27.717  28.431  1.00  0.00     0.031 A 
ATOM     43  C   UNL A   1      41.944  28.768  28.932  1.00  0.00     0.074 A 
ATOM     44  C   UNL A   1      44.221  27.953  28.414  1.00  0.00     0.049 A 
ATOM     45  N   UNL A   1      42.187  29.992  29.322  1.00  0.00    -0.248 NA
ATOM     46  C   UNL A   1      40.523  28.385  29.000  1.00  0.00     0.031 C 
ATOM     47  C   UNL A   1      45.248  26.995  28.008  1.00  0.00     0.029 A 
ATOM     48  N   UNL A   1      44.926  29.083  28.748  1.00  0.00    -0.354 N 
ATOM     49  C   UNL A   1      40.953  30.528  29.671  1.00  0.00     0.074 A 
ATOM     50  C   UNL A   1      39.959  29.509  29.417  1.00  0.00     0.031 C 
ATOM     51  C   UNL A   1      46.453  27.584  28.104  1.00  0.00     0.029 A 
ATOM     52  C   UNL A   1      46.280  28.968  28.542  1.00  0.00     0.049 A 
ATOM     53  H   UNL A   1      44.501  29.897  29.102  1.00  0.00     0.167 HD
ATOM     54  C   UNL A   1      40.673  31.757  30.164  1.00  0.00     0.031 A 
ATOM     55  C   UNL A   1      47.261  29.885  28.666  1.00  0.00     0.031 A 
ATOM     56  C   UNL A   1      41.663  32.773  30.397  1.00  0.00     0.049 A 
ATOM     57  C   UNL A   1      46.914  31.277  29.131  1.00  0.00     0.074 A 
ATOM     58  C   UNL A   1      41.482  34.050  30.899  1.00  0.00     0.029 A 
ATOM     59  N   UNL A   1      43.018  32.632  30.136  1.00  0.00    -0.354 N 
ATOM     60  N   UNL A   1      45.745  31.766  29.474  1.00  0.00    -0.248 NA
ATOM     61  C   UNL A   1      48.020  32.239  29.235  1.00  0.00     0.031 C 
ATOM     62  C   UNL A   1      42.718  34.704  30.877  1.00  0.00     0.029 A 
ATOM     63  C   UNL A   1      43.681  33.810  30.437  1.00  0.00     0.049 A 
ATOM     64  H   UNL A   1      43.445  31.816  29.789  1.00  0.00     0.167 HD
ATOM     65  C   UNL A   1      45.982  33.082  29.863  1.00  0.00     0.074 A 
ATOM     66  C   UNL A   1      47.407  33.306  29.729  1.00  0.00     0.031 C 
ATOM     67  C   UNL A   1      45.101  34.018  30.298  1.00  0.00     0.031 A 
BRANCH  54  68
ATOM     68  C   UNL A   1      39.228  32.081  30.444  1.00  0.00    -0.014 A 
ATOM     69  C   UNL A   1      38.646  31.815  31.696  1.00  0.00     0.010 A 
ATOM     70  C   UNL A   1      38.448  32.692  29.444  1.00  0.00     0.010 A 
ATOM     71  C   UNL A   1      37.301  32.119  31.930  1.00  0.00     0.020 A 
ATOM     72  C   UNL A   1      37.113  33.027  29.685  1.00  0.00     0.020 A 
ATOM     73  C   UNL A   1      36.543  32.723  30.923  1.00  0.00     0.054 A 
BRANCH  73  74
ATOM     74  S   UNL A   1      34.810  33.129  31.265  1.00  0.00     0.124 S 
ATOM     75  O   UNL A   1      34.600  32.489  32.561  1.00  0.00    -0.237 OA
ATOM     76  O   UNL A   1      34.821  34.589  31.279  1.00  0.00    -0.237 OA
ATOM     77  O   UNL A   1      34.084  32.525  30.150  1.00  0.00    -0.744 OA
ENDBRANCH  73  74
ENDBRANCH  54  68
BRANCH  55  78
ATOM     78  C   UNL A   1      48.665  29.526  28.316  1.00  0.00    -0.014 A 
ATOM     79  C   UNL A   1      49.541  29.006  29.284  1.00  0.00     0.010 A 
ATOM     80  C   UNL A   1      49.135  29.715  27.003  1.00  0.00     0.010 A 
ATOM     81  C   UNL A   1      50.864  28.695  28.950  1.00  0.00     0.020 A 
ATOM     82  C   UNL A   1      50.446  29.375  26.657  1.00  0.00     0.020 A 
ATOM     83  C   UNL A   1      51.305  28.878  27.637  1.00  0.00     0.054 A 
BRANCH  83  84
ATOM     84  S   UNL A   1      53.009  28.418  27.216  1.00  0.00     0.124 S 
ATOM     85  O   UNL A   1      52.806  27.342  26.252  1.00  0.00    -0.237 OA
ATOM     86  O   UNL A   1      53.544  29.664  26.671  1.00  0.00    -0.237 OA
ATOM     87  O   UNL A   1      53.581  28.011  28.498  1.00  0.00    -0.744 OA
ENDBRANCH  83  84
ENDBRANCH  55  78
BRANCH  67  88
ATOM     88  C   UNL A   1      45.652  35.362  30.705  1.00  0.00    -0.014 A 
ATOM     89  C   UNL A   1      45.742  36.427  29.792  1.00  0.00     0.010 A 
ATOM     90  C   UNL A   1      46.026  35.577  32.045  1.00  0.00     0.010 A 
ATOM     91  C   UNL A   1      46.228  37.672  30.204  1.00  0.00     0.020 A 
ATOM     92  C   UNL A   1      46.481  36.828  32.468  1.00  0.00     0.020 A 
ATOM     93  C   UNL A   1      46.592  37.865  31.541  1.00  0.00     0.054 A 
BRANCH  93  94
ATOM     94  S   UNL A   1      47.178  39.502  32.058  1.00  0.00     0.124 S 
ATOM     95  O   UNL A   1      45.965  40.307  31.953  1.00  0.00    -0.237 OA
ATOM     96  O   UNL A   1      47.655  39.255  33.416  1.00  0.00    -0.237 OA
ATOM     97  O   UNL A   1      48.222  39.820  31.086  1.00  0.00    -0.744 OA
ENDBRANCH  93  94
ENDBRANCH  67  88
ENDBRANCH  41  42
ENDBRANCH  34  36
ENDBRANCH  33  34
ENDBRANCH  32  33
ENDBRANCH  31  32
ENDBRANCH  30  31
ENDBRANCH  29  30
ENDBRANCH   1  29
TORSDOF 26
ENDMDL
MODEL 3
REMARK VINA RESULT:      -8.0      4.693      9.321
REMARK SMILES C[NH2+][C@]1(C(=O)OCCOCCOCCOCCOC(=O)c2ccc(-c3c4nc(c(-c5ccc(S(=O)(=O)[O-])cc5)c5ccc([nH]5)c(-c5ccc(S(=O)(=O)[O-])cc5)c5nc(c(-c6ccc(S(=O)(=O)[O-])cc6)c6ccc3[nH]6)C=C5)C=C4)cc2)CCC[C@H](Oc2ccc(C)cc2)C1
REMARK SMILES IDX 13 1 12 2 11 3 10 4 9 5 8 6 7 7 6 8 4 9 5 10 3 11 81 12
REMARK SMILES IDX 93 13 82 14 84 15 83 16 2 17 1 18 85 21 86 22 87 23 92 24
REMARK SMILES IDX 88 25 91 26 89 27 90 28 14 29 15 30 16 31 17 32 18 33 19 34
REMARK SMILES IDX 20 35 21 36 22 37 80 38 23 39 79 40 24 41 25 42 26 43 73 44
REMARK SMILES IDX 27 45 78 46 72 47 74 48 28 49 77 50 71 51 70 52 29 54 59 55
REMARK SMILES IDX 40 56 58 57 41 58 44 59 57 60 75 61 42 62 43 63 56 65 76 66
REMARK SMILES IDX 45 67 30 68 31 69 39 70 32 71 38 72 33 73 34 74 35 75 36 76
REMARK SMILES IDX 37 77 60 78 61 79 69 80 62 81 68 82 63 83 64 84 65 85 66 86
REMARK SMILES IDX 67 87 46 88 47 89 55 90 48 91 54 92 49 93 50 94 51 95 52 96
REMARK SMILES IDX 53 97
REMARK H PARENT 2 19 2 20 74 53 44 64
REMARK Flexibility Score: inf
ROOT
ATOM      1  C   UNL A   1      42.147  19.199  26.378  1.00  0.00     0.188 C 
ENDROOT
BRANCH   1   2
ATOM      2  O   UNL A   1      41.417  20.308  25.870  1.00  0.00    -0.377 OA
BRANCH   2   3
ATOM      3  C   UNL A   1      40.630  21.066  26.763  1.00  0.00     0.188 C 
BRANCH   3   4
ATOM      4  C   UNL A   1      40.343  22.515  26.365  1.00  0.00     0.188 C 
BRANCH   4   5
ATOM      5  O   UNL A   1      39.685  23.373  27.274  1.00  0.00    -0.376 OA
BRANCH   5   6
ATOM      6  C   UNL A   1      38.331  23.754  27.085  1.00  0.00     0.202 C 
BRANCH   6   7
ATOM      7  C   UNL A   1      37.624  23.955  25.728  1.00  0.00     0.261 C 
BRANCH   7   8
ATOM      8  O   UNL A   1      36.193  24.043  25.715  1.00  0.00    -0.459 OA
BRANCH   8   9
ATOM      9  C   UNL A   1      35.557  23.008  25.119  1.00  0.00     0.368 C 
ATOM     10  O   UNL A   1      36.147  22.062  24.596  1.00  0.00    -0.245 OA
BRANCH   9  11
ATOM     11  C   UNL A   1      33.992  23.086  25.174  1.00  0.00     0.197 C 
ATOM     12  C   UNL A   1      33.252  22.184  26.200  1.00  0.00     0.081 C 
ATOM     13  C   UNL A   1      33.784  24.563  25.656  1.00  0.00     0.126 C 
ATOM     14  C   UNL A   1      31.776  22.566  26.331  1.00  0.00     0.011 C 
ATOM     15  C   UNL A   1      32.345  25.004  25.974  1.00  0.00     0.180 C 
ATOM     16  C   UNL A   1      31.664  23.972  26.883  1.00  0.00     0.046 C 
BRANCH  11  17
ATOM     17  N   UNL A   1      33.585  22.606  23.830  1.00  0.00    -0.334 N 
ATOM     18  C   UNL A   1      32.526  21.652  23.673  1.00  0.00     0.331 C 
ATOM     19  H   UNL A   1      33.314  23.431  23.297  1.00  0.00     0.347 HD
ATOM     20  H   UNL A   1      34.405  22.081  23.524  1.00  0.00     0.347 HD
ENDBRANCH  11  17
BRANCH  15  21
ATOM     21  O   UNL A   1      31.748  25.197  24.698  1.00  0.00    -0.490 OA
BRANCH  21  22
ATOM     22  C   UNL A   1      31.046  26.301  24.356  1.00  0.00     0.119 A 
ATOM     23  C   UNL A   1      29.761  26.348  23.842  1.00  0.00     0.047 A 
ATOM     24  C   UNL A   1      31.763  27.488  24.529  1.00  0.00     0.047 A 
ATOM     25  C   UNL A   1      29.242  27.567  23.398  1.00  0.00     0.007 A 
ATOM     26  C   UNL A   1      31.250  28.703  24.098  1.00  0.00     0.007 A 
ATOM     27  C   UNL A   1      29.989  28.747  23.507  1.00  0.00    -0.051 A 
ATOM     28  C   UNL A   1      29.443  30.040  22.988  1.00  0.00     0.044 C 
ENDBRANCH  21  22
ENDBRANCH  15  21
ENDBRANCH   9  11
ENDBRANCH   8   9
ENDBRANCH   7   8
ENDBRANCH   6   7
ENDBRANCH   5   6
ENDBRANCH   4   5
ENDBRANCH   3   4
ENDBRANCH   2   3
ENDBRANCH   1   2
BRANCH   1  29
ATOM     29  C   UNL A   1      43.497  18.808  25.741  1.00  0.00     0.188 C 
BRANCH  29  30
ATOM     30  O   UNL A   1      43.782  19.435  24.500  1.00  0.00    -0.376 OA
BRANCH  30  31
ATOM     31  C   UNL A   1      45.050  20.038  24.298  1.00  0.00     0.202 C 
BRANCH  31  32
ATOM     32  C   UNL A   1      45.488  21.185  25.226  1.00  0.00     0.261 C 
BRANCH  32  33
ATOM     33  O   UNL A   1      45.279  22.523  24.748  1.00  0.00    -0.460 OA
BRANCH  33  34
ATOM     34  C   UNL A   1      44.070  23.085  24.941  1.00  0.00     0.338 C 
ATOM     35  O   UNL A   1      43.028  22.806  24.367  1.00  0.00    -0.246 OA
BRANCH  34  36
ATOM     36  C   UNL A   1      44.166  23.966  26.123  1.00  0.00     0.060 A 
ATOM     37  C   UNL A   1      43.642  23.520  27.344  1.00  0.00     0.016 A 
ATOM     38  C   UNL A   1      44.773  25.220  26.029  1.00  0.00     0.016 A 
ATOM     39  C   UNL A   1      43.686  24.345  28.465  1.00  0.00     0.010 A 
ATOM     40  C   UNL A   1      44.792  26.057  27.148  1.00  0.00     0.010 A 
ATOM     41  C   UNL A   1      44.214  25.637  28.360  1.00  0.00    -0.014 A 
BRANCH  41  42
ATOM     42  C   UNL A   1      43.961  26.619  29.442  1.00  0.00     0.031 A 
ATOM     43  C   UNL A   1      44.968  26.719  30.556  1.00  0.00     0.074 A 
ATOM     44  C   UNL A   1      42.885  27.424  29.426  1.00  0.00     0.049 A 
ATOM     45  N   UNL A   1      44.947  27.463  31.630  1.00  0.00    -0.248 NA
ATOM     46  C   UNL A   1      46.161  25.861  30.441  1.00  0.00     0.031 C 
ATOM     47  C   UNL A   1      41.871  27.464  28.373  1.00  0.00     0.029 A 
ATOM     48  N   UNL A   1      42.467  28.367  30.332  1.00  0.00    -0.354 N 
ATOM     49  C   UNL A   1      46.113  27.157  32.323  1.00  0.00     0.074 A 
ATOM     50  C   UNL A   1      46.804  26.137  31.565  1.00  0.00     0.031 C 
ATOM     51  C   UNL A   1      40.939  28.376  28.701  1.00  0.00     0.029 A 
ATOM     52  C   UNL A   1      41.270  28.956  30.002  1.00  0.00     0.049 A 
ATOM     53  H   UNL A   1      42.977  28.599  31.142  1.00  0.00     0.167 HD
ATOM     54  C   UNL A   1      46.571  27.681  33.484  1.00  0.00     0.031 A 
ATOM     55  C   UNL A   1      40.517  29.842  30.685  1.00  0.00     0.031 A 
ATOM     56  C   UNL A   1      45.871  28.681  34.244  1.00  0.00     0.049 A 
ATOM     57  C   UNL A   1      41.003  30.347  32.021  1.00  0.00     0.074 A 
ATOM     58  C   UNL A   1      46.252  29.282  35.431  1.00  0.00     0.029 A 
ATOM     59  N   UNL A   1      44.642  29.223  33.896  1.00  0.00    -0.354 N 
ATOM     60  N   UNL A   1      42.115  30.062  32.657  1.00  0.00    -0.248 NA
ATOM     61  C   UNL A   1      40.135  31.300  32.727  1.00  0.00     0.031 C 
ATOM     62  C   UNL A   1      45.221  30.136  35.836  1.00  0.00     0.029 A 
ATOM     63  C   UNL A   1      44.235  30.127  34.863  1.00  0.00     0.049 A 
ATOM     64  H   UNL A   1      44.134  28.997  33.084  1.00  0.00     0.167 HD
ATOM     65  C   UNL A   1      42.093  30.824  33.821  1.00  0.00     0.074 A 
ATOM     66  C   UNL A   1      40.867  31.594  33.793  1.00  0.00     0.031 C 
ATOM     67  C   UNL A   1      43.009  30.886  34.821  1.00  0.00     0.031 A 
BRANCH  54  68
ATOM     68  C   UNL A   1      47.873  27.148  34.022  1.00  0.00    -0.014 A 
ATOM     69  C   UNL A   1      49.106  27.721  33.660  1.00  0.00     0.010 A 
ATOM     70  C   UNL A   1      47.860  26.074  34.932  1.00  0.00     0.010 A 
ATOM     71  C   UNL A   1      50.302  27.205  34.168  1.00  0.00     0.020 A 
ATOM     72  C   UNL A   1      49.052  25.577  35.467  1.00  0.00     0.020 A 
ATOM     73  C   UNL A   1      50.267  26.136  35.068  1.00  0.00     0.054 A 
BRANCH  73  74
ATOM     74  S   UNL A   1      51.833  25.505  35.729  1.00  0.00     0.124 S 
ATOM     75  O   UNL A   1      52.789  26.493  35.235  1.00  0.00    -0.237 OA
ATOM     76  O   UNL A   1      51.600  25.522  37.171  1.00  0.00    -0.237 OA
ATOM     77  O   UNL A   1      51.951  24.176  35.135  1.00  0.00    -0.744 OA
ENDBRANCH  73  74
ENDBRANCH  54  68
BRANCH  55  78
ATOM     78  C   UNL A   1      39.207  30.289  30.133  1.00  0.00    -0.014 A 
ATOM     79  C   UNL A   1      39.109  31.457  29.358  1.00  0.00     0.010 A 
ATOM     80  C   UNL A   1      38.041  29.543  30.390  1.00  0.00     0.010 A 
ATOM     81  C   UNL A   1      37.870  31.880  28.864  1.00  0.00     0.020 A 
ATOM     82  C   UNL A   1      36.806  29.944  29.872  1.00  0.00     0.020 A 
ATOM     83  C   UNL A   1      36.727  31.116  29.121  1.00  0.00     0.054 A 
BRANCH  83  84
ATOM     84  S   UNL A   1      35.140  31.656  28.426  1.00  0.00     0.124 S 
ATOM     85  O   UNL A   1      35.539  32.788  27.596  1.00  0.00    -0.237 OA
ATOM     86  O   UNL A   1      34.694  30.467  27.705  1.00  0.00    -0.237 OA
ATOM     87  O   UNL A   1      34.347  31.994  29.607  1.00  0.00    -0.744 OA
ENDBRANCH  83  84
ENDBRANCH  55  78
BRANCH  67  88
ATOM     88  C   UNL A   1      42.747  31.850  35.952  1.00  0.00    -0.014 A 
ATOM     89  C   UNL A   1      43.139  33.198  35.875  1.00  0.00     0.010 A 
ATOM     90  C   UNL A   1      42.038  31.408  37.084  1.00  0.00     0.010 A 
ATOM     91  C   UNL A   1      42.856  34.076  36.926  1.00  0.00     0.020 A 
ATOM     92  C   UNL A   1      41.724  32.290  38.121  1.00  0.00     0.020 A 
ATOM     93  C   UNL A   1      42.148  33.617  38.041  1.00  0.00     0.054 A 
BRANCH  93  94
ATOM     94  S   UNL A   1      41.756  34.789  39.370  1.00  0.00     0.124 S 
ATOM     95  O   UNL A   1      42.810  35.788  39.214  1.00  0.00    -0.237 OA
ATOM     96  O   UNL A   1      40.410  35.232  39.016  1.00  0.00    -0.237 OA
ATOM     97  O   UNL A   1      41.840  33.979  40.583  1.00  0.00    -0.744 OA
ENDBRANCH  93  94
ENDBRANCH  67  88
ENDBRANCH  41  42
ENDBRANCH  34  36
ENDBRANCH  33  34
ENDBRANCH  32  33
ENDBRANCH  31  32
ENDBRANCH  30  31
ENDBRANCH  29  30
ENDBRANCH   1  29
TORSDOF 26
ENDMDL
