MODEL 1
REMARK VINA RESULT:      -9.9      0.000      0.000
REMARK SMILES Cc1ccccc1OC1(C(=O)OCCOCCOCCOCCOC(=O)c2ccc(-c3c4nc(c(-c5ccc(S(=O)(=O)[O-])cc5)c5ccc([nH]5)c(-c5ccc(S(=O)(=O)[O-])cc5)c5nc(c(-c6ccc(S(=O)(=O)[O-])cc6)c6ccc3[nH]6)C=C5)C=C4)cc2)CCN(C(=O)[C@H]2CCCCO2)CC1
REMARK SMILES IDX 19 1 18 2 17 3 16 4 15 5 14 6 13 7 12 8 10 9 11 10 9 11
REMARK SMILES IDX 87 12 99 13 88 14 98 15 89 16 90 17 91 18 8 19 7 20 1 21
REMARK SMILES IDX 2 22 3 23 4 24 6 25 5 26 92 27 93 28 97 29 94 30 96 31 95 32
REMARK SMILES IDX 20 33 21 34 22 35 23 36 24 37 25 38 26 39 27 40 28 41 86 42
REMARK SMILES IDX 29 43 85 44 30 45 31 46 32 47 79 48 33 49 84 50 78 51 80 52
REMARK SMILES IDX 34 53 83 54 77 55 76 56 35 58 65 59 46 60 64 61 47 62 50 63
REMARK SMILES IDX 63 64 81 65 48 66 49 67 62 69 82 70 51 71 36 72 37 73 45 74
REMARK SMILES IDX 38 75 44 76 39 77 40 78 41 79 42 80 43 81 66 82 67 83 75 84
REMARK SMILES IDX 68 85 74 86 69 87 70 88 71 89 72 90 73 91 52 92 53 93 61 94
REMARK SMILES IDX 54 95 60 96 55 97 56 98 57 99 58 100 59 101
REMARK H PARENT 80 57 50 68
REMARK Flexibility Score: inf
ROOT
ATOM      1  C   UNL A   1      39.943  21.984  26.372  1.00  0.00     0.188 C 
ENDROOT
BRANCH   1   2
ATOM      2  O   UNL A   1      38.787  21.463  25.706  1.00  0.00    -0.377 OA
BRANCH   2   3
ATOM      3  C   UNL A   1      37.557  22.168  25.791  1.00  0.00     0.188 C 
BRANCH   3   4
ATOM      4  C   UNL A   1      36.467  21.954  24.714  1.00  0.00     0.188 C 
BRANCH   4   5
ATOM      5  O   UNL A   1      35.790  20.712  24.620  1.00  0.00    -0.376 OA
BRANCH   5   6
ATOM      6  C   UNL A   1      34.439  20.714  25.063  1.00  0.00     0.202 C 
BRANCH   6   7
ATOM      7  C   UNL A   1      33.811  22.051  25.426  1.00  0.00     0.261 C 
BRANCH   7   8
ATOM      8  O   UNL A   1      32.830  22.371  24.443  1.00  0.00    -0.460 OA
BRANCH   8   9
ATOM      9  C   UNL A   1      33.159  23.338  23.554  1.00  0.00     0.350 C 
ATOM     10  O   UNL A   1      33.549  23.115  22.436  1.00  0.00    -0.247 OA
BRANCH   9  11
ATOM     11  C   UNL A   1      32.894  24.725  24.196  1.00  0.00     0.209 C 
ATOM     12  C   UNL A   1      31.804  24.621  25.278  1.00  0.00     0.082 C 
ATOM     13  C   UNL A   1      34.190  25.151  24.905  1.00  0.00     0.082 C 
ATOM     14  C   UNL A   1      31.877  25.519  26.505  1.00  0.00     0.124 C 
ATOM     15  C   UNL A   1      34.028  26.476  25.643  1.00  0.00     0.124 C 
ATOM     16  N   UNL A   1      32.793  26.640  26.410  1.00  0.00    -0.340 N 
ATOM     17  C   UNL A   1      32.444  27.794  27.127  1.00  0.00     0.251 C 
ATOM     18  O   UNL A   1      31.445  27.828  27.853  1.00  0.00    -0.272 OA
BRANCH  11  19
ATOM     19  O   UNL A   1      32.650  25.741  23.213  1.00  0.00    -0.475 OA
BRANCH  19  20
ATOM     20  C   UNL A   1      31.737  26.754  23.372  1.00  0.00     0.123 A 
ATOM     21  C   UNL A   1      33.576  28.406  22.831  1.00  0.00     0.048 C 
ATOM     22  C   UNL A   1      32.140  28.018  22.923  1.00  0.00    -0.009 A 
ATOM     23  C   UNL A   1      31.188  28.951  22.490  1.00  0.00     0.007 A 
ATOM     24  C   UNL A   1      29.833  28.669  22.582  1.00  0.00     0.001 A 
ATOM     25  C   UNL A   1      30.370  26.517  23.546  1.00  0.00     0.047 A 
ATOM     26  C   UNL A   1      29.422  27.478  23.167  1.00  0.00     0.004 A 
ENDBRANCH  19  20
ENDBRANCH  11  19
BRANCH  17  27
ATOM     27  C   UNL A   1      33.307  29.059  26.919  1.00  0.00     0.207 C 
ATOM     28  C   UNL A   1      32.455  30.289  27.249  1.00  0.00     0.042 C 
ATOM     29  O   UNL A   1      34.450  29.037  27.786  1.00  0.00    -0.368 OA
ATOM     30  C   UNL A   1      33.261  31.575  27.172  1.00  0.00     0.006 C 
ATOM     31  C   UNL A   1      35.277  30.186  27.644  1.00  0.00     0.161 C 
ATOM     32  C   UNL A   1      34.517  31.451  28.018  1.00  0.00     0.029 C 
ENDBRANCH  17  27
ENDBRANCH   9  11
ENDBRANCH   8   9
ENDBRANCH   7   8
ENDBRANCH   6   7
ENDBRANCH   5   6
ENDBRANCH   4   5
ENDBRANCH   3   4
ENDBRANCH   2   3
ENDBRANCH   1   2
BRANCH   1  33
ATOM     33  C   UNL A   1      41.098  21.031  26.622  1.00  0.00     0.188 C 
BRANCH  33  34
ATOM     34  O   UNL A   1      42.250  21.616  26.007  1.00  0.00    -0.376 OA
BRANCH  34  35
ATOM     35  C   UNL A   1      42.131  22.953  25.562  1.00  0.00     0.202 C 
BRANCH  35  36
ATOM     36  C   UNL A   1      42.915  23.962  26.393  1.00  0.00     0.261 C 
BRANCH  36  37
ATOM     37  O   UNL A   1      42.077  24.951  27.057  1.00  0.00    -0.460 OA
BRANCH  37  38
ATOM     38  C   UNL A   1      41.708  26.138  26.486  1.00  0.00     0.338 C 
ATOM     39  O   UNL A   1      41.355  26.213  25.316  1.00  0.00    -0.246 OA
BRANCH  38  40
ATOM     40  C   UNL A   1      41.428  27.248  27.434  1.00  0.00     0.060 A 
ATOM     41  C   UNL A   1      42.342  28.284  27.676  1.00  0.00     0.016 A 
ATOM     42  C   UNL A   1      40.221  27.274  28.100  1.00  0.00     0.016 A 
ATOM     43  C   UNL A   1      42.155  29.190  28.744  1.00  0.00     0.010 A 
ATOM     44  C   UNL A   1      40.074  28.114  29.190  1.00  0.00     0.010 A 
ATOM     45  C   UNL A   1      41.045  29.057  29.572  1.00  0.00    -0.014 A 
BRANCH  45  46
ATOM     46  C   UNL A   1      40.820  29.730  30.882  1.00  0.00     0.031 A 
ATOM     47  C   UNL A   1      40.083  31.057  30.895  1.00  0.00     0.074 A 
ATOM     48  C   UNL A   1      40.898  28.980  32.017  1.00  0.00     0.049 A 
ATOM     49  N   UNL A   1      39.639  31.666  31.944  1.00  0.00    -0.248 NA
ATOM     50  C   UNL A   1      39.736  31.803  29.678  1.00  0.00     0.031 C 
ATOM     51  C   UNL A   1      40.097  29.160  33.236  1.00  0.00     0.029 A 
ATOM     52  N   UNL A   1      41.607  27.828  32.331  1.00  0.00    -0.354 N 
ATOM     53  C   UNL A   1      38.701  32.615  31.553  1.00  0.00     0.074 A 
ATOM     54  C   UNL A   1      38.852  32.706  30.125  1.00  0.00     0.031 C 
ATOM     55  C   UNL A   1      40.400  28.223  34.147  1.00  0.00     0.029 A 
ATOM     56  C   UNL A   1      41.641  27.642  33.717  1.00  0.00     0.049 A 
ATOM     57  H   UNL A   1      42.025  27.228  31.673  1.00  0.00     0.167 HD
ATOM     58  C   UNL A   1      37.814  33.112  32.473  1.00  0.00     0.031 A 
ATOM     59  C   UNL A   1      42.776  27.801  34.467  1.00  0.00     0.031 A 
ATOM     60  C   UNL A   1      38.154  32.671  33.838  1.00  0.00     0.049 A 
ATOM     61  C   UNL A   1      42.696  29.083  35.315  1.00  0.00     0.074 A 
ATOM     62  C   UNL A   1      37.463  32.032  34.854  1.00  0.00     0.029 A 
ATOM     63  N   UNL A   1      39.482  32.725  34.257  1.00  0.00    -0.354 N 
ATOM     64  N   UNL A   1      41.915  30.095  35.001  1.00  0.00    -0.248 NA
ATOM     65  C   UNL A   1      43.315  29.288  36.625  1.00  0.00     0.031 C 
ATOM     66  C   UNL A   1      38.421  31.572  35.806  1.00  0.00     0.029 A 
ATOM     67  C   UNL A   1      39.682  31.991  35.405  1.00  0.00     0.049 A 
ATOM     68  H   UNL A   1      40.190  33.226  33.789  1.00  0.00     0.167 HD
ATOM     69  C   UNL A   1      41.823  30.977  36.037  1.00  0.00     0.074 A 
ATOM     70  C   UNL A   1      42.766  30.457  37.014  1.00  0.00     0.031 C 
ATOM     71  C   UNL A   1      40.973  32.048  36.080  1.00  0.00     0.031 A 
BRANCH  58  72
ATOM     72  C   UNL A   1      36.505  33.859  32.175  1.00  0.00    -0.014 A 
ATOM     73  C   UNL A   1      36.082  34.877  33.063  1.00  0.00     0.010 A 
ATOM     74  C   UNL A   1      35.600  33.564  31.132  1.00  0.00     0.010 A 
ATOM     75  C   UNL A   1      34.847  35.542  32.942  1.00  0.00     0.020 A 
ATOM     76  C   UNL A   1      34.369  34.250  30.974  1.00  0.00     0.020 A 
ATOM     77  C   UNL A   1      33.993  35.230  31.891  1.00  0.00     0.054 A 
BRANCH  77  78
ATOM     78  S   UNL A   1      32.424  36.137  31.736  1.00  0.00     0.124 S 
ATOM     79  O   UNL A   1      32.201  36.144  30.291  1.00  0.00    -0.237 OA
ATOM     80  O   UNL A   1      31.499  35.311  32.507  1.00  0.00    -0.237 OA
ATOM     81  O   UNL A   1      32.717  37.443  32.322  1.00  0.00    -0.744 OA
ENDBRANCH  77  78
ENDBRANCH  58  72
BRANCH  59  82
ATOM     82  C   UNL A   1      43.925  27.027  33.887  1.00  0.00    -0.014 A 
ATOM     83  C   UNL A   1      44.980  27.858  33.428  1.00  0.00     0.010 A 
ATOM     84  C   UNL A   1      44.268  25.793  34.476  1.00  0.00     0.010 A 
ATOM     85  C   UNL A   1      46.294  27.644  33.862  1.00  0.00     0.020 A 
ATOM     86  C   UNL A   1      45.595  25.568  34.898  1.00  0.00     0.020 A 
ATOM     87  C   UNL A   1      46.577  26.539  34.663  1.00  0.00     0.054 A 
BRANCH  87  88
ATOM     88  S   UNL A   1      48.121  26.565  35.641  1.00  0.00     0.124 S 
ATOM     89  O   UNL A   1      48.407  27.989  35.744  1.00  0.00    -0.237 OA
ATOM     90  O   UNL A   1      47.727  25.898  36.882  1.00  0.00    -0.237 OA
ATOM     91  O   UNL A   1      49.044  25.797  34.814  1.00  0.00    -0.744 OA
ENDBRANCH  87  88
ENDBRANCH  59  82
BRANCH  71  92
ATOM     92  C   UNL A   1      41.308  33.334  36.793  1.00  0.00    -0.014 A 
ATOM     93  C   UNL A   1      41.024  33.530  38.151  1.00  0.00     0.010 A 
ATOM     94  C   UNL A   1      42.144  34.291  36.161  1.00  0.00     0.010 A 
ATOM     95  C   UNL A   1      41.483  34.661  38.826  1.00  0.00     0.020 A 
ATOM     96  C   UNL A   1      42.656  35.395  36.842  1.00  0.00     0.020 A 
ATOM     97  C   UNL A   1      42.290  35.588  38.168  1.00  0.00     0.054 A 
BRANCH  97  98
ATOM     98  S   UNL A   1      42.884  37.025  39.083  1.00  0.00     0.124 S 
ATOM     99  O   UNL A   1      44.134  37.319  38.386  1.00  0.00    -0.237 OA
ATOM    100  O   UNL A   1      41.811  37.997  38.883  1.00  0.00    -0.237 OA
ATOM    101  O   UNL A   1      43.027  36.534  40.450  1.00  0.00    -0.744 OA
ENDBRANCH  97  98
ENDBRANCH  71  92
ENDBRANCH  45  46
ENDBRANCH  38  40
ENDBRANCH  37  38
ENDBRANCH  36  37
ENDBRANCH  35  36
ENDBRANCH  34  35
ENDBRANCH  33  34
ENDBRANCH   1  33
TORSDOF 26
ENDMDL
MODEL 2
REMARK VINA RESULT:      -9.3      3.716      6.838
REMARK SMILES Cc1ccccc1OC1(C(=O)OCCOCCOCCOCCOC(=O)c2ccc(-c3c4nc(c(-c5ccc(S(=O)(=O)[O-])cc5)c5ccc([nH]5)c(-c5ccc(S(=O)(=O)[O-])cc5)c5nc(c(-c6ccc(S(=O)(=O)[O-])cc6)c6ccc3[nH]6)C=C5)C=C4)cc2)CCN(C(=O)[C@H]2CCCCO2)CC1
REMARK SMILES IDX 19 1 18 2 17 3 16 4 15 5 14 6 13 7 12 8 10 9 11 10 9 11
REMARK SMILES IDX 87 12 99 13 88 14 98 15 89 16 90 17 91 18 8 19 7 20 1 21
REMARK SMILES IDX 2 22 3 23 4 24 6 25 5 26 92 27 93 28 97 29 94 30 96 31 95 32
REMARK SMILES IDX 20 33 21 34 22 35 23 36 24 37 25 38 26 39 27 40 28 41 86 42
REMARK SMILES IDX 29 43 85 44 30 45 31 46 32 47 79 48 33 49 84 50 78 51 80 52
REMARK SMILES IDX 34 53 83 54 77 55 76 56 35 58 65 59 46 60 64 61 47 62 50 63
REMARK SMILES IDX 63 64 81 65 48 66 49 67 62 69 82 70 51 71 36 72 37 73 45 74
REMARK SMILES IDX 38 75 44 76 39 77 40 78 41 79 42 80 43 81 66 82 67 83 75 84
REMARK SMILES IDX 68 85 74 86 69 87 70 88 71 89 72 90 73 91 52 92 53 93 61 94
REMARK SMILES IDX 54 95 60 96 55 97 56 98 57 99 58 100 59 101
REMARK H PARENT 80 57 50 68
REMARK Flexibility Score: inf
ROOT
ATOM      1  C   UNL A   1      39.734  28.493  27.377  1.00  0.00     0.188 C 
ENDROOT
BRANCH   1   2
ATOM      2  O   UNL A   1      38.845  29.605  27.217  1.00  0.00    -0.377 OA
BRANCH   2   3
ATOM      3  C   UNL A   1      37.866  29.863  28.212  1.00  0.00     0.188 C 
BRANCH   3   4
ATOM      4  C   UNL A   1      36.540  29.067  28.218  1.00  0.00     0.188 C 
BRANCH   4   5
ATOM      5  O   UNL A   1      35.300  29.745  28.336  1.00  0.00    -0.376 OA
BRANCH   5   6
ATOM      6  C   UNL A   1      34.503  29.773  27.160  1.00  0.00     0.202 C 
BRANCH   6   7
ATOM      7  C   UNL A   1      33.129  29.123  27.213  1.00  0.00     0.261 C 
BRANCH   7   8
ATOM      8  O   UNL A   1      33.270  27.741  26.895  1.00  0.00    -0.460 OA
BRANCH   8   9
ATOM      9  C   UNL A   1      32.126  27.022  26.809  1.00  0.00     0.350 C 
ATOM     10  O   UNL A   1      31.068  27.391  27.253  1.00  0.00    -0.247 OA
BRANCH   9  11
ATOM     11  C   UNL A   1      32.406  25.722  26.012  1.00  0.00     0.209 C 
ATOM     12  C   UNL A   1      33.901  25.614  25.658  1.00  0.00     0.082 C 
ATOM     13  C   UNL A   1      32.081  24.542  26.943  1.00  0.00     0.082 C 
ATOM     14  C   UNL A   1      34.561  24.244  25.600  1.00  0.00     0.124 C 
ATOM     15  C   UNL A   1      32.391  23.197  26.291  1.00  0.00     0.124 C 
ATOM     16  N   UNL A   1      33.657  23.111  25.563  1.00  0.00    -0.340 N 
ATOM     17  C   UNL A   1      34.106  21.977  24.871  1.00  0.00     0.251 C 
ATOM     18  O   UNL A   1      35.237  21.924  24.377  1.00  0.00    -0.272 OA
BRANCH  11  19
ATOM     19  O   UNL A   1      31.525  25.570  24.890  1.00  0.00    -0.475 OA
BRANCH  19  20
ATOM     20  C   UNL A   1      31.461  26.457  23.844  1.00  0.00     0.123 A 
ATOM     21  C   UNL A   1      28.937  26.354  24.000  1.00  0.00     0.048 C 
ATOM     22  C   UNL A   1      30.205  27.028  23.602  1.00  0.00    -0.009 A 
ATOM     23  C   UNL A   1      30.108  28.298  23.015  1.00  0.00     0.007 A 
ATOM     24  C   UNL A   1      31.246  28.966  22.587  1.00  0.00     0.001 A 
ATOM     25  C   UNL A   1      32.591  27.097  23.327  1.00  0.00     0.047 A 
ATOM     26  C   UNL A   1      32.481  28.339  22.686  1.00  0.00     0.004 A 
ENDBRANCH  19  20
ENDBRANCH  11  19
BRANCH  17  27
ATOM     27  C   UNL A   1      33.108  20.815  24.671  1.00  0.00     0.207 C 
ATOM     28  C   UNL A   1      32.885  20.616  23.167  1.00  0.00     0.042 C 
ATOM     29  O   UNL A   1      33.630  19.600  25.229  1.00  0.00    -0.368 OA
ATOM     30  C   UNL A   1      31.995  19.420  22.878  1.00  0.00     0.006 C 
ATOM     31  C   UNL A   1      32.755  18.491  25.063  1.00  0.00     0.161 C 
ATOM     32  C   UNL A   1      32.533  18.189  23.588  1.00  0.00     0.029 C 
ENDBRANCH  17  27
ENDBRANCH   9  11
ENDBRANCH   8   9
ENDBRANCH   7   8
ENDBRANCH   6   7
ENDBRANCH   5   6
ENDBRANCH   4   5
ENDBRANCH   3   4
ENDBRANCH   2   3
ENDBRANCH   1   2
BRANCH   1  33
ATOM     33  C   UNL A   1      41.222  28.758  27.229  1.00  0.00     0.188 C 
BRANCH  33  34
ATOM     34  O   UNL A   1      41.678  27.934  26.152  1.00  0.00    -0.376 OA
BRANCH  34  35
ATOM     35  C   UNL A   1      41.452  26.543  26.268  1.00  0.00     0.202 C 
BRANCH  35  36
ATOM     36  C   UNL A   1      42.552  25.789  27.005  1.00  0.00     0.261 C 
BRANCH  36  37
ATOM     37  O   UNL A   1      43.718  25.500  26.182  1.00  0.00    -0.460 OA
BRANCH  37  38
ATOM     38  C   UNL A   1      44.970  25.281  26.691  1.00  0.00     0.338 C 
ATOM     39  O   UNL A   1      45.983  25.506  26.042  1.00  0.00    -0.246 OA
BRANCH  38  40
ATOM     40  C   UNL A   1      45.040  25.092  28.164  1.00  0.00     0.060 A 
ATOM     41  C   UNL A   1      44.384  24.042  28.823  1.00  0.00     0.016 A 
ATOM     42  C   UNL A   1      45.784  25.974  28.919  1.00  0.00     0.016 A 
ATOM     43  C   UNL A   1      44.273  24.020  30.231  1.00  0.00     0.010 A 
ATOM     44  C   UNL A   1      45.613  25.991  30.292  1.00  0.00     0.010 A 
ATOM     45  C   UNL A   1      44.824  25.054  30.982  1.00  0.00    -0.014 A 
BRANCH  45  46
ATOM     46  C   UNL A   1      44.582  25.340  32.423  1.00  0.00     0.031 A 
ATOM     47  C   UNL A   1      44.064  26.713  32.810  1.00  0.00     0.074 A 
ATOM     48  C   UNL A   1      44.433  24.288  33.276  1.00  0.00     0.049 A 
ATOM     49  N   UNL A   1      43.622  27.056  33.975  1.00  0.00    -0.248 NA
ATOM     50  C   UNL A   1      43.955  27.834  31.866  1.00  0.00     0.031 C 
ATOM     51  C   UNL A   1      43.557  24.240  34.456  1.00  0.00     0.029 A 
ATOM     52  N   UNL A   1      44.920  22.987  33.254  1.00  0.00    -0.354 N 
ATOM     53  C   UNL A   1      42.885  28.228  33.853  1.00  0.00     0.074 A 
ATOM     54  C   UNL A   1      43.184  28.707  32.529  1.00  0.00     0.031 C 
ATOM     55  C   UNL A   1      43.622  23.039  35.049  1.00  0.00     0.029 A 
ATOM     56  C   UNL A   1      44.792  22.399  34.516  1.00  0.00     0.049 A 
ATOM     57  H   UNL A   1      45.301  22.543  32.462  1.00  0.00     0.167 HD
ATOM     58  C   UNL A   1      42.003  28.582  34.841  1.00  0.00     0.031 A 
ATOM     59  C   UNL A   1      45.861  22.126  35.327  1.00  0.00     0.031 A 
ATOM     60  C   UNL A   1      42.138  27.706  36.019  1.00  0.00     0.049 A 
ATOM     61  C   UNL A   1      45.902  23.094  36.523  1.00  0.00     0.074 A 
ATOM     62  C   UNL A   1      41.262  26.930  36.759  1.00  0.00     0.029 A 
ATOM     63  N   UNL A   1      43.412  27.397  36.492  1.00  0.00    -0.354 N 
ATOM     64  N   UNL A   1      45.322  24.276  36.500  1.00  0.00    -0.248 NA
ATOM     65  C   UNL A   1      46.417  22.791  37.859  1.00  0.00     0.031 C 
ATOM     66  C   UNL A   1      42.040  26.046  37.565  1.00  0.00     0.029 A 
ATOM     67  C   UNL A   1      43.384  26.334  37.367  1.00  0.00     0.049 A 
ATOM     68  H   UNL A   1      44.231  27.879  36.231  1.00  0.00     0.167 HD
ATOM     69  C   UNL A   1      45.270  24.815  37.751  1.00  0.00     0.074 A 
ATOM     70  C   UNL A   1      46.023  23.872  38.563  1.00  0.00     0.031 C 
ATOM     71  C   UNL A   1      44.598  25.959  38.083  1.00  0.00     0.031 A 
BRANCH  58  72
ATOM     72  C   UNL A   1      40.861  29.604  34.729  1.00  0.00    -0.014 A 
ATOM     73  C   UNL A   1      40.805  30.670  35.659  1.00  0.00     0.010 A 
ATOM     74  C   UNL A   1      39.772  29.537  33.832  1.00  0.00     0.010 A 
ATOM     75  C   UNL A   1      39.743  31.592  35.712  1.00  0.00     0.020 A 
ATOM     76  C   UNL A   1      38.713  30.479  33.849  1.00  0.00     0.020 A 
ATOM     77  C   UNL A   1      38.699  31.497  34.800  1.00  0.00     0.054 A 
BRANCH  77  78
ATOM     78  S   UNL A   1      37.362  32.729  34.866  1.00  0.00     0.124 S 
ATOM     79  O   UNL A   1      37.005  32.738  36.283  1.00  0.00    -0.237 OA
ATOM     80  O   UNL A   1      38.017  33.940  34.379  1.00  0.00    -0.237 OA
ATOM     81  O   UNL A   1      36.339  32.183  33.975  1.00  0.00    -0.744 OA
ENDBRANCH  77  78
ENDBRANCH  58  72
BRANCH  59  82
ATOM     82  C   UNL A   1      46.925  21.365  34.589  1.00  0.00    -0.014 A 
ATOM     83  C   UNL A   1      48.068  22.154  34.293  1.00  0.00     0.010 A 
ATOM     84  C   UNL A   1      47.129  20.008  34.913  1.00  0.00     0.010 A 
ATOM     85  C   UNL A   1      49.348  21.716  34.658  1.00  0.00     0.020 A 
ATOM     86  C   UNL A   1      48.419  19.562  35.265  1.00  0.00     0.020 A 
ATOM     87  C   UNL A   1      49.502  20.449  35.218  1.00  0.00     0.054 A 
BRANCH  87  88
ATOM     88  S   UNL A   1      51.031  20.112  36.161  1.00  0.00     0.124 S 
ATOM     89  O   UNL A   1      50.768  20.765  37.436  1.00  0.00    -0.237 OA
ATOM     90  O   UNL A   1      51.077  18.650  36.187  1.00  0.00    -0.237 OA
ATOM     91  O   UNL A   1      52.065  20.729  35.340  1.00  0.00    -0.744 OA
ENDBRANCH  87  88
ENDBRANCH  59  82
BRANCH  71  92
ATOM     92  C   UNL A   1      45.060  26.898  39.170  1.00  0.00    -0.014 A 
ATOM     93  C   UNL A   1      45.609  28.155  38.887  1.00  0.00     0.010 A 
ATOM     94  C   UNL A   1      44.722  26.627  40.522  1.00  0.00     0.010 A 
ATOM     95  C   UNL A   1      45.881  29.068  39.906  1.00  0.00     0.020 A 
ATOM     96  C   UNL A   1      44.937  27.556  41.541  1.00  0.00     0.020 A 
ATOM     97  C   UNL A   1      45.549  28.761  41.225  1.00  0.00     0.054 A 
BRANCH  97  98
ATOM     98  S   UNL A   1      45.895  29.979  42.511  1.00  0.00     0.124 S 
ATOM     99  O   UNL A   1      45.117  31.124  42.044  1.00  0.00    -0.237 OA
ATOM    100  O   UNL A   1      45.388  29.325  43.716  1.00  0.00    -0.237 OA
ATOM    101  O   UNL A   1      47.345  30.140  42.459  1.00  0.00    -0.744 OA
ENDBRANCH  97  98
ENDBRANCH  71  92
ENDBRANCH  45  46
ENDBRANCH  38  40
ENDBRANCH  37  38
ENDBRANCH  36  37
ENDBRANCH  35  36
ENDBRANCH  34  35
ENDBRANCH  33  34
ENDBRANCH   1  33
TORSDOF 26
ENDMDL
MODEL 3
REMARK VINA RESULT:      -9.2      5.559     13.555
REMARK SMILES Cc1ccccc1OC1(C(=O)OCCOCCOCCOCCOC(=O)c2ccc(-c3c4nc(c(-c5ccc(S(=O)(=O)[O-])cc5)c5ccc([nH]5)c(-c5ccc(S(=O)(=O)[O-])cc5)c5nc(c(-c6ccc(S(=O)(=O)[O-])cc6)c6ccc3[nH]6)C=C5)C=C4)cc2)CCN(C(=O)[C@H]2CCCCO2)CC1
REMARK SMILES IDX 19 1 18 2 17 3 16 4 15 5 14 6 13 7 12 8 10 9 11 10 9 11
REMARK SMILES IDX 87 12 99 13 88 14 98 15 89 16 90 17 91 18 8 19 7 20 1 21
REMARK SMILES IDX 2 22 3 23 4 24 6 25 5 26 92 27 93 28 97 29 94 30 96 31 95 32
REMARK SMILES IDX 20 33 21 34 22 35 23 36 24 37 25 38 26 39 27 40 28 41 86 42
REMARK SMILES IDX 29 43 85 44 30 45 31 46 32 47 79 48 33 49 84 50 78 51 80 52
REMARK SMILES IDX 34 53 83 54 77 55 76 56 35 58 65 59 46 60 64 61 47 62 50 63
REMARK SMILES IDX 63 64 81 65 48 66 49 67 62 69 82 70 51 71 36 72 37 73 45 74
REMARK SMILES IDX 38 75 44 76 39 77 40 78 41 79 42 80 43 81 66 82 67 83 75 84
REMARK SMILES IDX 68 85 74 86 69 87 70 88 71 89 72 90 73 91 52 92 53 93 61 94
REMARK SMILES IDX 54 95 60 96 55 97 56 98 57 99 58 100 59 101
REMARK H PARENT 80 57 50 68
REMARK Flexibility Score: inf
ROOT
ATOM      1  C   UNL A   1      33.857  34.591  30.357  1.00  0.00     0.188 C 
ENDROOT
BRANCH   1   2
ATOM      2  O   UNL A   1      33.960  34.946  31.740  1.00  0.00    -0.377 OA
BRANCH   2   3
ATOM      3  C   UNL A   1      33.979  33.921  32.724  1.00  0.00     0.188 C 
BRANCH   3   4
ATOM      4  C   UNL A   1      35.238  33.709  33.597  1.00  0.00     0.188 C 
BRANCH   4   5
ATOM      5  O   UNL A   1      36.078  34.806  33.917  1.00  0.00    -0.376 OA
BRANCH   5   6
ATOM      6  C   UNL A   1      37.473  34.572  33.772  1.00  0.00     0.202 C 
BRANCH   6   7
ATOM      7  C   UNL A   1      38.028  34.423  32.364  1.00  0.00     0.261 C 
BRANCH   7   8
ATOM      8  O   UNL A   1      38.829  33.245  32.317  1.00  0.00    -0.460 OA
BRANCH   8   9
ATOM      9  C   UNL A   1      40.157  33.411  32.522  1.00  0.00     0.350 C 
ATOM     10  O   UNL A   1      40.757  34.419  32.247  1.00  0.00    -0.247 OA
BRANCH   9  11
ATOM     11  C   UNL A   1      40.724  32.139  33.205  1.00  0.00     0.209 C 
ATOM     12  C   UNL A   1      39.599  31.125  33.481  1.00  0.00     0.082 C 
ATOM     13  C   UNL A   1      41.686  31.478  32.203  1.00  0.00     0.082 C 
ATOM     14  C   UNL A   1      39.897  29.634  33.404  1.00  0.00     0.124 C 
ATOM     15  C   UNL A   1      42.254  30.167  32.736  1.00  0.00     0.124 C 
ATOM     16  N   UNL A   1      41.302  29.273  33.397  1.00  0.00    -0.340 N 
ATOM     17  C   UNL A   1      41.634  28.042  33.980  1.00  0.00     0.251 C 
ATOM     18  O   UNL A   1      40.767  27.277  34.416  1.00  0.00    -0.272 OA
BRANCH  11  19
ATOM     19  O   UNL A   1      41.529  32.449  34.351  1.00  0.00    -0.475 OA
BRANCH  19  20
ATOM     20  C   UNL A   1      41.016  32.871  35.553  1.00  0.00     0.123 A 
ATOM     21  C   UNL A   1      41.844  30.715  36.586  1.00  0.00     0.048 C 
ATOM     22  C   UNL A   1      41.413  32.138  36.678  1.00  0.00    -0.009 A 
ATOM     23  C   UNL A   1      41.464  32.751  37.938  1.00  0.00     0.007 A 
ATOM     24  C   UNL A   1      41.043  34.062  38.102  1.00  0.00     0.001 A 
ATOM     25  C   UNL A   1      40.508  34.159  35.745  1.00  0.00     0.047 A 
ATOM     26  C   UNL A   1      40.506  34.746  37.018  1.00  0.00     0.004 A 
ENDBRANCH  19  20
ENDBRANCH  11  19
BRANCH  17  27
ATOM     27  C   UNL A   1      43.132  27.700  34.137  1.00  0.00     0.207 C 
ATOM     28  C   UNL A   1      43.660  28.389  35.400  1.00  0.00     0.042 C 
ATOM     29  O   UNL A   1      43.315  26.283  34.268  1.00  0.00    -0.368 OA
ATOM     30  C   UNL A   1      45.105  28.019  35.687  1.00  0.00     0.006 C 
ATOM     31  C   UNL A   1      44.678  25.910  34.426  1.00  0.00     0.161 C 
ATOM     32  C   UNL A   1      45.260  26.507  35.700  1.00  0.00     0.029 C 
ENDBRANCH  17  27
ENDBRANCH   9  11
ENDBRANCH   8   9
ENDBRANCH   7   8
ENDBRANCH   6   7
ENDBRANCH   5   6
ENDBRANCH   4   5
ENDBRANCH   3   4
ENDBRANCH   2   3
ENDBRANCH   1   2
BRANCH   1  33
ATOM     33  C   UNL A   1      35.049  33.898  29.721  1.00  0.00     0.188 C 
BRANCH  33  34
ATOM     34  O   UNL A   1      34.588  33.346  28.484  1.00  0.00    -0.376 OA
BRANCH  34  35
ATOM     35  C   UNL A   1      35.523  32.605  27.724  1.00  0.00     0.202 C 
BRANCH  35  36
ATOM     36  C   UNL A   1      35.439  31.096  27.924  1.00  0.00     0.261 C 
BRANCH  36  37
ATOM     37  O   UNL A   1      36.734  30.429  27.906  1.00  0.00    -0.460 OA
BRANCH  37  38
ATOM     38  C   UNL A   1      37.622  30.472  28.946  1.00  0.00     0.338 C 
ATOM     39  O   UNL A   1      37.287  30.818  30.072  1.00  0.00    -0.246 OA
BRANCH  38  40
ATOM     40  C   UNL A   1      38.907  29.758  28.723  1.00  0.00     0.060 A 
ATOM     41  C   UNL A   1      39.804  29.474  29.763  1.00  0.00     0.016 A 
ATOM     42  C   UNL A   1      39.233  29.345  27.449  1.00  0.00     0.016 A 
ATOM     43  C   UNL A   1      41.111  29.009  29.495  1.00  0.00     0.010 A 
ATOM     44  C   UNL A   1      40.535  28.961  27.181  1.00  0.00     0.010 A 
ATOM     45  C   UNL A   1      41.519  28.825  28.177  1.00  0.00    -0.014 A 
BRANCH  45  46
ATOM     46  C   UNL A   1      42.910  28.606  27.693  1.00  0.00     0.031 A 
ATOM     47  C   UNL A   1      43.727  29.813  27.268  1.00  0.00     0.074 A 
ATOM     48  C   UNL A   1      43.534  27.441  28.025  1.00  0.00     0.049 A 
ATOM     49  N   UNL A   1      44.993  29.820  27.015  1.00  0.00    -0.248 NA
ATOM     50  C   UNL A   1      43.166  31.165  27.137  1.00  0.00     0.031 C 
ATOM     51  C   UNL A   1      44.968  27.269  28.302  1.00  0.00     0.029 A 
ATOM     52  N   UNL A   1      43.055  26.167  28.305  1.00  0.00    -0.354 N 
ATOM     53  C   UNL A   1      45.455  31.130  27.048  1.00  0.00     0.074 A 
ATOM     54  C   UNL A   1      44.261  31.933  27.059  1.00  0.00     0.031 C 
ATOM     55  C   UNL A   1      45.239  25.999  28.637  1.00  0.00     0.029 A 
ATOM     56  C   UNL A   1      44.093  25.232  28.237  1.00  0.00     0.049 A 
ATOM     57  H   UNL A   1      42.118  25.954  28.520  1.00  0.00     0.167 HD
ATOM     58  C   UNL A   1      46.795  31.375  27.199  1.00  0.00     0.031 A 
ATOM     59  C   UNL A   1      44.197  24.300  27.240  1.00  0.00     0.031 A 
ATOM     60  C   UNL A   1      47.581  30.131  27.101  1.00  0.00     0.049 A 
ATOM     61  C   UNL A   1      45.351  24.650  26.283  1.00  0.00     0.074 A 
ATOM     62  C   UNL A   1      48.521  29.509  27.905  1.00  0.00     0.029 A 
ATOM     63  N   UNL A   1      47.290  29.223  26.084  1.00  0.00    -0.354 N 
ATOM     64  N   UNL A   1      45.819  25.873  26.152  1.00  0.00    -0.248 NA
ATOM     65  C   UNL A   1      46.174  23.694  25.541  1.00  0.00     0.031 C 
ATOM     66  C   UNL A   1      48.667  28.167  27.442  1.00  0.00     0.029 A 
ATOM     67  C   UNL A   1      47.870  27.997  26.318  1.00  0.00     0.049 A 
ATOM     68  H   UNL A   1      46.736  29.433  25.296  1.00  0.00     0.167 HD
ATOM     69  C   UNL A   1      46.995  25.872  25.463  1.00  0.00     0.074 A 
ATOM     70  C   UNL A   1      47.148  24.487  25.048  1.00  0.00     0.031 C 
ATOM     71  C   UNL A   1      47.804  26.961  25.293  1.00  0.00     0.031 A 
BRANCH  58  72
ATOM     72  C   UNL A   1      47.444  32.702  27.621  1.00  0.00    -0.014 A 
ATOM     73  C   UNL A   1      48.753  32.996  27.169  1.00  0.00     0.010 A 
ATOM     74  C   UNL A   1      46.898  33.644  28.520  1.00  0.00     0.010 A 
ATOM     75  C   UNL A   1      49.477  34.128  27.588  1.00  0.00     0.020 A 
ATOM     76  C   UNL A   1      47.599  34.808  28.923  1.00  0.00     0.020 A 
ATOM     77  C   UNL A   1      48.894  35.038  28.462  1.00  0.00     0.054 A 
BRANCH  77  78
ATOM     78  S   UNL A   1      49.838  36.514  28.951  1.00  0.00     0.124 S 
ATOM     79  O   UNL A   1      51.203  36.001  29.050  1.00  0.00    -0.237 OA
ATOM     80  O   UNL A   1      49.594  37.433  27.842  1.00  0.00    -0.237 OA
ATOM     81  O   UNL A   1      49.234  36.910  30.222  1.00  0.00    -0.744 OA
ENDBRANCH  77  78
ENDBRANCH  58  72
BRANCH  59  82
ATOM     82  C   UNL A   1      42.909  23.548  27.059  1.00  0.00    -0.014 A 
ATOM     83  C   UNL A   1      42.654  23.200  25.707  1.00  0.00     0.010 A 
ATOM     84  C   UNL A   1      42.519  22.634  28.059  1.00  0.00     0.010 A 
ATOM     85  C   UNL A   1      42.371  21.873  25.356  1.00  0.00     0.020 A 
ATOM     86  C   UNL A   1      42.217  21.302  27.706  1.00  0.00     0.020 A 
ATOM     87  C   UNL A   1      42.234  20.916  26.359  1.00  0.00     0.054 A 
BRANCH  87  88
ATOM     88  S   UNL A   1      42.404  19.157  25.892  1.00  0.00     0.124 S 
ATOM     89  O   UNL A   1      43.141  18.600  27.017  1.00  0.00    -0.237 OA
ATOM     90  O   UNL A   1      41.013  18.724  25.758  1.00  0.00    -0.237 OA
ATOM     91  O   UNL A   1      43.135  19.223  24.632  1.00  0.00    -0.744 OA
ENDBRANCH  87  88
ENDBRANCH  59  82
BRANCH  71  92
ATOM     92  C   UNL A   1      48.649  27.174  24.062  1.00  0.00    -0.014 A 
ATOM     93  C   UNL A   1      50.018  26.882  24.036  1.00  0.00     0.010 A 
ATOM     94  C   UNL A   1      48.021  27.448  22.818  1.00  0.00     0.010 A 
ATOM     95  C   UNL A   1      50.745  26.935  22.846  1.00  0.00     0.020 A 
ATOM     96  C   UNL A   1      48.727  27.448  21.615  1.00  0.00     0.020 A 
ATOM     97  C   UNL A   1      50.097  27.223  21.646  1.00  0.00     0.054 A 
BRANCH  97  98
ATOM     98  S   UNL A   1      51.067  27.259  20.125  1.00  0.00     0.124 S 
ATOM     99  O   UNL A   1      51.945  26.106  20.312  1.00  0.00    -0.237 OA
ATOM    100  O   UNL A   1      50.045  27.107  19.090  1.00  0.00    -0.237 OA
ATOM    101  O   UNL A   1      51.724  28.562  20.159  1.00  0.00    -0.744 OA
ENDBRANCH  97  98
ENDBRANCH  71  92
ENDBRANCH  45  46
ENDBRANCH  38  40
ENDBRANCH  37  38
ENDBRANCH  36  37
ENDBRANCH  35  36
ENDBRANCH  34  35
ENDBRANCH  33  34
ENDBRANCH   1  33
TORSDOF 26
ENDMDL
