MODEL 1
REMARK VINA RESULT:      -9.0      0.000      0.000
REMARK SMILES Cc1cc(NCC(=O)OCCOCCOCCOCCOC(=O)c2ccc(-c3c4nc(c(-c5ccc(S(=O)(=O)[O-])cc5)c5ccc([nH]5)c(-c5ccc(S(=O)(=O)[O-])cc5)c5nc(c(-c6ccc(S(=O)(=O)[O-])cc6)c6ccc3[nH]6)C=C5)C=C4)cc2)c2cc(S(=O)(=O)N(C)C)ccc2n1
REMARK SMILES IDX 14 1 13 2 12 3 11 4 10 5 9 6 7 7 8 8 6 9 5 10 4 12 1 13 2 14
REMARK SMILES IDX 3 15 96 16 95 17 84 18 94 19 85 20 93 21 86 22 87 23 88 24
REMARK SMILES IDX 89 25 90 26 91 27 92 28 15 29 16 30 17 31 18 32 19 33 20 34
REMARK SMILES IDX 21 35 22 36 23 37 24 38 25 39 83 40 26 41 82 42 27 43 28 44
REMARK SMILES IDX 29 45 76 46 30 47 81 48 75 49 77 50 31 51 80 52 74 53 73 54
REMARK SMILES IDX 32 56 62 57 43 58 61 59 44 60 47 61 60 62 78 63 45 64 46 65
REMARK SMILES IDX 59 67 79 68 48 69 33 70 34 71 42 72 35 73 41 74 36 75 37 76
REMARK SMILES IDX 38 77 39 78 40 79 63 80 64 81 72 82 65 83 71 84 66 85 67 86
REMARK SMILES IDX 68 87 69 88 70 89 49 90 50 91 58 92 51 93 57 94 52 95 53 96
REMARK SMILES IDX 54 97 55 98 56 99
REMARK H PARENT 5 11 77 55 47 66
REMARK Flexibility Score: inf
ROOT
ATOM      1  C   UNL A   1      38.230  22.744  25.871  1.00  0.00     0.188 C 
ENDROOT
BRANCH   1   2
ATOM      2  C   UNL A   1      37.006  22.757  24.943  1.00  0.00     0.188 C 
BRANCH   2   3
ATOM      3  O   UNL A   1      35.727  22.360  25.408  1.00  0.00    -0.376 OA
BRANCH   3   4
ATOM      4  C   UNL A   1      34.563  22.559  24.615  1.00  0.00     0.202 C 
BRANCH   4   5
ATOM      5  C   UNL A   1      33.350  23.365  25.119  1.00  0.00     0.261 C 
BRANCH   5   6
ATOM      6  O   UNL A   1      32.778  24.285  24.177  1.00  0.00    -0.462 OA
BRANCH   6   7
ATOM      7  C   UNL A   1      31.605  24.874  24.520  1.00  0.00     0.325 C 
ATOM      8  O   UNL A   1      31.138  24.877  25.656  1.00  0.00    -0.250 OA
BRANCH   7   9
ATOM      9  C   UNL A   1      30.954  25.669  23.374  1.00  0.00     0.236 C 
BRANCH   9  10
ATOM     10  N   UNL A   1      31.532  26.986  23.056  1.00  0.00    -0.374 N 
ATOM     11  H   UNL A   1      31.617  27.179  22.094  1.00  0.00     0.161 HD
BRANCH  10  12
ATOM     12  C   UNL A   1      31.974  27.998  23.893  1.00  0.00     0.046 A 
ATOM     13  C   UNL A   1      34.855  28.391  26.330  1.00  0.00     0.067 C 
ATOM     14  C   UNL A   1      33.579  28.641  25.581  1.00  0.00     0.040 A 
ATOM     15  C   UNL A   1      33.161  27.758  24.596  1.00  0.00     0.049 A 
ATOM     16  N   UNL A   1      32.858  29.732  25.928  1.00  0.00    -0.253 NA
ATOM     17  C   UNL A   1      31.743  30.012  25.229  1.00  0.00     0.073 A 
ATOM     18  C   UNL A   1      31.313  29.210  24.152  1.00  0.00     0.025 A 
ATOM     19  C   UNL A   1      30.953  31.111  25.586  1.00  0.00     0.030 A 
ATOM     20  C   UNL A   1      30.224  29.650  23.396  1.00  0.00     0.034 A 
ATOM     21  C   UNL A   1      29.757  31.432  24.920  1.00  0.00     0.024 A 
ATOM     22  C   UNL A   1      29.410  30.693  23.804  1.00  0.00     0.083 A 
BRANCH  22  23
ATOM     23  S   UNL A   1      27.911  30.847  22.881  1.00  0.00     0.242 S 
ATOM     24  O   UNL A   1      27.946  29.851  21.829  1.00  0.00    -0.207 OA
ATOM     25  O   UNL A   1      26.844  30.846  23.862  1.00  0.00    -0.207 OA
BRANCH  23  26
ATOM     26  N   UNL A   1      27.922  32.368  22.117  1.00  0.00    -0.204 NA
ATOM     27  C   UNL A   1      28.879  33.342  22.698  1.00  0.00     0.124 C 
ATOM     28  C   UNL A   1      28.169  32.208  20.658  1.00  0.00     0.124 C 
ENDBRANCH  23  26
ENDBRANCH  22  23
ENDBRANCH  10  12
ENDBRANCH   9  10
ENDBRANCH   7   9
ENDBRANCH   6   7
ENDBRANCH   5   6
ENDBRANCH   4   5
ENDBRANCH   3   4
ENDBRANCH   2   3
ENDBRANCH   1   2
BRANCH   1  29
ATOM     29  O   UNL A   1      39.035  21.590  25.799  1.00  0.00    -0.377 OA
BRANCH  29  30
ATOM     30  C   UNL A   1      40.037  21.436  26.795  1.00  0.00     0.188 C 
BRANCH  30  31
ATOM     31  C   UNL A   1      41.185  22.462  26.835  1.00  0.00     0.188 C 
BRANCH  31  32
ATOM     32  O   UNL A   1      42.157  22.304  25.805  1.00  0.00    -0.376 OA
BRANCH  32  33
ATOM     33  C   UNL A   1      43.533  22.264  26.155  1.00  0.00     0.202 C 
BRANCH  33  34
ATOM     34  C   UNL A   1      44.338  23.574  26.084  1.00  0.00     0.261 C 
BRANCH  34  35
ATOM     35  O   UNL A   1      43.898  24.650  26.924  1.00  0.00    -0.460 OA
BRANCH  35  36
ATOM     36  C   UNL A   1      43.320  25.722  26.343  1.00  0.00     0.338 C 
ATOM     37  O   UNL A   1      43.183  25.930  25.150  1.00  0.00    -0.246 OA
BRANCH  36  38
ATOM     38  C   UNL A   1      42.692  26.520  27.415  1.00  0.00     0.060 A 
ATOM     39  C   UNL A   1      42.991  27.886  27.517  1.00  0.00     0.016 A 
ATOM     40  C   UNL A   1      41.800  25.919  28.305  1.00  0.00     0.016 A 
ATOM     41  C   UNL A   1      42.422  28.651  28.538  1.00  0.00     0.010 A 
ATOM     42  C   UNL A   1      41.253  26.678  29.339  1.00  0.00     0.010 A 
ATOM     43  C   UNL A   1      41.589  28.037  29.481  1.00  0.00    -0.014 A 
BRANCH  43  44
ATOM     44  C   UNL A   1      41.241  28.729  30.743  1.00  0.00     0.031 A 
ATOM     45  C   UNL A   1      40.087  29.694  30.715  1.00  0.00     0.074 A 
ATOM     46  C   UNL A   1      41.945  28.540  31.873  1.00  0.00     0.049 A 
ATOM     47  N   UNL A   1      39.687  30.535  31.630  1.00  0.00    -0.248 NA
ATOM     48  C   UNL A   1      39.286  29.719  29.479  1.00  0.00     0.031 C 
ATOM     49  C   UNL A   1      43.039  27.587  32.042  1.00  0.00     0.029 A 
ATOM     50  N   UNL A   1      41.851  29.167  33.091  1.00  0.00    -0.354 N 
ATOM     51  C   UNL A   1      38.602  31.205  31.074  1.00  0.00     0.074 A 
ATOM     52  C   UNL A   1      38.420  30.686  29.736  1.00  0.00     0.031 C 
ATOM     53  C   UNL A   1      43.533  27.707  33.288  1.00  0.00     0.029 A 
ATOM     54  C   UNL A   1      42.822  28.780  33.985  1.00  0.00     0.049 A 
ATOM     55  H   UNL A   1      41.156  29.830  33.305  1.00  0.00     0.167 HD
ATOM     56  C   UNL A   1      37.830  32.167  31.627  1.00  0.00     0.031 A 
ATOM     57  C   UNL A   1      43.125  29.265  35.207  1.00  0.00     0.031 A 
ATOM     58  C   UNL A   1      38.032  32.690  32.951  1.00  0.00     0.049 A 
ATOM     59  C   UNL A   1      42.311  30.404  35.770  1.00  0.00     0.074 A 
ATOM     60  C   UNL A   1      37.305  33.665  33.610  1.00  0.00     0.029 A 
ATOM     61  N   UNL A   1      39.038  32.286  33.814  1.00  0.00    -0.354 N 
ATOM     62  N   UNL A   1      41.284  31.026  35.238  1.00  0.00    -0.248 NA
ATOM     63  C   UNL A   1      42.692  30.906  37.099  1.00  0.00     0.031 C 
ATOM     64  C   UNL A   1      37.910  33.895  34.847  1.00  0.00     0.029 A 
ATOM     65  C   UNL A   1      38.967  33.009  34.992  1.00  0.00     0.049 A 
ATOM     66  H   UNL A   1      39.705  31.588  33.620  1.00  0.00     0.167 HD
ATOM     67  C   UNL A   1      40.872  31.960  36.185  1.00  0.00     0.074 A 
ATOM     68  C   UNL A   1      41.761  31.825  37.320  1.00  0.00     0.031 C 
ATOM     69  C   UNL A   1      39.845  32.843  36.123  1.00  0.00     0.031 A 
BRANCH  56  70
ATOM     70  C   UNL A   1      36.727  32.749  30.784  1.00  0.00    -0.014 A 
ATOM     71  C   UNL A   1      35.397  32.315  30.918  1.00  0.00     0.010 A 
ATOM     72  C   UNL A   1      37.024  33.773  29.867  1.00  0.00     0.010 A 
ATOM     73  C   UNL A   1      34.390  32.868  30.123  1.00  0.00     0.020 A 
ATOM     74  C   UNL A   1      36.015  34.351  29.092  1.00  0.00     0.020 A 
ATOM     75  C   UNL A   1      34.706  33.883  29.214  1.00  0.00     0.054 A 
BRANCH  75  76
ATOM     76  S   UNL A   1      33.374  34.598  28.214  1.00  0.00     0.124 S 
ATOM     77  O   UNL A   1      34.119  35.427  27.269  1.00  0.00    -0.237 OA
ATOM     78  O   UNL A   1      32.732  33.417  27.644  1.00  0.00    -0.237 OA
ATOM     79  O   UNL A   1      32.568  35.335  29.185  1.00  0.00    -0.744 OA
ENDBRANCH  75  76
ENDBRANCH  56  70
BRANCH  57  80
ATOM     80  C   UNL A   1      44.269  28.695  35.974  1.00  0.00    -0.014 A 
ATOM     81  C   UNL A   1      45.565  29.223  35.830  1.00  0.00     0.010 A 
ATOM     82  C   UNL A   1      44.070  27.615  36.856  1.00  0.00     0.010 A 
ATOM     83  C   UNL A   1      46.639  28.673  36.536  1.00  0.00     0.020 A 
ATOM     84  C   UNL A   1      45.135  27.083  37.587  1.00  0.00     0.020 A 
ATOM     85  C   UNL A   1      46.417  27.609  37.414  1.00  0.00     0.054 A 
BRANCH  85  86
ATOM     86  S   UNL A   1      47.818  26.947  38.359  1.00  0.00     0.124 S 
ATOM     87  O   UNL A   1      47.525  27.418  39.709  1.00  0.00    -0.237 OA
ATOM     88  O   UNL A   1      47.689  25.508  38.148  1.00  0.00    -0.237 OA
ATOM     89  O   UNL A   1      48.983  27.558  37.721  1.00  0.00    -0.744 OA
ENDBRANCH  85  86
ENDBRANCH  57  80
BRANCH  69  90
ATOM     90  C   UNL A   1      39.561  33.692  37.335  1.00  0.00    -0.014 A 
ATOM     91  C   UNL A   1      38.780  33.216  38.401  1.00  0.00     0.010 A 
ATOM     92  C   UNL A   1      40.195  34.943  37.454  1.00  0.00     0.010 A 
ATOM     93  C   UNL A   1      38.635  33.980  39.564  1.00  0.00     0.020 A 
ATOM     94  C   UNL A   1      40.077  35.696  38.624  1.00  0.00     0.020 A 
ATOM     95  C   UNL A   1      39.294  35.210  39.672  1.00  0.00     0.054 A 
BRANCH  95  96
ATOM     96  S   UNL A   1      39.167  36.135  41.228  1.00  0.00     0.124 S 
ATOM     97  O   UNL A   1      40.465  35.877  41.843  1.00  0.00    -0.237 OA
ATOM     98  O   UNL A   1      38.950  37.505  40.767  1.00  0.00    -0.237 OA
ATOM     99  O   UNL A   1      38.025  35.524  41.904  1.00  0.00    -0.744 OA
ENDBRANCH  95  96
ENDBRANCH  69  90
ENDBRANCH  43  44
ENDBRANCH  36  38
ENDBRANCH  35  36
ENDBRANCH  34  35
ENDBRANCH  33  34
ENDBRANCH  32  33
ENDBRANCH  31  32
ENDBRANCH  30  31
ENDBRANCH  29  30
ENDBRANCH   1  29
TORSDOF 27
ENDMDL
MODEL 2
REMARK VINA RESULT:      -8.8      5.994      8.263
REMARK SMILES Cc1cc(NCC(=O)OCCOCCOCCOCCOC(=O)c2ccc(-c3c4nc(c(-c5ccc(S(=O)(=O)[O-])cc5)c5ccc([nH]5)c(-c5ccc(S(=O)(=O)[O-])cc5)c5nc(c(-c6ccc(S(=O)(=O)[O-])cc6)c6ccc3[nH]6)C=C5)C=C4)cc2)c2cc(S(=O)(=O)N(C)C)ccc2n1
REMARK SMILES IDX 14 1 13 2 12 3 11 4 10 5 9 6 7 7 8 8 6 9 5 10 4 12 1 13 2 14
REMARK SMILES IDX 3 15 96 16 95 17 84 18 94 19 85 20 93 21 86 22 87 23 88 24
REMARK SMILES IDX 89 25 90 26 91 27 92 28 15 29 16 30 17 31 18 32 19 33 20 34
REMARK SMILES IDX 21 35 22 36 23 37 24 38 25 39 83 40 26 41 82 42 27 43 28 44
REMARK SMILES IDX 29 45 76 46 30 47 81 48 75 49 77 50 31 51 80 52 74 53 73 54
REMARK SMILES IDX 32 56 62 57 43 58 61 59 44 60 47 61 60 62 78 63 45 64 46 65
REMARK SMILES IDX 59 67 79 68 48 69 33 70 34 71 42 72 35 73 41 74 36 75 37 76
REMARK SMILES IDX 38 77 39 78 40 79 63 80 64 81 72 82 65 83 71 84 66 85 67 86
REMARK SMILES IDX 68 87 69 88 70 89 49 90 50 91 58 92 51 93 57 94 52 95 53 96
REMARK SMILES IDX 54 97 55 98 56 99
REMARK H PARENT 5 11 77 55 47 66
REMARK Flexibility Score: inf
ROOT
ATOM      1  C   UNL A   1      38.199  23.103  25.965  1.00  0.00     0.188 C 
ENDROOT
BRANCH   1   2
ATOM      2  C   UNL A   1      36.821  23.082  25.288  1.00  0.00     0.188 C 
BRANCH   2   3
ATOM      3  O   UNL A   1      35.663  22.660  25.990  1.00  0.00    -0.376 OA
BRANCH   3   4
ATOM      4  C   UNL A   1      34.461  22.341  25.298  1.00  0.00     0.202 C 
BRANCH   4   5
ATOM      5  C   UNL A   1      33.509  23.425  24.756  1.00  0.00     0.261 C 
BRANCH   5   6
ATOM      6  O   UNL A   1      33.281  23.400  23.339  1.00  0.00    -0.462 OA
BRANCH   6   7
ATOM      7  C   UNL A   1      32.075  23.840  22.899  1.00  0.00     0.325 C 
ATOM      8  O   UNL A   1      31.000  23.323  23.192  1.00  0.00    -0.250 OA
BRANCH   7   9
ATOM      9  C   UNL A   1      32.151  25.148  22.090  1.00  0.00     0.236 C 
BRANCH   9  10
ATOM     10  N   UNL A   1      31.511  26.339  22.674  1.00  0.00    -0.374 N 
ATOM     11  H   UNL A   1      30.600  26.522  22.346  1.00  0.00     0.161 HD
BRANCH  10  12
ATOM     12  C   UNL A   1      31.983  27.243  23.611  1.00  0.00     0.046 A 
ATOM     13  C   UNL A   1      34.614  27.141  26.343  1.00  0.00     0.067 C 
ATOM     14  C   UNL A   1      33.466  27.590  25.487  1.00  0.00     0.040 A 
ATOM     15  C   UNL A   1      33.049  26.817  24.413  1.00  0.00     0.049 A 
ATOM     16  N   UNL A   1      32.854  28.747  25.827  1.00  0.00    -0.253 NA
ATOM     17  C   UNL A   1      31.862  29.203  25.039  1.00  0.00     0.073 A 
ATOM     18  C   UNL A   1      31.454  28.517  23.877  1.00  0.00     0.025 A 
ATOM     19  C   UNL A   1      31.182  30.376  25.383  1.00  0.00     0.030 A 
ATOM     20  C   UNL A   1      30.515  29.130  23.045  1.00  0.00     0.034 A 
ATOM     21  C   UNL A   1      30.113  30.882  24.622  1.00  0.00     0.024 A 
ATOM     22  C   UNL A   1      29.798  30.249  23.433  1.00  0.00     0.083 A 
BRANCH  22  23
ATOM     23  S   UNL A   1      28.436  30.640  22.377  1.00  0.00     0.242 S 
ATOM     24  O   UNL A   1      28.463  29.705  21.271  1.00  0.00    -0.207 OA
ATOM     25  O   UNL A   1      27.279  30.725  23.244  1.00  0.00    -0.207 OA
BRANCH  23  26
ATOM     26  N   UNL A   1      28.714  32.185  21.718  1.00  0.00    -0.204 NA
ATOM     27  C   UNL A   1      27.794  32.560  20.615  1.00  0.00     0.124 C 
ATOM     28  C   UNL A   1      28.682  33.215  22.792  1.00  0.00     0.124 C 
ENDBRANCH  23  26
ENDBRANCH  22  23
ENDBRANCH  10  12
ENDBRANCH   9  10
ENDBRANCH   7   9
ENDBRANCH   6   7
ENDBRANCH   5   6
ENDBRANCH   4   5
ENDBRANCH   3   4
ENDBRANCH   2   3
ENDBRANCH   1   2
BRANCH   1  29
ATOM     29  O   UNL A   1      38.934  21.903  25.883  1.00  0.00    -0.377 OA
BRANCH  29  30
ATOM     30  C   UNL A   1      40.019  21.745  26.786  1.00  0.00     0.188 C 
BRANCH  30  31
ATOM     31  C   UNL A   1      41.364  21.245  26.223  1.00  0.00     0.188 C 
BRANCH  31  32
ATOM     32  O   UNL A   1      41.380  19.865  25.868  1.00  0.00    -0.376 OA
BRANCH  32  33
ATOM     33  C   UNL A   1      42.385  19.023  26.415  1.00  0.00     0.202 C 
BRANCH  33  34
ATOM     34  C   UNL A   1      43.495  18.515  25.478  1.00  0.00     0.261 C 
BRANCH  34  35
ATOM     35  O   UNL A   1      44.651  19.351  25.330  1.00  0.00    -0.460 OA
BRANCH  35  36
ATOM     36  C   UNL A   1      44.670  20.246  24.321  1.00  0.00     0.338 C 
ATOM     37  O   UNL A   1      44.477  20.028  23.137  1.00  0.00    -0.246 OA
BRANCH  36  38
ATOM     38  C   UNL A   1      44.768  21.590  24.925  1.00  0.00     0.060 A 
ATOM     39  C   UNL A   1      44.490  22.717  24.139  1.00  0.00     0.016 A 
ATOM     40  C   UNL A   1      45.119  21.730  26.268  1.00  0.00     0.016 A 
ATOM     41  C   UNL A   1      44.599  23.996  24.688  1.00  0.00     0.010 A 
ATOM     42  C   UNL A   1      45.252  23.009  26.809  1.00  0.00     0.010 A 
ATOM     43  C   UNL A   1      45.027  24.147  26.013  1.00  0.00    -0.014 A 
BRANCH  43  44
ATOM     44  C   UNL A   1      45.465  25.468  26.518  1.00  0.00     0.031 A 
ATOM     45  C   UNL A   1      44.407  26.401  27.040  1.00  0.00     0.074 A 
ATOM     46  C   UNL A   1      46.754  25.850  26.482  1.00  0.00     0.049 A 
ATOM     47  N   UNL A   1      44.505  27.657  27.384  1.00  0.00    -0.248 NA
ATOM     48  C   UNL A   1      43.052  25.840  27.179  1.00  0.00     0.031 C 
ATOM     49  C   UNL A   1      47.875  25.013  26.061  1.00  0.00     0.029 A 
ATOM     50  N   UNL A   1      47.330  27.058  26.790  1.00  0.00    -0.354 N 
ATOM     51  C   UNL A   1      43.223  28.043  27.760  1.00  0.00     0.074 A 
ATOM     52  C   UNL A   1      42.362  26.895  27.582  1.00  0.00     0.031 C 
ATOM     53  C   UNL A   1      49.005  25.742  26.114  1.00  0.00     0.029 A 
ATOM     54  C   UNL A   1      48.678  27.107  26.526  1.00  0.00     0.049 A 
ATOM     55  H   UNL A   1      46.826  27.816  27.164  1.00  0.00     0.167 HD
ATOM     56  C   UNL A   1      42.801  29.248  28.209  1.00  0.00     0.031 A 
ATOM     57  C   UNL A   1      49.538  28.146  26.572  1.00  0.00     0.031 A 
ATOM     58  C   UNL A   1      43.661  30.388  28.363  1.00  0.00     0.049 A 
ATOM     59  C   UNL A   1      49.029  29.505  26.986  1.00  0.00     0.074 A 
ATOM     60  C   UNL A   1      43.337  31.655  28.812  1.00  0.00     0.029 A 
ATOM     61  N   UNL A   1      45.016  30.402  28.064  1.00  0.00    -0.354 N 
ATOM     62  N   UNL A   1      47.816  29.859  27.343  1.00  0.00    -0.248 NA
ATOM     63  C   UNL A   1      50.003  30.607  27.004  1.00  0.00     0.031 C 
ATOM     64  C   UNL A   1      44.480  32.453  28.726  1.00  0.00     0.029 A 
ATOM     65  C   UNL A   1      45.536  31.662  28.297  1.00  0.00     0.049 A 
ATOM     66  H   UNL A   1      45.531  29.630  27.735  1.00  0.00     0.167 HD
ATOM     67  C   UNL A   1      47.893  31.210  27.672  1.00  0.00     0.074 A 
ATOM     68  C   UNL A   1      49.269  31.612  27.466  1.00  0.00     0.031 C 
ATOM     69  C   UNL A   1      46.915  32.039  28.111  1.00  0.00     0.031 A 
BRANCH  56  70
ATOM     70  C   UNL A   1      41.337  29.403  28.519  1.00  0.00    -0.014 A 
ATOM     71  C   UNL A   1      40.353  29.171  27.542  1.00  0.00     0.010 A 
ATOM     72  C   UNL A   1      40.939  29.752  29.823  1.00  0.00     0.010 A 
ATOM     73  C   UNL A   1      38.999  29.323  27.853  1.00  0.00     0.020 A 
ATOM     74  C   UNL A   1      39.585  29.875  30.146  1.00  0.00     0.020 A 
ATOM     75  C   UNL A   1      38.624  29.675  29.154  1.00  0.00     0.054 A 
BRANCH  75  76
ATOM     76  S   UNL A   1      36.859  29.840  29.533  1.00  0.00     0.124 S 
ATOM     77  O   UNL A   1      36.241  29.166  28.394  1.00  0.00    -0.237 OA
ATOM     78  O   UNL A   1      36.741  29.148  30.814  1.00  0.00    -0.237 OA
ATOM     79  O   UNL A   1      36.649  31.285  29.588  1.00  0.00    -0.744 OA
ENDBRANCH  75  76
ENDBRANCH  56  70
BRANCH  57  80
ATOM     80  C   UNL A   1      50.966  27.952  26.192  1.00  0.00    -0.014 A 
ATOM     81  C   UNL A   1      51.424  28.311  24.912  1.00  0.00     0.010 A 
ATOM     82  C   UNL A   1      51.880  27.401  27.111  1.00  0.00     0.010 A 
ATOM     83  C   UNL A   1      52.760  28.109  24.552  1.00  0.00     0.020 A 
ATOM     84  C   UNL A   1      53.223  27.226  26.766  1.00  0.00     0.020 A 
ATOM     85  C   UNL A   1      53.653  27.571  25.483  1.00  0.00     0.054 A 
BRANCH  85  86
ATOM     86  S   UNL A   1      55.393  27.367  25.010  1.00  0.00     0.124 S 
ATOM     87  O   UNL A   1      55.403  26.015  24.461  1.00  0.00    -0.237 OA
ATOM     88  O   UNL A   1      55.585  28.445  24.044  1.00  0.00    -0.237 OA
ATOM     89  O   UNL A   1      56.115  27.537  26.270  1.00  0.00    -0.744 OA
ENDBRANCH  85  86
ENDBRANCH  57  80
BRANCH  69  90
ATOM     90  C   UNL A   1      47.290  33.451  28.479  1.00  0.00    -0.014 A 
ATOM     91  C   UNL A   1      47.108  34.519  27.585  1.00  0.00     0.010 A 
ATOM     92  C   UNL A   1      47.718  33.722  29.793  1.00  0.00     0.010 A 
ATOM     93  C   UNL A   1      47.352  35.833  27.998  1.00  0.00     0.020 A 
ATOM     94  C   UNL A   1      47.934  35.034  30.218  1.00  0.00     0.020 A 
ATOM     95  C   UNL A   1      47.752  36.082  29.316  1.00  0.00     0.054 A 
BRANCH  95  96
ATOM     96  S   UNL A   1      47.968  37.802  29.852  1.00  0.00     0.124 S 
ATOM     97  O   UNL A   1      49.389  38.024  29.604  1.00  0.00    -0.237 OA
ATOM     98  O   UNL A   1      47.054  38.527  28.972  1.00  0.00    -0.237 OA
ATOM     99  O   UNL A   1      47.578  37.778  31.261  1.00  0.00    -0.744 OA
ENDBRANCH  95  96
ENDBRANCH  69  90
ENDBRANCH  43  44
ENDBRANCH  36  38
ENDBRANCH  35  36
ENDBRANCH  34  35
ENDBRANCH  33  34
ENDBRANCH  32  33
ENDBRANCH  31  32
ENDBRANCH  30  31
ENDBRANCH  29  30
ENDBRANCH   1  29
TORSDOF 27
ENDMDL
MODEL 3
REMARK VINA RESULT:      -8.6      6.078      8.862
REMARK SMILES Cc1cc(NCC(=O)OCCOCCOCCOCCOC(=O)c2ccc(-c3c4nc(c(-c5ccc(S(=O)(=O)[O-])cc5)c5ccc([nH]5)c(-c5ccc(S(=O)(=O)[O-])cc5)c5nc(c(-c6ccc(S(=O)(=O)[O-])cc6)c6ccc3[nH]6)C=C5)C=C4)cc2)c2cc(S(=O)(=O)N(C)C)ccc2n1
REMARK SMILES IDX 14 1 13 2 12 3 11 4 10 5 9 6 7 7 8 8 6 9 5 10 4 12 1 13 2 14
REMARK SMILES IDX 3 15 96 16 95 17 84 18 94 19 85 20 93 21 86 22 87 23 88 24
REMARK SMILES IDX 89 25 90 26 91 27 92 28 15 29 16 30 17 31 18 32 19 33 20 34
REMARK SMILES IDX 21 35 22 36 23 37 24 38 25 39 83 40 26 41 82 42 27 43 28 44
REMARK SMILES IDX 29 45 76 46 30 47 81 48 75 49 77 50 31 51 80 52 74 53 73 54
REMARK SMILES IDX 32 56 62 57 43 58 61 59 44 60 47 61 60 62 78 63 45 64 46 65
REMARK SMILES IDX 59 67 79 68 48 69 33 70 34 71 42 72 35 73 41 74 36 75 37 76
REMARK SMILES IDX 38 77 39 78 40 79 63 80 64 81 72 82 65 83 71 84 66 85 67 86
REMARK SMILES IDX 68 87 69 88 70 89 49 90 50 91 58 92 51 93 57 94 52 95 53 96
REMARK SMILES IDX 54 97 55 98 56 99
REMARK H PARENT 5 11 77 55 47 66
REMARK Flexibility Score: inf
ROOT
ATOM      1  C   UNL A   1      38.773  22.391  26.098  1.00  0.00     0.188 C 
ENDROOT
BRANCH   1   2
ATOM      2  C   UNL A   1      37.413  22.598  25.416  1.00  0.00     0.188 C 
BRANCH   2   3
ATOM      3  O   UNL A   1      36.282  21.824  25.780  1.00  0.00    -0.376 OA
BRANCH   3   4
ATOM      4  C   UNL A   1      35.371  21.347  24.796  1.00  0.00     0.202 C 
BRANCH   4   5
ATOM      5  C   UNL A   1      34.236  22.222  24.231  1.00  0.00     0.261 C 
BRANCH   5   6
ATOM      6  O   UNL A   1      32.905  21.820  24.584  1.00  0.00    -0.462 OA
BRANCH   6   7
ATOM      7  C   UNL A   1      32.246  22.589  25.488  1.00  0.00     0.325 C 
ATOM      8  O   UNL A   1      32.622  22.780  26.641  1.00  0.00    -0.250 OA
BRANCH   7   9
ATOM      9  C   UNL A   1      31.028  23.326  24.900  1.00  0.00     0.236 C 
BRANCH   9  10
ATOM     10  N   UNL A   1      31.133  24.788  24.756  1.00  0.00    -0.374 N 
ATOM     11  H   UNL A   1      30.733  25.307  25.491  1.00  0.00     0.161 HD
BRANCH  10  12
ATOM     12  C   UNL A   1      31.704  25.551  23.751  1.00  0.00     0.046 A 
ATOM     13  C   UNL A   1      32.867  24.873  20.203  1.00  0.00     0.067 C 
ATOM     14  C   UNL A   1      32.642  25.550  21.524  1.00  0.00     0.040 A 
ATOM     15  C   UNL A   1      31.920  24.914  22.522  1.00  0.00     0.049 A 
ATOM     16  N   UNL A   1      33.193  26.774  21.696  1.00  0.00    -0.253 NA
ATOM     17  C   UNL A   1      32.953  27.428  22.847  1.00  0.00     0.073 A 
ATOM     18  C   UNL A   1      32.146  26.880  23.866  1.00  0.00     0.025 A 
ATOM     19  C   UNL A   1      33.538  28.679  23.074  1.00  0.00     0.030 A 
ATOM     20  C   UNL A   1      31.837  27.683  24.966  1.00  0.00     0.034 A 
ATOM     21  C   UNL A   1      33.357  29.393  24.272  1.00  0.00     0.024 A 
ATOM     22  C   UNL A   1      32.481  28.884  25.213  1.00  0.00     0.083 A 
BRANCH  22  23
ATOM     23  S   UNL A   1      32.183  29.550  26.822  1.00  0.00     0.242 S 
ATOM     24  O   UNL A   1      31.656  30.888  26.647  1.00  0.00    -0.207 OA
ATOM     25  O   UNL A   1      31.417  28.542  27.528  1.00  0.00    -0.207 OA
BRANCH  23  26
ATOM     26  N   UNL A   1      33.685  29.714  27.605  1.00  0.00    -0.204 NA
ATOM     27  C   UNL A   1      34.760  28.844  27.066  1.00  0.00     0.124 C 
ATOM     28  C   UNL A   1      34.118  31.138  27.594  1.00  0.00     0.124 C 
ENDBRANCH  23  26
ENDBRANCH  22  23
ENDBRANCH  10  12
ENDBRANCH   9  10
ENDBRANCH   7   9
ENDBRANCH   6   7
ENDBRANCH   5   6
ENDBRANCH   4   5
ENDBRANCH   3   4
ENDBRANCH   2   3
ENDBRANCH   1   2
BRANCH   1  29
ATOM     29  O   UNL A   1      39.345  21.113  25.938  1.00  0.00    -0.377 OA
BRANCH  29  30
ATOM     30  C   UNL A   1      40.459  20.793  26.761  1.00  0.00     0.188 C 
BRANCH  30  31
ATOM     31  C   UNL A   1      41.765  20.351  26.074  1.00  0.00     0.188 C 
BRANCH  31  32
ATOM     32  O   UNL A   1      41.902  18.942  25.912  1.00  0.00    -0.376 OA
BRANCH  32  33
ATOM     33  C   UNL A   1      43.148  18.331  26.217  1.00  0.00     0.202 C 
BRANCH  33  34
ATOM     34  C   UNL A   1      44.279  18.432  25.178  1.00  0.00     0.261 C 
BRANCH  34  35
ATOM     35  O   UNL A   1      45.102  19.605  25.230  1.00  0.00    -0.460 OA
BRANCH  35  36
ATOM     36  C   UNL A   1      44.933  20.551  24.282  1.00  0.00     0.338 C 
ATOM     37  O   UNL A   1      44.577  20.383  23.129  1.00  0.00    -0.246 OA
BRANCH  36  38
ATOM     38  C   UNL A   1      45.058  21.865  24.943  1.00  0.00     0.060 A 
ATOM     39  C   UNL A   1      44.766  23.028  24.217  1.00  0.00     0.016 A 
ATOM     40  C   UNL A   1      45.448  21.942  26.281  1.00  0.00     0.016 A 
ATOM     41  C   UNL A   1      44.900  24.281  24.820  1.00  0.00     0.010 A 
ATOM     42  C   UNL A   1      45.605  23.194  26.875  1.00  0.00     0.010 A 
ATOM     43  C   UNL A   1      45.366  24.368  26.138  1.00  0.00    -0.014 A 
BRANCH  43  44
ATOM     44  C   UNL A   1      45.828  25.663  26.689  1.00  0.00     0.031 A 
ATOM     45  C   UNL A   1      44.826  26.500  27.436  1.00  0.00     0.074 A 
ATOM     46  C   UNL A   1      47.085  26.104  26.505  1.00  0.00     0.049 A 
ATOM     47  N   UNL A   1      44.931  27.727  27.871  1.00  0.00    -0.248 NA
ATOM     48  C   UNL A   1      43.525  25.868  27.716  1.00  0.00     0.031 C 
ATOM     49  C   UNL A   1      48.161  25.357  25.857  1.00  0.00     0.029 A 
ATOM     50  N   UNL A   1      47.658  27.308  26.833  1.00  0.00    -0.354 N 
ATOM     51  C   UNL A   1      43.705  28.022  28.458  1.00  0.00     0.074 A 
ATOM     52  C   UNL A   1      42.866  26.854  28.304  1.00  0.00     0.031 C 
ATOM     53  C   UNL A   1      49.261  26.130  25.814  1.00  0.00     0.029 A 
ATOM     54  C   UNL A   1      48.951  27.441  26.385  1.00  0.00     0.049 A 
ATOM     55  H   UNL A   1      47.189  28.009  27.340  1.00  0.00     0.167 HD
ATOM     56  C   UNL A   1      43.312  29.165  29.065  1.00  0.00     0.031 A 
ATOM     57  C   UNL A   1      49.774  28.511  26.400  1.00  0.00     0.031 A 
ATOM     58  C   UNL A   1      44.147  30.327  29.195  1.00  0.00     0.049 A 
ATOM     59  C   UNL A   1      49.285  29.807  26.999  1.00  0.00     0.074 A 
ATOM     60  C   UNL A   1      43.849  31.537  29.795  1.00  0.00     0.029 A 
ATOM     61  N   UNL A   1      45.442  30.427  28.710  1.00  0.00    -0.354 N 
ATOM     62  N   UNL A   1      48.125  30.074  27.555  1.00  0.00    -0.248 NA
ATOM     63  C   UNL A   1      50.213  30.947  26.975  1.00  0.00     0.031 C 
ATOM     64  C   UNL A   1      44.940  32.390  29.618  1.00  0.00     0.029 A 
ATOM     65  C   UNL A   1      45.948  31.687  28.976  1.00  0.00     0.049 A 
ATOM     66  H   UNL A   1      45.930  29.709  28.245  1.00  0.00     0.167 HD
ATOM     67  C   UNL A   1      48.204  31.396  27.986  1.00  0.00     0.074 A 
ATOM     68  C   UNL A   1      49.521  31.876  27.622  1.00  0.00     0.031 C 
ATOM     69  C   UNL A   1      47.273  32.141  28.630  1.00  0.00     0.031 A 
BRANCH  56  70
ATOM     70  C   UNL A   1      41.904  29.227  29.593  1.00  0.00    -0.014 A 
ATOM     71  C   UNL A   1      41.629  29.078  30.964  1.00  0.00     0.010 A 
ATOM     72  C   UNL A   1      40.842  29.475  28.704  1.00  0.00     0.010 A 
ATOM     73  C   UNL A   1      40.313  29.138  31.431  1.00  0.00     0.020 A 
ATOM     74  C   UNL A   1      39.528  29.566  29.171  1.00  0.00     0.020 A 
ATOM     75  C   UNL A   1      39.271  29.382  30.530  1.00  0.00     0.054 A 
BRANCH  75  76
ATOM     76  S   UNL A   1      37.577  29.479  31.169  1.00  0.00     0.124 S 
ATOM     77  O   UNL A   1      37.564  28.398  32.152  1.00  0.00    -0.237 OA
ATOM     78  O   UNL A   1      37.520  30.830  31.720  1.00  0.00    -0.237 OA
ATOM     79  O   UNL A   1      36.747  29.255  29.988  1.00  0.00    -0.744 OA
ENDBRANCH  75  76
ENDBRANCH  56  70
BRANCH  57  80
ATOM     80  C   UNL A   1      51.137  28.414  25.806  1.00  0.00    -0.014 A 
ATOM     81  C   UNL A   1      51.320  28.484  24.413  1.00  0.00     0.010 A 
ATOM     82  C   UNL A   1      52.265  28.247  26.632  1.00  0.00     0.010 A 
ATOM     83  C   UNL A   1      52.599  28.373  23.858  1.00  0.00     0.020 A 
ATOM     84  C   UNL A   1      53.548  28.166  26.083  1.00  0.00     0.020 A 
ATOM     85  C   UNL A   1      53.706  28.219  24.697  1.00  0.00     0.054 A 
BRANCH  85  86
ATOM     86  S   UNL A   1      55.360  28.130  23.956  1.00  0.00     0.124 S 
ATOM     87  O   UNL A   1      56.211  27.958  25.129  1.00  0.00    -0.237 OA
ATOM     88  O   UNL A   1      55.249  26.968  23.078  1.00  0.00    -0.237 OA
ATOM     89  O   UNL A   1      55.497  29.411  23.264  1.00  0.00    -0.744 OA
ENDBRANCH  85  86
ENDBRANCH  57  80
BRANCH  69  90
ATOM     90  C   UNL A   1      47.649  33.533  29.063  1.00  0.00    -0.014 A 
ATOM     91  C   UNL A   1      48.311  33.774  30.278  1.00  0.00     0.010 A 
ATOM     92  C   UNL A   1      47.443  34.603  28.171  1.00  0.00     0.010 A 
ATOM     93  C   UNL A   1      48.755  35.062  30.595  1.00  0.00     0.020 A 
ATOM     94  C   UNL A   1      47.910  35.884  28.470  1.00  0.00     0.020 A 
ATOM     95  C   UNL A   1      48.561  36.107  29.684  1.00  0.00     0.054 A 
BRANCH  95  96
ATOM     96  S   UNL A   1      49.233  37.746  30.078  1.00  0.00     0.124 S 
ATOM     97  O   UNL A   1      48.093  38.616  29.806  1.00  0.00    -0.237 OA
ATOM     98  O   UNL A   1      49.600  37.609  31.485  1.00  0.00    -0.237 OA
ATOM     99  O   UNL A   1      50.359  37.890  29.158  1.00  0.00    -0.744 OA
ENDBRANCH  95  96
ENDBRANCH  69  90
ENDBRANCH  43  44
ENDBRANCH  36  38
ENDBRANCH  35  36
ENDBRANCH  34  35
ENDBRANCH  33  34
ENDBRANCH  32  33
ENDBRANCH  31  32
ENDBRANCH  30  31
ENDBRANCH  29  30
ENDBRANCH   1  29
TORSDOF 27
ENDMDL
