MODEL 1
REMARK VINA RESULT:     -10.6      0.000      0.000
REMARK SMILES O=C(OCCOCCOCCOCCOC(=O)c1oc2cccc3c2c1CCC3)c1ccc(-c2c3nc(c(-c4ccc(S(=O)(=O)[O-])cc4)c4ccc([nH]4)c(-c4ccc(S(=O)(=O)[O-])cc4)c4nc(c(-c5ccc(S(=O)(=O)[O-])cc5)c5ccc2[nH]5)C=C4)C=C3)cc1
REMARK SMILES IDX 7 1 6 2 5 3 4 4 3 5 2 6 1 7 30 8 31 9 89 10 32 11 88 12
REMARK SMILES IDX 33 13 34 14 35 15 82 16 36 17 87 18 81 19 83 20 37 21 86 22
REMARK SMILES IDX 80 23 79 24 38 26 68 27 49 28 67 29 50 30 53 31 66 32 84 33
REMARK SMILES IDX 51 34 52 35 65 37 85 38 54 39 39 40 40 41 48 42 41 43 47 44
REMARK SMILES IDX 42 45 43 46 44 47 45 48 46 49 69 50 70 51 78 52 71 53 77 54
REMARK SMILES IDX 72 55 73 56 74 57 75 58 76 59 55 60 56 61 64 62 57 63 63 64
REMARK SMILES IDX 58 65 59 66 60 67 61 68 62 69 8 70 9 71 10 72 11 73 12 74
REMARK SMILES IDX 13 75 14 76 15 77 16 78 17 79 18 80 19 81 26 82 20 83 25 84
REMARK SMILES IDX 27 85 21 86 24 87 28 88 22 89 23 90 29 91
REMARK H PARENT 83 25 53 36
REMARK Flexibility Score: inf
ROOT
ATOM      1  C   UNL A   1      39.623  21.465  26.217  1.00  0.00     0.188 C 
ENDROOT
BRANCH   1   2
ATOM      2  O   UNL A   1      40.879  22.089  25.898  1.00  0.00    -0.376 OA
BRANCH   2   3
ATOM      3  C   UNL A   1      42.115  21.515  26.327  1.00  0.00     0.202 C 
BRANCH   3   4
ATOM      4  C   UNL A   1      43.394  22.128  25.772  1.00  0.00     0.261 C 
BRANCH   4   5
ATOM      5  O   UNL A   1      43.174  23.301  24.975  1.00  0.00    -0.460 OA
BRANCH   5   6
ATOM      6  C   UNL A   1      43.602  24.503  25.421  1.00  0.00     0.338 C 
ATOM      7  O   UNL A   1      44.572  25.073  24.937  1.00  0.00    -0.246 OA
BRANCH   6   8
ATOM      8  C   UNL A   1      42.663  25.211  26.323  1.00  0.00     0.060 A 
ATOM      9  C   UNL A   1      41.504  25.857  25.884  1.00  0.00     0.016 A 
ATOM     10  C   UNL A   1      43.053  25.298  27.665  1.00  0.00     0.016 A 
ATOM     11  C   UNL A   1      40.982  26.866  26.638  1.00  0.00     0.010 A 
ATOM     12  C   UNL A   1      42.500  26.278  28.455  1.00  0.00     0.010 A 
ATOM     13  C   UNL A   1      41.592  27.136  27.856  1.00  0.00    -0.014 A 
BRANCH  13  14
ATOM     14  C   UNL A   1      41.323  28.438  28.396  1.00  0.00     0.031 A 
ATOM     15  C   UNL A   1      42.420  29.400  28.192  1.00  0.00     0.074 A 
ATOM     16  C   UNL A   1      40.219  28.625  29.139  1.00  0.00     0.049 A 
ATOM     17  N   UNL A   1      43.261  29.822  29.074  1.00  0.00    -0.248 NA
ATOM     18  C   UNL A   1      42.746  29.762  26.807  1.00  0.00     0.031 C 
ATOM     19  C   UNL A   1      39.023  27.790  29.287  1.00  0.00     0.029 A 
ATOM     20  N   UNL A   1      39.930  29.694  29.909  1.00  0.00    -0.354 N 
ATOM     21  C   UNL A   1      44.138  30.648  28.388  1.00  0.00     0.074 A 
ATOM     22  C   UNL A   1      43.866  30.462  26.983  1.00  0.00     0.031 C 
ATOM     23  C   UNL A   1      38.048  28.515  29.886  1.00  0.00     0.029 A 
ATOM     24  C   UNL A   1      38.606  29.792  30.298  1.00  0.00     0.049 A 
ATOM     25  H   UNL A   1      40.610  30.355  30.175  1.00  0.00     0.167 HD
ATOM     26  C   UNL A   1      44.903  31.575  29.024  1.00  0.00     0.031 A 
ATOM     27  C   UNL A   1      38.034  30.901  30.833  1.00  0.00     0.031 A 
ATOM     28  C   UNL A   1      44.994  31.333  30.438  1.00  0.00     0.049 A 
ATOM     29  C   UNL A   1      39.154  31.689  31.428  1.00  0.00     0.074 A 
ATOM     30  C   UNL A   1      45.600  30.361  31.208  1.00  0.00     0.029 A 
ATOM     31  N   UNL A   1      44.047  31.921  31.247  1.00  0.00    -0.354 N 
ATOM     32  N   UNL A   1      39.863  31.254  32.435  1.00  0.00    -0.248 NA
ATOM     33  C   UNL A   1      39.812  32.689  30.594  1.00  0.00     0.031 C 
ATOM     34  C   UNL A   1      44.678  30.094  32.262  1.00  0.00     0.029 A 
ATOM     35  C   UNL A   1      43.591  30.959  32.118  1.00  0.00     0.049 A 
ATOM     36  H   UNL A   1      43.751  32.859  31.208  1.00  0.00     0.167 HD
ATOM     37  C   UNL A   1      41.175  31.606  32.141  1.00  0.00     0.074 A 
ATOM     38  C   UNL A   1      41.071  32.547  31.024  1.00  0.00     0.031 C 
ATOM     39  C   UNL A   1      42.235  30.893  32.628  1.00  0.00     0.031 A 
BRANCH  26  40
ATOM     40  C   UNL A   1      45.269  32.876  28.377  1.00  0.00    -0.014 A 
ATOM     41  C   UNL A   1      46.614  33.170  28.097  1.00  0.00     0.010 A 
ATOM     42  C   UNL A   1      44.336  33.931  28.268  1.00  0.00     0.010 A 
ATOM     43  C   UNL A   1      47.007  34.474  27.760  1.00  0.00     0.020 A 
ATOM     44  C   UNL A   1      44.709  35.218  27.895  1.00  0.00     0.020 A 
ATOM     45  C   UNL A   1      46.050  35.489  27.670  1.00  0.00     0.054 A 
BRANCH  45  46
ATOM     46  S   UNL A   1      46.586  37.192  27.370  1.00  0.00     0.124 S 
ATOM     47  O   UNL A   1      46.667  37.732  28.723  1.00  0.00    -0.237 OA
ATOM     48  O   UNL A   1      47.862  36.994  26.688  1.00  0.00    -0.237 OA
ATOM     49  O   UNL A   1      45.519  37.747  26.540  1.00  0.00    -0.744 OA
ENDBRANCH  45  46
ENDBRANCH  26  40
BRANCH  27  50
ATOM     50  C   UNL A   1      36.760  31.518  30.364  1.00  0.00    -0.014 A 
ATOM     51  C   UNL A   1      35.876  32.123  31.277  1.00  0.00     0.010 A 
ATOM     52  C   UNL A   1      36.543  31.763  28.991  1.00  0.00     0.010 A 
ATOM     53  C   UNL A   1      34.866  32.999  30.839  1.00  0.00     0.020 A 
ATOM     54  C   UNL A   1      35.538  32.631  28.546  1.00  0.00     0.020 A 
ATOM     55  C   UNL A   1      34.724  33.272  29.476  1.00  0.00     0.054 A 
BRANCH  55  56
ATOM     56  S   UNL A   1      33.541  34.540  28.934  1.00  0.00     0.124 S 
ATOM     57  O   UNL A   1      32.725  33.817  27.963  1.00  0.00    -0.237 OA
ATOM     58  O   UNL A   1      32.872  34.893  30.182  1.00  0.00    -0.237 OA
ATOM     59  O   UNL A   1      34.390  35.589  28.369  1.00  0.00    -0.744 OA
ENDBRANCH  55  56
ENDBRANCH  27  50
BRANCH  39  60
ATOM     60  C   UNL A   1      41.946  29.792  33.628  1.00  0.00    -0.014 A 
ATOM     61  C   UNL A   1      41.654  28.462  33.254  1.00  0.00     0.010 A 
ATOM     62  C   UNL A   1      42.140  30.072  34.990  1.00  0.00     0.010 A 
ATOM     63  C   UNL A   1      41.540  27.449  34.222  1.00  0.00     0.020 A 
ATOM     64  C   UNL A   1      42.040  29.065  35.956  1.00  0.00     0.020 A 
ATOM     65  C   UNL A   1      41.739  27.759  35.571  1.00  0.00     0.054 A 
BRANCH  65  66
ATOM     66  S   UNL A   1      41.619  26.444  36.819  1.00  0.00     0.124 S 
ATOM     67  O   UNL A   1      42.821  26.650  37.623  1.00  0.00    -0.237 OA
ATOM     68  O   UNL A   1      40.357  26.751  37.487  1.00  0.00    -0.237 OA
ATOM     69  O   UNL A   1      41.611  25.213  36.029  1.00  0.00    -0.744 OA
ENDBRANCH  65  66
ENDBRANCH  39  60
ENDBRANCH  13  14
ENDBRANCH   6   8
ENDBRANCH   5   6
ENDBRANCH   4   5
ENDBRANCH   3   4
ENDBRANCH   2   3
ENDBRANCH   1   2
BRANCH   1  70
ATOM     70  C   UNL A   1      38.314  22.164  25.843  1.00  0.00     0.188 C 
BRANCH  70  71
ATOM     71  O   UNL A   1      37.650  21.733  24.663  1.00  0.00    -0.377 OA
BRANCH  71  72
ATOM     72  C   UNL A   1      36.899  20.541  24.702  1.00  0.00     0.188 C 
BRANCH  72  73
ATOM     73  C   UNL A   1      35.421  20.634  25.095  1.00  0.00     0.188 C 
BRANCH  73  74
ATOM     74  O   UNL A   1      34.779  21.883  25.266  1.00  0.00    -0.376 OA
BRANCH  74  75
ATOM     75  C   UNL A   1      34.721  22.522  26.529  1.00  0.00     0.202 C 
BRANCH  75  76
ATOM     76  C   UNL A   1      33.389  23.001  27.128  1.00  0.00     0.261 C 
BRANCH  76  77
ATOM     77  O   UNL A   1      32.288  23.135  26.219  1.00  0.00    -0.457 OA
BRANCH  77  78
ATOM     78  C   UNL A   1      31.472  24.217  26.400  1.00  0.00     0.374 C 
ATOM     79  O   UNL A   1      30.519  24.256  27.156  1.00  0.00    -0.242 OA
BRANCH  78  80
ATOM     80  C   UNL A   1      31.935  25.308  25.576  1.00  0.00     0.216 A 
ATOM     81  O   UNL A   1      32.477  25.041  24.323  1.00  0.00    -0.449 OA
ATOM     82  C   UNL A   1      31.978  26.663  25.804  1.00  0.00     0.014 A 
ATOM     83  C   UNL A   1      32.862  26.236  23.776  1.00  0.00     0.135 A 
ATOM     84  C   UNL A   1      32.647  27.223  24.705  1.00  0.00     0.028 A 
ATOM     85  C   UNL A   1      31.602  27.543  26.936  1.00  0.00     0.041 C 
ATOM     86  C   UNL A   1      33.421  26.500  22.533  1.00  0.00     0.048 A 
ATOM     87  C   UNL A   1      33.101  28.530  24.545  1.00  0.00    -0.037 A 
ATOM     88  C   UNL A   1      32.669  28.668  27.049  1.00  0.00     0.010 C 
ATOM     89  C   UNL A   1      33.820  27.837  22.320  1.00  0.00     0.004 A 
ATOM     90  C   UNL A   1      33.687  28.831  23.312  1.00  0.00     0.004 A 
ATOM     91  C   UNL A   1      32.914  29.459  25.716  1.00  0.00     0.036 C 
ENDBRANCH  78  80
ENDBRANCH  77  78
ENDBRANCH  76  77
ENDBRANCH  75  76
ENDBRANCH  74  75
ENDBRANCH  73  74
ENDBRANCH  72  73
ENDBRANCH  71  72
ENDBRANCH  70  71
ENDBRANCH   1  70
TORSDOF 23
ENDMDL
MODEL 2
REMARK VINA RESULT:      -9.9      2.465      3.507
REMARK SMILES O=C(OCCOCCOCCOCCOC(=O)c1oc2cccc3c2c1CCC3)c1ccc(-c2c3nc(c(-c4ccc(S(=O)(=O)[O-])cc4)c4ccc([nH]4)c(-c4ccc(S(=O)(=O)[O-])cc4)c4nc(c(-c5ccc(S(=O)(=O)[O-])cc5)c5ccc2[nH]5)C=C4)C=C3)cc1
REMARK SMILES IDX 7 1 6 2 5 3 4 4 3 5 2 6 1 7 30 8 31 9 89 10 32 11 88 12
REMARK SMILES IDX 33 13 34 14 35 15 82 16 36 17 87 18 81 19 83 20 37 21 86 22
REMARK SMILES IDX 80 23 79 24 38 26 68 27 49 28 67 29 50 30 53 31 66 32 84 33
REMARK SMILES IDX 51 34 52 35 65 37 85 38 54 39 39 40 40 41 48 42 41 43 47 44
REMARK SMILES IDX 42 45 43 46 44 47 45 48 46 49 69 50 70 51 78 52 71 53 77 54
REMARK SMILES IDX 72 55 73 56 74 57 75 58 76 59 55 60 56 61 64 62 57 63 63 64
REMARK SMILES IDX 58 65 59 66 60 67 61 68 62 69 8 70 9 71 10 72 11 73 12 74
REMARK SMILES IDX 13 75 14 76 15 77 16 78 17 79 18 80 19 81 26 82 20 83 25 84
REMARK SMILES IDX 27 85 21 86 24 87 28 88 22 89 23 90 29 91
REMARK H PARENT 83 25 53 36
REMARK Flexibility Score: inf
ROOT
ATOM      1  C   UNL A   1      38.770  21.095  25.513  1.00  0.00     0.188 C 
ENDROOT
BRANCH   1   2
ATOM      2  O   UNL A   1      40.067  21.545  25.942  1.00  0.00    -0.376 OA
BRANCH   2   3
ATOM      3  C   UNL A   1      40.686  20.999  27.109  1.00  0.00     0.202 C 
BRANCH   3   4
ATOM      4  C   UNL A   1      42.176  20.695  27.026  1.00  0.00     0.261 C 
BRANCH   4   5
ATOM      5  O   UNL A   1      42.693  20.701  25.687  1.00  0.00    -0.460 OA
BRANCH   5   6
ATOM      6  C   UNL A   1      44.007  20.938  25.478  1.00  0.00     0.338 C 
ATOM      7  O   UNL A   1      44.752  20.102  24.981  1.00  0.00    -0.246 OA
BRANCH   6   8
ATOM      8  C   UNL A   1      44.421  22.355  25.616  1.00  0.00     0.060 A 
ATOM      9  C   UNL A   1      45.246  22.825  26.641  1.00  0.00     0.016 A 
ATOM     10  C   UNL A   1      43.845  23.251  24.707  1.00  0.00     0.016 A 
ATOM     11  C   UNL A   1      45.179  24.141  26.993  1.00  0.00     0.010 A 
ATOM     12  C   UNL A   1      43.814  24.588  25.022  1.00  0.00     0.010 A 
ATOM     13  C   UNL A   1      44.347  24.963  26.245  1.00  0.00    -0.014 A 
BRANCH  13  14
ATOM     14  C   UNL A   1      43.960  26.186  26.888  1.00  0.00     0.031 A 
ATOM     15  C   UNL A   1      44.937  27.275  26.719  1.00  0.00     0.074 A 
ATOM     16  C   UNL A   1      42.873  26.198  27.677  1.00  0.00     0.049 A 
ATOM     17  N   UNL A   1      45.762  27.725  27.603  1.00  0.00    -0.248 NA
ATOM     18  C   UNL A   1      45.167  27.766  25.356  1.00  0.00     0.031 C 
ATOM     19  C   UNL A   1      41.781  25.227  27.803  1.00  0.00     0.029 A 
ATOM     20  N   UNL A   1      42.502  27.171  28.533  1.00  0.00    -0.354 N 
ATOM     21  C   UNL A   1      46.517  28.689  26.952  1.00  0.00     0.074 A 
ATOM     22  C   UNL A   1      46.210  28.573  25.547  1.00  0.00     0.031 C 
ATOM     23  C   UNL A   1      40.758  25.796  28.485  1.00  0.00     0.029 A 
ATOM     24  C   UNL A   1      41.191  27.095  28.971  1.00  0.00     0.049 A 
ATOM     25  H   UNL A   1      43.115  27.884  28.825  1.00  0.00     0.167 HD
ATOM     26  C   UNL A   1      47.201  29.649  27.629  1.00  0.00     0.031 A 
ATOM     27  C   UNL A   1      40.524  28.094  29.604  1.00  0.00     0.031 A 
ATOM     28  C   UNL A   1      47.375  29.321  29.018  1.00  0.00     0.049 A 
ATOM     29  C   UNL A   1      41.575  28.958  30.218  1.00  0.00     0.074 A 
ATOM     30  C   UNL A   1      48.113  28.371  29.694  1.00  0.00     0.029 A 
ATOM     31  N   UNL A   1      46.404  29.743  29.897  1.00  0.00    -0.354 N 
ATOM     32  N   UNL A   1      42.367  28.535  31.168  1.00  0.00    -0.248 NA
ATOM     33  C   UNL A   1      42.087  30.080  29.440  1.00  0.00     0.031 C 
ATOM     34  C   UNL A   1      47.268  27.931  30.755  1.00  0.00     0.029 A 
ATOM     35  C   UNL A   1      46.089  28.678  30.710  1.00  0.00     0.049 A 
ATOM     36  H   UNL A   1      46.006  30.643  29.938  1.00  0.00     0.167 HD
ATOM     37  C   UNL A   1      43.621  29.050  30.858  1.00  0.00     0.074 A 
ATOM     38  C   UNL A   1      43.371  30.049  29.817  1.00  0.00     0.031 C 
ATOM     39  C   UNL A   1      44.770  28.427  31.257  1.00  0.00     0.031 A 
BRANCH  26  40
ATOM     40  C   UNL A   1      47.399  31.024  27.068  1.00  0.00    -0.014 A 
ATOM     41  C   UNL A   1      48.686  31.585  27.011  1.00  0.00     0.010 A 
ATOM     42  C   UNL A   1      46.304  31.883  26.826  1.00  0.00     0.010 A 
ATOM     43  C   UNL A   1      48.860  32.954  26.761  1.00  0.00     0.020 A 
ATOM     44  C   UNL A   1      46.468  33.234  26.536  1.00  0.00     0.020 A 
ATOM     45  C   UNL A   1      47.748  33.769  26.533  1.00  0.00     0.054 A 
BRANCH  45  46
ATOM     46  S   UNL A   1      47.976  35.554  26.347  1.00  0.00     0.124 S 
ATOM     47  O   UNL A   1      48.306  35.966  27.708  1.00  0.00    -0.237 OA
ATOM     48  O   UNL A   1      49.068  35.622  25.380  1.00  0.00    -0.237 OA
ATOM     49  O   UNL A   1      46.681  36.017  25.852  1.00  0.00    -0.744 OA
ENDBRANCH  45  46
ENDBRANCH  26  40
BRANCH  27  50
ATOM     50  C   UNL A   1      39.173  28.597  29.223  1.00  0.00    -0.014 A 
ATOM     51  C   UNL A   1      38.206  28.875  30.207  1.00  0.00     0.010 A 
ATOM     52  C   UNL A   1      38.925  29.072  27.917  1.00  0.00     0.010 A 
ATOM     53  C   UNL A   1      37.077  29.662  29.914  1.00  0.00     0.020 A 
ATOM     54  C   UNL A   1      37.802  29.852  27.616  1.00  0.00     0.020 A 
ATOM     55  C   UNL A   1      36.899  30.172  28.627  1.00  0.00     0.054 A 
BRANCH  55  56
ATOM     56  S   UNL A   1      35.540  31.335  28.303  1.00  0.00     0.124 S 
ATOM     57  O   UNL A   1      34.909  31.456  29.614  1.00  0.00    -0.237 OA
ATOM     58  O   UNL A   1      36.251  32.519  27.832  1.00  0.00    -0.237 OA
ATOM     59  O   UNL A   1      34.735  30.654  27.290  1.00  0.00    -0.744 OA
ENDBRANCH  55  56
ENDBRANCH  27  50
BRANCH  39  60
ATOM     60  C   UNL A   1      44.642  27.234  32.182  1.00  0.00    -0.014 A 
ATOM     61  C   UNL A   1      44.381  27.349  33.566  1.00  0.00     0.010 A 
ATOM     62  C   UNL A   1      44.622  25.953  31.607  1.00  0.00     0.010 A 
ATOM     63  C   UNL A   1      44.126  26.210  34.349  1.00  0.00     0.020 A 
ATOM     64  C   UNL A   1      44.356  24.817  32.379  1.00  0.00     0.020 A 
ATOM     65  C   UNL A   1      44.112  24.948  33.746  1.00  0.00     0.054 A 
BRANCH  65  66
ATOM     66  S   UNL A   1      43.754  23.479  34.754  1.00  0.00     0.124 S 
ATOM     67  O   UNL A   1      43.377  22.484  33.754  1.00  0.00    -0.237 OA
ATOM     68  O   UNL A   1      45.027  23.238  35.430  1.00  0.00    -0.237 OA
ATOM     69  O   UNL A   1      42.667  23.913  35.630  1.00  0.00    -0.744 OA
ENDBRANCH  65  66
ENDBRANCH  39  60
ENDBRANCH  13  14
ENDBRANCH   6   8
ENDBRANCH   5   6
ENDBRANCH   4   5
ENDBRANCH   3   4
ENDBRANCH   2   3
ENDBRANCH   1   2
BRANCH   1  70
ATOM     70  C   UNL A   1      37.669  22.120  25.230  1.00  0.00     0.188 C 
BRANCH  70  71
ATOM     71  O   UNL A   1      36.465  22.018  25.977  1.00  0.00    -0.377 OA
BRANCH  71  72
ATOM     72  C   UNL A   1      35.616  23.141  26.058  1.00  0.00     0.188 C 
BRANCH  72  73
ATOM     73  C   UNL A   1      34.232  23.043  25.408  1.00  0.00     0.188 C 
BRANCH  73  74
ATOM     74  O   UNL A   1      33.060  22.885  26.185  1.00  0.00    -0.376 OA
BRANCH  74  75
ATOM     75  C   UNL A   1      31.850  22.415  25.617  1.00  0.00     0.202 C 
BRANCH  75  76
ATOM     76  C   UNL A   1      30.488  22.725  26.258  1.00  0.00     0.261 C 
BRANCH  76  77
ATOM     77  O   UNL A   1      30.422  23.887  27.096  1.00  0.00    -0.457 OA
BRANCH  77  78
ATOM     78  C   UNL A   1      29.693  24.942  26.625  1.00  0.00     0.374 C 
ATOM     79  O   UNL A   1      28.533  25.175  26.911  1.00  0.00    -0.242 OA
BRANCH  78  80
ATOM     80  C   UNL A   1      30.521  25.748  25.761  1.00  0.00     0.216 A 
ATOM     81  O   UNL A   1      31.855  25.963  26.092  1.00  0.00    -0.449 OA
ATOM     82  C   UNL A   1      30.233  26.423  24.597  1.00  0.00     0.014 A 
ATOM     83  C   UNL A   1      32.393  26.779  25.133  1.00  0.00     0.135 A 
ATOM     84  C   UNL A   1      31.393  27.140  24.266  1.00  0.00     0.028 A 
ATOM     85  C   UNL A   1      29.013  26.617  23.779  1.00  0.00     0.041 C 
ATOM     86  C   UNL A   1      33.693  27.250  25.000  1.00  0.00     0.048 A 
ATOM     87  C   UNL A   1      31.554  28.112  23.281  1.00  0.00    -0.037 A 
ATOM     88  C   UNL A   1      29.010  28.081  23.256  1.00  0.00     0.010 C 
ATOM     89  C   UNL A   1      33.896  28.181  23.958  1.00  0.00     0.004 A 
ATOM     90  C   UNL A   1      32.845  28.625  23.128  1.00  0.00     0.004 A 
ATOM     91  C   UNL A   1      30.322  28.500  22.506  1.00  0.00     0.036 C 
ENDBRANCH  78  80
ENDBRANCH  77  78
ENDBRANCH  76  77
ENDBRANCH  75  76
ENDBRANCH  74  75
ENDBRANCH  73  74
ENDBRANCH  72  73
ENDBRANCH  71  72
ENDBRANCH  70  71
ENDBRANCH   1  70
TORSDOF 23
ENDMDL
MODEL 3
REMARK VINA RESULT:      -9.6      3.294      9.440
REMARK SMILES O=C(OCCOCCOCCOCCOC(=O)c1oc2cccc3c2c1CCC3)c1ccc(-c2c3nc(c(-c4ccc(S(=O)(=O)[O-])cc4)c4ccc([nH]4)c(-c4ccc(S(=O)(=O)[O-])cc4)c4nc(c(-c5ccc(S(=O)(=O)[O-])cc5)c5ccc2[nH]5)C=C4)C=C3)cc1
REMARK SMILES IDX 7 1 6 2 5 3 4 4 3 5 2 6 1 7 30 8 31 9 89 10 32 11 88 12
REMARK SMILES IDX 33 13 34 14 35 15 82 16 36 17 87 18 81 19 83 20 37 21 86 22
REMARK SMILES IDX 80 23 79 24 38 26 68 27 49 28 67 29 50 30 53 31 66 32 84 33
REMARK SMILES IDX 51 34 52 35 65 37 85 38 54 39 39 40 40 41 48 42 41 43 47 44
REMARK SMILES IDX 42 45 43 46 44 47 45 48 46 49 69 50 70 51 78 52 71 53 77 54
REMARK SMILES IDX 72 55 73 56 74 57 75 58 76 59 55 60 56 61 64 62 57 63 63 64
REMARK SMILES IDX 58 65 59 66 60 67 61 68 62 69 8 70 9 71 10 72 11 73 12 74
REMARK SMILES IDX 13 75 14 76 15 77 16 78 17 79 18 80 19 81 26 82 20 83 25 84
REMARK SMILES IDX 27 85 21 86 24 87 28 88 22 89 23 90 29 91
REMARK H PARENT 83 25 53 36
REMARK Flexibility Score: inf
ROOT
ATOM      1  C   UNL A   1      33.864  29.178  26.379  1.00  0.00     0.188 C 
ENDROOT
BRANCH   1   2
ATOM      2  O   UNL A   1      33.637  29.972  27.557  1.00  0.00    -0.376 OA
BRANCH   2   3
ATOM      3  C   UNL A   1      34.090  31.326  27.629  1.00  0.00     0.202 C 
BRANCH   3   4
ATOM      4  C   UNL A   1      35.502  31.557  28.150  1.00  0.00     0.261 C 
BRANCH   4   5
ATOM      5  O   UNL A   1      36.019  30.465  28.923  1.00  0.00    -0.460 OA
BRANCH   5   6
ATOM      6  C   UNL A   1      37.288  30.515  29.387  1.00  0.00     0.338 C 
ATOM      7  O   UNL A   1      37.615  31.233  30.324  1.00  0.00    -0.246 OA
BRANCH   6   8
ATOM      8  C   UNL A   1      38.183  29.443  28.888  1.00  0.00     0.060 A 
ATOM      9  C   UNL A   1      38.668  28.404  29.686  1.00  0.00     0.016 A 
ATOM     10  C   UNL A   1      38.620  29.579  27.565  1.00  0.00     0.016 A 
ATOM     11  C   UNL A   1      39.825  27.778  29.326  1.00  0.00     0.010 A 
ATOM     12  C   UNL A   1      39.756  28.916  27.169  1.00  0.00     0.010 A 
ATOM     13  C   UNL A   1      40.413  28.159  28.126  1.00  0.00    -0.014 A 
BRANCH  13  14
ATOM     14  C   UNL A   1      41.803  27.828  27.997  1.00  0.00     0.031 A 
ATOM     15  C   UNL A   1      42.042  26.438  27.575  1.00  0.00     0.074 A 
ATOM     16  C   UNL A   1      42.729  28.717  28.397  1.00  0.00     0.049 A 
ATOM     17  N   UNL A   1      42.454  25.461  28.310  1.00  0.00    -0.248 NA
ATOM     18  C   UNL A   1      41.564  26.048  26.244  1.00  0.00     0.031 C 
ATOM     19  C   UNL A   1      42.603  30.147  28.698  1.00  0.00     0.029 A 
ATOM     20  N   UNL A   1      44.047  28.493  28.569  1.00  0.00    -0.354 N 
ATOM     21  C   UNL A   1      42.450  24.346  27.485  1.00  0.00     0.074 A 
ATOM     22  C   UNL A   1      41.762  24.731  26.276  1.00  0.00     0.031 C 
ATOM     23  C   UNL A   1      43.840  30.697  28.758  1.00  0.00     0.029 A 
ATOM     24  C   UNL A   1      44.826  29.635  28.659  1.00  0.00     0.049 A 
ATOM     25  H   UNL A   1      44.428  27.588  28.627  1.00  0.00     0.167 HD
ATOM     26  C   UNL A   1      43.179  23.235  27.769  1.00  0.00     0.031 A 
ATOM     27  C   UNL A   1      46.180  29.660  28.560  1.00  0.00     0.031 A 
ATOM     28  C   UNL A   1      43.603  23.194  29.142  1.00  0.00     0.049 A 
ATOM     29  C   UNL A   1      46.640  28.288  28.925  1.00  0.00     0.074 A 
ATOM     30  C   UNL A   1      42.945  23.024  30.344  1.00  0.00     0.029 A 
ATOM     31  N   UNL A   1      44.815  23.768  29.451  1.00  0.00    -0.354 N 
ATOM     32  N   UNL A   1      46.479  27.786  30.121  1.00  0.00    -0.248 NA
ATOM     33  C   UNL A   1      46.792  27.304  27.858  1.00  0.00     0.031 C 
ATOM     34  C   UNL A   1      43.582  23.926  31.245  1.00  0.00     0.029 A 
ATOM     35  C   UNL A   1      44.631  24.551  30.568  1.00  0.00     0.049 A 
ATOM     36  H   UNL A   1      45.661  23.640  28.963  1.00  0.00     0.167 HD
ATOM     37  C   UNL A   1      46.107  26.463  29.918  1.00  0.00     0.074 A 
ATOM     38  C   UNL A   1      46.382  26.206  28.503  1.00  0.00     0.031 C 
ATOM     39  C   UNL A   1      45.347  25.784  30.830  1.00  0.00     0.031 A 
BRANCH  26  40
ATOM     40  C   UNL A   1      43.772  22.380  26.690  1.00  0.00    -0.014 A 
ATOM     41  C   UNL A   1      43.068  21.265  26.207  1.00  0.00     0.010 A 
ATOM     42  C   UNL A   1      45.128  22.506  26.316  1.00  0.00     0.010 A 
ATOM     43  C   UNL A   1      43.709  20.301  25.415  1.00  0.00     0.020 A 
ATOM     44  C   UNL A   1      45.763  21.577  25.497  1.00  0.00     0.020 A 
ATOM     45  C   UNL A   1      45.055  20.462  25.073  1.00  0.00     0.054 A 
BRANCH  45  46
ATOM     46  S   UNL A   1      45.907  19.147  24.168  1.00  0.00     0.124 S 
ATOM     47  O   UNL A   1      45.783  18.015  25.081  1.00  0.00    -0.237 OA
ATOM     48  O   UNL A   1      45.119  19.063  22.941  1.00  0.00    -0.237 OA
ATOM     49  O   UNL A   1      47.262  19.666  24.000  1.00  0.00    -0.744 OA
ENDBRANCH  45  46
ENDBRANCH  26  40
BRANCH  27  50
ATOM     50  C   UNL A   1      46.955  30.572  27.671  1.00  0.00    -0.014 A 
ATOM     51  C   UNL A   1      46.413  31.802  27.254  1.00  0.00     0.010 A 
ATOM     52  C   UNL A   1      48.337  30.368  27.461  1.00  0.00     0.010 A 
ATOM     53  C   UNL A   1      47.232  32.814  26.722  1.00  0.00     0.020 A 
ATOM     54  C   UNL A   1      49.158  31.368  26.927  1.00  0.00     0.020 A 
ATOM     55  C   UNL A   1      48.606  32.601  26.591  1.00  0.00     0.054 A 
BRANCH  55  56
ATOM     56  S   UNL A   1      49.681  33.973  26.074  1.00  0.00     0.124 S 
ATOM     57  O   UNL A   1      50.317  34.366  27.328  1.00  0.00    -0.237 OA
ATOM     58  O   UNL A   1      50.554  33.330  25.097  1.00  0.00    -0.237 OA
ATOM     59  O   UNL A   1      48.749  34.955  25.520  1.00  0.00    -0.744 OA
ENDBRANCH  55  56
ENDBRANCH  27  50
BRANCH  39  60
ATOM     60  C   UNL A   1      45.045  26.469  32.148  1.00  0.00    -0.014 A 
ATOM     61  C   UNL A   1      43.987  27.388  32.320  1.00  0.00     0.010 A 
ATOM     62  C   UNL A   1      45.749  26.044  33.287  1.00  0.00     0.010 A 
ATOM     63  C   UNL A   1      43.660  27.880  33.595  1.00  0.00     0.020 A 
ATOM     64  C   UNL A   1      45.418  26.520  34.560  1.00  0.00     0.020 A 
ATOM     65  C   UNL A   1      44.379  27.438  34.710  1.00  0.00     0.054 A 
BRANCH  65  66
ATOM     66  S   UNL A   1      43.936  28.053  36.362  1.00  0.00     0.124 S 
ATOM     67  O   UNL A   1      45.155  28.735  36.791  1.00  0.00    -0.237 OA
ATOM     68  O   UNL A   1      42.795  28.922  36.085  1.00  0.00    -0.237 OA
ATOM     69  O   UNL A   1      43.614  26.840  37.111  1.00  0.00    -0.744 OA
ENDBRANCH  65  66
ENDBRANCH  39  60
ENDBRANCH  13  14
ENDBRANCH   6   8
ENDBRANCH   5   6
ENDBRANCH   4   5
ENDBRANCH   3   4
ENDBRANCH   2   3
ENDBRANCH   1   2
BRANCH   1  70
ATOM     70  C   UNL A   1      32.906  28.033  26.043  1.00  0.00     0.188 C 
BRANCH  70  71
ATOM     71  O   UNL A   1      31.654  28.371  25.461  1.00  0.00    -0.377 OA
BRANCH  71  72
ATOM     72  C   UNL A   1      31.614  28.755  24.106  1.00  0.00     0.188 C 
BRANCH  72  73
ATOM     73  C   UNL A   1      31.008  27.775  23.097  1.00  0.00     0.188 C 
BRANCH  73  74
ATOM     74  O   UNL A   1      31.385  26.411  23.073  1.00  0.00    -0.376 OA
BRANCH  74  75
ATOM     75  C   UNL A   1      30.681  25.432  23.817  1.00  0.00     0.202 C 
BRANCH  75  76
ATOM     76  C   UNL A   1      31.086  23.950  23.781  1.00  0.00     0.261 C 
BRANCH  76  77
ATOM     77  O   UNL A   1      30.760  23.166  24.937  1.00  0.00    -0.457 OA
BRANCH  77  78
ATOM     78  C   UNL A   1      31.783  22.898  25.803  1.00  0.00     0.374 C 
ATOM     79  O   UNL A   1      32.049  23.551  26.796  1.00  0.00    -0.242 OA
BRANCH  78  80
ATOM     80  C   UNL A   1      32.477  21.709  25.371  1.00  0.00     0.216 A 
ATOM     81  O   UNL A   1      31.763  20.530  25.177  1.00  0.00    -0.449 OA
ATOM     82  C   UNL A   1      33.808  21.476  25.116  1.00  0.00     0.014 A 
ATOM     83  C   UNL A   1      32.659  19.562  24.807  1.00  0.00     0.135 A 
ATOM     84  C   UNL A   1      33.920  20.102  24.853  1.00  0.00     0.028 A 
ATOM     85  C   UNL A   1      35.042  22.294  25.184  1.00  0.00     0.041 C 
ATOM     86  C   UNL A   1      32.436  18.233  24.469  1.00  0.00     0.048 A 
ATOM     87  C   UNL A   1      35.078  19.342  24.717  1.00  0.00    -0.037 A 
ATOM     88  C   UNL A   1      36.188  21.396  25.728  1.00  0.00     0.010 C 
ATOM     89  C   UNL A   1      33.597  17.461  24.252  1.00  0.00     0.004 A 
ATOM     90  C   UNL A   1      34.895  17.993  24.394  1.00  0.00     0.004 A 
ATOM     91  C   UNL A   1      36.386  20.055  24.937  1.00  0.00     0.036 C 
ENDBRANCH  78  80
ENDBRANCH  77  78
ENDBRANCH  76  77
ENDBRANCH  75  76
ENDBRANCH  74  75
ENDBRANCH  73  74
ENDBRANCH  72  73
ENDBRANCH  71  72
ENDBRANCH  70  71
ENDBRANCH   1  70
TORSDOF 23
ENDMDL
