MODEL 1
REMARK VINA RESULT:      -9.2      0.000      0.000
REMARK SMILES Nc1ncccc1C[N@@H+]1CC2(CC[NH2+]CC2)C[C@H]1C(=O)OCCOCCOCCOCCOC(=O)c1ccc(-c2c3nc(c(-c4ccc(S(=O)(=O)[O-])cc4)c4ccc([nH]4)c(-c4ccc(S(=O)(=O)[O-])cc4)c4nc(c(-c5ccc(S(=O)(=O)[O-])cc5)c5ccc2[nH]5)C=C4)C=C3)cc1
REMARK SMILES IDX 27 1 26 2 25 3 24 4 23 5 22 6 21 7 19 8 20 9 18 10 9 11
REMARK SMILES IDX 10 12 11 14 17 15 12 16 16 17 13 18 15 19 14 20 8 23 7 24
REMARK SMILES IDX 2 25 3 26 4 27 6 28 5 29 1 30 28 33 29 34 30 35 31 36 32 37
REMARK SMILES IDX 33 38 34 39 35 40 36 41 37 42 95 43 38 44 94 45 39 46 40 47
REMARK SMILES IDX 41 48 88 49 42 50 93 51 87 52 89 53 43 54 92 55 86 56 85 57
REMARK SMILES IDX 44 59 74 60 55 61 73 62 56 63 59 64 72 65 90 66 57 67 58 68
REMARK SMILES IDX 71 70 91 71 60 72 45 73 46 74 54 75 47 76 53 77 48 78 49 79
REMARK SMILES IDX 50 80 51 81 52 82 75 83 76 84 84 85 77 86 83 87 78 88 79 89
REMARK SMILES IDX 80 90 81 91 82 92 61 93 62 94 70 95 63 96 69 97 64 98 65 99
REMARK SMILES IDX 66 100 67 101 68 102
REMARK H PARENT 9 13 14 21 14 22 1 31 1 32 89 58 59 69
REMARK Flexibility Score: inf
ROOT
ATOM      1  O   UNL A   1      31.742  27.548  26.221  1.00  0.00    -0.377 OA
ENDROOT
BRANCH   1   2
ATOM      2  C   UNL A   1      32.245  26.285  25.838  1.00  0.00     0.188 C 
BRANCH   2   3
ATOM      3  C   UNL A   1      31.922  25.893  24.386  1.00  0.00     0.188 C 
BRANCH   3   4
ATOM      4  O   UNL A   1      30.787  25.092  24.082  1.00  0.00    -0.376 OA
BRANCH   4   5
ATOM      5  C   UNL A   1      30.807  23.679  24.238  1.00  0.00     0.202 C 
BRANCH   5   6
ATOM      6  C   UNL A   1      30.645  22.960  25.587  1.00  0.00     0.261 C 
BRANCH   6   7
ATOM      7  O   UNL A   1      31.215  21.656  25.702  1.00  0.00    -0.459 OA
BRANCH   7   8
ATOM      8  C   UNL A   1      32.527  21.606  26.029  1.00  0.00     0.365 C 
ATOM      9  O   UNL A   1      32.965  21.862  27.148  1.00  0.00    -0.245 OA
BRANCH   8  10
ATOM     10  C   UNL A   1      33.448  21.260  24.851  1.00  0.00     0.296 C 
ATOM     11  N   UNL A   1      34.752  20.658  25.200  1.00  0.00    -0.319 N 
ATOM     12  C   UNL A   1      34.611  19.200  25.198  1.00  0.00     0.270 C 
ATOM     13  H   UNL A   1      34.984  20.958  26.146  1.00  0.00     0.349 HD
ATOM     14  C   UNL A   1      33.321  18.851  24.420  1.00  0.00     0.036 C 
ATOM     15  C   UNL A   1      32.757  20.219  23.985  1.00  0.00     0.091 C 
ATOM     16  C   UNL A   1      32.311  18.079  25.305  1.00  0.00     0.074 C 
ATOM     17  C   UNL A   1      33.592  17.979  23.178  1.00  0.00     0.074 C 
ATOM     18  C   UNL A   1      32.732  16.626  25.561  1.00  0.00     0.261 C 
ATOM     19  C   UNL A   1      34.027  16.562  23.532  1.00  0.00     0.261 C 
ATOM     20  N   UNL A   1      33.002  15.897  24.320  1.00  0.00    -0.346 N 
ATOM     21  H   UNL A   1      32.144  15.844  23.773  1.00  0.00     0.346 HD
ATOM     22  H   UNL A   1      33.335  14.964  24.560  1.00  0.00     0.346 HD
BRANCH  11  23
ATOM     23  C   UNL A   1      35.947  21.201  24.519  1.00  0.00     0.303 C 
BRANCH  23  24
ATOM     24  C   UNL A   1      36.935  21.936  25.393  1.00  0.00     0.048 A 
ATOM     25  C   UNL A   1      36.798  23.291  25.696  1.00  0.00     0.132 A 
ATOM     26  N   UNL A   1      37.832  24.053  26.095  1.00  0.00    -0.239 NA
ATOM     27  C   UNL A   1      39.021  23.443  26.281  1.00  0.00     0.113 A 
ATOM     28  C   UNL A   1      38.118  21.309  25.790  1.00  0.00     0.015 A 
ATOM     29  C   UNL A   1      39.197  22.077  26.204  1.00  0.00     0.021 A 
BRANCH  25  30
ATOM     30  N   UNL A   1      35.593  23.957  25.575  1.00  0.00    -0.383 N 
ATOM     31  H   UNL A   1      34.915  23.636  24.938  1.00  0.00     0.158 HD
ATOM     32  H   UNL A   1      35.413  24.752  26.127  1.00  0.00     0.158 HD
ENDBRANCH  25  30
ENDBRANCH  23  24
ENDBRANCH  11  23
ENDBRANCH   8  10
ENDBRANCH   7   8
ENDBRANCH   6   7
ENDBRANCH   5   6
ENDBRANCH   4   5
ENDBRANCH   3   4
ENDBRANCH   2   3
ENDBRANCH   1   2
BRANCH   1  33
ATOM     33  C   UNL A   1      31.297  28.397  25.175  1.00  0.00     0.188 C 
BRANCH  33  34
ATOM     34  C   UNL A   1      31.705  29.885  25.217  1.00  0.00     0.188 C 
BRANCH  34  35
ATOM     35  O   UNL A   1      31.458  30.533  26.460  1.00  0.00    -0.376 OA
BRANCH  35  36
ATOM     36  C   UNL A   1      32.140  31.746  26.740  1.00  0.00     0.202 C 
BRANCH  36  37
ATOM     37  C   UNL A   1      33.323  31.685  27.721  1.00  0.00     0.261 C 
BRANCH  37  38
ATOM     38  O   UNL A   1      34.489  30.982  27.270  1.00  0.00    -0.460 OA
BRANCH  38  39
ATOM     39  C   UNL A   1      34.689  29.734  27.753  1.00  0.00     0.338 C 
ATOM     40  O   UNL A   1      33.928  28.796  27.684  1.00  0.00    -0.246 OA
BRANCH  39  41
ATOM     41  C   UNL A   1      36.097  29.651  28.207  1.00  0.00     0.060 A 
ATOM     42  C   UNL A   1      37.120  29.878  27.277  1.00  0.00     0.016 A 
ATOM     43  C   UNL A   1      36.403  29.356  29.538  1.00  0.00     0.016 A 
ATOM     44  C   UNL A   1      38.455  29.767  27.666  1.00  0.00     0.010 A 
ATOM     45  C   UNL A   1      37.740  29.223  29.921  1.00  0.00     0.010 A 
ATOM     46  C   UNL A   1      38.771  29.389  28.978  1.00  0.00    -0.014 A 
BRANCH  46  47
ATOM     47  C   UNL A   1      40.151  28.954  29.306  1.00  0.00     0.031 A 
ATOM     48  C   UNL A   1      41.036  29.918  30.052  1.00  0.00     0.074 A 
ATOM     49  C   UNL A   1      40.606  27.733  28.975  1.00  0.00     0.049 A 
ATOM     50  N   UNL A   1      42.288  29.791  30.407  1.00  0.00    -0.248 NA
ATOM     51  C   UNL A   1      40.424  31.197  30.450  1.00  0.00     0.031 C 
ATOM     52  C   UNL A   1      39.831  26.691  28.304  1.00  0.00     0.029 A 
ATOM     53  N   UNL A   1      41.843  27.166  29.160  1.00  0.00    -0.354 N 
ATOM     54  C   UNL A   1      42.615  30.974  31.061  1.00  0.00     0.074 A 
ATOM     55  C   UNL A   1      41.442  31.819  31.023  1.00  0.00     0.031 C 
ATOM     56  C   UNL A   1      40.613  25.611  28.128  1.00  0.00     0.029 A 
ATOM     57  C   UNL A   1      41.955  25.900  28.636  1.00  0.00     0.049 A 
ATOM     58  H   UNL A   1      42.580  27.624  29.624  1.00  0.00     0.167 HD
ATOM     59  C   UNL A   1      43.785  31.324  31.647  1.00  0.00     0.031 A 
ATOM     60  C   UNL A   1      43.022  25.080  28.556  1.00  0.00     0.031 A 
ATOM     61  C   UNL A   1      44.955  30.489  31.664  1.00  0.00     0.049 A 
ATOM     62  C   UNL A   1      44.344  25.532  29.129  1.00  0.00     0.074 A 
ATOM     63  C   UNL A   1      46.190  30.751  32.232  1.00  0.00     0.029 A 
ATOM     64  N   UNL A   1      45.041  29.233  31.081  1.00  0.00    -0.354 N 
ATOM     65  N   UNL A   1      44.634  26.646  29.758  1.00  0.00    -0.248 NA
ATOM     66  C   UNL A   1      45.480  24.610  28.986  1.00  0.00     0.031 C 
ATOM     67  C   UNL A   1      47.041  29.682  31.936  1.00  0.00     0.029 A 
ATOM     68  C   UNL A   1      46.316  28.720  31.251  1.00  0.00     0.049 A 
ATOM     69  H   UNL A   1      44.305  28.775  30.616  1.00  0.00     0.167 HD
ATOM     70  C   UNL A   1      45.976  26.541  30.118  1.00  0.00     0.074 A 
ATOM     71  C   UNL A   1      46.434  25.251  29.648  1.00  0.00     0.031 C 
ATOM     72  C   UNL A   1      46.757  27.431  30.782  1.00  0.00     0.031 A 
BRANCH  59  73
ATOM     73  C   UNL A   1      43.863  32.688  32.283  1.00  0.00    -0.014 A 
ATOM     74  C   UNL A   1      44.189  33.829  31.529  1.00  0.00     0.010 A 
ATOM     75  C   UNL A   1      43.571  32.832  33.652  1.00  0.00     0.010 A 
ATOM     76  C   UNL A   1      44.260  35.084  32.139  1.00  0.00     0.020 A 
ATOM     77  C   UNL A   1      43.609  34.091  34.259  1.00  0.00     0.020 A 
ATOM     78  C   UNL A   1      43.969  35.207  33.502  1.00  0.00     0.054 A 
BRANCH  78  79
ATOM     79  S   UNL A   1      44.045  36.851  34.261  1.00  0.00     0.124 S 
ATOM     80  O   UNL A   1      43.219  36.672  35.452  1.00  0.00    -0.237 OA
ATOM     81  O   UNL A   1      45.474  37.024  34.508  1.00  0.00    -0.237 OA
ATOM     82  O   UNL A   1      43.481  37.732  33.241  1.00  0.00    -0.744 OA
ENDBRANCH  78  79
ENDBRANCH  59  73
BRANCH  60  83
ATOM     83  C   UNL A   1      42.901  23.751  27.891  1.00  0.00    -0.014 A 
ATOM     84  C   UNL A   1      42.500  22.617  28.620  1.00  0.00     0.010 A 
ATOM     85  C   UNL A   1      43.208  23.609  26.525  1.00  0.00     0.010 A 
ATOM     86  C   UNL A   1      42.431  21.364  28.001  1.00  0.00     0.020 A 
ATOM     87  C   UNL A   1      43.108  22.365  25.896  1.00  0.00     0.020 A 
ATOM     88  C   UNL A   1      42.732  21.247  26.642  1.00  0.00     0.054 A 
BRANCH  88  89
ATOM     89  S   UNL A   1      42.593  19.618  25.853  1.00  0.00     0.124 S 
ATOM     90  O   UNL A   1      43.589  19.708  24.791  1.00  0.00    -0.237 OA
ATOM     91  O   UNL A   1      42.918  18.711  26.951  1.00  0.00    -0.237 OA
ATOM     92  O   UNL A   1      41.203  19.571  25.407  1.00  0.00    -0.744 OA
ENDBRANCH  88  89
ENDBRANCH  60  83
BRANCH  72  93
ATOM     93  C   UNL A   1      48.177  27.025  31.088  1.00  0.00    -0.014 A 
ATOM     94  C   UNL A   1      48.496  26.257  32.221  1.00  0.00     0.010 A 
ATOM     95  C   UNL A   1      49.202  27.371  30.186  1.00  0.00     0.010 A 
ATOM     96  C   UNL A   1      49.818  25.870  32.465  1.00  0.00     0.020 A 
ATOM     97  C   UNL A   1      50.518  26.957  30.408  1.00  0.00     0.020 A 
ATOM     98  C   UNL A   1      50.820  26.221  31.555  1.00  0.00     0.054 A 
BRANCH  98  99
ATOM     99  S   UNL A   1      52.519  25.668  31.870  1.00  0.00     0.124 S 
ATOM    100  O   UNL A   1      52.910  26.513  32.996  1.00  0.00    -0.237 OA
ATOM    101  O   UNL A   1      52.340  24.251  32.178  1.00  0.00    -0.237 OA
ATOM    102  O   UNL A   1      53.213  25.944  30.614  1.00  0.00    -0.744 OA
ENDBRANCH  98  99
ENDBRANCH  72  93
ENDBRANCH  46  47
ENDBRANCH  39  41
ENDBRANCH  38  39
ENDBRANCH  37  38
ENDBRANCH  36  37
ENDBRANCH  35  36
ENDBRANCH  34  35
ENDBRANCH  33  34
ENDBRANCH   1  33
TORSDOF 26
ENDMDL
MODEL 2
REMARK VINA RESULT:      -8.6      4.487      6.538
REMARK SMILES Nc1ncccc1C[N@@H+]1CC2(CC[NH2+]CC2)C[C@H]1C(=O)OCCOCCOCCOCCOC(=O)c1ccc(-c2c3nc(c(-c4ccc(S(=O)(=O)[O-])cc4)c4ccc([nH]4)c(-c4ccc(S(=O)(=O)[O-])cc4)c4nc(c(-c5ccc(S(=O)(=O)[O-])cc5)c5ccc2[nH]5)C=C4)C=C3)cc1
REMARK SMILES IDX 27 1 26 2 25 3 24 4 23 5 22 6 21 7 19 8 20 9 18 10 9 11
REMARK SMILES IDX 10 12 11 14 17 15 12 16 16 17 13 18 15 19 14 20 8 23 7 24
REMARK SMILES IDX 2 25 3 26 4 27 6 28 5 29 1 30 28 33 29 34 30 35 31 36 32 37
REMARK SMILES IDX 33 38 34 39 35 40 36 41 37 42 95 43 38 44 94 45 39 46 40 47
REMARK SMILES IDX 41 48 88 49 42 50 93 51 87 52 89 53 43 54 92 55 86 56 85 57
REMARK SMILES IDX 44 59 74 60 55 61 73 62 56 63 59 64 72 65 90 66 57 67 58 68
REMARK SMILES IDX 71 70 91 71 60 72 45 73 46 74 54 75 47 76 53 77 48 78 49 79
REMARK SMILES IDX 50 80 51 81 52 82 75 83 76 84 84 85 77 86 83 87 78 88 79 89
REMARK SMILES IDX 80 90 81 91 82 92 61 93 62 94 70 95 63 96 69 97 64 98 65 99
REMARK SMILES IDX 66 100 67 101 68 102
REMARK H PARENT 9 13 14 21 14 22 1 31 1 32 89 58 59 69
REMARK Flexibility Score: inf
ROOT
ATOM      1  O   UNL A   1      34.853  31.429  27.758  1.00  0.00    -0.377 OA
ENDROOT
BRANCH   1   2
ATOM      2  C   UNL A   1      35.516  30.190  27.610  1.00  0.00     0.188 C 
BRANCH   2   3
ATOM      3  C   UNL A   1      34.650  29.084  26.983  1.00  0.00     0.188 C 
BRANCH   3   4
ATOM      4  O   UNL A   1      33.250  29.261  26.814  1.00  0.00    -0.376 OA
BRANCH   4   5
ATOM      5  C   UNL A   1      32.636  29.189  25.534  1.00  0.00     0.202 C 
BRANCH   5   6
ATOM      6  C   UNL A   1      33.351  28.699  24.264  1.00  0.00     0.261 C 
BRANCH   6   7
ATOM      7  O   UNL A   1      32.658  27.751  23.453  1.00  0.00    -0.459 OA
BRANCH   7   8
ATOM      8  C   UNL A   1      33.422  27.006  22.620  1.00  0.00     0.365 C 
ATOM      9  O   UNL A   1      33.939  27.438  21.593  1.00  0.00    -0.245 OA
BRANCH   8  10
ATOM     10  C   UNL A   1      33.539  25.534  23.037  1.00  0.00     0.296 C 
ATOM     11  N   UNL A   1      34.105  25.281  24.379  1.00  0.00    -0.319 N 
ATOM     12  C   UNL A   1      33.006  25.211  25.346  1.00  0.00     0.270 C 
ATOM     13  H   UNL A   1      34.694  26.078  24.617  1.00  0.00     0.349 HD
ATOM     14  C   UNL A   1      31.696  24.986  24.556  1.00  0.00     0.036 C 
ATOM     15  C   UNL A   1      32.144  24.930  23.081  1.00  0.00     0.091 C 
ATOM     16  C   UNL A   1      30.681  26.132  24.795  1.00  0.00     0.074 C 
ATOM     17  C   UNL A   1      30.989  23.670  24.938  1.00  0.00     0.074 C 
ATOM     18  C   UNL A   1      30.033  26.074  26.185  1.00  0.00     0.261 C 
ATOM     19  C   UNL A   1      30.399  23.700  26.342  1.00  0.00     0.261 C 
ATOM     20  N   UNL A   1      29.425  24.772  26.462  1.00  0.00    -0.346 N 
ATOM     21  H   UNL A   1      28.669  24.610  25.798  1.00  0.00     0.346 HD
ATOM     22  H   UNL A   1      29.070  24.779  27.418  1.00  0.00     0.346 HD
BRANCH  11  23
ATOM     23  C   UNL A   1      35.138  24.228  24.486  1.00  0.00     0.303 C 
BRANCH  23  24
ATOM     24  C   UNL A   1      34.778  23.026  25.325  1.00  0.00     0.048 A 
ATOM     25  C   UNL A   1      33.985  21.987  24.837  1.00  0.00     0.132 A 
ATOM     26  N   UNL A   1      33.313  21.146  25.645  1.00  0.00    -0.239 NA
ATOM     27  C   UNL A   1      33.496  21.281  26.975  1.00  0.00     0.113 A 
ATOM     28  C   UNL A   1      35.097  23.002  26.684  1.00  0.00     0.015 A 
ATOM     29  C   UNL A   1      34.416  22.142  27.535  1.00  0.00     0.021 A 
BRANCH  25  30
ATOM     30  N   UNL A   1      33.804  21.768  23.484  1.00  0.00    -0.383 N 
ATOM     31  H   UNL A   1      34.194  22.389  22.828  1.00  0.00     0.158 HD
ATOM     32  H   UNL A   1      33.285  20.990  23.178  1.00  0.00     0.158 HD
ENDBRANCH  25  30
ENDBRANCH  23  24
ENDBRANCH  11  23
ENDBRANCH   8  10
ENDBRANCH   7   8
ENDBRANCH   6   7
ENDBRANCH   5   6
ENDBRANCH   4   5
ENDBRANCH   3   4
ENDBRANCH   2   3
ENDBRANCH   1   2
BRANCH   1  33
ATOM     33  C   UNL A   1      34.876  32.009  29.053  1.00  0.00     0.188 C 
BRANCH  33  34
ATOM     34  C   UNL A   1      34.814  33.547  29.166  1.00  0.00     0.188 C 
BRANCH  34  35
ATOM     35  O   UNL A   1      33.512  34.101  29.011  1.00  0.00    -0.376 OA
BRANCH  35  36
ATOM     36  C   UNL A   1      33.362  35.511  29.085  1.00  0.00     0.202 C 
BRANCH  36  37
ATOM     37  C   UNL A   1      32.661  36.087  30.327  1.00  0.00     0.261 C 
BRANCH  37  38
ATOM     38  O   UNL A   1      32.581  35.225  31.471  1.00  0.00    -0.460 OA
BRANCH  38  39
ATOM     39  C   UNL A   1      33.284  35.585  32.571  1.00  0.00     0.338 C 
ATOM     40  O   UNL A   1      32.906  36.293  33.477  1.00  0.00    -0.246 OA
BRANCH  39  41
ATOM     41  C   UNL A   1      34.535  34.792  32.580  1.00  0.00     0.060 A 
ATOM     42  C   UNL A   1      34.482  33.454  32.992  1.00  0.00     0.016 A 
ATOM     43  C   UNL A   1      35.747  35.364  32.185  1.00  0.00     0.016 A 
ATOM     44  C   UNL A   1      35.651  32.694  33.050  1.00  0.00     0.010 A 
ATOM     45  C   UNL A   1      36.919  34.608  32.265  1.00  0.00     0.010 A 
ATOM     46  C   UNL A   1      36.883  33.283  32.736  1.00  0.00    -0.014 A 
BRANCH  46  47
ATOM     47  C   UNL A   1      38.143  32.594  33.105  1.00  0.00     0.031 A 
ATOM     48  C   UNL A   1      38.686  32.810  34.493  1.00  0.00     0.074 A 
ATOM     49  C   UNL A   1      38.782  31.778  32.247  1.00  0.00     0.049 A 
ATOM     50  N   UNL A   1      39.789  32.361  35.032  1.00  0.00    -0.248 NA
ATOM     51  C   UNL A   1      37.873  33.647  35.392  1.00  0.00     0.031 C 
ATOM     52  C   UNL A   1      38.329  31.443  30.898  1.00  0.00     0.029 A 
ATOM     53  N   UNL A   1      39.959  31.086  32.389  1.00  0.00    -0.354 N 
ATOM     54  C   UNL A   1      39.807  32.867  36.328  1.00  0.00     0.074 A 
ATOM     55  C   UNL A   1      38.624  33.683  36.482  1.00  0.00     0.031 C 
ATOM     56  C   UNL A   1      39.223  30.612  30.333  1.00  0.00     0.029 A 
ATOM     57  C   UNL A   1      40.330  30.390  31.263  1.00  0.00     0.049 A 
ATOM     58  H   UNL A   1      40.487  31.089  33.219  1.00  0.00     0.167 HD
ATOM     59  C   UNL A   1      40.723  32.664  37.305  1.00  0.00     0.031 A 
ATOM     60  C   UNL A   1      41.444  29.675  31.007  1.00  0.00     0.031 A 
ATOM     61  C   UNL A   1      41.909  31.868  37.142  1.00  0.00     0.049 A 
ATOM     62  C   UNL A   1      42.499  29.545  32.079  1.00  0.00     0.074 A 
ATOM     63  C   UNL A   1      42.899  31.600  38.070  1.00  0.00     0.029 A 
ATOM     64  N   UNL A   1      42.271  31.218  35.971  1.00  0.00    -0.354 N 
ATOM     65  N   UNL A   1      42.495  30.014  33.304  1.00  0.00    -0.248 NA
ATOM     66  C   UNL A   1      43.707  28.780  31.734  1.00  0.00     0.031 C 
ATOM     67  C   UNL A   1      43.892  30.842  37.442  1.00  0.00     0.029 A 
ATOM     68  C   UNL A   1      43.483  30.573  36.145  1.00  0.00     0.049 A 
ATOM     69  H   UNL A   1      41.743  31.215  35.140  1.00  0.00     0.167 HD
ATOM     70  C   UNL A   1      43.681  29.570  33.886  1.00  0.00     0.074 A 
ATOM     71  C   UNL A   1      44.368  28.785  32.883  1.00  0.00     0.031 C 
ATOM     72  C   UNL A   1      44.154  29.789  35.139  1.00  0.00     0.031 A 
BRANCH  59  73
ATOM     73  C   UNL A   1      40.492  33.350  38.627  1.00  0.00    -0.014 A 
ATOM     74  C   UNL A   1      39.580  32.837  39.568  1.00  0.00     0.010 A 
ATOM     75  C   UNL A   1      41.225  34.508  38.946  1.00  0.00     0.010 A 
ATOM     76  C   UNL A   1      39.377  33.490  40.786  1.00  0.00     0.020 A 
ATOM     77  C   UNL A   1      41.049  35.146  40.177  1.00  0.00     0.020 A 
ATOM     78  C   UNL A   1      40.114  34.642  41.083  1.00  0.00     0.054 A 
BRANCH  78  79
ATOM     79  S   UNL A   1      39.848  35.453  42.682  1.00  0.00     0.124 S 
ATOM     80  O   UNL A   1      40.957  36.402  42.727  1.00  0.00    -0.237 OA
ATOM     81  O   UNL A   1      38.522  36.045  42.523  1.00  0.00    -0.237 OA
ATOM     82  O   UNL A   1      39.926  34.358  43.645  1.00  0.00    -0.744 OA
ENDBRANCH  78  79
ENDBRANCH  59  73
BRANCH  60  83
ATOM     83  C   UNL A   1      41.639  29.038  29.673  1.00  0.00    -0.014 A 
ATOM     84  C   UNL A   1      41.146  27.747  29.414  1.00  0.00     0.010 A 
ATOM     85  C   UNL A   1      42.340  29.716  28.658  1.00  0.00     0.010 A 
ATOM     86  C   UNL A   1      41.370  27.137  28.175  1.00  0.00     0.020 A 
ATOM     87  C   UNL A   1      42.537  29.123  27.407  1.00  0.00     0.020 A 
ATOM     88  C   UNL A   1      42.062  27.831  27.179  1.00  0.00     0.054 A 
BRANCH  88  89
ATOM     89  S   UNL A   1      42.302  27.034  25.566  1.00  0.00     0.124 S 
ATOM     90  O   UNL A   1      41.118  26.186  25.467  1.00  0.00    -0.237 OA
ATOM     91  O   UNL A   1      42.341  28.176  24.655  1.00  0.00    -0.237 OA
ATOM     92  O   UNL A   1      43.570  26.325  25.719  1.00  0.00    -0.744 OA
ENDBRANCH  88  89
ENDBRANCH  60  83
BRANCH  72  93
ATOM     93  C   UNL A   1      45.457  29.131  35.520  1.00  0.00    -0.014 A 
ATOM     94  C   UNL A   1      46.689  29.792  35.368  1.00  0.00     0.010 A 
ATOM     95  C   UNL A   1      45.437  27.848  36.101  1.00  0.00     0.010 A 
ATOM     96  C   UNL A   1      47.879  29.169  35.757  1.00  0.00     0.020 A 
ATOM     97  C   UNL A   1      46.620  27.237  36.523  1.00  0.00     0.020 A 
ATOM     98  C   UNL A   1      47.836  27.896  36.334  1.00  0.00     0.054 A 
BRANCH  98  99
ATOM     99  S   UNL A   1      49.390  27.130  36.873  1.00  0.00     0.124 S 
ATOM    100  O   UNL A   1      50.366  27.771  35.996  1.00  0.00    -0.237 OA
ATOM    101  O   UNL A   1      49.462  27.511  38.281  1.00  0.00    -0.237 OA
ATOM    102  O   UNL A   1      49.177  25.704  36.630  1.00  0.00    -0.744 OA
ENDBRANCH  98  99
ENDBRANCH  72  93
ENDBRANCH  46  47
ENDBRANCH  39  41
ENDBRANCH  38  39
ENDBRANCH  37  38
ENDBRANCH  36  37
ENDBRANCH  35  36
ENDBRANCH  34  35
ENDBRANCH  33  34
ENDBRANCH   1  33
TORSDOF 26
ENDMDL
MODEL 3
REMARK VINA RESULT:      -8.5      2.055      2.645
REMARK SMILES Nc1ncccc1C[N@@H+]1CC2(CC[NH2+]CC2)C[C@H]1C(=O)OCCOCCOCCOCCOC(=O)c1ccc(-c2c3nc(c(-c4ccc(S(=O)(=O)[O-])cc4)c4ccc([nH]4)c(-c4ccc(S(=O)(=O)[O-])cc4)c4nc(c(-c5ccc(S(=O)(=O)[O-])cc5)c5ccc2[nH]5)C=C4)C=C3)cc1
REMARK SMILES IDX 27 1 26 2 25 3 24 4 23 5 22 6 21 7 19 8 20 9 18 10 9 11
REMARK SMILES IDX 10 12 11 14 17 15 12 16 16 17 13 18 15 19 14 20 8 23 7 24
REMARK SMILES IDX 2 25 3 26 4 27 6 28 5 29 1 30 28 33 29 34 30 35 31 36 32 37
REMARK SMILES IDX 33 38 34 39 35 40 36 41 37 42 95 43 38 44 94 45 39 46 40 47
REMARK SMILES IDX 41 48 88 49 42 50 93 51 87 52 89 53 43 54 92 55 86 56 85 57
REMARK SMILES IDX 44 59 74 60 55 61 73 62 56 63 59 64 72 65 90 66 57 67 58 68
REMARK SMILES IDX 71 70 91 71 60 72 45 73 46 74 54 75 47 76 53 77 48 78 49 79
REMARK SMILES IDX 50 80 51 81 52 82 75 83 76 84 84 85 77 86 83 87 78 88 79 89
REMARK SMILES IDX 80 90 81 91 82 92 61 93 62 94 70 95 63 96 69 97 64 98 65 99
REMARK SMILES IDX 66 100 67 101 68 102
REMARK H PARENT 9 13 14 21 14 22 1 31 1 32 89 58 59 69
REMARK Flexibility Score: inf
ROOT
ATOM      1  O   UNL A   1      31.812  27.618  26.668  1.00  0.00    -0.377 OA
ENDROOT
BRANCH   1   2
ATOM      2  C   UNL A   1      32.256  26.316  26.350  1.00  0.00     0.188 C 
BRANCH   2   3
ATOM      3  C   UNL A   1      32.135  25.956  24.859  1.00  0.00     0.188 C 
BRANCH   3   4
ATOM      4  O   UNL A   1      30.981  25.294  24.360  1.00  0.00    -0.376 OA
BRANCH   4   5
ATOM      5  C   UNL A   1      30.822  23.886  24.469  1.00  0.00     0.202 C 
BRANCH   5   6
ATOM      6  C   UNL A   1      30.732  23.131  25.806  1.00  0.00     0.261 C 
BRANCH   6   7
ATOM      7  O   UNL A   1      31.258  21.804  25.840  1.00  0.00    -0.459 OA
BRANCH   7   8
ATOM      8  C   UNL A   1      32.599  21.697  25.991  1.00  0.00     0.365 C 
ATOM      9  O   UNL A   1      33.190  21.918  27.045  1.00  0.00    -0.245 OA
BRANCH   8  10
ATOM     10  C   UNL A   1      33.342  21.335  24.698  1.00  0.00     0.296 C 
ATOM     11  N   UNL A   1      34.723  20.835  24.861  1.00  0.00    -0.319 N 
ATOM     12  C   UNL A   1      34.685  19.374  24.955  1.00  0.00     0.270 C 
ATOM     13  H   UNL A   1      35.081  21.206  25.740  1.00  0.00     0.349 HD
ATOM     14  C   UNL A   1      33.314  18.901  24.416  1.00  0.00     0.036 C 
ATOM     15  C   UNL A   1      32.595  20.204  24.010  1.00  0.00     0.091 C 
ATOM     16  C   UNL A   1      32.514  18.126  25.493  1.00  0.00     0.074 C 
ATOM     17  C   UNL A   1      33.443  17.972  23.193  1.00  0.00     0.074 C 
ATOM     18  C   UNL A   1      33.069  16.719  25.750  1.00  0.00     0.261 C 
ATOM     19  C   UNL A   1      34.025  16.609  23.544  1.00  0.00     0.261 C 
ATOM     20  N   UNL A   1      33.187  15.933  24.521  1.00  0.00    -0.346 N 
ATOM     21  H   UNL A   1      32.259  15.795  24.124  1.00  0.00     0.346 HD
ATOM     22  H   UNL A   1      33.618  15.038  24.751  1.00  0.00     0.346 HD
BRANCH  11  23
ATOM     23  C   UNL A   1      35.755  21.405  23.967  1.00  0.00     0.303 C 
BRANCH  23  24
ATOM     24  C   UNL A   1      36.932  22.064  24.646  1.00  0.00     0.048 A 
ATOM     25  C   UNL A   1      37.979  21.328  25.203  1.00  0.00     0.132 A 
ATOM     26  N   UNL A   1      38.793  21.828  26.150  1.00  0.00    -0.239 NA
ATOM     27  C   UNL A   1      38.624  23.120  26.499  1.00  0.00     0.113 A 
ATOM     28  C   UNL A   1      36.921  23.439  24.883  1.00  0.00     0.015 A 
ATOM     29  C   UNL A   1      37.753  23.976  25.857  1.00  0.00     0.021 A 
BRANCH  25  30
ATOM     30  N   UNL A   1      38.233  20.017  24.845  1.00  0.00    -0.383 N 
ATOM     31  H   UNL A   1      39.088  19.781  24.418  1.00  0.00     0.158 HD
ATOM     32  H   UNL A   1      37.560  19.321  25.019  1.00  0.00     0.158 HD
ENDBRANCH  25  30
ENDBRANCH  23  24
ENDBRANCH  11  23
ENDBRANCH   8  10
ENDBRANCH   7   8
ENDBRANCH   6   7
ENDBRANCH   5   6
ENDBRANCH   4   5
ENDBRANCH   3   4
ENDBRANCH   2   3
ENDBRANCH   1   2
BRANCH   1  33
ATOM     33  C   UNL A   1      31.224  28.363  25.613  1.00  0.00     0.188 C 
BRANCH  33  34
ATOM     34  C   UNL A   1      31.664  29.831  25.420  1.00  0.00     0.188 C 
BRANCH  34  35
ATOM     35  O   UNL A   1      31.445  30.668  26.550  1.00  0.00    -0.376 OA
BRANCH  35  36
ATOM     36  C   UNL A   1      32.324  31.763  26.764  1.00  0.00     0.202 C 
BRANCH  36  37
ATOM     37  C   UNL A   1      33.432  31.589  27.816  1.00  0.00     0.261 C 
BRANCH  37  38
ATOM     38  O   UNL A   1      34.731  31.237  27.322  1.00  0.00    -0.460 OA
BRANCH  38  39
ATOM     39  C   UNL A   1      35.074  29.928  27.350  1.00  0.00     0.338 C 
ATOM     40  O   UNL A   1      34.575  29.030  26.709  1.00  0.00    -0.246 OA
BRANCH  39  41
ATOM     41  C   UNL A   1      36.312  29.808  28.155  1.00  0.00     0.060 A 
ATOM     42  C   UNL A   1      37.531  30.188  27.579  1.00  0.00     0.016 A 
ATOM     43  C   UNL A   1      36.268  29.328  29.467  1.00  0.00     0.016 A 
ATOM     44  C   UNL A   1      38.718  30.048  28.298  1.00  0.00     0.010 A 
ATOM     45  C   UNL A   1      37.460  29.167  30.178  1.00  0.00     0.010 A 
ATOM     46  C   UNL A   1      38.694  29.489  29.583  1.00  0.00    -0.014 A 
BRANCH  46  47
ATOM     47  C   UNL A   1      39.959  29.039  30.213  1.00  0.00     0.031 A 
ATOM     48  C   UNL A   1      40.428  29.760  31.450  1.00  0.00     0.074 A 
ATOM     49  C   UNL A   1      40.666  28.006  29.722  1.00  0.00     0.049 A 
ATOM     50  N   UNL A   1      41.519  29.587  32.148  1.00  0.00    -0.248 NA
ATOM     51  C   UNL A   1      39.544  30.820  31.966  1.00  0.00     0.031 C 
ATOM     52  C   UNL A   1      40.290  27.192  28.567  1.00  0.00     0.029 A 
ATOM     53  N   UNL A   1      41.859  27.468  30.138  1.00  0.00    -0.354 N 
ATOM     54  C   UNL A   1      41.458  30.519  33.179  1.00  0.00     0.074 A 
ATOM     55  C   UNL A   1      40.240  31.277  32.994  1.00  0.00     0.031 C 
ATOM     56  C   UNL A   1      41.238  26.261  28.364  1.00  0.00     0.029 A 
ATOM     57  C   UNL A   1      42.307  26.438  29.347  1.00  0.00     0.049 A 
ATOM     58  H   UNL A   1      42.347  27.792  30.929  1.00  0.00     0.167 HD
ATOM     59  C   UNL A   1      42.333  30.722  34.192  1.00  0.00     0.031 A 
ATOM     60  C   UNL A   1      43.457  25.736  29.397  1.00  0.00     0.031 A 
ATOM     61  C   UNL A   1      43.553  29.980  34.361  1.00  0.00     0.049 A 
ATOM     62  C   UNL A   1      44.465  26.047  30.478  1.00  0.00     0.074 A 
ATOM     63  C   UNL A   1      44.507  30.108  35.355  1.00  0.00     0.029 A 
ATOM     64  N   UNL A   1      43.993  28.976  33.510  1.00  0.00    -0.354 N 
ATOM     65  N   UNL A   1      44.386  26.919  31.455  1.00  0.00    -0.248 NA
ATOM     66  C   UNL A   1      45.713  25.270  30.466  1.00  0.00     0.031 C 
ATOM     67  C   UNL A   1      45.554  29.228  35.069  1.00  0.00     0.029 A 
ATOM     68  C   UNL A   1      45.218  28.496  33.940  1.00  0.00     0.049 A 
ATOM     69  H   UNL A   1      43.506  28.653  32.718  1.00  0.00     0.167 HD
ATOM     70  C   UNL A   1      45.558  26.770  32.194  1.00  0.00     0.074 A 
ATOM     71  C   UNL A   1      46.319  25.715  31.559  1.00  0.00     0.031 C 
ATOM     72  C   UNL A   1      45.963  27.441  33.301  1.00  0.00     0.031 A 
BRANCH  59  73
ATOM     73  C   UNL A   1      42.015  31.819  35.175  1.00  0.00    -0.014 A 
ATOM     74  C   UNL A   1      41.120  31.610  36.240  1.00  0.00     0.010 A 
ATOM     75  C   UNL A   1      42.650  33.069  35.050  1.00  0.00     0.010 A 
ATOM     76  C   UNL A   1      40.835  32.642  37.138  1.00  0.00     0.020 A 
ATOM     77  C   UNL A   1      42.393  34.093  35.966  1.00  0.00     0.020 A 
ATOM     78  C   UNL A   1      41.475  33.878  36.995  1.00  0.00     0.054 A 
BRANCH  78  79
ATOM     79  S   UNL A   1      41.105  35.190  38.191  1.00  0.00     0.124 S 
ATOM     80  O   UNL A   1      40.651  34.423  39.348  1.00  0.00    -0.237 OA
ATOM     81  O   UNL A   1      42.397  35.854  38.345  1.00  0.00    -0.237 OA
ATOM     82  O   UNL A   1      40.074  35.985  37.528  1.00  0.00    -0.744 OA
ENDBRANCH  78  79
ENDBRANCH  59  73
BRANCH  60  83
ATOM     83  C   UNL A   1      43.737  24.678  28.384  1.00  0.00    -0.014 A 
ATOM     84  C   UNL A   1      44.619  24.921  27.317  1.00  0.00     0.010 A 
ATOM     85  C   UNL A   1      43.103  23.424  28.472  1.00  0.00     0.010 A 
ATOM     86  C   UNL A   1      44.845  23.941  26.344  1.00  0.00     0.020 A 
ATOM     87  C   UNL A   1      43.351  22.430  27.521  1.00  0.00     0.020 A 
ATOM     88  C   UNL A   1      44.211  22.700  26.455  1.00  0.00     0.054 A 
BRANCH  88  89
ATOM     89  S   UNL A   1      44.553  21.430  25.204  1.00  0.00     0.124 S 
ATOM     90  O   UNL A   1      45.986  21.214  25.374  1.00  0.00    -0.237 OA
ATOM     91  O   UNL A   1      43.691  20.330  25.631  1.00  0.00    -0.237 OA
ATOM     92  O   UNL A   1      44.160  22.069  23.951  1.00  0.00    -0.744 OA
ENDBRANCH  88  89
ENDBRANCH  60  83
BRANCH  72  93
ATOM     93  C   UNL A   1      47.269  27.028  33.933  1.00  0.00    -0.014 A 
ATOM     94  C   UNL A   1      48.487  27.627  33.568  1.00  0.00     0.010 A 
ATOM     95  C   UNL A   1      47.263  26.062  34.958  1.00  0.00     0.010 A 
ATOM     96  C   UNL A   1      49.679  27.244  34.190  1.00  0.00     0.020 A 
ATOM     97  C   UNL A   1      48.446  25.702  35.607  1.00  0.00     0.020 A 
ATOM     98  C   UNL A   1      49.650  26.285  35.208  1.00  0.00     0.054 A 
BRANCH  98  99
ATOM     99  S   UNL A   1      51.204  25.840  36.032  1.00  0.00     0.124 S 
ATOM    100  O   UNL A   1      52.119  25.703  34.902  1.00  0.00    -0.237 OA
ATOM    101  O   UNL A   1      51.445  26.990  36.900  1.00  0.00    -0.237 OA
ATOM    102  O   UNL A   1      50.884  24.596  36.729  1.00  0.00    -0.744 OA
ENDBRANCH  98  99
ENDBRANCH  72  93
ENDBRANCH  46  47
ENDBRANCH  39  41
ENDBRANCH  38  39
ENDBRANCH  37  38
ENDBRANCH  36  37
ENDBRANCH  35  36
ENDBRANCH  34  35
ENDBRANCH  33  34
ENDBRANCH   1  33
TORSDOF 26
ENDMDL
