MODEL 1
REMARK VINA RESULT:      -6.0      0.000      0.000
REMARK SMILES CC(C)C(=O)Nc1ccc2c([C@H](C(=O)OCCOCCOCCOCCOC(=O)c3ccc(-c4c5nc(c(-c6ccc(S(=O)(=O)[O-])cc6)c6ccc([nH]6)c(-c6ccc(S(=O)(=O)[O-])cc6)c6nc(c(-c7ccc(S(=O)(=O)[O-])cc7)c7ccc4[nH]7)C=C6)C=C5)cc3)[NH+]3CC[NH+](CC(=O)N(C)C)CC3)c[nH]c2c1
REMARK SMILES IDX 21 1 20 2 19 3 18 4 17 5 16 6 15 7 13 8 14 9 12 10 11 11
REMARK SMILES IDX 7 12 8 13 105 14 9 15 104 16 10 17 103 18 102 19 6 21 4 22
REMARK SMILES IDX 5 23 2 25 1 26 3 27 90 28 91 29 101 30 92 32 100 33 93 34
REMARK SMILES IDX 94 36 95 37 96 38 97 39 98 40 99 41 22 42 23 43 24 44 25 45
REMARK SMILES IDX 26 46 27 47 28 48 29 49 30 50 31 51 89 52 32 53 88 54 33 55
REMARK SMILES IDX 34 56 35 57 82 58 36 59 87 60 81 61 83 62 37 63 86 64 80 65
REMARK SMILES IDX 79 66 38 68 68 69 49 70 67 71 50 72 53 73 66 74 84 75 51 76
REMARK SMILES IDX 52 77 65 79 85 80 54 81 39 82 40 83 48 84 41 85 47 86 42 87
REMARK SMILES IDX 43 88 44 89 45 90 46 91 69 92 70 93 78 94 71 95 77 96 72 97
REMARK SMILES IDX 73 98 74 99 75 100 76 101 55 102 56 103 64 104 57 105 63 106
REMARK SMILES IDX 58 107 59 108 60 109 61 110 62 111
REMARK H PARENT 103 20 6 24 90 31 93 35 83 67 53 78
REMARK Flexibility Score: inf
ROOT
ATOM      1  O   UNL A   1      41.658  29.587  35.150  1.00  0.00    -0.377 OA
ENDROOT
BRANCH   1   2
ATOM      2  C   UNL A   1      42.029  29.649  33.779  1.00  0.00     0.188 C 
BRANCH   2   3
ATOM      3  C   UNL A   1      43.297  30.439  33.365  1.00  0.00     0.188 C 
BRANCH   3   4
ATOM      4  O   UNL A   1      44.234  29.636  32.665  1.00  0.00    -0.376 OA
BRANCH   4   5
ATOM      5  C   UNL A   1      44.713  28.509  33.375  1.00  0.00     0.202 C 
BRANCH   5   6
ATOM      6  C   UNL A   1      45.281  27.409  32.475  1.00  0.00     0.261 C 
BRANCH   6   7
ATOM      7  O   UNL A   1      46.631  27.596  31.993  1.00  0.00    -0.459 OA
BRANCH   7   8
ATOM      8  C   UNL A   1      46.925  27.284  30.695  1.00  0.00     0.370 C 
ATOM      9  O   UNL A   1      46.089  26.978  29.852  1.00  0.00    -0.245 OA
BRANCH   8  10
ATOM     10  C   UNL A   1      48.449  27.380  30.463  1.00  0.00     0.328 C 
BRANCH  10  11
ATOM     11  C   UNL A   1      48.924  28.804  30.600  1.00  0.00     0.046 A 
ATOM     12  C   UNL A   1      52.304  30.870  29.299  1.00  0.00     0.043 A 
ATOM     13  C   UNL A   1      52.374  29.489  29.173  1.00  0.00     0.027 A 
ATOM     14  C   UNL A   1      51.285  31.486  30.029  1.00  0.00     0.052 A 
ATOM     15  C   UNL A   1      51.317  28.688  29.595  1.00  0.00     0.013 A 
ATOM     16  C   UNL A   1      50.216  30.672  30.411  1.00  0.00     0.048 A 
ATOM     17  C   UNL A   1      50.193  29.299  30.175  1.00  0.00     0.009 A 
ATOM     18  N   UNL A   1      49.022  31.002  31.003  1.00  0.00    -0.361 N 
ATOM     19  C   UNL A   1      48.224  29.898  31.085  1.00  0.00     0.094 A 
ATOM     20  H   UNL A   1      48.778  31.901  31.321  1.00  0.00     0.166 HD
BRANCH  12  21
ATOM     21  N   UNL A   1      53.228  31.687  28.653  1.00  0.00    -0.326 N 
ATOM     22  C   UNL A   1      53.381  31.894  27.310  1.00  0.00     0.226 C 
ATOM     23  O   UNL A   1      54.350  32.575  26.950  1.00  0.00    -0.274 OA
ATOM     24  H   UNL A   1      53.851  32.176  29.237  1.00  0.00     0.169 HD
BRANCH  22  25
ATOM     25  C   UNL A   1      52.364  31.407  26.258  1.00  0.00     0.072 C 
ATOM     26  C   UNL A   1      51.973  32.441  25.210  1.00  0.00     0.018 C 
ATOM     27  C   UNL A   1      52.683  30.044  25.642  1.00  0.00     0.018 C 
ENDBRANCH  22  25
ENDBRANCH  12  21
ENDBRANCH  10  11
BRANCH  10  28
ATOM     28  N   UNL A   1      49.187  26.483  31.348  1.00  0.00    -0.310 N 
ATOM     29  C   UNL A   1      49.694  25.187  30.938  1.00  0.00     0.325 C 
ATOM     30  C   UNL A   1      49.395  26.800  32.744  1.00  0.00     0.325 C 
ATOM     31  H   UNL A   1      49.333  27.104  30.552  1.00  0.00     0.349 HD
ATOM     32  C   UNL A   1      51.170  24.969  31.363  1.00  0.00     0.325 C 
ATOM     33  C   UNL A   1      50.893  26.676  33.085  1.00  0.00     0.325 C 
ATOM     34  N   UNL A   1      51.590  25.464  32.682  1.00  0.00    -0.318 N 
ATOM     35  H   UNL A   1      52.555  25.752  32.523  1.00  0.00     0.348 HD
BRANCH  34  36
ATOM     36  C   UNL A   1      51.823  24.476  33.732  1.00  0.00     0.364 C 
BRANCH  36  37
ATOM     37  C   UNL A   1      50.805  23.335  33.729  1.00  0.00     0.277 C 
ATOM     38  O   UNL A   1      49.644  23.566  34.083  1.00  0.00    -0.268 OA
ATOM     39  N   UNL A   1      51.220  22.051  33.375  1.00  0.00    -0.344 N 
ATOM     40  C   UNL A   1      52.483  21.679  32.745  1.00  0.00     0.146 C 
ATOM     41  C   UNL A   1      50.300  20.953  33.611  1.00  0.00     0.146 C 
ENDBRANCH  36  37
ENDBRANCH  34  36
ENDBRANCH  10  28
ENDBRANCH   8  10
ENDBRANCH   7   8
ENDBRANCH   6   7
ENDBRANCH   5   6
ENDBRANCH   4   5
ENDBRANCH   3   4
ENDBRANCH   2   3
ENDBRANCH   1   2
BRANCH   1  42
ATOM     42  C   UNL A   1      40.299  29.841  35.458  1.00  0.00     0.188 C 
BRANCH  42  43
ATOM     43  C   UNL A   1      39.508  30.800  34.542  1.00  0.00     0.188 C 
BRANCH  43  44
ATOM     44  O   UNL A   1      38.093  30.635  34.604  1.00  0.00    -0.376 OA
BRANCH  44  45
ATOM     45  C   UNL A   1      37.406  30.536  33.368  1.00  0.00     0.202 C 
BRANCH  45  46
ATOM     46  C   UNL A   1      36.875  31.892  32.891  1.00  0.00     0.261 C 
BRANCH  46  47
ATOM     47  O   UNL A   1      37.483  32.377  31.689  1.00  0.00    -0.460 OA
BRANCH  47  48
ATOM     48  C   UNL A   1      37.211  31.690  30.557  1.00  0.00     0.338 C 
ATOM     49  O   UNL A   1      36.170  31.702  29.925  1.00  0.00    -0.246 OA
BRANCH  48  50
ATOM     50  C   UNL A   1      38.485  31.108  30.096  1.00  0.00     0.060 A 
ATOM     51  C   UNL A   1      39.605  31.202  30.932  1.00  0.00     0.016 A 
ATOM     52  C   UNL A   1      38.551  30.412  28.886  1.00  0.00     0.016 A 
ATOM     53  C   UNL A   1      40.787  30.556  30.580  1.00  0.00     0.010 A 
ATOM     54  C   UNL A   1      39.754  29.822  28.502  1.00  0.00     0.010 A 
ATOM     55  C   UNL A   1      40.875  29.906  29.342  1.00  0.00    -0.014 A 
BRANCH  55  56
ATOM     56  C   UNL A   1      42.215  29.606  28.801  1.00  0.00     0.031 A 
ATOM     57  C   UNL A   1      42.458  28.187  28.370  1.00  0.00     0.074 A 
ATOM     58  C   UNL A   1      43.165  30.549  28.686  1.00  0.00     0.049 A 
ATOM     59  N   UNL A   1      43.532  27.647  27.863  1.00  0.00    -0.248 NA
ATOM     60  C   UNL A   1      41.328  27.252  28.526  1.00  0.00     0.031 C 
ATOM     61  C   UNL A   1      43.011  31.962  29.030  1.00  0.00     0.029 A 
ATOM     62  N   UNL A   1      44.460  30.448  28.246  1.00  0.00    -0.354 N 
ATOM     63  C   UNL A   1      43.201  26.318  27.630  1.00  0.00     0.074 A 
ATOM     64  C   UNL A   1      41.840  26.124  28.069  1.00  0.00     0.031 C 
ATOM     65  C   UNL A   1      44.176  32.595  28.799  1.00  0.00     0.029 A 
ATOM     66  C   UNL A   1      45.161  31.628  28.318  1.00  0.00     0.049 A 
ATOM     67  H   UNL A   1      44.850  29.610  27.908  1.00  0.00     0.167 HD
ATOM     68  C   UNL A   1      43.968  25.340  27.098  1.00  0.00     0.031 A 
ATOM     69  C   UNL A   1      46.456  31.880  28.042  1.00  0.00     0.031 A 
ATOM     70  C   UNL A   1      45.340  25.531  26.726  1.00  0.00     0.049 A 
ATOM     71  C   UNL A   1      47.324  30.748  27.547  1.00  0.00     0.074 A 
ATOM     72  C   UNL A   1      46.226  24.608  26.206  1.00  0.00     0.029 A 
ATOM     73  N   UNL A   1      46.028  26.729  26.857  1.00  0.00    -0.354 N 
ATOM     74  N   UNL A   1      46.994  29.499  27.306  1.00  0.00    -0.248 NA
ATOM     75  C   UNL A   1      48.734  31.059  27.278  1.00  0.00     0.031 C 
ATOM     76  C   UNL A   1      47.469  25.235  26.074  1.00  0.00     0.029 A 
ATOM     77  C   UNL A   1      47.337  26.564  26.448  1.00  0.00     0.049 A 
ATOM     78  H   UNL A   1      45.640  27.570  27.191  1.00  0.00     0.167 HD
ATOM     79  C   UNL A   1      48.148  28.886  26.827  1.00  0.00     0.074 A 
ATOM     80  C   UNL A   1      49.181  29.902  26.807  1.00  0.00     0.031 C 
ATOM     81  C   UNL A   1      48.338  27.601  26.435  1.00  0.00     0.031 A 
BRANCH  68  82
ATOM     82  C   UNL A   1      43.343  23.982  26.955  1.00  0.00    -0.014 A 
ATOM     83  C   UNL A   1      43.336  23.068  28.025  1.00  0.00     0.010 A 
ATOM     84  C   UNL A   1      42.766  23.607  25.729  1.00  0.00     0.010 A 
ATOM     85  C   UNL A   1      42.794  21.792  27.860  1.00  0.00     0.020 A 
ATOM     86  C   UNL A   1      42.198  22.341  25.568  1.00  0.00     0.020 A 
ATOM     87  C   UNL A   1      42.231  21.435  26.631  1.00  0.00     0.054 A 
BRANCH  87  88
ATOM     88  S   UNL A   1      41.517  19.779  26.449  1.00  0.00     0.124 S 
ATOM     89  O   UNL A   1      40.121  20.085  26.144  1.00  0.00    -0.237 OA
ATOM     90  O   UNL A   1      42.291  19.216  25.347  1.00  0.00    -0.237 OA
ATOM     91  O   UNL A   1      41.748  19.157  27.751  1.00  0.00    -0.744 OA
ENDBRANCH  87  88
ENDBRANCH  68  82
BRANCH  69  92
ATOM     92  C   UNL A   1      47.017  33.245  28.245  1.00  0.00    -0.014 A 
ATOM     93  C   UNL A   1      47.043  34.178  27.192  1.00  0.00     0.010 A 
ATOM     94  C   UNL A   1      47.541  33.619  29.496  1.00  0.00     0.010 A 
ATOM     95  C   UNL A   1      47.594  35.451  27.383  1.00  0.00     0.020 A 
ATOM     96  C   UNL A   1      48.068  34.899  29.700  1.00  0.00     0.020 A 
ATOM     97  C   UNL A   1      48.101  35.804  28.638  1.00  0.00     0.054 A 
BRANCH  97  98
ATOM     98  S   UNL A   1      48.765  37.477  28.876  1.00  0.00     0.124 S 
ATOM     99  O   UNL A   1      48.971  37.519  30.321  1.00  0.00    -0.237 OA
ATOM    100  O   UNL A   1      49.978  37.453  28.062  1.00  0.00    -0.237 OA
ATOM    101  O   UNL A   1      47.702  38.342  28.369  1.00  0.00    -0.744 OA
ENDBRANCH  97  98
ENDBRANCH  69  92
BRANCH  81 102
ATOM    102  C   UNL A   1      49.695  27.229  25.903  1.00  0.00    -0.014 A 
ATOM    103  C   UNL A   1      50.660  26.619  26.722  1.00  0.00     0.010 A 
ATOM    104  C   UNL A   1      49.970  27.414  24.535  1.00  0.00     0.010 A 
ATOM    105  C   UNL A   1      51.887  26.220  26.186  1.00  0.00     0.020 A 
ATOM    106  C   UNL A   1      51.183  26.991  23.990  1.00  0.00     0.020 A 
ATOM    107  C   UNL A   1      52.139  26.406  24.822  1.00  0.00     0.054 A 
BRANCH 107 108
ATOM    108  S   UNL A   1      53.714  25.825  24.139  1.00  0.00     0.124 S 
ATOM    109  O   UNL A   1      54.680  26.664  24.845  1.00  0.00    -0.237 OA
ATOM    110  O   UNL A   1      53.722  24.411  24.507  1.00  0.00    -0.237 OA
ATOM    111  O   UNL A   1      53.590  26.090  22.707  1.00  0.00    -0.744 OA
ENDBRANCH 107 108
ENDBRANCH  81 102
ENDBRANCH  55  56
ENDBRANCH  48  50
ENDBRANCH  47  48
ENDBRANCH  46  47
ENDBRANCH  45  46
ENDBRANCH  44  45
ENDBRANCH  43  44
ENDBRANCH  42  43
ENDBRANCH   1  42
TORSDOF 29
ENDMDL
MODEL 2
REMARK VINA RESULT:      -5.3      7.330     15.082
REMARK SMILES CC(C)C(=O)Nc1ccc2c([C@H](C(=O)OCCOCCOCCOCCOC(=O)c3ccc(-c4c5nc(c(-c6ccc(S(=O)(=O)[O-])cc6)c6ccc([nH]6)c(-c6ccc(S(=O)(=O)[O-])cc6)c6nc(c(-c7ccc(S(=O)(=O)[O-])cc7)c7ccc4[nH]7)C=C6)C=C5)cc3)[NH+]3CC[NH+](CC(=O)N(C)C)CC3)c[nH]c2c1
REMARK SMILES IDX 21 1 20 2 19 3 18 4 17 5 16 6 15 7 13 8 14 9 12 10 11 11
REMARK SMILES IDX 7 12 8 13 105 14 9 15 104 16 10 17 103 18 102 19 6 21 4 22
REMARK SMILES IDX 5 23 2 25 1 26 3 27 90 28 91 29 101 30 92 32 100 33 93 34
REMARK SMILES IDX 94 36 95 37 96 38 97 39 98 40 99 41 22 42 23 43 24 44 25 45
REMARK SMILES IDX 26 46 27 47 28 48 29 49 30 50 31 51 89 52 32 53 88 54 33 55
REMARK SMILES IDX 34 56 35 57 82 58 36 59 87 60 81 61 83 62 37 63 86 64 80 65
REMARK SMILES IDX 79 66 38 68 68 69 49 70 67 71 50 72 53 73 66 74 84 75 51 76
REMARK SMILES IDX 52 77 65 79 85 80 54 81 39 82 40 83 48 84 41 85 47 86 42 87
REMARK SMILES IDX 43 88 44 89 45 90 46 91 69 92 70 93 78 94 71 95 77 96 72 97
REMARK SMILES IDX 73 98 74 99 75 100 76 101 55 102 56 103 64 104 57 105 63 106
REMARK SMILES IDX 58 107 59 108 60 109 61 110 62 111
REMARK H PARENT 103 20 6 24 90 31 93 35 83 67 53 78
REMARK Flexibility Score: inf
ROOT
ATOM      1  O   UNL A   1      40.694  27.760  29.811  1.00  0.00    -0.377 OA
ENDROOT
BRANCH   1   2
ATOM      2  C   UNL A   1      39.962  26.698  29.214  1.00  0.00     0.188 C 
BRANCH   2   3
ATOM      3  C   UNL A   1      40.493  26.039  27.915  1.00  0.00     0.188 C 
BRANCH   3   4
ATOM      4  O   UNL A   1      40.247  26.831  26.764  1.00  0.00    -0.376 OA
BRANCH   4   5
ATOM      5  C   UNL A   1      41.206  27.841  26.509  1.00  0.00     0.202 C 
BRANCH   5   6
ATOM      6  C   UNL A   1      42.372  27.376  25.632  1.00  0.00     0.261 C 
BRANCH   6   7
ATOM      7  O   UNL A   1      43.446  28.321  25.424  1.00  0.00    -0.459 OA
BRANCH   7   8
ATOM      8  C   UNL A   1      44.560  28.249  26.212  1.00  0.00     0.370 C 
ATOM      9  O   UNL A   1      45.361  29.166  26.360  1.00  0.00    -0.245 OA
BRANCH   8  10
ATOM     10  C   UNL A   1      44.648  26.857  26.874  1.00  0.00     0.328 C 
BRANCH  10  11
ATOM     11  C   UNL A   1      45.529  25.935  26.071  1.00  0.00     0.046 A 
ATOM     12  C   UNL A   1      44.977  22.185  24.334  1.00  0.00     0.043 A 
ATOM     13  C   UNL A   1      43.977  22.579  25.213  1.00  0.00     0.027 A 
ATOM     14  C   UNL A   1      46.182  22.884  24.238  1.00  0.00     0.052 A 
ATOM     15  C   UNL A   1      44.061  23.800  25.874  1.00  0.00     0.013 A 
ATOM     16  C   UNL A   1      46.232  24.125  24.877  1.00  0.00     0.048 A 
ATOM     17  C   UNL A   1      45.186  24.613  25.657  1.00  0.00     0.009 A 
ATOM     18  N   UNL A   1      47.204  25.094  24.852  1.00  0.00    -0.361 N 
ATOM     19  C   UNL A   1      46.777  26.198  25.529  1.00  0.00     0.094 A 
ATOM     20  H   UNL A   1      48.079  25.005  24.409  1.00  0.00     0.166 HD
BRANCH  12  21
ATOM     21  N   UNL A   1      44.783  21.100  23.482  1.00  0.00    -0.326 N 
ATOM     22  C   UNL A   1      44.868  19.768  23.777  1.00  0.00     0.226 C 
ATOM     23  O   UNL A   1      44.771  18.974  22.833  1.00  0.00    -0.274 OA
ATOM     24  H   UNL A   1      44.555  21.321  22.551  1.00  0.00     0.169 HD
BRANCH  22  25
ATOM     25  C   UNL A   1      44.980  19.225  25.216  1.00  0.00     0.072 C 
ATOM     26  C   UNL A   1      43.759  18.462  25.716  1.00  0.00     0.018 C 
ATOM     27  C   UNL A   1      46.289  18.498  25.526  1.00  0.00     0.018 C 
ENDBRANCH  22  25
ENDBRANCH  12  21
ENDBRANCH  10  11
BRANCH  10  28
ATOM     28  N   UNL A   1      45.094  26.947  28.263  1.00  0.00    -0.310 N 
ATOM     29  C   UNL A   1      46.478  26.801  28.673  1.00  0.00     0.325 C 
ATOM     30  C   UNL A   1      44.154  27.111  29.349  1.00  0.00     0.325 C 
ATOM     31  H   UNL A   1      45.116  27.474  27.390  1.00  0.00     0.349 HD
ATOM     32  C   UNL A   1      46.923  27.917  29.655  1.00  0.00     0.325 C 
ATOM     33  C   UNL A   1      44.582  28.301  30.229  1.00  0.00     0.325 C 
ATOM     34  N   UNL A   1      45.965  28.360  30.678  1.00  0.00    -0.318 N 
ATOM     35  H   UNL A   1      46.172  29.353  30.773  1.00  0.00     0.348 HD
BRANCH  34  36
ATOM     36  C   UNL A   1      46.212  27.949  32.058  1.00  0.00     0.364 C 
BRANCH  36  37
ATOM     37  C   UNL A   1      47.060  26.682  32.171  1.00  0.00     0.277 C 
ATOM     38  O   UNL A   1      46.516  25.581  32.032  1.00  0.00    -0.268 OA
ATOM     39  N   UNL A   1      48.415  26.794  32.480  1.00  0.00    -0.344 N 
ATOM     40  C   UNL A   1      49.222  28.011  32.465  1.00  0.00     0.146 C 
ATOM     41  C   UNL A   1      49.136  25.580  32.816  1.00  0.00     0.146 C 
ENDBRANCH  36  37
ENDBRANCH  34  36
ENDBRANCH  10  28
ENDBRANCH   8  10
ENDBRANCH   7   8
ENDBRANCH   6   7
ENDBRANCH   5   6
ENDBRANCH   4   5
ENDBRANCH   3   4
ENDBRANCH   2   3
ENDBRANCH   1   2
BRANCH   1  42
ATOM     42  C   UNL A   1      40.251  28.209  31.081  1.00  0.00     0.188 C 
BRANCH  42  43
ATOM     43  C   UNL A   1      41.294  28.809  32.048  1.00  0.00     0.188 C 
BRANCH  43  44
ATOM     44  O   UNL A   1      41.962  27.845  32.859  1.00  0.00    -0.376 OA
BRANCH  44  45
ATOM     45  C   UNL A   1      41.393  27.571  34.128  1.00  0.00     0.202 C 
BRANCH  45  46
ATOM     46  C   UNL A   1      42.347  26.783  35.032  1.00  0.00     0.261 C 
BRANCH  46  47
ATOM     47  O   UNL A   1      43.726  26.874  34.658  1.00  0.00    -0.460 OA
BRANCH  47  48
ATOM     48  C   UNL A   1      44.483  27.749  35.357  1.00  0.00     0.338 C 
ATOM     49  O   UNL A   1      44.278  28.941  35.506  1.00  0.00    -0.246 OA
BRANCH  48  50
ATOM     50  C   UNL A   1      45.475  26.953  36.104  1.00  0.00     0.060 A 
ATOM     51  C   UNL A   1      45.977  25.786  35.514  1.00  0.00     0.016 A 
ATOM     52  C   UNL A   1      45.958  27.396  37.338  1.00  0.00     0.016 A 
ATOM     53  C   UNL A   1      47.002  25.081  36.138  1.00  0.00     0.010 A 
ATOM     54  C   UNL A   1      46.937  26.653  37.995  1.00  0.00     0.010 A 
ATOM     55  C   UNL A   1      47.449  25.488  37.401  1.00  0.00    -0.014 A 
BRANCH  55  56
ATOM     56  C   UNL A   1      48.204  24.524  38.224  1.00  0.00     0.031 A 
ATOM     57  C   UNL A   1      49.613  24.905  38.577  1.00  0.00     0.074 A 
ATOM     58  C   UNL A   1      47.661  23.370  38.647  1.00  0.00     0.049 A 
ATOM     59  N   UNL A   1      50.498  24.255  39.281  1.00  0.00    -0.248 NA
ATOM     60  C   UNL A   1      50.085  26.209  38.070  1.00  0.00     0.031 C 
ATOM     61  C   UNL A   1      46.288  22.932  38.400  1.00  0.00     0.029 A 
ATOM     62  N   UNL A   1      48.214  22.350  39.379  1.00  0.00    -0.354 N 
ATOM     63  C   UNL A   1      51.620  25.073  39.311  1.00  0.00     0.074 A 
ATOM     64  C   UNL A   1      51.319  26.255  38.539  1.00  0.00     0.031 C 
ATOM     65  C   UNL A   1      46.110  21.721  38.961  1.00  0.00     0.029 A 
ATOM     66  C   UNL A   1      47.362  21.291  39.582  1.00  0.00     0.049 A 
ATOM     67  H   UNL A   1      49.134  22.376  39.728  1.00  0.00     0.167 HD
ATOM     68  C   UNL A   1      52.804  24.856  39.926  1.00  0.00     0.031 A 
ATOM     69  C   UNL A   1      47.587  20.107  40.185  1.00  0.00     0.031 A 
ATOM     70  C   UNL A   1      53.113  23.649  40.636  1.00  0.00     0.049 A 
ATOM     71  C   UNL A   1      48.950  19.842  40.777  1.00  0.00     0.074 A 
ATOM     72  C   UNL A   1      54.288  23.303  41.274  1.00  0.00     0.029 A 
ATOM     73  N   UNL A   1      52.239  22.580  40.780  1.00  0.00    -0.354 N 
ATOM     74  N   UNL A   1      49.998  20.634  40.821  1.00  0.00    -0.248 NA
ATOM     75  C   UNL A   1      49.160  18.532  41.406  1.00  0.00     0.031 C 
ATOM     76  C   UNL A   1      54.144  21.998  41.758  1.00  0.00     0.029 A 
ATOM     77  C   UNL A   1      52.857  21.561  41.479  1.00  0.00     0.049 A 
ATOM     78  H   UNL A   1      51.317  22.553  40.436  1.00  0.00     0.167 HD
ATOM     79  C   UNL A   1      50.979  19.929  41.511  1.00  0.00     0.074 A 
ATOM     80  C   UNL A   1      50.398  18.651  41.870  1.00  0.00     0.031 C 
ATOM     81  C   UNL A   1      52.245  20.303  41.825  1.00  0.00     0.031 A 
BRANCH  68  82
ATOM     82  C   UNL A   1      53.849  25.927  39.795  1.00  0.00    -0.014 A 
ATOM     83  C   UNL A   1      53.944  26.969  40.736  1.00  0.00     0.010 A 
ATOM     84  C   UNL A   1      54.741  25.899  38.709  1.00  0.00     0.010 A 
ATOM     85  C   UNL A   1      54.891  27.983  40.572  1.00  0.00     0.020 A 
ATOM     86  C   UNL A   1      55.707  26.897  38.557  1.00  0.00     0.020 A 
ATOM     87  C   UNL A   1      55.765  27.942  39.481  1.00  0.00     0.054 A 
BRANCH  87  88
ATOM     88  S   UNL A   1      56.996  29.260  39.303  1.00  0.00     0.124 S 
ATOM     89  O   UNL A   1      58.192  28.632  39.859  1.00  0.00    -0.237 OA
ATOM     90  O   UNL A   1      57.017  29.486  37.861  1.00  0.00    -0.237 OA
ATOM     91  O   UNL A   1      56.445  30.359  40.094  1.00  0.00    -0.744 OA
ENDBRANCH  87  88
ENDBRANCH  68  82
BRANCH  69  92
ATOM     92  C   UNL A   1      46.512  19.076  40.244  1.00  0.00    -0.014 A 
ATOM     93  C   UNL A   1      45.636  19.009  41.342  1.00  0.00     0.010 A 
ATOM     94  C   UNL A   1      46.365  18.144  39.200  1.00  0.00     0.010 A 
ATOM     95  C   UNL A   1      44.644  18.022  41.402  1.00  0.00     0.020 A 
ATOM     96  C   UNL A   1      45.358  17.173  39.242  1.00  0.00     0.020 A 
ATOM     97  C   UNL A   1      44.511  17.112  40.349  1.00  0.00     0.054 A 
BRANCH  97  98
ATOM     98  S   UNL A   1      43.185  15.873  40.425  1.00  0.00     0.124 S 
ATOM     99  O   UNL A   1      41.989  16.698  40.288  1.00  0.00    -0.237 OA
ATOM    100  O   UNL A   1      43.496  15.010  39.288  1.00  0.00    -0.237 OA
ATOM    101  O   UNL A   1      43.372  15.253  41.736  1.00  0.00    -0.744 OA
ENDBRANCH  97  98
ENDBRANCH  69  92
BRANCH  81 102
ATOM    102  C   UNL A   1      53.074  19.344  42.636  1.00  0.00    -0.014 A 
ATOM    103  C   UNL A   1      53.016  19.333  44.040  1.00  0.00     0.010 A 
ATOM    104  C   UNL A   1      53.854  18.380  41.971  1.00  0.00     0.010 A 
ATOM    105  C   UNL A   1      53.742  18.386  44.766  1.00  0.00     0.020 A 
ATOM    106  C   UNL A   1      54.558  17.415  42.692  1.00  0.00     0.020 A 
ATOM    107  C   UNL A   1      54.506  17.432  44.087  1.00  0.00     0.054 A 
BRANCH 107 108
ATOM    108  S   UNL A   1      55.392  16.176  45.050  1.00  0.00     0.124 S 
ATOM    109  O   UNL A   1      56.763  16.338  44.572  1.00  0.00    -0.237 OA
ATOM    110  O   UNL A   1      55.151  16.600  46.427  1.00  0.00    -0.237 OA
ATOM    111  O   UNL A   1      54.743  14.924  44.667  1.00  0.00    -0.744 OA
ENDBRANCH 107 108
ENDBRANCH  81 102
ENDBRANCH  55  56
ENDBRANCH  48  50
ENDBRANCH  47  48
ENDBRANCH  46  47
ENDBRANCH  45  46
ENDBRANCH  44  45
ENDBRANCH  43  44
ENDBRANCH  42  43
ENDBRANCH   1  42
TORSDOF 29
ENDMDL
MODEL 3
REMARK VINA RESULT:      -5.2      3.930     11.217
REMARK SMILES CC(C)C(=O)Nc1ccc2c([C@H](C(=O)OCCOCCOCCOCCOC(=O)c3ccc(-c4c5nc(c(-c6ccc(S(=O)(=O)[O-])cc6)c6ccc([nH]6)c(-c6ccc(S(=O)(=O)[O-])cc6)c6nc(c(-c7ccc(S(=O)(=O)[O-])cc7)c7ccc4[nH]7)C=C6)C=C5)cc3)[NH+]3CC[NH+](CC(=O)N(C)C)CC3)c[nH]c2c1
REMARK SMILES IDX 21 1 20 2 19 3 18 4 17 5 16 6 15 7 13 8 14 9 12 10 11 11
REMARK SMILES IDX 7 12 8 13 105 14 9 15 104 16 10 17 103 18 102 19 6 21 4 22
REMARK SMILES IDX 5 23 2 25 1 26 3 27 90 28 91 29 101 30 92 32 100 33 93 34
REMARK SMILES IDX 94 36 95 37 96 38 97 39 98 40 99 41 22 42 23 43 24 44 25 45
REMARK SMILES IDX 26 46 27 47 28 48 29 49 30 50 31 51 89 52 32 53 88 54 33 55
REMARK SMILES IDX 34 56 35 57 82 58 36 59 87 60 81 61 83 62 37 63 86 64 80 65
REMARK SMILES IDX 79 66 38 68 68 69 49 70 67 71 50 72 53 73 66 74 84 75 51 76
REMARK SMILES IDX 52 77 65 79 85 80 54 81 39 82 40 83 48 84 41 85 47 86 42 87
REMARK SMILES IDX 43 88 44 89 45 90 46 91 69 92 70 93 78 94 71 95 77 96 72 97
REMARK SMILES IDX 73 98 74 99 75 100 76 101 55 102 56 103 64 104 57 105 63 106
REMARK SMILES IDX 58 107 59 108 60 109 61 110 62 111
REMARK H PARENT 103 20 6 24 90 31 93 35 83 67 53 78
REMARK Flexibility Score: inf
ROOT
ATOM      1  O   UNL A   1      33.913  25.345  25.227  1.00  0.00    -0.377 OA
ENDROOT
BRANCH   1   2
ATOM      2  C   UNL A   1      33.643  26.467  26.055  1.00  0.00     0.188 C 
BRANCH   2   3
ATOM      3  C   UNL A   1      32.869  27.679  25.475  1.00  0.00     0.188 C 
BRANCH   3   4
ATOM      4  O   UNL A   1      33.574  28.900  25.629  1.00  0.00    -0.376 OA
BRANCH   4   5
ATOM      5  C   UNL A   1      34.292  29.033  26.842  1.00  0.00     0.202 C 
BRANCH   5   6
ATOM      6  C   UNL A   1      34.400  30.477  27.339  1.00  0.00     0.261 C 
BRANCH   6   7
ATOM      7  O   UNL A   1      35.473  30.768  28.262  1.00  0.00    -0.459 OA
BRANCH   7   8
ATOM      8  C   UNL A   1      35.931  32.051  28.371  1.00  0.00     0.370 C 
ATOM      9  O   UNL A   1      35.531  32.987  27.686  1.00  0.00    -0.245 OA
BRANCH   8  10
ATOM     10  C   UNL A   1      37.009  32.135  29.473  1.00  0.00     0.328 C 
BRANCH  10  11
ATOM     11  C   UNL A   1      36.383  32.418  30.814  1.00  0.00     0.046 A 
ATOM     12  C   UNL A   1      37.879  33.634  34.512  1.00  0.00     0.043 A 
ATOM     13  C   UNL A   1      38.840  33.242  33.588  1.00  0.00     0.027 A 
ATOM     14  C   UNL A   1      36.519  33.400  34.295  1.00  0.00     0.052 A 
ATOM     15  C   UNL A   1      38.462  32.793  32.327  1.00  0.00     0.013 A 
ATOM     16  C   UNL A   1      36.158  32.985  33.011  1.00  0.00     0.048 A 
ATOM     17  C   UNL A   1      37.095  32.716  32.015  1.00  0.00     0.009 A 
ATOM     18  N   UNL A   1      34.915  32.812  32.455  1.00  0.00    -0.361 N 
ATOM     19  C   UNL A   1      35.037  32.511  31.130  1.00  0.00     0.094 A 
ATOM     20  H   UNL A   1      34.063  32.893  32.941  1.00  0.00     0.166 HD
BRANCH  12  21
ATOM     21  N   UNL A   1      38.246  34.320  35.666  1.00  0.00    -0.326 N 
ATOM     22  C   UNL A   1      38.140  33.907  36.965  1.00  0.00     0.226 C 
ATOM     23  O   UNL A   1      38.422  34.730  37.845  1.00  0.00    -0.274 OA
ATOM     24  H   UNL A   1      38.631  35.215  35.530  1.00  0.00     0.169 HD
BRANCH  22  25
ATOM     25  C   UNL A   1      37.787  32.460  37.366  1.00  0.00     0.072 C 
ATOM     26  C   UNL A   1      38.683  31.385  36.765  1.00  0.00     0.018 C 
ATOM     27  C   UNL A   1      37.549  32.251  38.863  1.00  0.00     0.018 C 
ENDBRANCH  22  25
ENDBRANCH  12  21
ENDBRANCH  10  11
BRANCH  10  28
ATOM     28  N   UNL A   1      37.836  30.931  29.511  1.00  0.00    -0.310 N 
ATOM     29  C   UNL A   1      37.620  29.838  30.441  1.00  0.00     0.325 C 
ATOM     30  C   UNL A   1      38.997  30.784  28.662  1.00  0.00     0.325 C 
ATOM     31  H   UNL A   1      36.907  31.243  29.228  1.00  0.00     0.349 HD
ATOM     32  C   UNL A   1      37.648  28.454  29.740  1.00  0.00     0.325 C 
ATOM     33  C   UNL A   1      38.919  29.444  27.906  1.00  0.00     0.325 C 
ATOM     34  N   UNL A   1      38.636  28.239  28.672  1.00  0.00    -0.318 N 
ATOM     35  H   UNL A   1      38.147  27.621  28.026  1.00  0.00     0.348 HD
BRANCH  34  36
ATOM     36  C   UNL A   1      39.781  27.384  28.973  1.00  0.00     0.364 C 
BRANCH  36  37
ATOM     37  C   UNL A   1      40.949  27.573  28.005  1.00  0.00     0.277 C 
ATOM     38  O   UNL A   1      40.862  27.112  26.861  1.00  0.00    -0.268 OA
ATOM     39  N   UNL A   1      42.106  28.214  28.448  1.00  0.00    -0.344 N 
ATOM     40  C   UNL A   1      42.269  28.979  29.681  1.00  0.00     0.146 C 
ATOM     41  C   UNL A   1      43.278  28.166  27.592  1.00  0.00     0.146 C 
ENDBRANCH  36  37
ENDBRANCH  34  36
ENDBRANCH  10  28
ENDBRANCH   8  10
ENDBRANCH   7   8
ENDBRANCH   6   7
ENDBRANCH   5   6
ENDBRANCH   4   5
ENDBRANCH   3   4
ENDBRANCH   2   3
ENDBRANCH   1   2
BRANCH   1  42
ATOM     42  C   UNL A   1      33.957  24.077  25.859  1.00  0.00     0.188 C 
BRANCH  42  43
ATOM     43  C   UNL A   1      35.187  23.178  25.610  1.00  0.00     0.188 C 
BRANCH  43  44
ATOM     44  O   UNL A   1      36.385  23.642  26.228  1.00  0.00    -0.376 OA
BRANCH  44  45
ATOM     45  C   UNL A   1      37.585  23.495  25.488  1.00  0.00     0.202 C 
BRANCH  45  46
ATOM     46  C   UNL A   1      38.428  22.315  25.983  1.00  0.00     0.261 C 
BRANCH  46  47
ATOM     47  O   UNL A   1      39.602  22.690  26.711  1.00  0.00    -0.460 OA
BRANCH  47  48
ATOM     48  C   UNL A   1      40.639  21.824  26.670  1.00  0.00     0.338 C 
ATOM     49  O   UNL A   1      40.659  20.729  26.136  1.00  0.00    -0.246 OA
BRANCH  48  50
ATOM     50  C   UNL A   1      41.818  22.546  27.185  1.00  0.00     0.060 A 
ATOM     51  C   UNL A   1      41.616  23.744  27.882  1.00  0.00     0.016 A 
ATOM     52  C   UNL A   1      43.099  22.006  27.045  1.00  0.00     0.016 A 
ATOM     53  C   UNL A   1      42.695  24.383  28.486  1.00  0.00     0.010 A 
ATOM     54  C   UNL A   1      44.188  22.681  27.592  1.00  0.00     0.010 A 
ATOM     55  C   UNL A   1      43.988  23.877  28.300  1.00  0.00    -0.014 A 
BRANCH  55  56
ATOM     56  C   UNL A   1      45.136  24.765  28.566  1.00  0.00     0.031 A 
ATOM     57  C   UNL A   1      45.307  25.228  29.986  1.00  0.00     0.074 A 
ATOM     58  C   UNL A   1      45.991  25.135  27.599  1.00  0.00     0.049 A 
ATOM     59  N   UNL A   1      46.218  26.007  30.501  1.00  0.00    -0.248 NA
ATOM     60  C   UNL A   1      44.313  24.735  30.960  1.00  0.00     0.031 C 
ATOM     61  C   UNL A   1      45.939  24.700  26.203  1.00  0.00     0.029 A 
ATOM     62  N   UNL A   1      47.077  25.970  27.652  1.00  0.00    -0.354 N 
ATOM     63  C   UNL A   1      45.914  26.084  31.854  1.00  0.00     0.074 A 
ATOM     64  C   UNL A   1      44.727  25.297  32.081  1.00  0.00     0.031 C 
ATOM     65  C   UNL A   1      46.945  25.287  25.528  1.00  0.00     0.029 A 
ATOM     66  C   UNL A   1      47.692  26.156  26.437  1.00  0.00     0.049 A 
ATOM     67  H   UNL A   1      47.388  26.396  28.483  1.00  0.00     0.167 HD
ATOM     68  C   UNL A   1      46.569  26.758  32.826  1.00  0.00     0.031 A 
ATOM     69  C   UNL A   1      48.727  26.954  26.106  1.00  0.00     0.031 A 
ATOM     70  C   UNL A   1      47.711  27.589  32.576  1.00  0.00     0.049 A 
ATOM     71  C   UNL A   1      49.379  27.779  27.189  1.00  0.00     0.074 A 
ATOM     72  C   UNL A   1      48.438  28.345  33.474  1.00  0.00     0.029 A 
ATOM     73  N   UNL A   1      48.276  27.787  31.324  1.00  0.00    -0.354 N 
ATOM     74  N   UNL A   1      49.100  27.826  28.472  1.00  0.00    -0.248 NA
ATOM     75  C   UNL A   1      50.489  28.651  26.784  1.00  0.00     0.031 C 
ATOM     76  C   UNL A   1      49.412  29.045  32.756  1.00  0.00     0.029 A 
ATOM     77  C   UNL A   1      49.332  28.673  31.421  1.00  0.00     0.049 A 
ATOM     78  H   UNL A   1      47.970  27.360  30.491  1.00  0.00     0.167 HD
ATOM     79  C   UNL A   1      50.021  28.707  29.031  1.00  0.00     0.074 A 
ATOM     80  C   UNL A   1      50.868  29.164  27.947  1.00  0.00     0.031 C 
ATOM     81  C   UNL A   1      50.159  29.101  30.322  1.00  0.00     0.031 A 
BRANCH  68  82
ATOM     82  C   UNL A   1      46.016  26.659  34.219  1.00  0.00    -0.014 A 
ATOM     83  C   UNL A   1      45.254  27.704  34.775  1.00  0.00     0.010 A 
ATOM     84  C   UNL A   1      46.272  25.511  34.989  1.00  0.00     0.010 A 
ATOM     85  C   UNL A   1      44.788  27.615  36.089  1.00  0.00     0.020 A 
ATOM     86  C   UNL A   1      45.784  25.408  36.294  1.00  0.00     0.020 A 
ATOM     87  C   UNL A   1      45.059  26.469  36.841  1.00  0.00     0.054 A 
BRANCH  87  88
ATOM     88  S   UNL A   1      44.426  26.372  38.537  1.00  0.00     0.124 S 
ATOM     89  O   UNL A   1      45.072  25.158  39.030  1.00  0.00    -0.237 OA
ATOM     90  O   UNL A   1      44.901  27.620  39.128  1.00  0.00    -0.237 OA
ATOM     91  O   UNL A   1      42.979  26.280  38.363  1.00  0.00    -0.744 OA
ENDBRANCH  87  88
ENDBRANCH  68  82
BRANCH  69  92
ATOM     92  C   UNL A   1      49.198  27.030  24.695  1.00  0.00    -0.014 A 
ATOM     93  C   UNL A   1      50.533  26.735  24.363  1.00  0.00     0.010 A 
ATOM     94  C   UNL A   1      48.311  27.410  23.670  1.00  0.00     0.010 A 
ATOM     95  C   UNL A   1      50.974  26.833  23.037  1.00  0.00     0.020 A 
ATOM     96  C   UNL A   1      48.740  27.482  22.341  1.00  0.00     0.020 A 
ATOM     97  C   UNL A   1      50.073  27.204  22.034  1.00  0.00     0.054 A 
BRANCH  97  98
ATOM     98  S   UNL A   1      50.655  27.275  20.316  1.00  0.00     0.124 S 
ATOM     99  O   UNL A   1      51.325  28.572  20.275  1.00  0.00    -0.237 OA
ATOM    100  O   UNL A   1      51.528  26.107  20.231  1.00  0.00    -0.237 OA
ATOM    101  O   UNL A   1      49.424  27.181  19.534  1.00  0.00    -0.744 OA
ENDBRANCH  97  98
ENDBRANCH  69  92
BRANCH  81 102
ATOM    102  C   UNL A   1      51.294  30.034  30.648  1.00  0.00    -0.014 A 
ATOM    103  C   UNL A   1      52.586  29.550  30.912  1.00  0.00     0.010 A 
ATOM    104  C   UNL A   1      51.075  31.423  30.598  1.00  0.00     0.010 A 
ATOM    105  C   UNL A   1      53.637  30.441  31.143  1.00  0.00     0.020 A 
ATOM    106  C   UNL A   1      52.128  32.317  30.799  1.00  0.00     0.020 A 
ATOM    107  C   UNL A   1      53.401  31.819  31.082  1.00  0.00     0.054 A 
BRANCH 107 108
ATOM    108  S   UNL A   1      54.793  32.954  31.326  1.00  0.00     0.124 S 
ATOM    109  O   UNL A   1      54.664  33.844  30.173  1.00  0.00    -0.237 OA
ATOM    110  O   UNL A   1      54.492  33.557  32.622  1.00  0.00    -0.237 OA
ATOM    111  O   UNL A   1      55.963  32.078  31.308  1.00  0.00    -0.744 OA
ENDBRANCH 107 108
ENDBRANCH  81 102
ENDBRANCH  55  56
ENDBRANCH  48  50
ENDBRANCH  47  48
ENDBRANCH  46  47
ENDBRANCH  45  46
ENDBRANCH  44  45
ENDBRANCH  43  44
ENDBRANCH  42  43
ENDBRANCH   1  42
TORSDOF 29
ENDMDL
