MODEL 1
REMARK VINA RESULT:     -10.2      0.000      0.000
REMARK SMILES COc1ccc(NC(=O)[C@H]2[C@@H]3CC[C@@H](C3)[C@@H]2C(=O)OCCOCCOCCOCCOC(=O)c2ccc(-c3c4nc(c(-c5ccc(S(=O)(=O)[O-])cc5)c5ccc([nH]5)c(-c5ccc(S(=O)(=O)[O-])cc5)c5nc(c(-c6ccc(S(=O)(=O)[O-])cc6)c6ccc3[nH]6)C=C5)C=C4)cc2)c(C)c1
REMARK SMILES IDX 25 1 24 2 23 3 22 4 21 5 20 6 19 7 17 8 18 9 16 10 10 11
REMARK SMILES IDX 11 12 12 13 15 14 14 15 13 16 8 17 7 18 9 20 6 21 3 22 4 23
REMARK SMILES IDX 96 24 5 25 94 26 95 27 2 28 1 29 26 30 27 31 28 32 29 33
REMARK SMILES IDX 30 34 31 35 32 36 33 37 34 38 35 39 93 40 36 41 92 42 37 43
REMARK SMILES IDX 38 44 39 45 86 46 40 47 91 48 85 49 87 50 41 51 90 52 84 53
REMARK SMILES IDX 83 54 42 56 72 57 53 58 71 59 54 60 57 61 70 62 88 63 55 64
REMARK SMILES IDX 56 65 69 67 89 68 58 69 43 70 44 71 52 72 45 73 51 74 46 75
REMARK SMILES IDX 47 76 48 77 49 78 50 79 73 80 74 81 82 82 75 83 81 84 76 85
REMARK SMILES IDX 77 86 78 87 79 88 80 89 59 90 60 91 68 92 61 93 67 94 62 95
REMARK SMILES IDX 63 96 64 97 65 98 66 99
REMARK H PARENT 7 19 87 55 57 66
REMARK Flexibility Score: inf
ROOT
ATOM      1  O   UNL A   1      41.907  21.104  25.470  1.00  0.00    -0.377 OA
ENDROOT
BRANCH   1   2
ATOM      2  C   UNL A   1      40.816  20.784  26.321  1.00  0.00     0.188 C 
BRANCH   2   3
ATOM      3  C   UNL A   1      39.647  21.775  26.328  1.00  0.00     0.188 C 
BRANCH   3   4
ATOM      4  O   UNL A   1      38.434  21.264  25.814  1.00  0.00    -0.376 OA
BRANCH   4   5
ATOM      5  C   UNL A   1      37.776  22.104  24.861  1.00  0.00     0.202 C 
BRANCH   5   6
ATOM      6  C   UNL A   1      36.321  21.725  24.640  1.00  0.00     0.261 C 
BRANCH   6   7
ATOM      7  O   UNL A   1      35.891  20.554  25.325  1.00  0.00    -0.463 OA
BRANCH   7   8
ATOM      8  C   UNL A   1      34.592  20.216  25.385  1.00  0.00     0.310 C 
ATOM      9  O   UNL A   1      33.751  20.601  26.185  1.00  0.00    -0.252 OA
BRANCH   8  10
ATOM     10  C   UNL A   1      34.266  19.265  24.274  1.00  0.00     0.115 C 
ATOM     11  C   UNL A   1      32.747  19.199  24.061  1.00  0.00     0.096 C 
ATOM     12  C   UNL A   1      32.520  17.674  23.882  1.00  0.00     0.003 C 
ATOM     13  C   UNL A   1      32.526  17.020  25.274  1.00  0.00     0.005 C 
ATOM     14  C   UNL A   1      33.858  17.179  23.312  1.00  0.00     0.009 C 
ATOM     15  C   UNL A   1      34.670  17.780  24.455  1.00  0.00     0.004 C 
ATOM     16  C   UNL A   1      34.005  17.069  25.658  1.00  0.00     0.005 C 
BRANCH  11  17
ATOM     17  C   UNL A   1      32.270  19.953  22.834  1.00  0.00     0.228 C 
ATOM     18  N   UNL A   1      32.014  21.294  22.851  1.00  0.00    -0.326 N 
ATOM     19  H   UNL A   1      31.758  21.636  21.964  1.00  0.00     0.169 HD
ATOM     20  O   UNL A   1      32.053  19.362  21.770  1.00  0.00    -0.274 OA
BRANCH  18  21
ATOM     21  C   UNL A   1      32.026  22.310  23.834  1.00  0.00     0.044 A 
ATOM     22  C   UNL A   1      32.129  24.344  25.805  1.00  0.00     0.119 A 
ATOM     23  C   UNL A   1      31.192  23.331  25.898  1.00  0.00     0.048 A 
ATOM     24  C   UNL A   1      32.986  24.380  24.712  1.00  0.00     0.052 A 
ATOM     25  C   UNL A   1      31.140  22.341  24.914  1.00  0.00     0.030 A 
ATOM     26  C   UNL A   1      32.964  23.364  23.728  1.00  0.00    -0.024 A 
ATOM     27  C   UNL A   1      33.974  23.507  22.617  1.00  0.00     0.047 C 
BRANCH  22  28
ATOM     28  O   UNL A   1      32.211  25.361  26.714  1.00  0.00    -0.497 OA
ATOM     29  C   UNL A   1      32.964  26.464  26.212  1.00  0.00     0.278 C 
ENDBRANCH  22  28
ENDBRANCH  18  21
ENDBRANCH  11  17
ENDBRANCH   8  10
ENDBRANCH   7   8
ENDBRANCH   6   7
ENDBRANCH   5   6
ENDBRANCH   4   5
ENDBRANCH   3   4
ENDBRANCH   2   3
ENDBRANCH   1   2
BRANCH   1  30
ATOM     30  C   UNL A   1      43.214  21.129  26.046  1.00  0.00     0.188 C 
BRANCH  30  31
ATOM     31  C   UNL A   1      43.964  22.457  25.863  1.00  0.00     0.188 C 
BRANCH  31  32
ATOM     32  O   UNL A   1      43.214  23.562  26.362  1.00  0.00    -0.376 OA
BRANCH  32  33
ATOM     33  C   UNL A   1      42.923  24.585  25.418  1.00  0.00     0.202 C 
BRANCH  33  34
ATOM     34  C   UNL A   1      41.622  25.306  25.766  1.00  0.00     0.261 C 
BRANCH  34  35
ATOM     35  O   UNL A   1      41.102  24.707  26.964  1.00  0.00    -0.460 OA
BRANCH  35  36
ATOM     36  C   UNL A   1      39.880  25.172  27.342  1.00  0.00     0.338 C 
ATOM     37  O   UNL A   1      38.834  24.918  26.776  1.00  0.00    -0.246 OA
BRANCH  36  38
ATOM     38  C   UNL A   1      40.042  26.098  28.499  1.00  0.00     0.060 A 
ATOM     39  C   UNL A   1      38.934  26.433  29.287  1.00  0.00     0.016 A 
ATOM     40  C   UNL A   1      41.257  26.747  28.725  1.00  0.00     0.016 A 
ATOM     41  C   UNL A   1      39.032  27.441  30.265  1.00  0.00     0.010 A 
ATOM     42  C   UNL A   1      41.335  27.774  29.660  1.00  0.00     0.010 A 
ATOM     43  C   UNL A   1      40.226  28.152  30.437  1.00  0.00    -0.014 A 
BRANCH  43  44
ATOM     44  C   UNL A   1      40.341  29.429  31.177  1.00  0.00     0.031 A 
ATOM     45  C   UNL A   1      39.569  30.683  30.869  1.00  0.00     0.074 A 
ATOM     46  C   UNL A   1      40.785  29.369  32.455  1.00  0.00     0.049 A 
ATOM     47  N   UNL A   1      39.682  31.783  31.559  1.00  0.00    -0.248 NA
ATOM     48  C   UNL A   1      38.637  30.841  29.753  1.00  0.00     0.031 C 
ATOM     49  C   UNL A   1      40.158  30.108  33.545  1.00  0.00     0.029 A 
ATOM     50  N   UNL A   1      41.777  28.640  33.091  1.00  0.00    -0.354 N 
ATOM     51  C   UNL A   1      38.543  32.516  31.326  1.00  0.00     0.074 A 
ATOM     52  C   UNL A   1      38.081  32.026  30.045  1.00  0.00     0.031 C 
ATOM     53  C   UNL A   1      40.882  29.972  34.649  1.00  0.00     0.029 A 
ATOM     54  C   UNL A   1      42.067  29.222  34.323  1.00  0.00     0.049 A 
ATOM     55  H   UNL A   1      42.211  27.834  32.728  1.00  0.00     0.167 HD
ATOM     56  C   UNL A   1      37.994  33.307  32.299  1.00  0.00     0.031 A 
ATOM     57  C   UNL A   1      43.244  29.326  34.984  1.00  0.00     0.031 A 
ATOM     58  C   UNL A   1      38.786  33.405  33.550  1.00  0.00     0.049 A 
ATOM     59  C   UNL A   1      43.504  30.778  35.311  1.00  0.00     0.074 A 
ATOM     60  C   UNL A   1      38.483  33.303  34.900  1.00  0.00     0.029 A 
ATOM     61  N   UNL A   1      40.177  33.526  33.507  1.00  0.00    -0.354 N 
ATOM     62  N   UNL A   1      42.545  31.646  35.504  1.00  0.00    -0.248 NA
ATOM     63  C   UNL A   1      44.807  31.435  35.244  1.00  0.00     0.031 C 
ATOM     64  C   UNL A   1      39.689  33.442  35.652  1.00  0.00     0.029 A 
ATOM     65  C   UNL A   1      40.736  33.632  34.774  1.00  0.00     0.049 A 
ATOM     66  H   UNL A   1      40.700  33.535  32.674  1.00  0.00     0.167 HD
ATOM     67  C   UNL A   1      43.005  32.901  35.221  1.00  0.00     0.074 A 
ATOM     68  C   UNL A   1      44.451  32.735  35.197  1.00  0.00     0.031 C 
ATOM     69  C   UNL A   1      42.162  33.940  34.920  1.00  0.00     0.031 A 
BRANCH  56  70
ATOM     70  C   UNL A   1      36.599  33.940  32.178  1.00  0.00    -0.014 A 
ATOM     71  C   UNL A   1      36.269  35.098  32.919  1.00  0.00     0.010 A 
ATOM     72  C   UNL A   1      35.559  33.427  31.375  1.00  0.00     0.010 A 
ATOM     73  C   UNL A   1      35.009  35.727  32.816  1.00  0.00     0.020 A 
ATOM     74  C   UNL A   1      34.321  34.073  31.216  1.00  0.00     0.020 A 
ATOM     75  C   UNL A   1      34.049  35.224  31.942  1.00  0.00     0.054 A 
BRANCH  75  76
ATOM     76  S   UNL A   1      32.465  36.085  31.727  1.00  0.00     0.124 S 
ATOM     77  O   UNL A   1      31.546  35.252  32.497  1.00  0.00    -0.237 OA
ATOM     78  O   UNL A   1      32.735  37.408  32.283  1.00  0.00    -0.237 OA
ATOM     79  O   UNL A   1      32.253  36.063  30.279  1.00  0.00    -0.744 OA
ENDBRANCH  75  76
ENDBRANCH  56  70
BRANCH  57  80
ATOM     80  C   UNL A   1      44.114  28.132  34.843  1.00  0.00    -0.014 A 
ATOM     81  C   UNL A   1      44.145  27.332  36.013  1.00  0.00     0.010 A 
ATOM     82  C   UNL A   1      44.306  27.502  33.600  1.00  0.00     0.010 A 
ATOM     83  C   UNL A   1      44.117  25.936  35.935  1.00  0.00     0.020 A 
ATOM     84  C   UNL A   1      44.267  26.098  33.520  1.00  0.00     0.020 A 
ATOM     85  C   UNL A   1      44.105  25.330  34.681  1.00  0.00     0.054 A 
BRANCH  85  86
ATOM     86  S   UNL A   1      43.573  23.590  34.536  1.00  0.00     0.124 S 
ATOM     87  O   UNL A   1      44.602  22.890  35.297  1.00  0.00    -0.237 OA
ATOM     88  O   UNL A   1      42.236  23.583  35.128  1.00  0.00    -0.237 OA
ATOM     89  O   UNL A   1      43.597  23.377  33.090  1.00  0.00    -0.744 OA
ENDBRANCH  85  86
ENDBRANCH  57  80
BRANCH  69  90
ATOM     90  C   UNL A   1      42.608  35.367  34.684  1.00  0.00    -0.014 A 
ATOM     91  C   UNL A   1      42.137  36.457  35.433  1.00  0.00     0.010 A 
ATOM     92  C   UNL A   1      43.430  35.673  33.571  1.00  0.00     0.010 A 
ATOM     93  C   UNL A   1      42.537  37.770  35.143  1.00  0.00     0.020 A 
ATOM     94  C   UNL A   1      43.820  36.978  33.259  1.00  0.00     0.020 A 
ATOM     95  C   UNL A   1      43.391  38.020  34.068  1.00  0.00     0.054 A 
BRANCH  95  96
ATOM     96  S   UNL A   1      43.913  39.720  33.733  1.00  0.00     0.124 S 
ATOM     97  O   UNL A   1      42.641  40.426  33.615  1.00  0.00    -0.237 OA
ATOM     98  O   UNL A   1      44.695  40.034  34.928  1.00  0.00    -0.237 OA
ATOM     99  O   UNL A   1      44.683  39.616  32.497  1.00  0.00    -0.744 OA
ENDBRANCH  95  96
ENDBRANCH  69  90
ENDBRANCH  43  44
ENDBRANCH  36  38
ENDBRANCH  35  36
ENDBRANCH  34  35
ENDBRANCH  33  34
ENDBRANCH  32  33
ENDBRANCH  31  32
ENDBRANCH  30  31
ENDBRANCH   1  30
TORSDOF 26
ENDMDL
MODEL 2
REMARK VINA RESULT:     -10.2      2.433      3.258
REMARK SMILES COc1ccc(NC(=O)[C@H]2[C@@H]3CC[C@@H](C3)[C@@H]2C(=O)OCCOCCOCCOCCOC(=O)c2ccc(-c3c4nc(c(-c5ccc(S(=O)(=O)[O-])cc5)c5ccc([nH]5)c(-c5ccc(S(=O)(=O)[O-])cc5)c5nc(c(-c6ccc(S(=O)(=O)[O-])cc6)c6ccc3[nH]6)C=C5)C=C4)cc2)c(C)c1
REMARK SMILES IDX 25 1 24 2 23 3 22 4 21 5 20 6 19 7 17 8 18 9 16 10 10 11
REMARK SMILES IDX 11 12 12 13 15 14 14 15 13 16 8 17 7 18 9 20 6 21 3 22 4 23
REMARK SMILES IDX 96 24 5 25 94 26 95 27 2 28 1 29 26 30 27 31 28 32 29 33
REMARK SMILES IDX 30 34 31 35 32 36 33 37 34 38 35 39 93 40 36 41 92 42 37 43
REMARK SMILES IDX 38 44 39 45 86 46 40 47 91 48 85 49 87 50 41 51 90 52 84 53
REMARK SMILES IDX 83 54 42 56 72 57 53 58 71 59 54 60 57 61 70 62 88 63 55 64
REMARK SMILES IDX 56 65 69 67 89 68 58 69 43 70 44 71 52 72 45 73 51 74 46 75
REMARK SMILES IDX 47 76 48 77 49 78 50 79 73 80 74 81 82 82 75 83 81 84 76 85
REMARK SMILES IDX 77 86 78 87 79 88 80 89 59 90 60 91 68 92 61 93 67 94 62 95
REMARK SMILES IDX 63 96 64 97 65 98 66 99
REMARK H PARENT 7 19 87 55 57 66
REMARK Flexibility Score: inf
ROOT
ATOM      1  O   UNL A   1      41.602  19.825  25.422  1.00  0.00    -0.377 OA
ENDROOT
BRANCH   1   2
ATOM      2  C   UNL A   1      40.449  20.016  26.228  1.00  0.00     0.188 C 
BRANCH   2   3
ATOM      3  C   UNL A   1      39.998  21.466  26.435  1.00  0.00     0.188 C 
BRANCH   3   4
ATOM      4  O   UNL A   1      38.746  21.785  25.864  1.00  0.00    -0.376 OA
BRANCH   4   5
ATOM      5  C   UNL A   1      38.475  23.183  25.737  1.00  0.00     0.202 C 
BRANCH   5   6
ATOM      6  C   UNL A   1      37.038  23.544  26.078  1.00  0.00     0.261 C 
BRANCH   6   7
ATOM      7  O   UNL A   1      36.223  23.891  24.964  1.00  0.00    -0.463 OA
BRANCH   7   8
ATOM      8  C   UNL A   1      36.139  23.097  23.883  1.00  0.00     0.310 C 
ATOM      9  O   UNL A   1      37.052  22.679  23.186  1.00  0.00    -0.252 OA
BRANCH   8  10
ATOM     10  C   UNL A   1      34.707  22.743  23.627  1.00  0.00     0.115 C 
ATOM     11  C   UNL A   1      33.790  23.900  24.051  1.00  0.00     0.096 C 
ATOM     12  C   UNL A   1      32.645  23.143  24.777  1.00  0.00     0.003 C 
ATOM     13  C   UNL A   1      33.128  22.780  26.191  1.00  0.00     0.005 C 
ATOM     14  C   UNL A   1      32.640  21.765  24.098  1.00  0.00     0.009 C 
ATOM     15  C   UNL A   1      34.120  21.522  24.381  1.00  0.00     0.004 C 
ATOM     16  C   UNL A   1      34.122  21.650  25.923  1.00  0.00     0.005 C 
BRANCH  11  17
ATOM     17  C   UNL A   1      33.240  24.700  22.886  1.00  0.00     0.228 C 
ATOM     18  N   UNL A   1      32.838  25.999  23.015  1.00  0.00    -0.326 N 
ATOM     19  H   UNL A   1      32.550  26.387  22.157  1.00  0.00     0.169 HD
ATOM     20  O   UNL A   1      33.096  24.184  21.772  1.00  0.00    -0.274 OA
BRANCH  18  21
ATOM     21  C   UNL A   1      32.731  26.920  24.081  1.00  0.00     0.044 A 
ATOM     22  C   UNL A   1      32.595  28.783  26.213  1.00  0.00     0.119 A 
ATOM     23  C   UNL A   1      31.937  27.570  26.305  1.00  0.00     0.048 A 
ATOM     24  C   UNL A   1      33.282  29.098  25.047  1.00  0.00     0.052 A 
ATOM     25  C   UNL A   1      31.998  26.665  25.244  1.00  0.00     0.030 A 
ATOM     26  C   UNL A   1      33.379  28.174  23.980  1.00  0.00    -0.024 A 
ATOM     27  C   UNL A   1      34.186  28.630  22.791  1.00  0.00     0.047 C 
BRANCH  22  28
ATOM     28  O   UNL A   1      32.547  29.728  27.200  1.00  0.00    -0.497 OA
ATOM     29  C   UNL A   1      33.781  30.435  27.320  1.00  0.00     0.278 C 
ENDBRANCH  22  28
ENDBRANCH  18  21
ENDBRANCH  11  17
ENDBRANCH   8  10
ENDBRANCH   7   8
ENDBRANCH   6   7
ENDBRANCH   5   6
ENDBRANCH   4   5
ENDBRANCH   3   4
ENDBRANCH   2   3
ENDBRANCH   1   2
BRANCH   1  30
ATOM     30  C   UNL A   1      42.879  19.987  26.040  1.00  0.00     0.188 C 
BRANCH  30  31
ATOM     31  C   UNL A   1      43.758  21.077  25.409  1.00  0.00     0.188 C 
BRANCH  31  32
ATOM     32  O   UNL A   1      43.069  22.322  25.312  1.00  0.00    -0.376 OA
BRANCH  32  33
ATOM     33  C   UNL A   1      43.242  23.208  26.410  1.00  0.00     0.202 C 
BRANCH  33  34
ATOM     34  C   UNL A   1      43.271  24.664  25.948  1.00  0.00     0.261 C 
BRANCH  34  35
ATOM     35  O   UNL A   1      42.409  25.412  26.820  1.00  0.00    -0.460 OA
BRANCH  35  36
ATOM     36  C   UNL A   1      41.632  26.334  26.190  1.00  0.00     0.338 C 
ATOM     37  O   UNL A   1      41.292  26.276  25.024  1.00  0.00    -0.246 OA
BRANCH  36  38
ATOM     38  C   UNL A   1      41.339  27.455  27.129  1.00  0.00     0.060 A 
ATOM     39  C   UNL A   1      42.352  28.354  27.482  1.00  0.00     0.016 A 
ATOM     40  C   UNL A   1      40.103  27.538  27.772  1.00  0.00     0.016 A 
ATOM     41  C   UNL A   1      42.143  29.303  28.500  1.00  0.00     0.010 A 
ATOM     42  C   UNL A   1      39.917  28.446  28.810  1.00  0.00     0.010 A 
ATOM     43  C   UNL A   1      40.932  29.334  29.206  1.00  0.00    -0.014 A 
BRANCH  43  44
ATOM     44  C   UNL A   1      40.730  30.041  30.490  1.00  0.00     0.031 A 
ATOM     45  C   UNL A   1      39.998  31.344  30.657  1.00  0.00     0.074 A 
ATOM     46  C   UNL A   1      40.774  29.299  31.622  1.00  0.00     0.049 A 
ATOM     47  N   UNL A   1      39.822  31.926  31.810  1.00  0.00    -0.248 NA
ATOM     48  C   UNL A   1      39.434  32.136  29.565  1.00  0.00     0.031 C 
ATOM     49  C   UNL A   1      39.799  29.437  32.698  1.00  0.00     0.029 A 
ATOM     50  N   UNL A   1      41.580  28.257  32.053  1.00  0.00    -0.354 N 
ATOM     51  C   UNL A   1      38.756  32.781  31.664  1.00  0.00     0.074 A 
ATOM     52  C   UNL A   1      38.734  33.055  30.244  1.00  0.00     0.031 C 
ATOM     53  C   UNL A   1      40.167  28.692  33.732  1.00  0.00     0.029 A 
ATOM     54  C   UNL A   1      41.445  28.102  33.431  1.00  0.00     0.049 A 
ATOM     55  H   UNL A   1      42.158  27.709  31.474  1.00  0.00     0.167 HD
ATOM     56  C   UNL A   1      37.885  33.017  32.695  1.00  0.00     0.031 A 
ATOM     57  C   UNL A   1      42.361  27.742  34.362  1.00  0.00     0.031 A 
ATOM     58  C   UNL A   1      38.258  32.390  33.988  1.00  0.00     0.049 A 
ATOM     59  C   UNL A   1      42.406  28.795  35.445  1.00  0.00     0.074 A 
ATOM     60  C   UNL A   1      37.573  31.647  34.938  1.00  0.00     0.029 A 
ATOM     61  N   UNL A   1      39.586  32.382  34.421  1.00  0.00    -0.354 N 
ATOM     62  N   UNL A   1      41.375  29.532  35.765  1.00  0.00    -0.248 NA
ATOM     63  C   UNL A   1      43.620  29.266  36.108  1.00  0.00     0.031 C 
ATOM     64  C   UNL A   1      38.486  31.269  35.969  1.00  0.00     0.029 A 
ATOM     65  C   UNL A   1      39.732  31.777  35.662  1.00  0.00     0.049 A 
ATOM     66  H   UNL A   1      40.333  32.763  33.906  1.00  0.00     0.167 HD
ATOM     67  C   UNL A   1      41.808  30.706  36.313  1.00  0.00     0.074 A 
ATOM     68  C   UNL A   1      43.204  30.438  36.631  1.00  0.00     0.031 C 
ATOM     69  C   UNL A   1      41.023  31.829  36.355  1.00  0.00     0.031 A 
BRANCH  56  70
ATOM     70  C   UNL A   1      36.550  33.754  32.514  1.00  0.00    -0.014 A 
ATOM     71  C   UNL A   1      36.083  34.650  33.502  1.00  0.00     0.010 A 
ATOM     72  C   UNL A   1      35.692  33.586  31.406  1.00  0.00     0.010 A 
ATOM     73  C   UNL A   1      34.876  35.368  33.363  1.00  0.00     0.020 A 
ATOM     74  C   UNL A   1      34.517  34.336  31.224  1.00  0.00     0.020 A 
ATOM     75  C   UNL A   1      34.111  35.226  32.207  1.00  0.00     0.054 A 
BRANCH  75  76
ATOM     76  S   UNL A   1      32.611  36.222  31.974  1.00  0.00     0.124 S 
ATOM     77  O   UNL A   1      32.908  37.425  32.748  1.00  0.00    -0.237 OA
ATOM     78  O   UNL A   1      32.560  36.400  30.526  1.00  0.00    -0.237 OA
ATOM     79  O   UNL A   1      31.548  35.381  32.524  1.00  0.00    -0.744 OA
ENDBRANCH  75  76
ENDBRANCH  56  70
BRANCH  57  80
ATOM     80  C   UNL A   1      43.315  26.708  33.891  1.00  0.00    -0.014 A 
ATOM     81  C   UNL A   1      44.655  27.170  33.863  1.00  0.00     0.010 A 
ATOM     82  C   UNL A   1      43.086  25.339  34.113  1.00  0.00     0.010 A 
ATOM     83  C   UNL A   1      45.710  26.352  34.284  1.00  0.00     0.020 A 
ATOM     84  C   UNL A   1      44.145  24.519  34.547  1.00  0.00     0.020 A 
ATOM     85  C   UNL A   1      45.433  25.051  34.693  1.00  0.00     0.054 A 
BRANCH  85  86
ATOM     86  S   UNL A   1      46.664  24.149  35.695  1.00  0.00     0.124 S 
ATOM     87  O   UNL A   1      45.819  23.379  36.601  1.00  0.00    -0.237 OA
ATOM     88  O   UNL A   1      47.409  23.366  34.709  1.00  0.00    -0.237 OA
ATOM     89  O   UNL A   1      47.425  25.237  36.306  1.00  0.00    -0.744 OA
ENDBRANCH  85  86
ENDBRANCH  57  80
BRANCH  69  90
ATOM     90  C   UNL A   1      41.417  33.129  37.024  1.00  0.00    -0.014 A 
ATOM     91  C   UNL A   1      40.725  33.674  38.118  1.00  0.00     0.010 A 
ATOM     92  C   UNL A   1      42.438  33.931  36.458  1.00  0.00     0.010 A 
ATOM     93  C   UNL A   1      41.094  34.909  38.673  1.00  0.00     0.020 A 
ATOM     94  C   UNL A   1      42.803  35.171  36.988  1.00  0.00     0.020 A 
ATOM     95  C   UNL A   1      42.142  35.642  38.114  1.00  0.00     0.054 A 
BRANCH  95  96
ATOM     96  S   UNL A   1      42.614  37.218  38.866  1.00  0.00     0.124 S 
ATOM     97  O   UNL A   1      43.337  37.883  37.785  1.00  0.00    -0.237 OA
ATOM     98  O   UNL A   1      41.312  37.796  39.196  1.00  0.00    -0.237 OA
ATOM     99  O   UNL A   1      43.431  36.832  40.013  1.00  0.00    -0.744 OA
ENDBRANCH  95  96
ENDBRANCH  69  90
ENDBRANCH  43  44
ENDBRANCH  36  38
ENDBRANCH  35  36
ENDBRANCH  34  35
ENDBRANCH  33  34
ENDBRANCH  32  33
ENDBRANCH  31  32
ENDBRANCH  30  31
ENDBRANCH   1  30
TORSDOF 26
ENDMDL
MODEL 3
REMARK VINA RESULT:     -10.1      1.060      3.158
REMARK SMILES COc1ccc(NC(=O)[C@H]2[C@@H]3CC[C@@H](C3)[C@@H]2C(=O)OCCOCCOCCOCCOC(=O)c2ccc(-c3c4nc(c(-c5ccc(S(=O)(=O)[O-])cc5)c5ccc([nH]5)c(-c5ccc(S(=O)(=O)[O-])cc5)c5nc(c(-c6ccc(S(=O)(=O)[O-])cc6)c6ccc3[nH]6)C=C5)C=C4)cc2)c(C)c1
REMARK SMILES IDX 25 1 24 2 23 3 22 4 21 5 20 6 19 7 17 8 18 9 16 10 10 11
REMARK SMILES IDX 11 12 12 13 15 14 14 15 13 16 8 17 7 18 9 20 6 21 3 22 4 23
REMARK SMILES IDX 96 24 5 25 94 26 95 27 2 28 1 29 26 30 27 31 28 32 29 33
REMARK SMILES IDX 30 34 31 35 32 36 33 37 34 38 35 39 93 40 36 41 92 42 37 43
REMARK SMILES IDX 38 44 39 45 86 46 40 47 91 48 85 49 87 50 41 51 90 52 84 53
REMARK SMILES IDX 83 54 42 56 72 57 53 58 71 59 54 60 57 61 70 62 88 63 55 64
REMARK SMILES IDX 56 65 69 67 89 68 58 69 43 70 44 71 52 72 45 73 51 74 46 75
REMARK SMILES IDX 47 76 48 77 49 78 50 79 73 80 74 81 82 82 75 83 81 84 76 85
REMARK SMILES IDX 77 86 78 87 79 88 80 89 59 90 60 91 68 92 61 93 67 94 62 95
REMARK SMILES IDX 63 96 64 97 65 98 66 99
REMARK H PARENT 7 19 87 55 57 66
REMARK Flexibility Score: inf
ROOT
ATOM      1  O   UNL A   1      41.606  20.707  25.431  1.00  0.00    -0.377 OA
ENDROOT
BRANCH   1   2
ATOM      2  C   UNL A   1      40.397  20.455  26.132  1.00  0.00     0.188 C 
BRANCH   2   3
ATOM      3  C   UNL A   1      39.500  21.668  26.397  1.00  0.00     0.188 C 
BRANCH   3   4
ATOM      4  O   UNL A   1      38.180  21.547  25.909  1.00  0.00    -0.376 OA
BRANCH   4   5
ATOM      5  C   UNL A   1      37.763  22.588  25.020  1.00  0.00     0.202 C 
BRANCH   5   6
ATOM      6  C   UNL A   1      36.251  22.697  24.898  1.00  0.00     0.261 C 
BRANCH   6   7
ATOM      7  O   UNL A   1      35.775  23.933  24.378  1.00  0.00    -0.463 OA
BRANCH   7   8
ATOM      8  C   UNL A   1      34.498  24.083  23.990  1.00  0.00     0.310 C 
ATOM      9  O   UNL A   1      33.900  23.471  23.116  1.00  0.00    -0.252 OA
BRANCH   8  10
ATOM     10  C   UNL A   1      33.840  25.143  24.820  1.00  0.00     0.115 C 
ATOM     11  C   UNL A   1      32.315  24.963  24.798  1.00  0.00     0.096 C 
ATOM     12  C   UNL A   1      31.828  26.427  24.619  1.00  0.00     0.003 C 
ATOM     13  C   UNL A   1      31.977  26.806  23.136  1.00  0.00     0.005 C 
ATOM     14  C   UNL A   1      32.953  27.257  25.256  1.00  0.00     0.009 C 
ATOM     15  C   UNL A   1      34.035  26.620  24.390  1.00  0.00     0.004 C 
ATOM     16  C   UNL A   1      33.490  26.964  22.983  1.00  0.00     0.005 C 
BRANCH  11  17
ATOM     17  C   UNL A   1      31.753  24.371  26.076  1.00  0.00     0.228 C 
ATOM     18  N   UNL A   1      31.804  23.033  26.348  1.00  0.00    -0.326 N 
ATOM     19  H   UNL A   1      31.438  22.819  27.237  1.00  0.00     0.169 HD
ATOM     20  O   UNL A   1      31.181  25.084  26.909  1.00  0.00    -0.274 OA
BRANCH  18  21
ATOM     21  C   UNL A   1      32.253  21.882  25.663  1.00  0.00     0.044 A 
ATOM     22  C   UNL A   1      33.230  19.595  24.303  1.00  0.00     0.119 A 
ATOM     23  C   UNL A   1      32.161  20.308  23.789  1.00  0.00     0.048 A 
ATOM     24  C   UNL A   1      33.787  19.984  25.515  1.00  0.00     0.052 A 
ATOM     25  C   UNL A   1      31.678  21.424  24.474  1.00  0.00     0.030 A 
ATOM     26  C   UNL A   1      33.328  21.133  26.199  1.00  0.00    -0.024 A 
ATOM     27  C   UNL A   1      34.047  21.462  27.483  1.00  0.00     0.047 C 
BRANCH  22  28
ATOM     28  O   UNL A   1      33.729  18.474  23.701  1.00  0.00    -0.497 OA
ATOM     29  C   UNL A   1      34.513  17.692  24.601  1.00  0.00     0.278 C 
ENDBRANCH  22  28
ENDBRANCH  18  21
ENDBRANCH  11  17
ENDBRANCH   8  10
ENDBRANCH   7   8
ENDBRANCH   6   7
ENDBRANCH   5   6
ENDBRANCH   4   5
ENDBRANCH   3   4
ENDBRANCH   2   3
ENDBRANCH   1   2
BRANCH   1  30
ATOM     30  C   UNL A   1      42.830  20.608  26.161  1.00  0.00     0.188 C 
BRANCH  30  31
ATOM     31  C   UNL A   1      43.727  21.851  26.071  1.00  0.00     0.188 C 
BRANCH  31  32
ATOM     32  O   UNL A   1      43.037  23.032  26.476  1.00  0.00    -0.376 OA
BRANCH  32  33
ATOM     33  C   UNL A   1      43.024  24.092  25.528  1.00  0.00     0.202 C 
BRANCH  33  34
ATOM     34  C   UNL A   1      41.850  25.039  25.773  1.00  0.00     0.261 C 
BRANCH  34  35
ATOM     35  O   UNL A   1      41.207  24.625  26.988  1.00  0.00    -0.460 OA
BRANCH  35  36
ATOM     36  C   UNL A   1      39.997  25.207  27.212  1.00  0.00     0.338 C 
ATOM     37  O   UNL A   1      39.013  25.055  26.514  1.00  0.00    -0.246 OA
BRANCH  36  38
ATOM     38  C   UNL A   1      40.098  26.114  28.392  1.00  0.00     0.060 A 
ATOM     39  C   UNL A   1      38.939  26.499  29.079  1.00  0.00     0.016 A 
ATOM     40  C   UNL A   1      41.317  26.698  28.737  1.00  0.00     0.016 A 
ATOM     41  C   UNL A   1      38.997  27.491  30.074  1.00  0.00     0.010 A 
ATOM     42  C   UNL A   1      41.360  27.712  29.689  1.00  0.00     0.010 A 
ATOM     43  C   UNL A   1      40.204  28.140  30.365  1.00  0.00    -0.014 A 
BRANCH  43  44
ATOM     44  C   UNL A   1      40.314  29.402  31.129  1.00  0.00     0.031 A 
ATOM     45  C   UNL A   1      39.551  30.664  30.834  1.00  0.00     0.074 A 
ATOM     46  C   UNL A   1      40.741  29.318  32.412  1.00  0.00     0.049 A 
ATOM     47  N   UNL A   1      39.659  31.752  31.544  1.00  0.00    -0.248 NA
ATOM     48  C   UNL A   1      38.634  30.847  29.709  1.00  0.00     0.031 C 
ATOM     49  C   UNL A   1      40.102  30.039  33.507  1.00  0.00     0.029 A 
ATOM     50  N   UNL A   1      41.722  28.574  33.047  1.00  0.00    -0.354 N 
ATOM     51  C   UNL A   1      38.526  32.493  31.310  1.00  0.00     0.074 A 
ATOM     52  C   UNL A   1      38.079  32.028  30.014  1.00  0.00     0.031 C 
ATOM     53  C   UNL A   1      40.811  29.881  34.618  1.00  0.00     0.029 A 
ATOM     54  C   UNL A   1      41.997  29.133  34.294  1.00  0.00     0.049 A 
ATOM     55  H   UNL A   1      42.157  27.773  32.676  1.00  0.00     0.167 HD
ATOM     56  C   UNL A   1      37.966  33.269  32.289  1.00  0.00     0.031 A 
ATOM     57  C   UNL A   1      43.166  29.219  34.972  1.00  0.00     0.031 A 
ATOM     58  C   UNL A   1      38.742  33.342  33.553  1.00  0.00     0.049 A 
ATOM     59  C   UNL A   1      43.426  30.665  35.329  1.00  0.00     0.074 A 
ATOM     60  C   UNL A   1      38.421  33.217  34.896  1.00  0.00     0.029 A 
ATOM     61  N   UNL A   1      40.134  33.458  33.530  1.00  0.00    -0.354 N 
ATOM     62  N   UNL A   1      42.468  31.533  35.525  1.00  0.00    -0.248 NA
ATOM     63  C   UNL A   1      44.733  31.317  35.291  1.00  0.00     0.031 C 
ATOM     64  C   UNL A   1      39.617  33.337  35.666  1.00  0.00     0.029 A 
ATOM     65  C   UNL A   1      40.677  33.539  34.806  1.00  0.00     0.049 A 
ATOM     66  H   UNL A   1      40.668  33.480  32.704  1.00  0.00     0.167 HD
ATOM     67  C   UNL A   1      42.936  32.791  35.270  1.00  0.00     0.074 A 
ATOM     68  C   UNL A   1      44.382  32.620  35.262  1.00  0.00     0.031 C 
ATOM     69  C   UNL A   1      42.102  33.838  34.977  1.00  0.00     0.031 A 
BRANCH  56  70
ATOM     70  C   UNL A   1      36.576  33.910  32.162  1.00  0.00    -0.014 A 
ATOM     71  C   UNL A   1      36.212  35.006  32.976  1.00  0.00     0.010 A 
ATOM     72  C   UNL A   1      35.571  33.461  31.279  1.00  0.00     0.010 A 
ATOM     73  C   UNL A   1      34.955  35.642  32.871  1.00  0.00     0.020 A 
ATOM     74  C   UNL A   1      34.338  34.117  31.121  1.00  0.00     0.020 A 
ATOM     75  C   UNL A   1      34.033  35.208  31.922  1.00  0.00     0.054 A 
BRANCH  75  76
ATOM     76  S   UNL A   1      32.457  36.084  31.710  1.00  0.00     0.124 S 
ATOM     77  O   UNL A   1      31.518  35.217  32.417  1.00  0.00    -0.237 OA
ATOM     78  O   UNL A   1      32.716  37.377  32.336  1.00  0.00    -0.237 OA
ATOM     79  O   UNL A   1      32.280  36.132  30.259  1.00  0.00    -0.744 OA
ENDBRANCH  75  76
ENDBRANCH  56  70
BRANCH  57  80
ATOM     80  C   UNL A   1      44.033  28.025  34.821  1.00  0.00    -0.014 A 
ATOM     81  C   UNL A   1      44.122  27.257  36.009  1.00  0.00     0.010 A 
ATOM     82  C   UNL A   1      44.168  27.364  33.588  1.00  0.00     0.010 A 
ATOM     83  C   UNL A   1      44.096  25.859  35.969  1.00  0.00     0.020 A 
ATOM     84  C   UNL A   1      44.132  25.957  33.546  1.00  0.00     0.020 A 
ATOM     85  C   UNL A   1      44.028  25.220  34.733  1.00  0.00     0.054 A 
BRANCH  85  86
ATOM     86  S   UNL A   1      43.497  23.475  34.658  1.00  0.00     0.124 S 
ATOM     87  O   UNL A   1      43.708  23.150  33.252  1.00  0.00    -0.237 OA
ATOM     88  O   UNL A   1      44.388  22.800  35.601  1.00  0.00    -0.237 OA
ATOM     89  O   UNL A   1      42.104  23.554  35.091  1.00  0.00    -0.744 OA
ENDBRANCH  85  86
ENDBRANCH  57  80
BRANCH  69  90
ATOM     90  C   UNL A   1      42.556  35.268  34.772  1.00  0.00    -0.014 A 
ATOM     91  C   UNL A   1      42.038  36.353  35.496  1.00  0.00     0.010 A 
ATOM     92  C   UNL A   1      43.441  35.580  33.710  1.00  0.00     0.010 A 
ATOM     93  C   UNL A   1      42.450  37.669  35.234  1.00  0.00     0.020 A 
ATOM     94  C   UNL A   1      43.845  36.887  33.426  1.00  0.00     0.020 A 
ATOM     95  C   UNL A   1      43.365  37.926  34.212  1.00  0.00     0.054 A 
BRANCH  95  96
ATOM     96  S   UNL A   1      43.901  39.628  33.915  1.00  0.00     0.124 S 
ATOM     97  O   UNL A   1      42.669  40.276  33.472  1.00  0.00    -0.237 OA
ATOM     98  O   UNL A   1      44.378  40.028  35.237  1.00  0.00    -0.237 OA
ATOM     99  O   UNL A   1      44.936  39.500  32.893  1.00  0.00    -0.744 OA
ENDBRANCH  95  96
ENDBRANCH  69  90
ENDBRANCH  43  44
ENDBRANCH  36  38
ENDBRANCH  35  36
ENDBRANCH  34  35
ENDBRANCH  33  34
ENDBRANCH  32  33
ENDBRANCH  31  32
ENDBRANCH  30  31
ENDBRANCH   1  30
TORSDOF 26
ENDMDL
