MODEL 1
REMARK VINA RESULT:      -7.5      0.000      0.000
REMARK SMILES O=C(C[C@H]1C[N@@H+](Cc2c(F)cccc2F)CCO1)OCCOCCOCCOCCOC(=O)c1ccc(-c2c3nc(c(-c4ccc(S(=O)(=O)[O-])cc4)c4ccc([nH]4)c(-c4ccc(S(=O)(=O)[O-])cc4)c4nc(c(-c5ccc(S(=O)(=O)[O-])cc5)c5ccc2[nH]5)C=C4)C=C3)cc1
REMARK SMILES IDX 25 1 24 2 23 3 22 4 21 5 20 6 19 7 2 8 1 9 3 10 4 11 5 12
REMARK SMILES IDX 18 13 6 14 17 15 16 16 7 18 8 19 9 20 14 21 10 22 11 23
REMARK SMILES IDX 13 24 15 25 12 26 26 27 27 28 28 29 29 30 30 31 31 32 32 33
REMARK SMILES IDX 33 34 34 35 35 36 93 37 36 38 92 39 37 40 38 41 39 42 86 43
REMARK SMILES IDX 40 44 91 45 85 46 87 47 41 48 90 49 84 50 83 51 42 53 72 54
REMARK SMILES IDX 53 55 71 56 54 57 57 58 70 59 88 60 55 61 56 62 69 64 89 65
REMARK SMILES IDX 58 66 43 67 44 68 52 69 45 70 51 71 46 72 47 73 48 74 49 75
REMARK SMILES IDX 50 76 73 77 74 78 82 79 75 80 81 81 76 82 77 83 78 84 79 85
REMARK SMILES IDX 80 86 59 87 60 88 68 89 61 90 67 91 62 92 63 93 64 94 65 95
REMARK SMILES IDX 66 96
REMARK H PARENT 6 17 87 52 57 63
REMARK Flexibility Score: inf
ROOT
ATOM      1  O   UNL A   1      37.865  31.148  31.982  1.00  0.00    -0.377 OA
ENDROOT
BRANCH   1   2
ATOM      2  C   UNL A   1      36.378  31.293  32.512  1.00  0.00     0.188 C 
BRANCH   2   3
ATOM      3  C   UNL A   1      34.762  32.693  31.971  1.00  0.00     0.188 C 
BRANCH   3   4
ATOM      4  O   UNL A   1      34.711  33.674  30.539  1.00  0.00    -0.376 OA
BRANCH   4   5
ATOM      5  C   UNL A   1      35.326  33.463  29.121  1.00  0.00     0.202 C 
BRANCH   5   6
ATOM      6  C   UNL A   1      37.094  33.244  28.716  1.00  0.00     0.261 C 
BRANCH   6   7
ATOM      7  O   UNL A   1      38.387  34.352  28.963  1.00  0.00    -0.463 OA
BRANCH   7   8
ATOM      8  C   UNL A   1      39.638  34.693  29.584  1.00  0.00     0.308 C 
ATOM      9  O   UNL A   1      39.708  34.516  30.812  1.00  0.00    -0.252 OA
BRANCH   8  10
ATOM     10  C   UNL A   1      41.130  35.330  28.869  1.00  0.00     0.160 C 
BRANCH  10  11
ATOM     11  C   UNL A   1      42.911  35.008  28.760  1.00  0.00     0.184 C 
ATOM     12  C   UNL A   1      43.040  34.558  27.377  1.00  0.00     0.295 C 
ATOM     13  O   UNL A   1      44.125  35.943  28.894  1.00  0.00    -0.366 OA
ATOM     14  N   UNL A   1      42.819  35.859  26.750  1.00  0.00    -0.327 N 
ATOM     15  C   UNL A   1      44.841  36.520  27.685  1.00  0.00     0.222 C 
ATOM     16  C   UNL A   1      44.140  36.304  26.342  1.00  0.00     0.291 C 
ATOM     17  H   UNL A   1      42.105  35.690  26.043  1.00  0.00     0.348 HD
BRANCH  14  18
ATOM     18  C   UNL A   1      42.272  37.068  27.653  1.00  0.00     0.305 C 
BRANCH  18  19
ATOM     19  C   UNL A   1      42.418  38.928  27.990  1.00  0.00     0.078 A 
ATOM     20  C   UNL A   1      42.267  40.094  26.538  1.00  0.00     0.135 A 
ATOM     21  C   UNL A   1      43.455  39.539  29.332  1.00  0.00     0.135 A 
ATOM     22  F   UNL A   1      41.169  40.220  25.776  1.00  0.00    -0.206 F 
ATOM     23  C   UNL A   1      43.462  41.450  26.310  1.00  0.00     0.040 A 
ATOM     24  C   UNL A   1      44.508  40.942  29.160  1.00  0.00     0.040 A 
ATOM     25  F   UNL A   1      43.085  39.325  30.608  1.00  0.00    -0.206 F 
ATOM     26  C   UNL A   1      44.526  41.895  27.681  1.00  0.00     0.006 A 
ENDBRANCH  18  19
ENDBRANCH  14  18
ENDBRANCH  10  11
ENDBRANCH   8  10
ENDBRANCH   7   8
ENDBRANCH   6   7
ENDBRANCH   5   6
ENDBRANCH   4   5
ENDBRANCH   3   4
ENDBRANCH   2   3
ENDBRANCH   1   2
BRANCH   1  27
ATOM     27  C   UNL A   1      38.404  30.523  30.803  1.00  0.00     0.188 C 
BRANCH  27  28
ATOM     28  C   UNL A   1      37.778  29.212  30.231  1.00  0.00     0.188 C 
BRANCH  28  29
ATOM     29  O   UNL A   1      38.359  27.973  30.586  1.00  0.00    -0.376 OA
BRANCH  29  30
ATOM     30  C   UNL A   1      39.768  27.985  30.716  1.00  0.00     0.202 C 
BRANCH  30  31
ATOM     31  C   UNL A   1      40.594  27.715  29.441  1.00  0.00     0.261 C 
BRANCH  31  32
ATOM     32  O   UNL A   1      41.796  26.926  29.610  1.00  0.00    -0.460 OA
BRANCH  32  33
ATOM     33  C   UNL A   1      42.786  27.079  28.691  1.00  0.00     0.338 C 
ATOM     34  O   UNL A   1      42.959  26.400  27.693  1.00  0.00    -0.246 OA
BRANCH  33  35
ATOM     35  C   UNL A   1      43.498  28.367  28.934  1.00  0.00     0.060 A 
ATOM     36  C   UNL A   1      44.291  28.511  30.090  1.00  0.00     0.016 A 
ATOM     37  C   UNL A   1      43.357  29.444  28.058  1.00  0.00     0.016 A 
ATOM     38  C   UNL A   1      44.905  29.729  30.389  1.00  0.00     0.010 A 
ATOM     39  C   UNL A   1      43.927  30.681  28.386  1.00  0.00     0.010 A 
ATOM     40  C   UNL A   1      44.659  30.840  29.577  1.00  0.00    -0.014 A 
BRANCH  40  41
ATOM     41  C   UNL A   1      44.890  32.196  30.137  1.00  0.00     0.031 A 
ATOM     42  C   UNL A   1      43.915  32.687  31.179  1.00  0.00     0.074 A 
ATOM     43  C   UNL A   1      45.947  32.949  29.784  1.00  0.00     0.049 A 
ATOM     44  N   UNL A   1      43.856  33.841  31.787  1.00  0.00    -0.248 NA
ATOM     45  C   UNL A   1      42.862  31.738  31.589  1.00  0.00     0.031 C 
ATOM     46  C   UNL A   1      46.995  32.555  28.845  1.00  0.00     0.029 A 
ATOM     47  N   UNL A   1      46.308  34.215  30.180  1.00  0.00    -0.354 N 
ATOM     48  C   UNL A   1      42.762  33.760  32.643  1.00  0.00     0.074 A 
ATOM     49  C   UNL A   1      42.165  32.458  32.454  1.00  0.00     0.031 C 
ATOM     50  C   UNL A   1      47.871  33.569  28.719  1.00  0.00     0.029 A 
ATOM     51  C   UNL A   1      47.427  34.695  29.540  1.00  0.00     0.049 A 
ATOM     52  H   UNL A   1      45.812  34.729  30.858  1.00  0.00     0.167 HD
ATOM     53  C   UNL A   1      42.298  34.684  33.515  1.00  0.00     0.031 A 
ATOM     54  C   UNL A   1      48.002  35.914  29.591  1.00  0.00     0.031 A 
ATOM     55  C   UNL A   1      42.883  35.987  33.683  1.00  0.00     0.049 A 
ATOM     56  C   UNL A   1      47.405  36.964  30.499  1.00  0.00     0.074 A 
ATOM     57  C   UNL A   1      42.486  37.007  34.529  1.00  0.00     0.029 A 
ATOM     58  N   UNL A   1      43.988  36.450  32.985  1.00  0.00    -0.354 N 
ATOM     59  N   UNL A   1      46.376  36.871  31.309  1.00  0.00    -0.248 NA
ATOM     60  C   UNL A   1      48.059  38.280  30.508  1.00  0.00     0.031 C 
ATOM     61  C   UNL A   1      43.311  38.111  34.294  1.00  0.00     0.029 A 
ATOM     62  C   UNL A   1      44.272  37.751  33.361  1.00  0.00     0.049 A 
ATOM     63  H   UNL A   1      44.496  35.931  32.321  1.00  0.00     0.167 HD
ATOM     64  C   UNL A   1      46.279  38.106  31.944  1.00  0.00     0.074 A 
ATOM     65  C   UNL A   1      47.374  38.914  31.449  1.00  0.00     0.031 C 
ATOM     66  C   UNL A   1      45.365  38.540  32.850  1.00  0.00     0.031 A 
BRANCH  53  67
ATOM     67  C   UNL A   1      41.082  34.332  34.334  1.00  0.00    -0.014 A 
ATOM     68  C   UNL A   1      39.826  34.902  34.058  1.00  0.00     0.010 A 
ATOM     69  C   UNL A   1      41.186  33.371  35.357  1.00  0.00     0.010 A 
ATOM     70  C   UNL A   1      38.701  34.528  34.798  1.00  0.00     0.020 A 
ATOM     71  C   UNL A   1      40.057  32.972  36.078  1.00  0.00     0.020 A 
ATOM     72  C   UNL A   1      38.822  33.558  35.797  1.00  0.00     0.054 A 
BRANCH  72  73
ATOM     73  S   UNL A   1      37.329  33.043  36.691  1.00  0.00     0.124 S 
ATOM     74  O   UNL A   1      36.268  33.541  35.820  1.00  0.00    -0.237 OA
ATOM     75  O   UNL A   1      37.475  31.589  36.736  1.00  0.00    -0.237 OA
ATOM     76  O   UNL A   1      37.445  33.718  37.981  1.00  0.00    -0.744 OA
ENDBRANCH  72  73
ENDBRANCH  53  67
BRANCH  54  77
ATOM     77  C   UNL A   1      49.176  36.237  28.728  1.00  0.00    -0.014 A 
ATOM     78  C   UNL A   1      49.008  36.737  27.424  1.00  0.00     0.010 A 
ATOM     79  C   UNL A   1      50.482  35.998  29.197  1.00  0.00     0.010 A 
ATOM     80  C   UNL A   1      50.115  36.958  26.597  1.00  0.00     0.020 A 
ATOM     81  C   UNL A   1      51.593  36.255  28.389  1.00  0.00     0.020 A 
ATOM     82  C   UNL A   1      51.401  36.717  27.088  1.00  0.00     0.054 A 
BRANCH  82  83
ATOM     83  S   UNL A   1      52.824  37.038  26.007  1.00  0.00     0.124 S 
ATOM     84  O   UNL A   1      53.828  37.505  26.956  1.00  0.00    -0.237 OA
ATOM     85  O   UNL A   1      53.070  35.725  25.416  1.00  0.00    -0.237 OA
ATOM     86  O   UNL A   1      52.325  38.047  25.075  1.00  0.00    -0.744 OA
ENDBRANCH  82  83
ENDBRANCH  54  77
BRANCH  66  87
ATOM     87  C   UNL A   1      45.540  39.937  33.392  1.00  0.00    -0.014 A 
ATOM     88  C   UNL A   1      44.875  41.035  32.818  1.00  0.00     0.010 A 
ATOM     89  C   UNL A   1      46.371  40.148  34.509  1.00  0.00     0.010 A 
ATOM     90  C   UNL A   1      45.089  42.326  33.309  1.00  0.00     0.020 A 
ATOM     91  C   UNL A   1      46.553  41.431  35.029  1.00  0.00     0.020 A 
ATOM     92  C   UNL A   1      45.930  42.515  34.410  1.00  0.00     0.054 A 
BRANCH  92  93
ATOM     93  S   UNL A   1      46.189  44.200  35.027  1.00  0.00     0.124 S 
ATOM     94  O   UNL A   1      46.162  44.001  36.473  1.00  0.00    -0.237 OA
ATOM     95  O   UNL A   1      47.491  44.549  34.463  1.00  0.00    -0.237 OA
ATOM     96  O   UNL A   1      45.059  44.948  34.481  1.00  0.00    -0.744 OA
ENDBRANCH  92  93
ENDBRANCH  66  87
ENDBRANCH  40  41
ENDBRANCH  33  35
ENDBRANCH  32  33
ENDBRANCH  31  32
ENDBRANCH  30  31
ENDBRANCH  29  30
ENDBRANCH  28  29
ENDBRANCH  27  28
ENDBRANCH   1  27
TORSDOF 26
ENDMDL
MODEL 2
REMARK VINA RESULT:      -7.4      4.358      8.391
REMARK SMILES O=C(C[C@H]1C[N@@H+](Cc2c(F)cccc2F)CCO1)OCCOCCOCCOCCOC(=O)c1ccc(-c2c3nc(c(-c4ccc(S(=O)(=O)[O-])cc4)c4ccc([nH]4)c(-c4ccc(S(=O)(=O)[O-])cc4)c4nc(c(-c5ccc(S(=O)(=O)[O-])cc5)c5ccc2[nH]5)C=C4)C=C3)cc1
REMARK SMILES IDX 25 1 24 2 23 3 22 4 21 5 20 6 19 7 2 8 1 9 3 10 4 11 5 12
REMARK SMILES IDX 18 13 6 14 17 15 16 16 7 18 8 19 9 20 14 21 10 22 11 23
REMARK SMILES IDX 13 24 15 25 12 26 26 27 27 28 28 29 29 30 30 31 31 32 32 33
REMARK SMILES IDX 33 34 34 35 35 36 93 37 36 38 92 39 37 40 38 41 39 42 86 43
REMARK SMILES IDX 40 44 91 45 85 46 87 47 41 48 90 49 84 50 83 51 42 53 72 54
REMARK SMILES IDX 53 55 71 56 54 57 57 58 70 59 88 60 55 61 56 62 69 64 89 65
REMARK SMILES IDX 58 66 43 67 44 68 52 69 45 70 51 71 46 72 47 73 48 74 49 75
REMARK SMILES IDX 50 76 73 77 74 78 82 79 75 80 81 81 76 82 77 83 78 84 79 85
REMARK SMILES IDX 80 86 59 87 60 88 68 89 61 90 67 91 62 92 63 93 64 94 65 95
REMARK SMILES IDX 66 96
REMARK H PARENT 6 17 87 52 57 63
REMARK Flexibility Score: inf
ROOT
ATOM      1  O   UNL A   1      44.552  23.742  30.465  1.00  0.00    -0.377 OA
ENDROOT
BRANCH   1   2
ATOM      2  C   UNL A   1      44.776  25.180  31.095  1.00  0.00     0.188 C 
BRANCH   2   3
ATOM      3  C   UNL A   1      44.725  25.887  33.183  1.00  0.00     0.188 C 
BRANCH   3   4
ATOM      4  O   UNL A   1      43.336  26.540  33.996  1.00  0.00    -0.376 OA
BRANCH   4   5
ATOM      5  C   UNL A   1      43.139  27.050  35.457  1.00  0.00     0.202 C 
BRANCH   5   6
ATOM      6  C   UNL A   1      41.663  27.888  36.133  1.00  0.00     0.261 C 
BRANCH   6   7
ATOM      7  O   UNL A   1      41.504  29.530  36.624  1.00  0.00    -0.463 OA
BRANCH   7   8
ATOM      8  C   UNL A   1      41.219  30.904  36.313  1.00  0.00     0.308 C 
ATOM      9  O   UNL A   1      40.183  31.116  35.661  1.00  0.00    -0.252 OA
BRANCH   8  10
ATOM     10  C   UNL A   1      42.118  32.376  36.723  1.00  0.00     0.160 C 
BRANCH  10  11
ATOM     11  C   UNL A   1      42.975  33.783  35.966  1.00  0.00     0.184 C 
ATOM     12  C   UNL A   1      42.472  33.725  34.596  1.00  0.00     0.295 C 
ATOM     13  O   UNL A   1      42.907  35.292  36.255  1.00  0.00    -0.366 OA
ATOM     14  N   UNL A   1      41.115  34.181  34.890  1.00  0.00    -0.327 N 
ATOM     15  C   UNL A   1      42.051  36.238  35.431  1.00  0.00     0.222 C 
ATOM     16  C   UNL A   1      41.085  35.566  34.452  1.00  0.00     0.291 C 
ATOM     17  H   UNL A   1      40.507  33.498  34.440  1.00  0.00     0.348 HD
BRANCH  14  18
ATOM     18  C   UNL A   1      40.641  34.256  36.422  1.00  0.00     0.305 C 
BRANCH  18  19
ATOM     19  C   UNL A   1      39.153  34.543  37.562  1.00  0.00     0.078 A 
ATOM     20  C   UNL A   1      39.304  35.858  38.881  1.00  0.00     0.135 A 
ATOM     21  C   UNL A   1      38.046  33.186  37.985  1.00  0.00     0.135 A 
ATOM     22  F   UNL A   1      39.490  37.164  38.634  1.00  0.00    -0.206 F 
ATOM     23  C   UNL A   1      38.789  35.514  40.594  1.00  0.00     0.040 A 
ATOM     24  C   UNL A   1      37.428  32.933  39.617  1.00  0.00     0.040 A 
ATOM     25  F   UNL A   1      37.237  32.668  37.042  1.00  0.00    -0.206 F 
ATOM     26  C   UNL A   1      37.784  34.067  40.914  1.00  0.00     0.006 A 
ENDBRANCH  18  19
ENDBRANCH  14  18
ENDBRANCH  10  11
ENDBRANCH   8  10
ENDBRANCH   7   8
ENDBRANCH   6   7
ENDBRANCH   5   6
ENDBRANCH   4   5
ENDBRANCH   3   4
ENDBRANCH   2   3
ENDBRANCH   1   2
BRANCH   1  27
ATOM     27  C   UNL A   1      44.643  23.266  29.110  1.00  0.00     0.188 C 
BRANCH  27  28
ATOM     28  C   UNL A   1      43.361  23.080  28.237  1.00  0.00     0.188 C 
BRANCH  28  29
ATOM     29  O   UNL A   1      43.420  22.212  27.123  1.00  0.00    -0.376 OA
BRANCH  29  30
ATOM     30  C   UNL A   1      42.172  21.700  26.694  1.00  0.00     0.202 C 
BRANCH  30  31
ATOM     31  C   UNL A   1      40.936  22.053  27.548  1.00  0.00     0.261 C 
BRANCH  31  32
ATOM     32  O   UNL A   1      39.651  21.657  27.012  1.00  0.00    -0.460 OA
BRANCH  32  33
ATOM     33  C   UNL A   1      38.971  22.568  26.267  1.00  0.00     0.338 C 
ATOM     34  O   UNL A   1      38.050  22.335  25.502  1.00  0.00    -0.246 OA
BRANCH  33  35
ATOM     35  C   UNL A   1      39.339  23.947  26.703  1.00  0.00     0.060 A 
ATOM     36  C   UNL A   1      39.957  24.819  25.787  1.00  0.00     0.016 A 
ATOM     37  C   UNL A   1      39.118  24.369  28.015  1.00  0.00     0.016 A 
ATOM     38  C   UNL A   1      40.388  26.086  26.184  1.00  0.00     0.010 A 
ATOM     39  C   UNL A   1      39.600  25.618  28.428  1.00  0.00     0.010 A 
ATOM     40  C   UNL A   1      40.280  26.458  27.527  1.00  0.00    -0.014 A 
BRANCH  40  41
ATOM     41  C   UNL A   1      41.148  27.551  28.035  1.00  0.00     0.031 A 
ATOM     42  C   UNL A   1      40.462  28.752  28.639  1.00  0.00     0.074 A 
ATOM     43  C   UNL A   1      42.491  27.471  28.016  1.00  0.00     0.049 A 
ATOM     44  N   UNL A   1      40.977  29.858  29.107  1.00  0.00    -0.248 NA
ATOM     45  C   UNL A   1      38.991  28.691  28.727  1.00  0.00     0.031 C 
ATOM     46  C   UNL A   1      43.267  26.333  27.526  1.00  0.00     0.029 A 
ATOM     47  N   UNL A   1      43.441  28.376  28.422  1.00  0.00    -0.354 N 
ATOM     48  C   UNL A   1      39.897  30.623  29.537  1.00  0.00     0.074 A 
ATOM     49  C   UNL A   1      38.697  29.873  29.245  1.00  0.00     0.031 C 
ATOM     50  C   UNL A   1      44.577  26.618  27.639  1.00  0.00     0.029 A 
ATOM     51  C   UNL A   1      44.732  27.970  28.175  1.00  0.00     0.049 A 
ATOM     52  H   UNL A   1      43.218  29.235  28.849  1.00  0.00     0.167 HD
ATOM     53  C   UNL A   1      39.902  31.840  30.127  1.00  0.00     0.031 A 
ATOM     54  C   UNL A   1      45.897  28.631  28.335  1.00  0.00     0.031 A 
ATOM     55  C   UNL A   1      41.098  32.591  30.394  1.00  0.00     0.049 A 
ATOM     56  C   UNL A   1      45.869  30.030  28.905  1.00  0.00     0.074 A 
ATOM     57  C   UNL A   1      41.219  33.840  30.978  1.00  0.00     0.029 A 
ATOM     58  N   UNL A   1      42.382  32.164  30.090  1.00  0.00    -0.354 N 
ATOM     59  N   UNL A   1      44.842  30.738  29.316  1.00  0.00    -0.248 NA
ATOM     60  C   UNL A   1      47.163  30.713  29.047  1.00  0.00     0.031 C 
ATOM     61  C   UNL A   1      42.571  34.196  30.965  1.00  0.00     0.029 A 
ATOM     62  C   UNL A   1      43.300  33.136  30.449  1.00  0.00     0.049 A 
ATOM     63  H   UNL A   1      42.607  31.298  29.681  1.00  0.00     0.167 HD
ATOM     64  C   UNL A   1      45.370  31.935  29.789  1.00  0.00     0.074 A 
ATOM     65  C   UNL A   1      46.808  31.840  29.646  1.00  0.00     0.031 C 
ATOM     66  C   UNL A   1      44.728  33.021  30.292  1.00  0.00     0.031 A 
BRANCH  53  67
ATOM     67  C   UNL A   1      38.574  32.448  30.500  1.00  0.00    -0.014 A 
ATOM     68  C   UNL A   1      37.849  33.234  29.585  1.00  0.00     0.010 A 
ATOM     69  C   UNL A   1      38.014  32.179  31.763  1.00  0.00     0.010 A 
ATOM     70  C   UNL A   1      36.597  33.751  29.932  1.00  0.00     0.020 A 
ATOM     71  C   UNL A   1      36.749  32.668  32.101  1.00  0.00     0.020 A 
ATOM     72  C   UNL A   1      36.052  33.456  31.184  1.00  0.00     0.054 A 
BRANCH  72  73
ATOM     73  S   UNL A   1      34.394  34.082  31.576  1.00  0.00     0.124 S 
ATOM     74  O   UNL A   1      33.791  34.195  30.251  1.00  0.00    -0.237 OA
ATOM     75  O   UNL A   1      33.850  33.024  32.426  1.00  0.00    -0.237 OA
ATOM     76  O   UNL A   1      34.652  35.350  32.253  1.00  0.00    -0.744 OA
ENDBRANCH  72  73
ENDBRANCH  53  67
BRANCH  54  77
ATOM     77  C   UNL A   1      47.186  28.011  27.910  1.00  0.00    -0.014 A 
ATOM     78  C   UNL A   1      47.986  27.294  28.818  1.00  0.00     0.010 A 
ATOM     79  C   UNL A   1      47.646  28.177  26.589  1.00  0.00     0.010 A 
ATOM     80  C   UNL A   1      49.231  26.787  28.426  1.00  0.00     0.020 A 
ATOM     81  C   UNL A   1      48.870  27.640  26.183  1.00  0.00     0.020 A 
ATOM     82  C   UNL A   1      49.663  26.963  27.109  1.00  0.00     0.054 A 
BRANCH  82  83
ATOM     83  S   UNL A   1      51.268  26.273  26.616  1.00  0.00     0.124 S 
ATOM     84  O   UNL A   1      51.065  24.845  26.830  1.00  0.00    -0.237 OA
ATOM     85  O   UNL A   1      51.375  26.697  25.222  1.00  0.00    -0.237 OA
ATOM     86  O   UNL A   1      52.211  26.917  27.528  1.00  0.00    -0.744 OA
ENDBRANCH  82  83
ENDBRANCH  54  77
BRANCH  66  87
ATOM     87  C   UNL A   1      45.583  34.172  30.760  1.00  0.00    -0.014 A 
ATOM     88  C   UNL A   1      46.067  34.239  32.078  1.00  0.00     0.010 A 
ATOM     89  C   UNL A   1      45.922  35.197  29.856  1.00  0.00     0.010 A 
ATOM     90  C   UNL A   1      46.819  35.339  32.502  1.00  0.00     0.020 A 
ATOM     91  C   UNL A   1      46.709  36.276  30.263  1.00  0.00     0.020 A 
ATOM     92  C   UNL A   1      47.131  36.352  31.591  1.00  0.00     0.054 A 
BRANCH  92  93
ATOM     93  S   UNL A   1      48.109  37.767  32.165  1.00  0.00     0.124 S 
ATOM     94  O   UNL A   1      48.655  38.286  30.914  1.00  0.00    -0.237 OA
ATOM     95  O   UNL A   1      47.104  38.607  32.811  1.00  0.00    -0.237 OA
ATOM     96  O   UNL A   1      49.088  37.168  33.070  1.00  0.00    -0.744 OA
ENDBRANCH  92  93
ENDBRANCH  66  87
ENDBRANCH  40  41
ENDBRANCH  33  35
ENDBRANCH  32  33
ENDBRANCH  31  32
ENDBRANCH  30  31
ENDBRANCH  29  30
ENDBRANCH  28  29
ENDBRANCH  27  28
ENDBRANCH   1  27
TORSDOF 26
ENDMDL
MODEL 3
REMARK VINA RESULT:      -7.3     11.019     17.239
REMARK SMILES O=C(C[C@H]1C[N@@H+](Cc2c(F)cccc2F)CCO1)OCCOCCOCCOCCOC(=O)c1ccc(-c2c3nc(c(-c4ccc(S(=O)(=O)[O-])cc4)c4ccc([nH]4)c(-c4ccc(S(=O)(=O)[O-])cc4)c4nc(c(-c5ccc(S(=O)(=O)[O-])cc5)c5ccc2[nH]5)C=C4)C=C3)cc1
REMARK SMILES IDX 25 1 24 2 23 3 22 4 21 5 20 6 19 7 2 8 1 9 3 10 4 11 5 12
REMARK SMILES IDX 18 13 6 14 17 15 16 16 7 18 8 19 9 20 14 21 10 22 11 23
REMARK SMILES IDX 13 24 15 25 12 26 26 27 27 28 28 29 29 30 30 31 31 32 32 33
REMARK SMILES IDX 33 34 34 35 35 36 93 37 36 38 92 39 37 40 38 41 39 42 86 43
REMARK SMILES IDX 40 44 91 45 85 46 87 47 41 48 90 49 84 50 83 51 42 53 72 54
REMARK SMILES IDX 53 55 71 56 54 57 57 58 70 59 88 60 55 61 56 62 69 64 89 65
REMARK SMILES IDX 58 66 43 67 44 68 52 69 45 70 51 71 46 72 47 73 48 74 49 75
REMARK SMILES IDX 50 76 73 77 74 78 82 79 75 80 81 81 76 82 77 83 78 84 79 85
REMARK SMILES IDX 80 86 59 87 60 88 68 89 61 90 67 91 62 92 63 93 64 94 65 95
REMARK SMILES IDX 66 96
REMARK H PARENT 6 17 87 52 57 63
REMARK Flexibility Score: inf
ROOT
ATOM      1  O   UNL A   1      51.804  20.016  36.696  1.00  0.00    -0.377 OA
ENDROOT
BRANCH   1   2
ATOM      2  C   UNL A   1      50.800  19.755  37.895  1.00  0.00     0.188 C 
BRANCH   2   3
ATOM      3  C   UNL A   1      48.638  20.140  38.103  1.00  0.00     0.188 C 
BRANCH   3   4
ATOM      4  O   UNL A   1      47.373  19.265  37.297  1.00  0.00    -0.376 OA
BRANCH   4   5
ATOM      5  C   UNL A   1      45.939  18.864  37.760  1.00  0.00     0.202 C 
BRANCH   5   6
ATOM      6  C   UNL A   1      45.507  17.669  39.073  1.00  0.00     0.261 C 
BRANCH   6   7
ATOM      7  O   UNL A   1      43.970  16.977  39.419  1.00  0.00    -0.463 OA
BRANCH   7   8
ATOM      8  C   UNL A   1      43.169  15.977  40.070  1.00  0.00     0.308 C 
ATOM      9  O   UNL A   1      42.931  14.950  39.413  1.00  0.00    -0.252 OA
BRANCH   8  10
ATOM     10  C   UNL A   1      42.459  15.965  41.695  1.00  0.00     0.160 C 
BRANCH  10  11
ATOM     11  C   UNL A   1      41.421  14.960  42.792  1.00  0.00     0.184 C 
ATOM     12  C   UNL A   1      41.471  13.661  42.127  1.00  0.00     0.295 C 
ATOM     13  O   UNL A   1      41.590  14.558  44.266  1.00  0.00    -0.366 OA
ATOM     14  N   UNL A   1      42.856  13.344  42.469  1.00  0.00    -0.327 N 
ATOM     15  C   UNL A   1      42.155  13.211  44.680  1.00  0.00     0.222 C 
ATOM     16  C   UNL A   1      42.761  12.378  43.549  1.00  0.00     0.291 C 
ATOM     17  H   UNL A   1      43.287  13.072  41.586  1.00  0.00     0.348 HD
BRANCH  14  18
ATOM     18  C   UNL A   1      43.786  14.504  43.077  1.00  0.00     0.305 C 
BRANCH  18  19
ATOM     19  C   UNL A   1      45.334  14.853  44.113  1.00  0.00     0.078 A 
ATOM     20  C   UNL A   1      46.418  13.404  44.580  1.00  0.00     0.135 A 
ATOM     21  C   UNL A   1      45.361  16.214  45.293  1.00  0.00     0.135 A 
ATOM     22  F   UNL A   1      47.066  12.624  43.699  1.00  0.00    -0.206 F 
ATOM     23  C   UNL A   1      47.010  13.203  46.291  1.00  0.00     0.040 A 
ATOM     24  C   UNL A   1      46.064  16.067  46.903  1.00  0.00     0.040 A 
ATOM     25  F   UNL A   1      45.362  17.484  44.845  1.00  0.00    -0.206 F 
ATOM     26  C   UNL A   1      46.879  14.593  47.413  1.00  0.00     0.006 A 
ENDBRANCH  18  19
ENDBRANCH  14  18
ENDBRANCH  10  11
ENDBRANCH   8  10
ENDBRANCH   7   8
ENDBRANCH   6   7
ENDBRANCH   5   6
ENDBRANCH   4   5
ENDBRANCH   3   4
ENDBRANCH   2   3
ENDBRANCH   1   2
BRANCH   1  27
ATOM     27  C   UNL A   1      51.585  20.189  35.284  1.00  0.00     0.188 C 
BRANCH  27  28
ATOM     28  C   UNL A   1      52.747  19.989  34.261  1.00  0.00     0.188 C 
BRANCH  28  29
ATOM     29  O   UNL A   1      53.185  21.101  33.506  1.00  0.00    -0.376 OA
BRANCH  29  30
ATOM     30  C   UNL A   1      52.282  21.542  32.509  1.00  0.00     0.202 C 
BRANCH  30  31
ATOM     31  C   UNL A   1      51.730  22.976  32.645  1.00  0.00     0.261 C 
BRANCH  31  32
ATOM     32  O   UNL A   1      50.430  23.108  33.268  1.00  0.00    -0.460 OA
BRANCH  32  33
ATOM     33  C   UNL A   1      50.365  23.753  34.462  1.00  0.00     0.338 C 
ATOM     34  O   UNL A   1      51.176  23.681  35.369  1.00  0.00    -0.246 OA
BRANCH  33  35
ATOM     35  C   UNL A   1      49.279  24.776  34.420  1.00  0.00     0.060 A 
ATOM     36  C   UNL A   1      48.062  24.518  35.080  1.00  0.00     0.016 A 
ATOM     37  C   UNL A   1      49.436  25.962  33.701  1.00  0.00     0.016 A 
ATOM     38  C   UNL A   1      46.997  25.416  34.992  1.00  0.00     0.010 A 
ATOM     39  C   UNL A   1      48.349  26.837  33.568  1.00  0.00     0.010 A 
ATOM     40  C   UNL A   1      47.112  26.541  34.171  1.00  0.00    -0.014 A 
BRANCH  40  41
ATOM     41  C   UNL A   1      45.873  27.207  33.697  1.00  0.00     0.031 A 
ATOM     42  C   UNL A   1      45.270  26.706  32.407  1.00  0.00     0.074 A 
ATOM     43  C   UNL A   1      45.267  28.182  34.399  1.00  0.00     0.049 A 
ATOM     44  N   UNL A   1      44.229  27.140  31.749  1.00  0.00    -0.248 NA
ATOM     45  C   UNL A   1      45.939  25.551  31.777  1.00  0.00     0.031 C 
ATOM     46  C   UNL A   1      45.711  28.700  35.691  1.00  0.00     0.029 A 
ATOM     47  N   UNL A   1      44.139  28.913  34.113  1.00  0.00    -0.354 N 
ATOM     48  C   UNL A   1      44.122  26.321  30.630  1.00  0.00     0.074 A 
ATOM     49  C   UNL A   1      45.221  25.384  30.677  1.00  0.00     0.031 C 
ATOM     50  C   UNL A   1      44.877  29.683  36.076  1.00  0.00     0.029 A 
ATOM     51  C   UNL A   1      43.862  29.887  35.044  1.00  0.00     0.049 A 
ATOM     52  H   UNL A   1      43.582  28.754  33.316  1.00  0.00     0.167 HD
ATOM     53  C   UNL A   1      43.189  26.340  29.651  1.00  0.00     0.031 A 
ATOM     54  C   UNL A   1      42.917  30.850  35.040  1.00  0.00     0.031 A 
ATOM     55  C   UNL A   1      42.110  27.289  29.597  1.00  0.00     0.049 A 
ATOM     56  C   UNL A   1      41.946  30.913  33.884  1.00  0.00     0.074 A 
ATOM     57  C   UNL A   1      41.114  27.407  28.644  1.00  0.00     0.029 A 
ATOM     58  N   UNL A   1      41.890  28.287  30.535  1.00  0.00    -0.354 N 
ATOM     59  N   UNL A   1      41.851  30.127  32.837  1.00  0.00    -0.248 NA
ATOM     60  C   UNL A   1      40.945  31.988  33.919  1.00  0.00     0.031 C 
ATOM     61  C   UNL A   1      40.331  28.519  28.971  1.00  0.00     0.029 A 
ATOM     62  C   UNL A   1      40.789  29.042  30.170  1.00  0.00     0.049 A 
ATOM     63  H   UNL A   1      42.434  28.434  31.341  1.00  0.00     0.167 HD
ATOM     64  C   UNL A   1      40.763  30.596  32.106  1.00  0.00     0.074 A 
ATOM     65  C   UNL A   1      40.213  31.710  32.850  1.00  0.00     0.031 C 
ATOM     66  C   UNL A   1      40.263  30.153  30.924  1.00  0.00     0.031 A 
BRANCH  53  67
ATOM     67  C   UNL A   1      43.309  25.324  28.543  1.00  0.00    -0.014 A 
ATOM     68  C   UNL A   1      44.192  25.520  27.466  1.00  0.00     0.010 A 
ATOM     69  C   UNL A   1      42.569  24.129  28.611  1.00  0.00     0.010 A 
ATOM     70  C   UNL A   1      44.324  24.545  26.473  1.00  0.00     0.020 A 
ATOM     71  C   UNL A   1      42.721  23.139  27.637  1.00  0.00     0.020 A 
ATOM     72  C   UNL A   1      43.594  23.357  26.570  1.00  0.00     0.054 A 
BRANCH  72  73
ATOM     73  S   UNL A   1      43.842  22.082  25.303  1.00  0.00     0.124 S 
ATOM     74  O   UNL A   1      42.852  21.079  25.684  1.00  0.00    -0.237 OA
ATOM     75  O   UNL A   1      43.557  22.808  24.066  1.00  0.00    -0.237 OA
ATOM     76  O   UNL A   1      45.235  21.681  25.480  1.00  0.00    -0.744 OA
ENDBRANCH  72  73
ENDBRANCH  53  67
BRANCH  54  77
ATOM     77  C   UNL A   1      42.863  31.865  36.132  1.00  0.00    -0.014 A 
ATOM     78  C   UNL A   1      43.278  33.192  35.917  1.00  0.00     0.010 A 
ATOM     79  C   UNL A   1      42.434  31.492  37.420  1.00  0.00     0.010 A 
ATOM     80  C   UNL A   1      43.299  34.112  36.971  1.00  0.00     0.020 A 
ATOM     81  C   UNL A   1      42.415  32.418  38.467  1.00  0.00     0.020 A 
ATOM     82  C   UNL A   1      42.865  33.718  38.239  1.00  0.00     0.054 A 
BRANCH  82  83
ATOM     83  S   UNL A   1      42.873  34.937  39.585  1.00  0.00     0.124 S 
ATOM     84  O   UNL A   1      43.056  36.189  38.861  1.00  0.00    -0.237 OA
ATOM     85  O   UNL A   1      41.560  34.739  40.193  1.00  0.00    -0.237 OA
ATOM     86  O   UNL A   1      44.003  34.521  40.414  1.00  0.00    -0.744 OA
ENDBRANCH  82  83
ENDBRANCH  54  77
BRANCH  66  87
ATOM     87  C   UNL A   1      39.038  30.851  30.387  1.00  0.00    -0.014 A 
ATOM     88  C   UNL A   1      39.112  32.142  29.836  1.00  0.00     0.010 A 
ATOM     89  C   UNL A   1      37.795  30.191  30.419  1.00  0.00     0.010 A 
ATOM     90  C   UNL A   1      37.955  32.786  29.387  1.00  0.00     0.020 A 
ATOM     91  C   UNL A   1      36.644  30.814  29.932  1.00  0.00     0.020 A 
ATOM     92  C   UNL A   1      36.728  32.118  29.442  1.00  0.00     0.054 A 
BRANCH  92  93
ATOM     93  S   UNL A   1      35.244  32.976  28.852  1.00  0.00     0.124 S 
ATOM     94  O   UNL A   1      35.192  34.136  29.736  1.00  0.00    -0.237 OA
ATOM     95  O   UNL A   1      35.574  33.260  27.457  1.00  0.00    -0.237 OA
ATOM     96  O   UNL A   1      34.176  31.997  29.046  1.00  0.00    -0.744 OA
ENDBRANCH  92  93
ENDBRANCH  66  87
ENDBRANCH  40  41
ENDBRANCH  33  35
ENDBRANCH  32  33
ENDBRANCH  31  32
ENDBRANCH  30  31
ENDBRANCH  29  30
ENDBRANCH  28  29
ENDBRANCH  27  28
ENDBRANCH   1  27
TORSDOF 26
ENDMDL
