MODEL 1
REMARK VINA RESULT:     -10.2      0.000      0.000
REMARK SMILES C[C@]12C(=O)N(c3ccc(C(=O)OCCOCCOCCOCCOC(=O)c4ccc(-c5c6nc(c(-c7ccc(S(=O)(=O)[O-])cc7)c7ccc([nH]7)c(-c7ccc(S(=O)(=O)[O-])cc7)c7nc(c(-c8ccc(S(=O)(=O)[O-])cc8)c8ccc5[nH]8)C=C7)C=C6)cc4)cc3)C(=O)[C@H]1[C@H]1c3ccccc3[C@@H]2c2ccccc21
REMARK SMILES IDX 19 1 18 2 17 3 16 4 15 5 14 6 13 7 12 8 10 9 11 10 9 11 6 12
REMARK SMILES IDX 7 13 88 14 8 15 87 16 5 17 1 18 2 19 3 20 91 21 99 22 4 23
REMARK SMILES IDX 89 24 92 25 98 26 100 27 90 28 93 29 105 30 97 31 101 32
REMARK SMILES IDX 94 33 104 34 96 35 102 36 95 37 103 38 20 39 21 40 22 41
REMARK SMILES IDX 23 42 24 43 25 44 26 45 27 46 28 47 86 48 29 49 85 50 30 51
REMARK SMILES IDX 31 52 32 53 79 54 33 55 84 56 78 57 80 58 34 59 83 60 77 61
REMARK SMILES IDX 76 62 35 64 65 65 46 66 64 67 47 68 50 69 63 70 81 71 48 72
REMARK SMILES IDX 49 73 62 75 82 76 51 77 36 78 37 79 45 80 38 81 44 82 39 83
REMARK SMILES IDX 40 84 41 85 42 86 43 87 66 88 67 89 75 90 68 91 74 92 69 93
REMARK SMILES IDX 70 94 71 95 72 96 73 97 52 98 53 99 61 100 54 101 60 102
REMARK SMILES IDX 55 103 56 104 57 105 58 106 59 107
REMARK H PARENT 80 63 50 74
REMARK Flexibility Score: inf
ROOT
ATOM      1  C   UNL A   1      35.910  24.511  25.013  1.00  0.00     0.188 C 
ENDROOT
BRANCH   1   2
ATOM      2  O   UNL A   1      35.175  25.676  25.362  1.00  0.00    -0.377 OA
BRANCH   2   3
ATOM      3  C   UNL A   1      34.159  26.097  24.475  1.00  0.00     0.188 C 
BRANCH   3   4
ATOM      4  C   UNL A   1      34.157  27.614  24.208  1.00  0.00     0.188 C 
BRANCH   4   5
ATOM      5  O   UNL A   1      33.735  28.522  25.213  1.00  0.00    -0.376 OA
BRANCH   5   6
ATOM      6  C   UNL A   1      32.815  29.568  24.930  1.00  0.00     0.202 C 
BRANCH   6   7
ATOM      7  C   UNL A   1      31.662  29.470  23.910  1.00  0.00     0.261 C 
BRANCH   7   8
ATOM      8  O   UNL A   1      30.371  29.107  24.410  1.00  0.00    -0.460 OA
BRANCH   8   9
ATOM      9  C   UNL A   1      29.829  27.988  23.880  1.00  0.00     0.338 C 
ATOM     10  O   UNL A   1      29.147  27.902  22.873  1.00  0.00    -0.246 OA
BRANCH   9  11
ATOM     11  C   UNL A   1      30.404  26.805  24.555  1.00  0.00     0.060 A 
ATOM     12  C   UNL A   1      31.470  24.440  25.688  1.00  0.00     0.052 A 
ATOM     13  C   UNL A   1      31.166  24.531  24.314  1.00  0.00     0.028 A 
ATOM     14  C   UNL A   1      31.282  25.589  26.470  1.00  0.00     0.028 A 
ATOM     15  C   UNL A   1      30.597  25.675  23.764  1.00  0.00     0.018 A 
ATOM     16  C   UNL A   1      30.782  26.780  25.899  1.00  0.00     0.018 A 
BRANCH  12  17
ATOM     17  N   UNL A   1      31.732  23.147  26.257  1.00  0.00    -0.250 N 
ATOM     18  C   UNL A   1      33.182  20.419  27.321  1.00  0.00     0.024 C 
ATOM     19  C   UNL A   1      33.077  21.246  26.026  1.00  0.00     0.071 C 
ATOM     20  C   UNL A   1      33.029  22.696  26.428  1.00  0.00     0.241 C 
ATOM     21  C   UNL A   1      31.707  21.051  25.311  1.00  0.00     0.107 C 
ATOM     22  C   UNL A   1      34.235  20.977  25.012  1.00  0.00     0.066 C 
ATOM     23  O   UNL A   1      34.000  23.304  26.862  1.00  0.00    -0.273 OA
ATOM     24  C   UNL A   1      30.858  22.055  26.075  1.00  0.00     0.238 C 
ATOM     25  C   UNL A   1      31.902  20.199  24.002  1.00  0.00     0.063 C 
ATOM     26  C   UNL A   1      33.885  21.685  23.690  1.00  0.00    -0.036 A 
ATOM     27  C   UNL A   1      34.171  19.485  24.704  1.00  0.00    -0.036 A 
ATOM     28  O   UNL A   1      29.683  21.938  26.367  1.00  0.00    -0.274 OA
ATOM     29  C   UNL A   1      32.675  21.216  23.081  1.00  0.00    -0.036 A 
ATOM     30  C   UNL A   1      32.909  19.059  24.205  1.00  0.00    -0.036 A 
ATOM     31  C   UNL A   1      34.533  22.803  23.187  1.00  0.00     0.005 A 
ATOM     32  C   UNL A   1      35.251  18.613  24.784  1.00  0.00     0.005 A 
ATOM     33  C   UNL A   1      32.109  21.889  22.007  1.00  0.00     0.004 A 
ATOM     34  C   UNL A   1      32.754  17.752  23.761  1.00  0.00     0.004 A 
ATOM     35  C   UNL A   1      33.957  23.477  22.107  1.00  0.00     0.000 A 
ATOM     36  C   UNL A   1      35.081  17.303  24.345  1.00  0.00     0.000 A 
ATOM     37  C   UNL A   1      32.757  23.029  21.528  1.00  0.00     0.000 A 
ATOM     38  C   UNL A   1      33.845  16.878  23.835  1.00  0.00     0.000 A 
ENDBRANCH  12  17
ENDBRANCH   9  11
ENDBRANCH   8   9
ENDBRANCH   7   8
ENDBRANCH   6   7
ENDBRANCH   5   6
ENDBRANCH   4   5
ENDBRANCH   3   4
ENDBRANCH   2   3
ENDBRANCH   1   2
BRANCH   1  39
ATOM     39  C   UNL A   1      37.069  24.025  25.911  1.00  0.00     0.188 C 
BRANCH  39  40
ATOM     40  O   UNL A   1      37.383  22.642  25.782  1.00  0.00    -0.376 OA
BRANCH  40  41
ATOM     41  C   UNL A   1      38.703  22.221  26.096  1.00  0.00     0.202 C 
BRANCH  41  42
ATOM     42  C   UNL A   1      39.065  20.780  25.712  1.00  0.00     0.261 C 
BRANCH  42  43
ATOM     43  O   UNL A   1      39.917  20.084  26.630  1.00  0.00    -0.460 OA
BRANCH  43  44
ATOM     44  C   UNL A   1      41.198  19.864  26.261  1.00  0.00     0.338 C 
ATOM     45  O   UNL A   1      41.629  18.907  25.642  1.00  0.00    -0.246 OA
BRANCH  44  46
ATOM     46  C   UNL A   1      41.963  21.090  26.579  1.00  0.00     0.060 A 
ATOM     47  C   UNL A   1      42.423  21.917  25.551  1.00  0.00     0.016 A 
ATOM     48  C   UNL A   1      42.259  21.391  27.914  1.00  0.00     0.016 A 
ATOM     49  C   UNL A   1      43.157  23.060  25.863  1.00  0.00     0.010 A 
ATOM     50  C   UNL A   1      42.991  22.542  28.225  1.00  0.00     0.010 A 
ATOM     51  C   UNL A   1      43.425  23.398  27.203  1.00  0.00    -0.014 A 
BRANCH  51  52
ATOM     52  C   UNL A   1      43.992  24.738  27.506  1.00  0.00     0.031 A 
ATOM     53  C   UNL A   1      45.442  25.061  27.305  1.00  0.00     0.074 A 
ATOM     54  C   UNL A   1      43.142  25.690  27.939  1.00  0.00     0.049 A 
ATOM     55  N   UNL A   1      46.028  26.230  27.357  1.00  0.00    -0.248 NA
ATOM     56  C   UNL A   1      46.351  23.941  27.022  1.00  0.00     0.031 C 
ATOM     57  C   UNL A   1      41.718  25.473  28.205  1.00  0.00     0.029 A 
ATOM     58  N   UNL A   1      43.332  27.023  28.200  1.00  0.00    -0.354 N 
ATOM     59  C   UNL A   1      47.370  25.997  27.082  1.00  0.00     0.074 A 
ATOM     60  C   UNL A   1      47.521  24.565  26.925  1.00  0.00     0.031 C 
ATOM     61  C   UNL A   1      41.151  26.643  28.531  1.00  0.00     0.029 A 
ATOM     62  C   UNL A   1      42.173  27.686  28.531  1.00  0.00     0.049 A 
ATOM     63  H   UNL A   1      44.211  27.463  28.155  1.00  0.00     0.167 HD
ATOM     64  C   UNL A   1      48.371  26.902  26.954  1.00  0.00     0.031 A 
ATOM     65  C   UNL A   1      41.941  28.992  28.779  1.00  0.00     0.031 A 
ATOM     66  C   UNL A   1      48.205  28.324  27.139  1.00  0.00     0.049 A 
ATOM     67  C   UNL A   1      43.071  29.972  28.641  1.00  0.00     0.074 A 
ATOM     68  C   UNL A   1      49.154  29.323  26.994  1.00  0.00     0.029 A 
ATOM     69  N   UNL A   1      47.024  28.954  27.510  1.00  0.00    -0.354 N 
ATOM     70  N   UNL A   1      44.315  29.747  28.295  1.00  0.00    -0.248 NA
ATOM     71  C   UNL A   1      42.762  31.386  28.899  1.00  0.00     0.031 C 
ATOM     72  C   UNL A   1      48.571  30.540  27.354  1.00  0.00     0.029 A 
ATOM     73  C   UNL A   1      47.232  30.320  27.628  1.00  0.00     0.049 A 
ATOM     74  H   UNL A   1      46.166  28.498  27.665  1.00  0.00     0.167 HD
ATOM     75  C   UNL A   1      44.932  30.994  28.263  1.00  0.00     0.074 A 
ATOM     76  C   UNL A   1      43.918  31.969  28.608  1.00  0.00     0.031 C 
ATOM     77  C   UNL A   1      46.222  31.295  27.971  1.00  0.00     0.031 A 
BRANCH  64  78
ATOM     78  C   UNL A   1      49.745  26.407  26.568  1.00  0.00    -0.014 A 
ATOM     79  C   UNL A   1      50.641  25.964  27.560  1.00  0.00     0.010 A 
ATOM     80  C   UNL A   1      50.205  26.529  25.244  1.00  0.00     0.010 A 
ATOM     81  C   UNL A   1      51.976  25.691  27.245  1.00  0.00     0.020 A 
ATOM     82  C   UNL A   1      51.531  26.225  24.919  1.00  0.00     0.020 A 
ATOM     83  C   UNL A   1      52.414  25.834  25.927  1.00  0.00     0.054 A 
BRANCH  83  84
ATOM     84  S   UNL A   1      54.160  25.518  25.546  1.00  0.00     0.124 S 
ATOM     85  O   UNL A   1      54.734  25.310  26.872  1.00  0.00    -0.237 OA
ATOM     86  O   UNL A   1      54.090  24.334  24.694  1.00  0.00    -0.237 OA
ATOM     87  O   UNL A   1      54.588  26.739  24.864  1.00  0.00    -0.744 OA
ENDBRANCH  83  84
ENDBRANCH  64  78
BRANCH  65  88
ATOM     88  C   UNL A   1      40.552  29.429  29.096  1.00  0.00    -0.014 A 
ATOM     89  C   UNL A   1      39.585  29.520  28.077  1.00  0.00     0.010 A 
ATOM     90  C   UNL A   1      40.217  29.856  30.393  1.00  0.00     0.010 A 
ATOM     91  C   UNL A   1      38.333  30.085  28.333  1.00  0.00     0.020 A 
ATOM     92  C   UNL A   1      38.952  30.388  30.662  1.00  0.00     0.020 A 
ATOM     93  C   UNL A   1      38.030  30.529  29.622  1.00  0.00     0.054 A 
BRANCH  93  94
ATOM     94  S   UNL A   1      36.423  31.318  29.912  1.00  0.00     0.124 S 
ATOM     95  O   UNL A   1      36.722  32.718  29.624  1.00  0.00    -0.237 OA
ATOM     96  O   UNL A   1      35.560  30.646  28.944  1.00  0.00    -0.237 OA
ATOM     97  O   UNL A   1      36.140  31.015  31.313  1.00  0.00    -0.744 OA
ENDBRANCH  93  94
ENDBRANCH  65  88
BRANCH  77  98
ATOM     98  C   UNL A   1      46.639  32.746  27.989  1.00  0.00    -0.014 A 
ATOM     99  C   UNL A   1      47.026  33.342  29.206  1.00  0.00     0.010 A 
ATOM    100  C   UNL A   1      46.535  33.553  26.842  1.00  0.00     0.010 A 
ATOM    101  C   UNL A   1      47.267  34.716  29.283  1.00  0.00     0.020 A 
ATOM    102  C   UNL A   1      46.812  34.922  26.906  1.00  0.00     0.020 A 
ATOM    103  C   UNL A   1      47.151  35.500  28.133  1.00  0.00     0.054 A 
BRANCH 103 104
ATOM    104  S   UNL A   1      47.442  37.286  28.259  1.00  0.00     0.124 S 
ATOM    105  O   UNL A   1      46.091  37.828  28.144  1.00  0.00    -0.237 OA
ATOM    106  O   UNL A   1      48.064  37.417  29.574  1.00  0.00    -0.237 OA
ATOM    107  O   UNL A   1      48.326  37.570  27.130  1.00  0.00    -0.744 OA
ENDBRANCH 103 104
ENDBRANCH  77  98
ENDBRANCH  51  52
ENDBRANCH  44  46
ENDBRANCH  43  44
ENDBRANCH  42  43
ENDBRANCH  41  42
ENDBRANCH  40  41
ENDBRANCH  39  40
ENDBRANCH   1  39
TORSDOF 24
ENDMDL
MODEL 2
REMARK VINA RESULT:      -9.9      1.087      2.221
REMARK SMILES C[C@]12C(=O)N(c3ccc(C(=O)OCCOCCOCCOCCOC(=O)c4ccc(-c5c6nc(c(-c7ccc(S(=O)(=O)[O-])cc7)c7ccc([nH]7)c(-c7ccc(S(=O)(=O)[O-])cc7)c7nc(c(-c8ccc(S(=O)(=O)[O-])cc8)c8ccc5[nH]8)C=C7)C=C6)cc4)cc3)C(=O)[C@H]1[C@H]1c3ccccc3[C@@H]2c2ccccc21
REMARK SMILES IDX 19 1 18 2 17 3 16 4 15 5 14 6 13 7 12 8 10 9 11 10 9 11 6 12
REMARK SMILES IDX 7 13 88 14 8 15 87 16 5 17 1 18 2 19 3 20 91 21 99 22 4 23
REMARK SMILES IDX 89 24 92 25 98 26 100 27 90 28 93 29 105 30 97 31 101 32
REMARK SMILES IDX 94 33 104 34 96 35 102 36 95 37 103 38 20 39 21 40 22 41
REMARK SMILES IDX 23 42 24 43 25 44 26 45 27 46 28 47 86 48 29 49 85 50 30 51
REMARK SMILES IDX 31 52 32 53 79 54 33 55 84 56 78 57 80 58 34 59 83 60 77 61
REMARK SMILES IDX 76 62 35 64 65 65 46 66 64 67 47 68 50 69 63 70 81 71 48 72
REMARK SMILES IDX 49 73 62 75 82 76 51 77 36 78 37 79 45 80 38 81 44 82 39 83
REMARK SMILES IDX 40 84 41 85 42 86 43 87 66 88 67 89 75 90 68 91 74 92 69 93
REMARK SMILES IDX 70 94 71 95 72 96 73 97 52 98 53 99 61 100 54 101 60 102
REMARK SMILES IDX 55 103 56 104 57 105 58 106 59 107
REMARK H PARENT 80 63 50 74
REMARK Flexibility Score: inf
ROOT
ATOM      1  C   UNL A   1      36.419  24.113  25.234  1.00  0.00     0.188 C 
ENDROOT
BRANCH   1   2
ATOM      2  O   UNL A   1      35.558  25.131  25.727  1.00  0.00    -0.377 OA
BRANCH   2   3
ATOM      3  C   UNL A   1      34.604  25.668  24.835  1.00  0.00     0.188 C 
BRANCH   3   4
ATOM      4  C   UNL A   1      34.328  27.168  25.050  1.00  0.00     0.188 C 
BRANCH   4   5
ATOM      5  O   UNL A   1      33.851  27.641  26.301  1.00  0.00    -0.376 OA
BRANCH   5   6
ATOM      6  C   UNL A   1      33.257  28.926  26.432  1.00  0.00     0.202 C 
BRANCH   6   7
ATOM      7  C   UNL A   1      32.352  29.586  25.371  1.00  0.00     0.261 C 
BRANCH   7   8
ATOM      8  O   UNL A   1      30.966  29.228  25.374  1.00  0.00    -0.460 OA
BRANCH   8   9
ATOM      9  C   UNL A   1      30.460  28.832  24.185  1.00  0.00     0.338 C 
ATOM     10  O   UNL A   1      29.874  29.519  23.365  1.00  0.00    -0.246 OA
BRANCH   9  11
ATOM     11  C   UNL A   1      30.951  27.472  23.877  1.00  0.00     0.060 A 
ATOM     12  C   UNL A   1      31.951  24.934  23.120  1.00  0.00     0.052 A 
ATOM     13  C   UNL A   1      32.240  26.096  22.376  1.00  0.00     0.028 A 
ATOM     14  C   UNL A   1      31.195  25.088  24.292  1.00  0.00     0.028 A 
ATOM     15  C   UNL A   1      31.711  27.336  22.718  1.00  0.00     0.018 A 
ATOM     16  C   UNL A   1      30.724  26.358  24.689  1.00  0.00     0.018 A 
BRANCH  12  17
ATOM     17  N   UNL A   1      32.237  23.650  22.542  1.00  0.00    -0.250 N 
ATOM     18  C   UNL A   1      32.149  20.493  21.705  1.00  0.00     0.024 C 
ATOM     19  C   UNL A   1      32.182  21.353  22.983  1.00  0.00     0.071 C 
ATOM     20  C   UNL A   1      31.365  22.588  22.707  1.00  0.00     0.241 C 
ATOM     21  C   UNL A   1      33.597  21.941  23.261  1.00  0.00     0.107 C 
ATOM     22  C   UNL A   1      31.670  20.607  24.256  1.00  0.00     0.066 C 
ATOM     23  O   UNL A   1      30.144  22.577  22.619  1.00  0.00    -0.273 OA
ATOM     24  C   UNL A   1      33.555  23.177  22.376  1.00  0.00     0.238 C 
ATOM     25  C   UNL A   1      34.248  21.212  24.494  1.00  0.00     0.063 C 
ATOM     26  C   UNL A   1      31.971  21.492  25.480  1.00  0.00    -0.036 A 
ATOM     27  C   UNL A   1      32.572  19.386  24.406  1.00  0.00    -0.036 A 
ATOM     28  O   UNL A   1      34.484  23.657  21.753  1.00  0.00    -0.274 OA
ATOM     29  C   UNL A   1      33.365  21.757  25.679  1.00  0.00    -0.036 A 
ATOM     30  C   UNL A   1      33.956  19.706  24.489  1.00  0.00    -0.036 A 
ATOM     31  C   UNL A   1      31.018  22.155  26.239  1.00  0.00     0.005 A 
ATOM     32  C   UNL A   1      32.118  18.082  24.562  1.00  0.00     0.005 A 
ATOM     33  C   UNL A   1      33.787  22.704  26.602  1.00  0.00     0.004 A 
ATOM     34  C   UNL A   1      34.875  18.701  24.759  1.00  0.00     0.004 A 
ATOM     35  C   UNL A   1      31.450  23.109  27.164  1.00  0.00     0.000 A 
ATOM     36  C   UNL A   1      33.050  17.081  24.822  1.00  0.00     0.000 A 
ATOM     37  C   UNL A   1      32.817  23.385  27.339  1.00  0.00     0.000 A 
ATOM     38  C   UNL A   1      34.415  17.389  24.923  1.00  0.00     0.000 A 
ENDBRANCH  12  17
ENDBRANCH   9  11
ENDBRANCH   8   9
ENDBRANCH   7   8
ENDBRANCH   6   7
ENDBRANCH   5   6
ENDBRANCH   4   5
ENDBRANCH   3   4
ENDBRANCH   2   3
ENDBRANCH   1   2
BRANCH   1  39
ATOM     39  C   UNL A   1      37.646  23.666  26.058  1.00  0.00     0.188 C 
BRANCH  39  40
ATOM     40  O   UNL A   1      37.971  22.284  25.941  1.00  0.00    -0.376 OA
BRANCH  40  41
ATOM     41  C   UNL A   1      39.304  21.882  26.221  1.00  0.00     0.202 C 
BRANCH  41  42
ATOM     42  C   UNL A   1      39.639  20.409  25.953  1.00  0.00     0.261 C 
BRANCH  42  43
ATOM     43  O   UNL A   1      40.699  19.855  26.741  1.00  0.00    -0.460 OA
BRANCH  43  44
ATOM     44  C   UNL A   1      41.929  19.786  26.185  1.00  0.00     0.338 C 
ATOM     45  O   UNL A   1      42.341  18.932  25.419  1.00  0.00    -0.246 OA
BRANCH  44  46
ATOM     46  C   UNL A   1      42.636  21.040  26.526  1.00  0.00     0.060 A 
ATOM     47  C   UNL A   1      43.280  21.776  25.527  1.00  0.00     0.016 A 
ATOM     48  C   UNL A   1      42.692  21.459  27.860  1.00  0.00     0.016 A 
ATOM     49  C   UNL A   1      43.957  22.947  25.864  1.00  0.00     0.010 A 
ATOM     50  C   UNL A   1      43.367  22.639  28.195  1.00  0.00     0.010 A 
ATOM     51  C   UNL A   1      43.985  23.404  27.195  1.00  0.00    -0.014 A 
BRANCH  51  52
ATOM     52  C   UNL A   1      44.500  24.769  27.475  1.00  0.00     0.031 A 
ATOM     53  C   UNL A   1      45.945  25.133  27.306  1.00  0.00     0.074 A 
ATOM     54  C   UNL A   1      43.609  25.705  27.857  1.00  0.00     0.049 A 
ATOM     55  N   UNL A   1      46.492  26.321  27.340  1.00  0.00    -0.248 NA
ATOM     56  C   UNL A   1      46.896  24.035  27.080  1.00  0.00     0.031 C 
ATOM     57  C   UNL A   1      42.185  25.450  28.090  1.00  0.00     0.029 A 
ATOM     58  N   UNL A   1      43.750  27.051  28.085  1.00  0.00    -0.354 N 
ATOM     59  C   UNL A   1      47.848  26.124  27.110  1.00  0.00     0.074 A 
ATOM     60  C   UNL A   1      48.048  24.693  26.998  1.00  0.00     0.031 C 
ATOM     61  C   UNL A   1      41.573  26.610  28.366  1.00  0.00     0.029 A 
ATOM     62  C   UNL A   1      42.561  27.685  28.364  1.00  0.00     0.049 A 
ATOM     63  H   UNL A   1      44.616  27.517  28.052  1.00  0.00     0.167 HD
ATOM     64  C   UNL A   1      48.824  27.056  26.983  1.00  0.00     0.031 A 
ATOM     65  C   UNL A   1      42.282  28.989  28.568  1.00  0.00     0.031 A 
ATOM     66  C   UNL A   1      48.608  28.477  27.122  1.00  0.00     0.049 A 
ATOM     67  C   UNL A   1      43.384  30.001  28.434  1.00  0.00     0.074 A 
ATOM     68  C   UNL A   1      49.529  29.501  26.975  1.00  0.00     0.029 A 
ATOM     69  N   UNL A   1      47.398  29.079  27.442  1.00  0.00    -0.354 N 
ATOM     70  N   UNL A   1      44.645  29.806  28.130  1.00  0.00    -0.248 NA
ATOM     71  C   UNL A   1      43.024  31.410  28.643  1.00  0.00     0.031 C 
ATOM     72  C   UNL A   1      48.898  30.709  27.284  1.00  0.00     0.029 A 
ATOM     73  C   UNL A   1      47.559  30.454  27.527  1.00  0.00     0.049 A 
ATOM     74  H   UNL A   1      46.551  28.599  27.586  1.00  0.00     0.167 HD
ATOM     75  C   UNL A   1      45.222  31.070  28.078  1.00  0.00     0.074 A 
ATOM     76  C   UNL A   1      44.169  32.022  28.368  1.00  0.00     0.031 C 
ATOM     77  C   UNL A   1      46.510  31.405  27.814  1.00  0.00     0.031 A 
BRANCH  64  78
ATOM     78  C   UNL A   1      50.223  26.596  26.650  1.00  0.00    -0.014 A 
ATOM     79  C   UNL A   1      51.155  26.364  27.680  1.00  0.00     0.010 A 
ATOM     80  C   UNL A   1      50.661  26.544  25.314  1.00  0.00     0.010 A 
ATOM     81  C   UNL A   1      52.502  26.129  27.384  1.00  0.00     0.020 A 
ATOM     82  C   UNL A   1      52.001  26.278  25.013  1.00  0.00     0.020 A 
ATOM     83  C   UNL A   1      52.918  26.099  26.051  1.00  0.00     0.054 A 
BRANCH  83  84
ATOM     84  S   UNL A   1      54.676  25.838  25.689  1.00  0.00     0.124 S 
ATOM     85  O   UNL A   1      54.666  25.619  24.245  1.00  0.00    -0.237 OA
ATOM     86  O   UNL A   1      55.282  27.091  26.134  1.00  0.00    -0.237 OA
ATOM     87  O   UNL A   1      55.023  24.669  26.496  1.00  0.00    -0.744 OA
ENDBRANCH  83  84
ENDBRANCH  64  78
BRANCH  65  88
ATOM     88  C   UNL A   1      40.872  29.390  28.835  1.00  0.00    -0.014 A 
ATOM     89  C   UNL A   1      40.445  29.657  30.150  1.00  0.00     0.010 A 
ATOM     90  C   UNL A   1      39.925  29.405  27.796  1.00  0.00     0.010 A 
ATOM     91  C   UNL A   1      39.094  29.870  30.430  1.00  0.00     0.020 A 
ATOM     92  C   UNL A   1      38.576  29.656  28.067  1.00  0.00     0.020 A 
ATOM     93  C   UNL A   1      38.165  29.853  29.387  1.00  0.00     0.054 A 
BRANCH  93  94
ATOM     94  S   UNL A   1      36.409  30.067  29.786  1.00  0.00     0.124 S 
ATOM     95  O   UNL A   1      35.763  29.386  28.668  1.00  0.00    -0.237 OA
ATOM     96  O   UNL A   1      36.293  29.401  31.081  1.00  0.00    -0.237 OA
ATOM     97  O   UNL A   1      36.238  31.518  29.817  1.00  0.00    -0.744 OA
ENDBRANCH  93  94
ENDBRANCH  65  88
BRANCH  77  98
ATOM     98  C   UNL A   1      46.881  32.868  27.802  1.00  0.00    -0.014 A 
ATOM     99  C   UNL A   1      46.765  33.605  26.606  1.00  0.00     0.010 A 
ATOM    100  C   UNL A   1      47.454  33.488  28.928  1.00  0.00     0.010 A 
ATOM    101  C   UNL A   1      47.245  34.915  26.526  1.00  0.00     0.020 A 
ATOM    102  C   UNL A   1      47.902  34.811  28.862  1.00  0.00     0.020 A 
ATOM    103  C   UNL A   1      47.818  35.507  27.653  1.00  0.00     0.054 A 
BRANCH 103 104
ATOM    104  S   UNL A   1      48.459  37.200  27.520  1.00  0.00     0.124 S 
ATOM    105  O   UNL A   1      47.338  37.993  28.016  1.00  0.00    -0.237 OA
ATOM    106  O   UNL A   1      49.637  37.165  28.383  1.00  0.00    -0.237 OA
ATOM    107  O   UNL A   1      48.745  37.347  26.094  1.00  0.00    -0.744 OA
ENDBRANCH 103 104
ENDBRANCH  77  98
ENDBRANCH  51  52
ENDBRANCH  44  46
ENDBRANCH  43  44
ENDBRANCH  42  43
ENDBRANCH  41  42
ENDBRANCH  40  41
ENDBRANCH  39  40
ENDBRANCH   1  39
TORSDOF 24
ENDMDL
MODEL 3
REMARK VINA RESULT:      -9.7      5.383      9.353
REMARK SMILES C[C@]12C(=O)N(c3ccc(C(=O)OCCOCCOCCOCCOC(=O)c4ccc(-c5c6nc(c(-c7ccc(S(=O)(=O)[O-])cc7)c7ccc([nH]7)c(-c7ccc(S(=O)(=O)[O-])cc7)c7nc(c(-c8ccc(S(=O)(=O)[O-])cc8)c8ccc5[nH]8)C=C7)C=C6)cc4)cc3)C(=O)[C@H]1[C@H]1c3ccccc3[C@@H]2c2ccccc21
REMARK SMILES IDX 19 1 18 2 17 3 16 4 15 5 14 6 13 7 12 8 10 9 11 10 9 11 6 12
REMARK SMILES IDX 7 13 88 14 8 15 87 16 5 17 1 18 2 19 3 20 91 21 99 22 4 23
REMARK SMILES IDX 89 24 92 25 98 26 100 27 90 28 93 29 105 30 97 31 101 32
REMARK SMILES IDX 94 33 104 34 96 35 102 36 95 37 103 38 20 39 21 40 22 41
REMARK SMILES IDX 23 42 24 43 25 44 26 45 27 46 28 47 86 48 29 49 85 50 30 51
REMARK SMILES IDX 31 52 32 53 79 54 33 55 84 56 78 57 80 58 34 59 83 60 77 61
REMARK SMILES IDX 76 62 35 64 65 65 46 66 64 67 47 68 50 69 63 70 81 71 48 72
REMARK SMILES IDX 49 73 62 75 82 76 51 77 36 78 37 79 45 80 38 81 44 82 39 83
REMARK SMILES IDX 40 84 41 85 42 86 43 87 66 88 67 89 75 90 68 91 74 92 69 93
REMARK SMILES IDX 70 94 71 95 72 96 73 97 52 98 53 99 61 100 54 101 60 102
REMARK SMILES IDX 55 103 56 104 57 105 58 106 59 107
REMARK H PARENT 80 63 50 74
REMARK Flexibility Score: inf
ROOT
ATOM      1  C   UNL A   1      36.403  23.119  25.139  1.00  0.00     0.188 C 
ENDROOT
BRANCH   1   2
ATOM      2  O   UNL A   1      35.068  23.527  25.405  1.00  0.00    -0.377 OA
BRANCH   2   3
ATOM      3  C   UNL A   1      34.137  23.443  24.346  1.00  0.00     0.188 C 
BRANCH   3   4
ATOM      4  C   UNL A   1      33.366  24.752  24.092  1.00  0.00     0.188 C 
BRANCH   4   5
ATOM      5  O   UNL A   1      33.999  26.009  24.281  1.00  0.00    -0.376 OA
BRANCH   5   6
ATOM      6  C   UNL A   1      33.245  27.205  24.430  1.00  0.00     0.202 C 
BRANCH   6   7
ATOM      7  C   UNL A   1      33.856  28.612  24.599  1.00  0.00     0.261 C 
BRANCH   7   8
ATOM      8  O   UNL A   1      34.271  28.995  25.914  1.00  0.00    -0.460 OA
BRANCH   8   9
ATOM      9  C   UNL A   1      33.448  29.848  26.564  1.00  0.00     0.338 C 
ATOM     10  O   UNL A   1      32.228  29.844  26.563  1.00  0.00    -0.246 OA
BRANCH   9  11
ATOM     11  C   UNL A   1      34.239  30.654  27.518  1.00  0.00     0.060 A 
ATOM     12  C   UNL A   1      35.853  32.040  29.387  1.00  0.00     0.052 A 
ATOM     13  C   UNL A   1      36.162  30.728  28.970  1.00  0.00     0.028 A 
ATOM     14  C   UNL A   1      34.744  32.662  28.794  1.00  0.00     0.028 A 
ATOM     15  C   UNL A   1      35.344  30.027  28.089  1.00  0.00     0.018 A 
ATOM     16  C   UNL A   1      33.959  31.985  27.836  1.00  0.00     0.018 A 
BRANCH  12  17
ATOM     17  N   UNL A   1      36.527  32.580  30.534  1.00  0.00    -0.250 N 
ATOM     18  C   UNL A   1      38.770  33.799  32.573  1.00  0.00     0.024 C 
ATOM     19  C   UNL A   1      38.570  32.564  31.675  1.00  0.00     0.071 C 
ATOM     20  C   UNL A   1      37.835  33.024  30.445  1.00  0.00     0.241 C 
ATOM     21  C   UNL A   1      37.575  31.539  32.297  1.00  0.00     0.107 C 
ATOM     22  C   UNL A   1      39.900  31.835  31.302  1.00  0.00     0.066 C 
ATOM     23  O   UNL A   1      38.355  33.706  29.570  1.00  0.00    -0.273 OA
ATOM     24  C   UNL A   1      36.252  32.139  31.845  1.00  0.00     0.238 C 
ATOM     25  C   UNL A   1      38.356  30.266  32.793  1.00  0.00     0.063 C 
ATOM     26  C   UNL A   1      39.538  30.509  30.607  1.00  0.00    -0.036 A 
ATOM     27  C   UNL A   1      40.536  31.438  32.630  1.00  0.00    -0.036 A 
ATOM     28  O   UNL A   1      35.206  32.142  32.466  1.00  0.00    -0.274 OA
ATOM     29  C   UNL A   1      38.781  29.610  31.426  1.00  0.00    -0.036 A 
ATOM     30  C   UNL A   1      39.694  30.635  33.448  1.00  0.00    -0.036 A 
ATOM     31  C   UNL A   1      39.731  30.234  29.261  1.00  0.00     0.005 A 
ATOM     32  C   UNL A   1      41.847  31.718  32.995  1.00  0.00     0.005 A 
ATOM     33  C   UNL A   1      38.196  28.472  30.886  1.00  0.00     0.004 A 
ATOM     34  C   UNL A   1      40.196  30.095  34.625  1.00  0.00     0.004 A 
ATOM     35  C   UNL A   1      39.138  29.089  28.724  1.00  0.00     0.000 A 
ATOM     36  C   UNL A   1      42.337  31.179  34.181  1.00  0.00     0.000 A 
ATOM     37  C   UNL A   1      38.374  28.222  29.525  1.00  0.00     0.000 A 
ATOM     38  C   UNL A   1      41.519  30.372  34.987  1.00  0.00     0.000 A 
ENDBRANCH  12  17
ENDBRANCH   9  11
ENDBRANCH   8   9
ENDBRANCH   7   8
ENDBRANCH   6   7
ENDBRANCH   5   6
ENDBRANCH   4   5
ENDBRANCH   3   4
ENDBRANCH   2   3
ENDBRANCH   1   2
BRANCH   1  39
ATOM     39  C   UNL A   1      36.953  21.812  25.752  1.00  0.00     0.188 C 
BRANCH  39  40
ATOM     40  O   UNL A   1      37.877  21.109  24.927  1.00  0.00    -0.376 OA
BRANCH  40  41
ATOM     41  C   UNL A   1      39.123  20.725  25.490  1.00  0.00     0.202 C 
BRANCH  41  42
ATOM     42  C   UNL A   1      39.727  21.686  26.523  1.00  0.00     0.261 C 
BRANCH  42  43
ATOM     43  O   UNL A   1      40.511  22.761  25.993  1.00  0.00    -0.460 OA
BRANCH  43  44
ATOM     44  C   UNL A   1      41.857  22.648  26.048  1.00  0.00     0.338 C 
ATOM     45  O   UNL A   1      42.567  21.974  25.321  1.00  0.00    -0.246 OA
BRANCH  44  46
ATOM     46  C   UNL A   1      42.341  23.639  27.034  1.00  0.00     0.060 A 
ATOM     47  C   UNL A   1      41.429  24.366  27.804  1.00  0.00     0.016 A 
ATOM     48  C   UNL A   1      43.716  23.874  27.157  1.00  0.00     0.016 A 
ATOM     49  C   UNL A   1      41.898  25.309  28.717  1.00  0.00     0.010 A 
ATOM     50  C   UNL A   1      44.184  24.816  28.079  1.00  0.00     0.010 A 
ATOM     51  C   UNL A   1      43.279  25.525  28.883  1.00  0.00    -0.014 A 
BRANCH  51  52
ATOM     52  C   UNL A   1      43.744  26.351  30.027  1.00  0.00     0.031 A 
ATOM     53  C   UNL A   1      44.259  25.746  31.298  1.00  0.00     0.074 A 
ATOM     54  C   UNL A   1      43.728  27.690  29.875  1.00  0.00     0.049 A 
ATOM     55  N   UNL A   1      44.861  26.343  32.295  1.00  0.00    -0.248 NA
ATOM     56  C   UNL A   1      44.072  24.300  31.484  1.00  0.00     0.031 C 
ATOM     57  C   UNL A   1      43.211  28.385  28.693  1.00  0.00     0.029 A 
ATOM     58  N   UNL A   1      44.178  28.700  30.686  1.00  0.00    -0.354 N 
ATOM     59  C   UNL A   1      45.155  25.346  33.217  1.00  0.00     0.074 A 
ATOM     60  C   UNL A   1      44.609  24.113  32.685  1.00  0.00     0.031 C 
ATOM     61  C   UNL A   1      43.429  29.700  28.829  1.00  0.00     0.029 A 
ATOM     62  C   UNL A   1      44.070  29.948  30.118  1.00  0.00     0.049 A 
ATOM     63  H   UNL A   1      44.544  28.547  31.587  1.00  0.00     0.167 HD
ATOM     64  C   UNL A   1      45.835  25.453  34.384  1.00  0.00     0.031 A 
ATOM     65  C   UNL A   1      44.465  31.159  30.562  1.00  0.00     0.031 A 
ATOM     66  C   UNL A   1      46.350  26.696  34.909  1.00  0.00     0.049 A 
ATOM     67  C   UNL A   1      45.206  31.252  31.865  1.00  0.00     0.074 A 
ATOM     68  C   UNL A   1      47.084  26.897  36.067  1.00  0.00     0.029 A 
ATOM     69  N   UNL A   1      46.188  27.945  34.323  1.00  0.00    -0.354 N 
ATOM     70  N   UNL A   1      45.553  30.287  32.683  1.00  0.00    -0.248 NA
ATOM     71  C   UNL A   1      45.635  32.590  32.295  1.00  0.00     0.031 C 
ATOM     72  C   UNL A   1      47.294  28.269  36.222  1.00  0.00     0.029 A 
ATOM     73  C   UNL A   1      46.780  28.919  35.112  1.00  0.00     0.049 A 
ATOM     74  H   UNL A   1      45.722  28.112  33.473  1.00  0.00     0.167 HD
ATOM     75  C   UNL A   1      46.269  30.897  33.708  1.00  0.00     0.074 A 
ATOM     76  C   UNL A   1      46.319  32.311  33.397  1.00  0.00     0.031 C 
ATOM     77  C   UNL A   1      46.832  30.330  34.804  1.00  0.00     0.031 A 
BRANCH  64  78
ATOM     78  C   UNL A   1      46.101  24.199  35.182  1.00  0.00    -0.014 A 
ATOM     79  C   UNL A   1      47.268  23.447  34.949  1.00  0.00     0.010 A 
ATOM     80  C   UNL A   1      45.122  23.681  36.050  1.00  0.00     0.010 A 
ATOM     81  C   UNL A   1      47.434  22.187  35.535  1.00  0.00     0.020 A 
ATOM     82  C   UNL A   1      45.298  22.436  36.663  1.00  0.00     0.020 A 
ATOM     83  C   UNL A   1      46.441  21.685  36.379  1.00  0.00     0.054 A 
BRANCH  83  84
ATOM     84  S   UNL A   1      46.653  20.031  37.094  1.00  0.00     0.124 S 
ATOM     85  O   UNL A   1      48.070  19.770  36.857  1.00  0.00    -0.237 OA
ATOM     86  O   UNL A   1      46.273  20.236  38.489  1.00  0.00    -0.237 OA
ATOM     87  O   UNL A   1      45.728  19.203  36.321  1.00  0.00    -0.744 OA
ENDBRANCH  83  84
ENDBRANCH  64  78
BRANCH  65  88
ATOM     88  C   UNL A   1      44.228  32.354  29.703  1.00  0.00    -0.014 A 
ATOM     89  C   UNL A   1      43.054  33.118  29.857  1.00  0.00     0.010 A 
ATOM     90  C   UNL A   1      45.116  32.672  28.662  1.00  0.00     0.010 A 
ATOM     91  C   UNL A   1      42.745  34.135  28.951  1.00  0.00     0.020 A 
ATOM     92  C   UNL A   1      44.828  33.715  27.775  1.00  0.00     0.020 A 
ATOM     93  C   UNL A   1      43.628  34.417  27.906  1.00  0.00     0.054 A 
BRANCH  93  94
ATOM     94  S   UNL A   1      43.171  35.697  26.706  1.00  0.00     0.124 S 
ATOM     95  O   UNL A   1      42.065  36.364  27.388  1.00  0.00    -0.237 OA
ATOM     96  O   UNL A   1      44.400  36.477  26.589  1.00  0.00    -0.237 OA
ATOM     97  O   UNL A   1      42.801  34.935  25.515  1.00  0.00    -0.744 OA
ENDBRANCH  93  94
ENDBRANCH  65  88
BRANCH  77  98
ATOM     98  C   UNL A   1      47.578  31.221  35.767  1.00  0.00    -0.014 A 
ATOM     99  C   UNL A   1      48.974  31.373  35.634  1.00  0.00     0.010 A 
ATOM    100  C   UNL A   1      46.934  31.811  36.869  1.00  0.00     0.010 A 
ATOM    101  C   UNL A   1      49.711  32.064  36.600  1.00  0.00     0.020 A 
ATOM    102  C   UNL A   1      47.664  32.536  37.817  1.00  0.00     0.020 A 
ATOM    103  C   UNL A   1      49.052  32.635  37.690  1.00  0.00     0.054 A 
BRANCH 103 104
ATOM    104  S   UNL A   1      50.031  33.505  38.945  1.00  0.00     0.124 S 
ATOM    105  O   UNL A   1      49.557  32.894  40.184  1.00  0.00    -0.237 OA
ATOM    106  O   UNL A   1      51.403  33.178  38.566  1.00  0.00    -0.237 OA
ATOM    107  O   UNL A   1      49.658  34.907  38.759  1.00  0.00    -0.744 OA
ENDBRANCH 103 104
ENDBRANCH  77  98
ENDBRANCH  51  52
ENDBRANCH  44  46
ENDBRANCH  43  44
ENDBRANCH  42  43
ENDBRANCH  41  42
ENDBRANCH  40  41
ENDBRANCH  39  40
ENDBRANCH   1  39
TORSDOF 24
ENDMDL
