MODEL 1
REMARK VINA RESULT:      -9.2      0.000      0.000
REMARK SMILES O=C(OCCOCCOCCOCCOC(=O)[C@H]1CC[C@H]2CCCC[C@@H]2[N@H+]1C[C@@H]1CCCCO1)c1ccc(-c2c3nc(c(-c4ccc(S(=O)(=O)[O-])cc4)c4ccc([nH]4)c(-c4ccc(S(=O)(=O)[O-])cc4)c4nc(c(-c5ccc(S(=O)(=O)[O-])cc5)c5ccc2[nH]5)C=C4)C=C3)cc1
REMARK SMILES IDX 8 1 7 2 6 3 5 4 4 5 3 6 2 7 1 8 35 9 36 10 94 11 37 12 93 13
REMARK SMILES IDX 38 14 39 15 40 16 87 17 41 18 92 19 86 20 88 21 42 22 91 23
REMARK SMILES IDX 85 24 84 25 43 27 73 28 54 29 72 30 55 31 58 32 71 33 89 34
REMARK SMILES IDX 56 35 57 36 70 38 90 39 59 40 44 41 45 42 53 43 46 44 52 45
REMARK SMILES IDX 47 46 48 47 49 48 50 49 51 50 74 51 75 52 83 53 76 54 82 55
REMARK SMILES IDX 77 56 78 57 79 58 80 59 81 60 60 61 61 62 69 63 62 64 68 65
REMARK SMILES IDX 63 66 64 67 65 68 66 69 67 70 9 71 10 72 11 73 12 74 13 75
REMARK SMILES IDX 14 76 15 77 16 78 17 79 18 80 19 81 27 82 20 83 26 84 21 86
REMARK SMILES IDX 25 87 22 88 24 89 23 90 28 91 29 92 30 93 34 94 31 95 33 96
REMARK SMILES IDX 32 97
REMARK H PARENT 88 26 58 37 27 85
REMARK Flexibility Score: inf
ROOT
ATOM      1  C   UNL A   1      34.201  34.259  32.946  1.00  0.00     0.188 C 
ENDROOT
BRANCH   1   2
ATOM      2  C   UNL A   1      35.556  34.947  32.805  1.00  0.00     0.188 C 
BRANCH   2   3
ATOM      3  O   UNL A   1      36.541  34.279  33.575  1.00  0.00    -0.376 OA
BRANCH   3   4
ATOM      4  C   UNL A   1      36.135  33.118  34.277  1.00  0.00     0.202 C 
BRANCH   4   5
ATOM      5  C   UNL A   1      36.870  31.875  33.784  1.00  0.00     0.261 C 
BRANCH   5   6
ATOM      6  O   UNL A   1      38.039  32.247  33.038  1.00  0.00    -0.460 OA
BRANCH   6   7
ATOM      7  C   UNL A   1      38.314  32.005  31.735  1.00  0.00     0.338 C 
ATOM      8  O   UNL A   1      37.481  32.358  30.899  1.00  0.00    -0.246 OA
BRANCH   7   9
ATOM      9  C   UNL A   1      39.574  31.367  31.227  1.00  0.00     0.060 A 
ATOM     10  C   UNL A   1      40.683  30.985  31.991  1.00  0.00     0.016 A 
ATOM     11  C   UNL A   1      39.588  31.051  29.856  1.00  0.00     0.016 A 
ATOM     12  C   UNL A   1      41.761  30.310  31.433  1.00  0.00     0.010 A 
ATOM     13  C   UNL A   1      40.678  30.398  29.277  1.00  0.00     0.010 A 
ATOM     14  C   UNL A   1      41.774  30.044  30.070  1.00  0.00    -0.014 A 
BRANCH  14  15
ATOM     15  C   UNL A   1      43.047  29.629  29.466  1.00  0.00     0.031 A 
ATOM     16  C   UNL A   1      43.102  28.249  28.885  1.00  0.00     0.074 A 
ATOM     17  C   UNL A   1      44.069  30.492  29.355  1.00  0.00     0.049 A 
ATOM     18  N   UNL A   1      44.110  27.606  28.369  1.00  0.00    -0.248 NA
ATOM     19  C   UNL A   1      41.834  27.493  28.882  1.00  0.00     0.031 C 
ATOM     20  C   UNL A   1      44.039  31.895  29.772  1.00  0.00     0.029 A 
ATOM     21  N   UNL A   1      45.327  30.315  28.849  1.00  0.00    -0.354 N 
ATOM     22  C   UNL A   1      43.610  26.359  28.015  1.00  0.00     0.074 A 
ATOM     23  C   UNL A   1      42.212  26.333  28.372  1.00  0.00     0.031 C 
ATOM     24  C   UNL A   1      45.238  32.448  29.520  1.00  0.00     0.029 A 
ATOM     25  C   UNL A   1      46.129  31.424  28.984  1.00  0.00     0.049 A 
ATOM     26  H   UNL A   1      45.630  29.478  28.430  1.00  0.00     0.167 HD
ATOM     27  C   UNL A   1      44.275  25.322  27.457  1.00  0.00     0.031 A 
ATOM     28  C   UNL A   1      47.447  31.564  28.745  1.00  0.00     0.031 A 
ATOM     29  C   UNL A   1      45.676  25.379  27.149  1.00  0.00     0.049 A 
ATOM     30  C   UNL A   1      48.196  30.367  28.218  1.00  0.00     0.074 A 
ATOM     31  C   UNL A   1      46.489  24.391  26.632  1.00  0.00     0.029 A 
ATOM     32  N   UNL A   1      46.474  26.501  27.348  1.00  0.00    -0.354 N 
ATOM     33  N   UNL A   1      47.734  29.171  27.927  1.00  0.00    -0.248 NA
ATOM     34  C   UNL A   1      49.637  30.528  27.993  1.00  0.00     0.031 C 
ATOM     35  C   UNL A   1      47.792  24.895  26.578  1.00  0.00     0.029 A 
ATOM     36  C   UNL A   1      47.777  26.222  26.990  1.00  0.00     0.049 A 
ATOM     37  H   UNL A   1      46.155  27.365  27.694  1.00  0.00     0.167 HD
ATOM     38  C   UNL A   1      48.823  28.442  27.466  1.00  0.00     0.074 A 
ATOM     39  C   UNL A   1      49.964  29.338  27.505  1.00  0.00     0.031 C 
ATOM     40  C   UNL A   1      48.881  27.152  27.048  1.00  0.00     0.031 A 
BRANCH  27  41
ATOM     41  C   UNL A   1      43.506  24.042  27.267  1.00  0.00    -0.014 A 
ATOM     42  C   UNL A   1      43.281  23.145  28.329  1.00  0.00     0.010 A 
ATOM     43  C   UNL A   1      43.058  23.700  25.979  1.00  0.00     0.010 A 
ATOM     44  C   UNL A   1      42.679  21.905  28.092  1.00  0.00     0.020 A 
ATOM     45  C   UNL A   1      42.428  22.474  25.743  1.00  0.00     0.020 A 
ATOM     46  C   UNL A   1      42.266  21.574  26.797  1.00  0.00     0.054 A 
BRANCH  46  47
ATOM     47  S   UNL A   1      41.516  19.947  26.514  1.00  0.00     0.124 S 
ATOM     48  O   UNL A   1      40.100  20.284  26.405  1.00  0.00    -0.237 OA
ATOM     49  O   UNL A   1      42.155  19.509  25.280  1.00  0.00    -0.237 OA
ATOM     50  O   UNL A   1      41.883  19.184  27.709  1.00  0.00    -0.744 OA
ENDBRANCH  46  47
ENDBRANCH  27  41
BRANCH  28  51
ATOM     51  C   UNL A   1      48.130  32.847  29.075  1.00  0.00    -0.014 A 
ATOM     52  C   UNL A   1      48.695  33.076  30.341  1.00  0.00     0.010 A 
ATOM     53  C   UNL A   1      48.251  33.848  28.089  1.00  0.00     0.010 A 
ATOM     54  C   UNL A   1      49.365  34.275  30.614  1.00  0.00     0.020 A 
ATOM     55  C   UNL A   1      48.944  35.033  28.347  1.00  0.00     0.020 A 
ATOM     56  C   UNL A   1      49.492  35.243  29.611  1.00  0.00     0.054 A 
BRANCH  56  57
ATOM     57  S   UNL A   1      50.423  36.761  29.966  1.00  0.00     0.124 S 
ATOM     58  O   UNL A   1      50.373  37.456  28.683  1.00  0.00    -0.237 OA
ATOM     59  O   UNL A   1      49.643  37.364  31.043  1.00  0.00    -0.237 OA
ATOM     60  O   UNL A   1      51.742  36.270  30.360  1.00  0.00    -0.744 OA
ENDBRANCH  56  57
ENDBRANCH  28  51
BRANCH  40  61
ATOM     61  C   UNL A   1      50.212  26.644  26.565  1.00  0.00    -0.014 A 
ATOM     62  C   UNL A   1      50.555  26.681  25.203  1.00  0.00     0.010 A 
ATOM     63  C   UNL A   1      51.165  26.221  27.509  1.00  0.00     0.010 A 
ATOM     64  C   UNL A   1      51.830  26.289  24.793  1.00  0.00     0.020 A 
ATOM     65  C   UNL A   1      52.450  25.859  27.106  1.00  0.00     0.020 A 
ATOM     66  C   UNL A   1      52.772  25.887  25.747  1.00  0.00     0.054 A 
BRANCH  66  67
ATOM     67  S   UNL A   1      54.445  25.460  25.197  1.00  0.00     0.124 S 
ATOM     68  O   UNL A   1      54.303  24.041  24.872  1.00  0.00    -0.237 OA
ATOM     69  O   UNL A   1      54.641  26.349  24.053  1.00  0.00    -0.237 OA
ATOM     70  O   UNL A   1      55.278  25.753  26.357  1.00  0.00    -0.744 OA
ENDBRANCH  66  67
ENDBRANCH  40  61
ENDBRANCH  14  15
ENDBRANCH   7   9
ENDBRANCH   6   7
ENDBRANCH   5   6
ENDBRANCH   4   5
ENDBRANCH   3   4
ENDBRANCH   2   3
ENDBRANCH   1   2
BRANCH   1  71
ATOM     71  O   UNL A   1      33.368  34.267  31.788  1.00  0.00    -0.377 OA
BRANCH  71  72
ATOM     72  C   UNL A   1      33.288  35.482  31.037  1.00  0.00     0.188 C 
BRANCH  72  73
ATOM     73  C   UNL A   1      33.532  35.217  29.548  1.00  0.00     0.188 C 
BRANCH  73  74
ATOM     74  O   UNL A   1      34.378  34.113  29.238  1.00  0.00    -0.376 OA
BRANCH  74  75
ATOM     75  C   UNL A   1      33.968  33.251  28.184  1.00  0.00     0.202 C 
BRANCH  75  76
ATOM     76  C   UNL A   1      34.757  31.940  28.004  1.00  0.00     0.261 C 
BRANCH  76  77
ATOM     77  O   UNL A   1      34.123  30.947  27.164  1.00  0.00    -0.459 OA
BRANCH  77  78
ATOM     78  C   UNL A   1      34.525  29.664  27.342  1.00  0.00     0.364 C 
ATOM     79  O   UNL A   1      35.567  29.361  27.926  1.00  0.00    -0.245 OA
BRANCH  78  80
ATOM     80  C   UNL A   1      33.566  28.566  26.832  1.00  0.00     0.295 C 
ATOM     81  C   UNL A   1      32.063  28.728  27.069  1.00  0.00     0.078 C 
ATOM     82  N   UNL A   1      33.842  27.960  25.508  1.00  0.00    -0.318 N 
ATOM     83  C   UNL A   1      31.276  27.516  26.524  1.00  0.00     0.016 C 
ATOM     84  C   UNL A   1      33.361  26.567  25.469  1.00  0.00     0.187 C 
ATOM     85  H   UNL A   1      34.860  27.950  25.435  1.00  0.00     0.349 HD
ATOM     86  C   UNL A   1      32.166  26.294  26.428  1.00  0.00     0.048 C 
ATOM     87  C   UNL A   1      34.431  25.542  25.908  1.00  0.00     0.065 C 
ATOM     88  C   UNL A   1      31.507  24.991  25.988  1.00  0.00     0.010 C 
ATOM     89  C   UNL A   1      33.909  24.105  25.718  1.00  0.00     0.006 C 
ATOM     90  C   UNL A   1      32.484  23.842  26.240  1.00  0.00     0.001 C 
BRANCH  82  91
ATOM     91  C   UNL A   1      33.552  28.768  24.292  1.00  0.00     0.295 C 
BRANCH  91  92
ATOM     92  C   UNL A   1      32.807  28.464  22.904  1.00  0.00     0.173 C 
ATOM     93  C   UNL A   1      31.286  28.450  22.757  1.00  0.00     0.038 C 
ATOM     94  O   UNL A   1      33.455  27.597  21.978  1.00  0.00    -0.372 OA
ATOM     95  C   UNL A   1      30.576  27.149  22.436  1.00  0.00     0.005 C 
ATOM     96  C   UNL A   1      32.931  26.296  21.811  1.00  0.00     0.161 C 
ATOM     97  C   UNL A   1      31.422  26.127  21.712  1.00  0.00     0.029 C 
ENDBRANCH  91  92
ENDBRANCH  82  91
ENDBRANCH  78  80
ENDBRANCH  77  78
ENDBRANCH  76  77
ENDBRANCH  75  76
ENDBRANCH  74  75
ENDBRANCH  73  74
ENDBRANCH  72  73
ENDBRANCH  71  72
ENDBRANCH   1  71
TORSDOF 25
ENDMDL
MODEL 2
REMARK VINA RESULT:      -9.0      6.335      9.050
REMARK SMILES O=C(OCCOCCOCCOCCOC(=O)[C@H]1CC[C@H]2CCCC[C@@H]2[N@H+]1C[C@@H]1CCCCO1)c1ccc(-c2c3nc(c(-c4ccc(S(=O)(=O)[O-])cc4)c4ccc([nH]4)c(-c4ccc(S(=O)(=O)[O-])cc4)c4nc(c(-c5ccc(S(=O)(=O)[O-])cc5)c5ccc2[nH]5)C=C4)C=C3)cc1
REMARK SMILES IDX 8 1 7 2 6 3 5 4 4 5 3 6 2 7 1 8 35 9 36 10 94 11 37 12 93 13
REMARK SMILES IDX 38 14 39 15 40 16 87 17 41 18 92 19 86 20 88 21 42 22 91 23
REMARK SMILES IDX 85 24 84 25 43 27 73 28 54 29 72 30 55 31 58 32 71 33 89 34
REMARK SMILES IDX 56 35 57 36 70 38 90 39 59 40 44 41 45 42 53 43 46 44 52 45
REMARK SMILES IDX 47 46 48 47 49 48 50 49 51 50 74 51 75 52 83 53 76 54 82 55
REMARK SMILES IDX 77 56 78 57 79 58 80 59 81 60 60 61 61 62 69 63 62 64 68 65
REMARK SMILES IDX 63 66 64 67 65 68 66 69 67 70 9 71 10 72 11 73 12 74 13 75
REMARK SMILES IDX 14 76 15 77 16 78 17 79 18 80 19 81 27 82 20 83 26 84 21 86
REMARK SMILES IDX 25 87 22 88 24 89 23 90 28 91 29 92 30 93 34 94 31 95 33 96
REMARK SMILES IDX 32 97
REMARK H PARENT 88 26 58 37 27 85
REMARK Flexibility Score: inf
ROOT
ATOM      1  C   UNL A   1      34.716  32.420  28.728  1.00  0.00     0.188 C 
ENDROOT
BRANCH   1   2
ATOM      2  C   UNL A   1      33.649  33.288  28.067  1.00  0.00     0.188 C 
BRANCH   2   3
ATOM      3  O   UNL A   1      33.853  34.656  28.377  1.00  0.00    -0.376 OA
BRANCH   3   4
ATOM      4  C   UNL A   1      32.811  35.327  29.060  1.00  0.00     0.202 C 
BRANCH   4   5
ATOM      5  C   UNL A   1      33.319  36.573  29.780  1.00  0.00     0.261 C 
BRANCH   5   6
ATOM      6  O   UNL A   1      33.038  36.488  31.186  1.00  0.00    -0.460 OA
BRANCH   6   7
ATOM      7  C   UNL A   1      33.026  35.386  31.973  1.00  0.00     0.338 C 
ATOM      8  O   UNL A   1      31.934  34.978  32.371  1.00  0.00    -0.246 OA
BRANCH   7   9
ATOM      9  C   UNL A   1      34.243  34.602  32.370  1.00  0.00     0.060 A 
ATOM     10  C   UNL A   1      34.273  33.458  33.176  1.00  0.00     0.016 A 
ATOM     11  C   UNL A   1      35.455  35.024  31.793  1.00  0.00     0.016 A 
ATOM     12  C   UNL A   1      35.447  32.749  33.400  1.00  0.00     0.010 A 
ATOM     13  C   UNL A   1      36.647  34.338  32.034  1.00  0.00     0.010 A 
ATOM     14  C   UNL A   1      36.640  33.206  32.856  1.00  0.00    -0.014 A 
BRANCH  14  15
ATOM     15  C   UNL A   1      37.891  32.632  33.369  1.00  0.00     0.031 A 
ATOM     16  C   UNL A   1      38.530  31.557  32.546  1.00  0.00     0.074 A 
ATOM     17  C   UNL A   1      38.473  33.131  34.471  1.00  0.00     0.049 A 
ATOM     18  N   UNL A   1      39.581  30.832  32.801  1.00  0.00    -0.248 NA
ATOM     19  C   UNL A   1      37.892  31.267  31.247  1.00  0.00     0.031 C 
ATOM     20  C   UNL A   1      37.981  34.271  35.247  1.00  0.00     0.029 A 
ATOM     21  N   UNL A   1      39.613  32.745  35.123  1.00  0.00    -0.354 N 
ATOM     22  C   UNL A   1      39.710  29.974  31.714  1.00  0.00     0.074 A 
ATOM     23  C   UNL A   1      38.633  30.267  30.799  1.00  0.00     0.031 C 
ATOM     24  C   UNL A   1      38.808  34.480  36.285  1.00  0.00     0.029 A 
ATOM     25  C   UNL A   1      39.847  33.454  36.277  1.00  0.00     0.049 A 
ATOM     26  H   UNL A   1      40.207  32.030  34.798  1.00  0.00     0.167 HD
ATOM     27  C   UNL A   1      40.640  29.013  31.517  1.00  0.00     0.031 A 
ATOM     28  C   UNL A   1      40.770  33.252  37.237  1.00  0.00     0.031 A 
ATOM     29  C   UNL A   1      41.675  28.732  32.472  1.00  0.00     0.049 A 
ATOM     30  C   UNL A   1      41.737  32.111  37.050  1.00  0.00     0.074 A 
ATOM     31  C   UNL A   1      42.650  27.757  32.429  1.00  0.00     0.029 A 
ATOM     32  N   UNL A   1      41.852  29.434  33.660  1.00  0.00    -0.354 N 
ATOM     33  N   UNL A   1      41.831  31.269  36.045  1.00  0.00    -0.248 NA
ATOM     34  C   UNL A   1      42.716  31.885  38.119  1.00  0.00     0.031 C 
ATOM     35  C   UNL A   1      43.378  27.828  33.621  1.00  0.00     0.029 A 
ATOM     36  C   UNL A   1      42.906  28.897  34.372  1.00  0.00     0.049 A 
ATOM     37  H   UNL A   1      41.307  30.201  33.949  1.00  0.00     0.167 HD
ATOM     38  C   UNL A   1      42.890  30.424  36.351  1.00  0.00     0.074 A 
ATOM     39  C   UNL A   1      43.413  30.867  37.630  1.00  0.00     0.031 C 
ATOM     40  C   UNL A   1      43.389  29.377  35.646  1.00  0.00     0.031 A 
BRANCH  27  41
ATOM     41  C   UNL A   1      40.486  28.157  30.289  1.00  0.00    -0.014 A 
ATOM     42  C   UNL A   1      39.429  27.238  30.151  1.00  0.00     0.010 A 
ATOM     43  C   UNL A   1      41.463  28.229  29.280  1.00  0.00     0.010 A 
ATOM     44  C   UNL A   1      39.389  26.364  29.059  1.00  0.00     0.020 A 
ATOM     45  C   UNL A   1      41.409  27.380  28.171  1.00  0.00     0.020 A 
ATOM     46  C   UNL A   1      40.386  26.436  28.081  1.00  0.00     0.054 A 
BRANCH  46  47
ATOM     47  S   UNL A   1      40.325  25.272  26.692  1.00  0.00     0.124 S 
ATOM     48  O   UNL A   1      38.939  24.816  26.742  1.00  0.00    -0.237 OA
ATOM     49  O   UNL A   1      40.670  26.113  25.553  1.00  0.00    -0.237 OA
ATOM     50  O   UNL A   1      41.324  24.260  27.043  1.00  0.00    -0.744 OA
ENDBRANCH  46  47
ENDBRANCH  27  41
BRANCH  28  51
ATOM     51  C   UNL A   1      40.761  34.093  38.467  1.00  0.00    -0.014 A 
ATOM     52  C   UNL A   1      41.544  35.254  38.569  1.00  0.00     0.010 A 
ATOM     53  C   UNL A   1      39.920  33.745  39.545  1.00  0.00     0.010 A 
ATOM     54  C   UNL A   1      41.488  36.050  39.721  1.00  0.00     0.020 A 
ATOM     55  C   UNL A   1      39.839  34.551  40.682  1.00  0.00     0.020 A 
ATOM     56  C   UNL A   1      40.630  35.696  40.768  1.00  0.00     0.054 A 
BRANCH  56  57
ATOM     57  S   UNL A   1      40.523  36.777  42.222  1.00  0.00     0.124 S 
ATOM     58  O   UNL A   1      39.207  36.441  42.756  1.00  0.00    -0.237 OA
ATOM     59  O   UNL A   1      41.662  36.340  43.025  1.00  0.00    -0.237 OA
ATOM     60  O   UNL A   1      40.646  38.121  41.661  1.00  0.00    -0.744 OA
ENDBRANCH  56  57
ENDBRANCH  28  51
BRANCH  40  61
ATOM     61  C   UNL A   1      44.582  28.664  36.222  1.00  0.00    -0.014 A 
ATOM     62  C   UNL A   1      44.428  27.534  37.043  1.00  0.00     0.010 A 
ATOM     63  C   UNL A   1      45.872  29.077  35.846  1.00  0.00     0.010 A 
ATOM     64  C   UNL A   1      45.552  26.836  37.490  1.00  0.00     0.020 A 
ATOM     65  C   UNL A   1      46.995  28.364  36.264  1.00  0.00     0.020 A 
ATOM     66  C   UNL A   1      46.828  27.251  37.091  1.00  0.00     0.054 A 
BRANCH  66  67
ATOM     67  S   UNL A   1      48.265  26.281  37.619  1.00  0.00     0.124 S 
ATOM     68  O   UNL A   1      47.818  24.913  37.362  1.00  0.00    -0.237 OA
ATOM     69  O   UNL A   1      49.322  26.772  36.736  1.00  0.00    -0.237 OA
ATOM     70  O   UNL A   1      48.423  26.631  39.025  1.00  0.00    -0.744 OA
ENDBRANCH  66  67
ENDBRANCH  40  61
ENDBRANCH  14  15
ENDBRANCH   7   9
ENDBRANCH   6   7
ENDBRANCH   5   6
ENDBRANCH   4   5
ENDBRANCH   3   4
ENDBRANCH   2   3
ENDBRANCH   1   2
BRANCH   1  71
ATOM     71  O   UNL A   1      35.267  31.378  27.922  1.00  0.00    -0.377 OA
BRANCH  71  72
ATOM     72  C   UNL A   1      34.998  30.027  28.309  1.00  0.00     0.188 C 
BRANCH  72  73
ATOM     73  C   UNL A   1      34.039  29.360  27.318  1.00  0.00     0.188 C 
BRANCH  73  74
ATOM     74  O   UNL A   1      34.640  28.546  26.314  1.00  0.00    -0.376 OA
BRANCH  74  75
ATOM     75  C   UNL A   1      33.771  27.861  25.422  1.00  0.00     0.202 C 
BRANCH  75  76
ATOM     76  C   UNL A   1      32.564  27.133  26.042  1.00  0.00     0.261 C 
BRANCH  76  77
ATOM     77  O   UNL A   1      32.184  25.897  25.391  1.00  0.00    -0.459 OA
BRANCH  77  78
ATOM     78  C   UNL A   1      32.021  24.819  26.196  1.00  0.00     0.364 C 
ATOM     79  O   UNL A   1      31.021  24.647  26.894  1.00  0.00    -0.245 OA
BRANCH  78  80
ATOM     80  C   UNL A   1      33.137  23.751  26.151  1.00  0.00     0.295 C 
ATOM     81  C   UNL A   1      33.627  23.139  27.465  1.00  0.00     0.078 C 
ATOM     82  N   UNL A   1      33.093  22.742  25.067  1.00  0.00    -0.318 N 
ATOM     83  C   UNL A   1      34.767  22.125  27.220  1.00  0.00     0.016 C 
ATOM     84  C   UNL A   1      34.456  22.297  24.722  1.00  0.00     0.187 C 
ATOM     85  H   UNL A   1      32.706  23.240  24.265  1.00  0.00     0.349 HD
ATOM     86  C   UNL A   1      35.463  22.405  25.904  1.00  0.00     0.048 C 
ATOM     87  C   UNL A   1      35.106  23.140  23.602  1.00  0.00     0.065 C 
ATOM     88  C   UNL A   1      36.672  21.539  25.563  1.00  0.00     0.010 C 
ATOM     89  C   UNL A   1      36.467  22.542  23.201  1.00  0.00     0.006 C 
ATOM     90  C   UNL A   1      37.396  22.163  24.370  1.00  0.00     0.001 C 
BRANCH  82  91
ATOM     91  C   UNL A   1      32.073  21.661  25.155  1.00  0.00     0.295 C 
BRANCH  91  92
ATOM     92  C   UNL A   1      32.124  20.066  24.992  1.00  0.00     0.173 C 
ATOM     93  C   UNL A   1      33.210  19.195  25.622  1.00  0.00     0.038 C 
ATOM     94  O   UNL A   1      31.596  19.504  23.794  1.00  0.00    -0.372 OA
ATOM     95  C   UNL A   1      34.191  18.458  24.730  1.00  0.00     0.005 C 
ATOM     96  C   UNL A   1      32.509  18.992  22.845  1.00  0.00     0.161 C 
ATOM     97  C   UNL A   1      33.679  18.155  23.340  1.00  0.00     0.029 C 
ENDBRANCH  91  92
ENDBRANCH  82  91
ENDBRANCH  78  80
ENDBRANCH  77  78
ENDBRANCH  76  77
ENDBRANCH  75  76
ENDBRANCH  74  75
ENDBRANCH  73  74
ENDBRANCH  72  73
ENDBRANCH  71  72
ENDBRANCH   1  71
TORSDOF 25
ENDMDL
MODEL 3
REMARK VINA RESULT:      -8.3      4.210     12.016
REMARK SMILES O=C(OCCOCCOCCOCCOC(=O)[C@H]1CC[C@H]2CCCC[C@@H]2[N@H+]1C[C@@H]1CCCCO1)c1ccc(-c2c3nc(c(-c4ccc(S(=O)(=O)[O-])cc4)c4ccc([nH]4)c(-c4ccc(S(=O)(=O)[O-])cc4)c4nc(c(-c5ccc(S(=O)(=O)[O-])cc5)c5ccc2[nH]5)C=C4)C=C3)cc1
REMARK SMILES IDX 8 1 7 2 6 3 5 4 4 5 3 6 2 7 1 8 35 9 36 10 94 11 37 12 93 13
REMARK SMILES IDX 38 14 39 15 40 16 87 17 41 18 92 19 86 20 88 21 42 22 91 23
REMARK SMILES IDX 85 24 84 25 43 27 73 28 54 29 72 30 55 31 58 32 71 33 89 34
REMARK SMILES IDX 56 35 57 36 70 38 90 39 59 40 44 41 45 42 53 43 46 44 52 45
REMARK SMILES IDX 47 46 48 47 49 48 50 49 51 50 74 51 75 52 83 53 76 54 82 55
REMARK SMILES IDX 77 56 78 57 79 58 80 59 81 60 60 61 61 62 69 63 62 64 68 65
REMARK SMILES IDX 63 66 64 67 65 68 66 69 67 70 9 71 10 72 11 73 12 74 13 75
REMARK SMILES IDX 14 76 15 77 16 78 17 79 18 80 19 81 27 82 20 83 26 84 21 86
REMARK SMILES IDX 25 87 22 88 24 89 23 90 28 91 29 92 30 93 34 94 31 95 33 96
REMARK SMILES IDX 32 97
REMARK H PARENT 88 26 58 37 27 85
REMARK Flexibility Score: inf
ROOT
ATOM      1  C   UNL A   1      43.745  23.164  28.387  1.00  0.00     0.188 C 
ENDROOT
BRANCH   1   2
ATOM      2  C   UNL A   1      42.645  22.667  27.452  1.00  0.00     0.188 C 
BRANCH   2   3
ATOM      3  O   UNL A   1      42.174  21.395  27.865  1.00  0.00    -0.376 OA
BRANCH   3   4
ATOM      4  C   UNL A   1      40.827  21.077  27.567  1.00  0.00     0.202 C 
BRANCH   4   5
ATOM      5  C   UNL A   1      40.421  21.578  26.185  1.00  0.00     0.261 C 
BRANCH   5   6
ATOM      6  O   UNL A   1      39.034  21.950  26.175  1.00  0.00    -0.460 OA
BRANCH   6   7
ATOM      7  C   UNL A   1      38.494  23.178  26.354  1.00  0.00     0.338 C 
ATOM      8  O   UNL A   1      37.314  23.338  26.038  1.00  0.00    -0.246 OA
BRANCH   7   9
ATOM      9  C   UNL A   1      39.216  24.355  26.941  1.00  0.00     0.060 A 
ATOM     10  C   UNL A   1      39.326  24.676  28.300  1.00  0.00     0.016 A 
ATOM     11  C   UNL A   1      39.921  25.158  26.025  1.00  0.00     0.016 A 
ATOM     12  C   UNL A   1      40.104  25.738  28.743  1.00  0.00     0.010 A 
ATOM     13  C   UNL A   1      40.685  26.245  26.455  1.00  0.00     0.010 A 
ATOM     14  C   UNL A   1      40.758  26.542  27.819  1.00  0.00    -0.014 A 
BRANCH  14  15
ATOM     15  C   UNL A   1      41.297  27.825  28.289  1.00  0.00     0.031 A 
ATOM     16  C   UNL A   1      42.784  27.997  28.232  1.00  0.00     0.074 A 
ATOM     17  C   UNL A   1      40.476  28.823  28.652  1.00  0.00     0.049 A 
ATOM     18  N   UNL A   1      43.522  28.984  28.653  1.00  0.00    -0.248 NA
ATOM     19  C   UNL A   1      43.542  26.898  27.603  1.00  0.00     0.031 C 
ATOM     20  C   UNL A   1      39.013  28.776  28.600  1.00  0.00     0.029 A 
ATOM     21  N   UNL A   1      40.758  30.074  29.128  1.00  0.00    -0.354 N 
ATOM     22  C   UNL A   1      44.831  28.611  28.375  1.00  0.00     0.074 A 
ATOM     23  C   UNL A   1      44.790  27.310  27.751  1.00  0.00     0.031 C 
ATOM     24  C   UNL A   1      38.525  29.946  29.048  1.00  0.00     0.029 A 
ATOM     25  C   UNL A   1      39.636  30.793  29.471  1.00  0.00     0.049 A 
ATOM     26  H   UNL A   1      41.673  30.427  29.216  1.00  0.00     0.167 HD
ATOM     27  C   UNL A   1      45.967  29.294  28.642  1.00  0.00     0.031 A 
ATOM     28  C   UNL A   1      39.536  31.977  30.103  1.00  0.00     0.031 A 
ATOM     29  C   UNL A   1      45.964  30.572  29.297  1.00  0.00     0.049 A 
ATOM     30  C   UNL A   1      40.813  32.680  30.484  1.00  0.00     0.074 A 
ATOM     31  C   UNL A   1      47.037  31.353  29.675  1.00  0.00     0.029 A 
ATOM     32  N   UNL A   1      44.811  31.249  29.681  1.00  0.00    -0.354 N 
ATOM     33  N   UNL A   1      42.055  32.306  30.264  1.00  0.00    -0.248 NA
ATOM     34  C   UNL A   1      40.686  33.954  31.199  1.00  0.00     0.031 C 
ATOM     35  C   UNL A   1      46.535  32.473  30.346  1.00  0.00     0.029 A 
ATOM     36  C   UNL A   1      45.147  32.427  30.318  1.00  0.00     0.049 A 
ATOM     37  H   UNL A   1      43.893  30.935  29.522  1.00  0.00     0.167 HD
ATOM     38  C   UNL A   1      42.857  33.307  30.797  1.00  0.00     0.074 A 
ATOM     39  C   UNL A   1      41.957  34.309  31.339  1.00  0.00     0.031 C 
ATOM     40  C   UNL A   1      44.210  33.395  30.840  1.00  0.00     0.031 A 
BRANCH  27  41
ATOM     41  C   UNL A   1      47.267  28.608  28.321  1.00  0.00    -0.014 A 
ATOM     42  C   UNL A   1      47.880  27.717  29.223  1.00  0.00     0.010 A 
ATOM     43  C   UNL A   1      47.922  28.915  27.115  1.00  0.00     0.010 A 
ATOM     44  C   UNL A   1      49.151  27.199  28.952  1.00  0.00     0.020 A 
ATOM     45  C   UNL A   1      49.178  28.374  26.826  1.00  0.00     0.020 A 
ATOM     46  C   UNL A   1      49.795  27.540  27.759  1.00  0.00     0.054 A 
BRANCH  46  47
ATOM     47  S   UNL A   1      51.454  26.877  27.447  1.00  0.00     0.124 S 
ATOM     48  O   UNL A   1      52.220  27.452  28.549  1.00  0.00    -0.237 OA
ATOM     49  O   UNL A   1      51.242  25.437  27.513  1.00  0.00    -0.237 OA
ATOM     50  O   UNL A   1      51.791  27.396  26.120  1.00  0.00    -0.744 OA
ENDBRANCH  46  47
ENDBRANCH  27  41
BRANCH  28  51
ATOM     51  C   UNL A   1      38.194  32.512  30.470  1.00  0.00    -0.014 A 
ATOM     52  C   UNL A   1      37.624  32.266  31.730  1.00  0.00     0.010 A 
ATOM     53  C   UNL A   1      37.488  33.317  29.553  1.00  0.00     0.010 A 
ATOM     54  C   UNL A   1      36.379  32.812  32.066  1.00  0.00     0.020 A 
ATOM     55  C   UNL A   1      36.260  33.888  29.894  1.00  0.00     0.020 A 
ATOM     56  C   UNL A   1      35.708  33.627  31.147  1.00  0.00     0.054 A 
BRANCH  56  57
ATOM     57  S   UNL A   1      34.127  34.379  31.627  1.00  0.00     0.124 S 
ATOM     58  O   UNL A   1      33.587  33.390  32.555  1.00  0.00    -0.237 OA
ATOM     59  O   UNL A   1      34.548  35.644  32.225  1.00  0.00    -0.237 OA
ATOM     60  O   UNL A   1      33.409  34.506  30.360  1.00  0.00    -0.744 OA
ENDBRANCH  56  57
ENDBRANCH  28  51
BRANCH  40  61
ATOM     61  C   UNL A   1      44.800  34.633  31.458  1.00  0.00    -0.014 A 
ATOM     62  C   UNL A   1      45.098  34.691  32.830  1.00  0.00     0.010 A 
ATOM     63  C   UNL A   1      45.154  35.710  30.626  1.00  0.00     0.010 A 
ATOM     64  C   UNL A   1      45.730  35.816  33.362  1.00  0.00     0.020 A 
ATOM     65  C   UNL A   1      45.814  36.823  31.148  1.00  0.00     0.020 A 
ATOM     66  C   UNL A   1      46.090  36.872  32.516  1.00  0.00     0.054 A 
BRANCH  66  67
ATOM     67  S   UNL A   1      46.981  38.286  33.216  1.00  0.00     0.124 S 
ATOM     68  O   UNL A   1      46.200  39.415  32.712  1.00  0.00    -0.237 OA
ATOM     69  O   UNL A   1      46.879  38.046  34.655  1.00  0.00    -0.237 OA
ATOM     70  O   UNL A   1      48.324  38.161  32.662  1.00  0.00    -0.744 OA
ENDBRANCH  66  67
ENDBRANCH  40  61
ENDBRANCH  14  15
ENDBRANCH   7   9
ENDBRANCH   6   7
ENDBRANCH   5   6
ENDBRANCH   4   5
ENDBRANCH   3   4
ENDBRANCH   2   3
ENDBRANCH   1   2
BRANCH   1  71
ATOM     71  O   UNL A   1      43.313  23.917  29.520  1.00  0.00    -0.377 OA
BRANCH  71  72
ATOM     72  C   UNL A   1      44.162  23.930  30.671  1.00  0.00     0.188 C 
BRANCH  72  73
ATOM     73  C   UNL A   1      44.962  25.235  30.741  1.00  0.00     0.188 C 
BRANCH  73  74
ATOM     74  O   UNL A   1      44.374  26.290  31.498  1.00  0.00    -0.376 OA
BRANCH  74  75
ATOM     75  C   UNL A   1      44.115  26.041  32.873  1.00  0.00     0.202 C 
BRANCH  75  76
ATOM     76  C   UNL A   1      43.954  27.269  33.789  1.00  0.00     0.261 C 
BRANCH  76  77
ATOM     77  O   UNL A   1      42.789  28.088  33.527  1.00  0.00    -0.459 OA
BRANCH  77  78
ATOM     78  C   UNL A   1      42.043  28.433  34.605  1.00  0.00     0.364 C 
ATOM     79  O   UNL A   1      41.555  27.606  35.377  1.00  0.00    -0.245 OA
BRANCH  78  80
ATOM     80  C   UNL A   1      41.880  29.946  34.875  1.00  0.00     0.295 C 
ATOM     81  C   UNL A   1      41.697  30.892  33.686  1.00  0.00     0.078 C 
ATOM     82  N   UNL A   1      41.053  30.362  36.031  1.00  0.00    -0.318 N 
ATOM     83  C   UNL A   1      41.591  32.361  34.152  1.00  0.00     0.016 C 
ATOM     84  C   UNL A   1      41.533  31.648  36.571  1.00  0.00     0.187 C 
ATOM     85  H   UNL A   1      41.210  29.641  36.735  1.00  0.00     0.349 HD
ATOM     86  C   UNL A   1      42.236  32.544  35.510  1.00  0.00     0.048 C 
ATOM     87  C   UNL A   1      42.595  31.483  37.681  1.00  0.00     0.065 C 
ATOM     88  C   UNL A   1      42.288  33.964  36.065  1.00  0.00     0.010 C 
ATOM     89  C   UNL A   1      42.954  32.851  38.289  1.00  0.00     0.006 C 
ATOM     90  C   UNL A   1      43.223  33.979  37.275  1.00  0.00     0.001 C 
BRANCH  82  91
ATOM     91  C   UNL A   1      39.574  30.230  35.920  1.00  0.00     0.295 C 
BRANCH  91  92
ATOM     92  C   UNL A   1      38.350  31.255  36.079  1.00  0.00     0.173 C 
ATOM     93  C   UNL A   1      38.308  32.622  35.396  1.00  0.00     0.038 C 
ATOM     94  O   UNL A   1      37.617  31.230  37.300  1.00  0.00    -0.372 OA
ATOM     95  C   UNL A   1      38.353  33.882  36.239  1.00  0.00     0.005 C 
ATOM     96  C   UNL A   1      37.798  32.301  38.203  1.00  0.00     0.161 C 
ATOM     97  C   UNL A   1      37.840  33.718  37.651  1.00  0.00     0.029 C 
ENDBRANCH  91  92
ENDBRANCH  82  91
ENDBRANCH  78  80
ENDBRANCH  77  78
ENDBRANCH  76  77
ENDBRANCH  75  76
ENDBRANCH  74  75
ENDBRANCH  73  74
ENDBRANCH  72  73
ENDBRANCH  71  72
ENDBRANCH   1  71
TORSDOF 25
ENDMDL
