MODEL 1
REMARK VINA RESULT:     -10.6      0.000      0.000
REMARK SMILES CC1(C)[C@@]2(C(=O)OCCOCCOCCOCCOC(=O)c3ccc(-c4c5nc(c(-c6ccc(S(=O)(=O)[O-])cc6)c6ccc([nH]6)c(-c6ccc(S(=O)(=O)[O-])cc6)c6nc(c(-c7ccc(S(=O)(=O)[O-])cc7)c7ccc4[nH]7)C=C6)C=C5)cc3)CC[C@]1(C)/C(=N/NC(=O)c1ccc(Cl)cc1)C2
REMARK SMILES IDX 14 1 13 2 12 3 11 4 10 5 9 6 8 7 7 8 5 9 6 10 4 11 1 12 2 13
REMARK SMILES IDX 3 14 84 15 82 16 98 17 83 18 85 19 86 20 87 21 88 22 89 23
REMARK SMILES IDX 90 25 91 26 92 27 97 28 93 29 96 30 94 31 95 32 15 33 16 34
REMARK SMILES IDX 17 35 18 36 19 37 20 38 21 39 22 40 23 41 81 42 24 43 80 44
REMARK SMILES IDX 25 45 26 46 27 47 74 48 28 49 79 50 73 51 75 52 29 53 78 54
REMARK SMILES IDX 72 55 71 56 30 58 60 59 41 60 59 61 42 62 45 63 58 64 76 65
REMARK SMILES IDX 43 66 44 67 57 69 77 70 46 71 31 72 32 73 40 74 33 75 39 76
REMARK SMILES IDX 34 77 35 78 36 79 37 80 38 81 61 82 62 83 70 84 63 85 69 86
REMARK SMILES IDX 64 87 65 88 66 89 67 90 68 91 47 92 48 93 56 94 49 95 55 96
REMARK SMILES IDX 50 97 51 98 52 99 53 100 54 101
REMARK H PARENT 88 24 75 57 45 68
REMARK Flexibility Score: inf
ROOT
ATOM      1  C   UNL A   1      35.966  21.663  25.335  1.00  0.00     0.188 C 
ENDROOT
BRANCH   1   2
ATOM      2  O   UNL A   1      35.351  20.448  24.970  1.00  0.00    -0.377 OA
BRANCH   2   3
ATOM      3  C   UNL A   1      34.206  19.970  25.642  1.00  0.00     0.188 C 
BRANCH   3   4
ATOM      4  C   UNL A   1      32.815  19.844  25.026  1.00  0.00     0.188 C 
BRANCH   4   5
ATOM      5  O   UNL A   1      32.356  20.826  24.116  1.00  0.00    -0.376 OA
BRANCH   5   6
ATOM      6  C   UNL A   1      31.835  22.076  24.561  1.00  0.00     0.202 C 
BRANCH   6   7
ATOM      7  C   UNL A   1      31.830  22.418  26.050  1.00  0.00     0.261 C 
BRANCH   7   8
ATOM      8  O   UNL A   1      32.180  23.795  26.310  1.00  0.00    -0.463 OA
BRANCH   8   9
ATOM      9  C   UNL A   1      31.153  24.679  26.255  1.00  0.00     0.313 C 
ATOM     10  O   UNL A   1      30.061  24.490  26.776  1.00  0.00    -0.252 OA
BRANCH   9  11
ATOM     11  C   UNL A   1      31.482  25.921  25.441  1.00  0.00     0.079 C 
ATOM     12  C   UNL A   1      30.860  24.804  23.156  1.00  0.00     0.013 C 
ATOM     13  C   UNL A   1      30.680  26.019  24.105  1.00  0.00    -0.008 C 
ATOM     14  C   UNL A   1      29.165  26.246  24.282  1.00  0.00     0.013 C 
ATOM     15  C   UNL A   1      31.471  27.280  23.650  1.00  0.00     0.014 C 
ATOM     16  C   UNL A   1      32.963  25.900  24.953  1.00  0.00     0.021 C 
ATOM     17  C   UNL A   1      31.262  27.312  26.107  1.00  0.00     0.073 C 
ATOM     18  C   UNL A   1      32.943  26.819  23.711  1.00  0.00     0.014 C 
ATOM     19  C   UNL A   1      31.036  27.913  22.343  1.00  0.00     0.018 C 
ATOM     20  C   UNL A   1      31.335  28.190  24.892  1.00  0.00     0.046 C 
ATOM     21  N   UNL A   1      31.310  29.468  24.714  1.00  0.00    -0.181 NA
BRANCH  21  22
ATOM     22  N   UNL A   1      31.186  30.518  25.552  1.00  0.00    -0.243 N 
ATOM     23  C   UNL A   1      31.880  31.166  26.543  1.00  0.00     0.271 C 
ATOM     24  H   UNL A   1      30.319  30.961  25.406  1.00  0.00     0.194 HD
ATOM     25  O   UNL A   1      31.321  32.086  27.147  1.00  0.00    -0.267 OA
BRANCH  23  26
ATOM     26  C   UNL A   1      33.248  30.853  26.941  1.00  0.00     0.041 A 
ATOM     27  C   UNL A   1      33.646  29.511  26.892  1.00  0.00     0.015 A 
ATOM     28  C   UNL A   1      34.107  31.830  27.452  1.00  0.00     0.015 A 
ATOM     29  C   UNL A   1      34.956  29.164  27.218  1.00  0.00     0.021 A 
ATOM     30  C   UNL A   1      35.429  31.481  27.755  1.00  0.00     0.021 A 
ATOM     31  C   UNL A   1      35.854  30.158  27.603  1.00  0.00     0.041 A 
ATOM     32  Cl  UNL A   1      37.507  29.753  27.842  1.00  0.00    -0.084 Cl
ENDBRANCH  23  26
ENDBRANCH  21  22
ENDBRANCH   9  11
ENDBRANCH   8   9
ENDBRANCH   7   8
ENDBRANCH   6   7
ENDBRANCH   5   6
ENDBRANCH   4   5
ENDBRANCH   3   4
ENDBRANCH   2   3
ENDBRANCH   1   2
BRANCH   1  33
ATOM     33  C   UNL A   1      37.469  21.756  25.076  1.00  0.00     0.188 C 
BRANCH  33  34
ATOM     34  O   UNL A   1      38.285  22.601  25.885  1.00  0.00    -0.376 OA
BRANCH  34  35
ATOM     35  C   UNL A   1      39.469  22.078  26.462  1.00  0.00     0.202 C 
BRANCH  35  36
ATOM     36  C   UNL A   1      40.365  23.170  27.066  1.00  0.00     0.261 C 
BRANCH  36  37
ATOM     37  O   UNL A   1      39.672  24.370  27.445  1.00  0.00    -0.460 OA
BRANCH  37  38
ATOM     38  C   UNL A   1      40.300  25.520  27.112  1.00  0.00     0.338 C 
ATOM     39  O   UNL A   1      40.987  25.739  26.114  1.00  0.00    -0.246 OA
BRANCH  38  40
ATOM     40  C   UNL A   1      40.001  26.564  28.105  1.00  0.00     0.060 A 
ATOM     41  C   UNL A   1      40.667  27.793  28.020  1.00  0.00     0.016 A 
ATOM     42  C   UNL A   1      39.150  26.288  29.177  1.00  0.00     0.016 A 
ATOM     43  C   UNL A   1      40.524  28.733  29.041  1.00  0.00     0.010 A 
ATOM     44  C   UNL A   1      39.019  27.225  30.205  1.00  0.00     0.010 A 
ATOM     45  C   UNL A   1      39.742  28.431  30.163  1.00  0.00    -0.014 A 
BRANCH  45  46
ATOM     46  C   UNL A   1      39.839  29.278  31.378  1.00  0.00     0.031 A 
ATOM     47  C   UNL A   1      40.985  29.044  32.328  1.00  0.00     0.074 A 
ATOM     48  C   UNL A   1      38.946  30.253  31.622  1.00  0.00     0.049 A 
ATOM     49  N   UNL A   1      41.253  29.633  33.465  1.00  0.00    -0.248 NA
ATOM     50  C   UNL A   1      41.959  28.009  31.942  1.00  0.00     0.031 C 
ATOM     51  C   UNL A   1      37.827  30.612  30.753  1.00  0.00     0.029 A 
ATOM     52  N   UNL A   1      38.843  31.119  32.682  1.00  0.00    -0.354 N 
ATOM     53  C   UNL A   1      42.420  29.036  33.933  1.00  0.00     0.074 A 
ATOM     54  C   UNL A   1      42.790  28.020  32.973  1.00  0.00     0.031 C 
ATOM     55  C   UNL A   1      37.144  31.623  31.318  1.00  0.00     0.029 A 
ATOM     56  C   UNL A   1      37.756  31.957  32.604  1.00  0.00     0.049 A 
ATOM     57  H   UNL A   1      39.485  31.139  33.427  1.00  0.00     0.167 HD
ATOM     58  C   UNL A   1      43.123  29.313  35.056  1.00  0.00     0.031 A 
ATOM     59  C   UNL A   1      37.296  32.873  33.480  1.00  0.00     0.031 A 
ATOM     60  C   UNL A   1      42.740  30.312  36.019  1.00  0.00     0.049 A 
ATOM     61  C   UNL A   1      38.045  33.103  34.768  1.00  0.00     0.074 A 
ATOM     62  C   UNL A   1      43.386  30.671  37.189  1.00  0.00     0.029 A 
ATOM     63  N   UNL A   1      41.608  31.106  35.927  1.00  0.00    -0.354 N 
ATOM     64  N   UNL A   1      39.153  32.539  35.191  1.00  0.00    -0.248 NA
ATOM     65  C   UNL A   1      37.485  34.097  35.694  1.00  0.00     0.031 C 
ATOM     66  C   UNL A   1      42.610  31.639  37.835  1.00  0.00     0.029 A 
ATOM     67  C   UNL A   1      41.519  31.935  37.033  1.00  0.00     0.049 A 
ATOM     68  H   UNL A   1      40.961  31.084  35.185  1.00  0.00     0.167 HD
ATOM     69  C   UNL A   1      39.437  33.134  36.418  1.00  0.00     0.074 A 
ATOM     70  C   UNL A   1      38.392  34.107  36.662  1.00  0.00     0.031 C 
ATOM     71  C   UNL A   1      40.472  32.898  37.263  1.00  0.00     0.031 A 
BRANCH  58  72
ATOM     72  C   UNL A   1      44.360  28.494  35.323  1.00  0.00    -0.014 A 
ATOM     73  C   UNL A   1      44.303  27.309  36.079  1.00  0.00     0.010 A 
ATOM     74  C   UNL A   1      45.593  28.900  34.781  1.00  0.00     0.010 A 
ATOM     75  C   UNL A   1      45.462  26.566  36.320  1.00  0.00     0.020 A 
ATOM     76  C   UNL A   1      46.750  28.145  34.996  1.00  0.00     0.020 A 
ATOM     77  C   UNL A   1      46.679  26.991  35.778  1.00  0.00     0.054 A 
BRANCH  77  78
ATOM     78  S   UNL A   1      48.164  25.996  36.089  1.00  0.00     0.124 S 
ATOM     79  O   UNL A   1      47.884  24.787  35.318  1.00  0.00    -0.237 OA
ATOM     80  O   UNL A   1      49.233  26.842  35.563  1.00  0.00    -0.237 OA
ATOM     81  O   UNL A   1      48.168  25.821  37.540  1.00  0.00    -0.744 OA
ENDBRANCH  77  78
ENDBRANCH  58  72
BRANCH  59  82
ATOM     82  C   UNL A   1      36.050  33.632  33.177  1.00  0.00    -0.014 A 
ATOM     83  C   UNL A   1      34.787  33.058  33.399  1.00  0.00     0.010 A 
ATOM     84  C   UNL A   1      36.125  34.941  32.667  1.00  0.00     0.010 A 
ATOM     85  C   UNL A   1      33.622  33.775  33.107  1.00  0.00     0.020 A 
ATOM     86  C   UNL A   1      34.964  35.672  32.402  1.00  0.00     0.020 A 
ATOM     87  C   UNL A   1      33.718  35.081  32.616  1.00  0.00     0.054 A 
BRANCH  87  88
ATOM     88  S   UNL A   1      32.193  36.014  32.308  1.00  0.00     0.124 S 
ATOM     89  O   UNL A   1      31.165  35.006  32.548  1.00  0.00    -0.237 OA
ATOM     90  O   UNL A   1      32.275  37.086  33.296  1.00  0.00    -0.237 OA
ATOM     91  O   UNL A   1      32.333  36.447  30.919  1.00  0.00    -0.744 OA
ENDBRANCH  87  88
ENDBRANCH  59  82
BRANCH  71  92
ATOM     92  C   UNL A   1      40.554  33.731  38.517  1.00  0.00    -0.014 A 
ATOM     93  C   UNL A   1      39.722  33.478  39.622  1.00  0.00     0.010 A 
ATOM     94  C   UNL A   1      41.525  34.746  38.611  1.00  0.00     0.010 A 
ATOM     95  C   UNL A   1      39.840  34.244  40.785  1.00  0.00     0.020 A 
ATOM     96  C   UNL A   1      41.667  35.493  39.782  1.00  0.00     0.020 A 
ATOM     97  C   UNL A   1      40.812  35.247  40.859  1.00  0.00     0.054 A 
BRANCH  97  98
ATOM     98  S   UNL A   1      40.974  36.196  42.395  1.00  0.00     0.124 S 
ATOM     99  O   UNL A   1      41.891  37.261  41.999  1.00  0.00    -0.237 OA
ATOM    100  O   UNL A   1      39.600  36.617  42.659  1.00  0.00    -0.237 OA
ATOM    101  O   UNL A   1      41.517  35.229  43.346  1.00  0.00    -0.744 OA
ENDBRANCH  97  98
ENDBRANCH  71  92
ENDBRANCH  45  46
ENDBRANCH  38  40
ENDBRANCH  37  38
ENDBRANCH  36  37
ENDBRANCH  35  36
ENDBRANCH  34  35
ENDBRANCH  33  34
ENDBRANCH   1  33
TORSDOF 25
ENDMDL
MODEL 2
REMARK VINA RESULT:      -9.6      1.645      2.539
REMARK SMILES CC1(C)[C@@]2(C(=O)OCCOCCOCCOCCOC(=O)c3ccc(-c4c5nc(c(-c6ccc(S(=O)(=O)[O-])cc6)c6ccc([nH]6)c(-c6ccc(S(=O)(=O)[O-])cc6)c6nc(c(-c7ccc(S(=O)(=O)[O-])cc7)c7ccc4[nH]7)C=C6)C=C5)cc3)CC[C@]1(C)/C(=N/NC(=O)c1ccc(Cl)cc1)C2
REMARK SMILES IDX 14 1 13 2 12 3 11 4 10 5 9 6 8 7 7 8 5 9 6 10 4 11 1 12 2 13
REMARK SMILES IDX 3 14 84 15 82 16 98 17 83 18 85 19 86 20 87 21 88 22 89 23
REMARK SMILES IDX 90 25 91 26 92 27 97 28 93 29 96 30 94 31 95 32 15 33 16 34
REMARK SMILES IDX 17 35 18 36 19 37 20 38 21 39 22 40 23 41 81 42 24 43 80 44
REMARK SMILES IDX 25 45 26 46 27 47 74 48 28 49 79 50 73 51 75 52 29 53 78 54
REMARK SMILES IDX 72 55 71 56 30 58 60 59 41 60 59 61 42 62 45 63 58 64 76 65
REMARK SMILES IDX 43 66 44 67 57 69 77 70 46 71 31 72 32 73 40 74 33 75 39 76
REMARK SMILES IDX 34 77 35 78 36 79 37 80 38 81 61 82 62 83 70 84 63 85 69 86
REMARK SMILES IDX 64 87 65 88 66 89 67 90 68 91 47 92 48 93 56 94 49 95 55 96
REMARK SMILES IDX 50 97 51 98 52 99 53 100 54 101
REMARK H PARENT 88 24 75 57 45 68
REMARK Flexibility Score: inf
ROOT
ATOM      1  C   UNL A   1      36.441  19.921  25.039  1.00  0.00     0.188 C 
ENDROOT
BRANCH   1   2
ATOM      2  O   UNL A   1      36.488  18.628  24.478  1.00  0.00    -0.377 OA
BRANCH   2   3
ATOM      3  C   UNL A   1      35.721  17.567  25.005  1.00  0.00     0.188 C 
BRANCH   3   4
ATOM      4  C   UNL A   1      34.562  16.881  24.286  1.00  0.00     0.188 C 
BRANCH   4   5
ATOM      5  O   UNL A   1      33.681  17.643  23.484  1.00  0.00    -0.376 OA
BRANCH   5   6
ATOM      6  C   UNL A   1      32.534  18.288  24.033  1.00  0.00     0.202 C 
BRANCH   6   7
ATOM      7  C   UNL A   1      32.695  19.321  25.147  1.00  0.00     0.261 C 
BRANCH   7   8
ATOM      8  O   UNL A   1      31.806  20.449  24.997  1.00  0.00    -0.463 OA
BRANCH   8   9
ATOM      9  C   UNL A   1      32.135  21.327  24.016  1.00  0.00     0.313 C 
ATOM     10  O   UNL A   1      32.433  20.995  22.876  1.00  0.00    -0.252 OA
BRANCH   9  11
ATOM     11  C   UNL A   1      32.136  22.772  24.488  1.00  0.00     0.079 C 
ATOM     12  C   UNL A   1      34.403  22.536  25.777  1.00  0.00     0.013 C 
ATOM     13  C   UNL A   1      33.567  23.342  24.747  1.00  0.00    -0.008 C 
ATOM     14  C   UNL A   1      34.429  23.505  23.479  1.00  0.00     0.013 C 
ATOM     15  C   UNL A   1      33.001  24.675  25.317  1.00  0.00     0.014 C 
ATOM     16  C   UNL A   1      31.453  22.911  25.884  1.00  0.00     0.021 C 
ATOM     17  C   UNL A   1      31.472  23.842  23.571  1.00  0.00     0.073 C 
ATOM     18  C   UNL A   1      32.068  24.208  26.455  1.00  0.00     0.014 C 
ATOM     19  C   UNL A   1      34.020  25.731  25.697  1.00  0.00     0.018 C 
ATOM     20  C   UNL A   1      32.016  25.091  24.202  1.00  0.00     0.046 C 
ATOM     21  N   UNL A   1      31.819  26.349  23.998  1.00  0.00    -0.181 NA
BRANCH  21  22
ATOM     22  N   UNL A   1      31.063  27.039  23.119  1.00  0.00    -0.243 N 
ATOM     23  C   UNL A   1      30.459  28.263  22.979  1.00  0.00     0.271 C 
ATOM     24  H   UNL A   1      30.888  26.487  22.323  1.00  0.00     0.194 HD
ATOM     25  O   UNL A   1      29.741  28.456  21.993  1.00  0.00    -0.267 OA
BRANCH  23  26
ATOM     26  C   UNL A   1      30.603  29.374  23.914  1.00  0.00     0.041 A 
ATOM     27  C   UNL A   1      31.548  29.239  24.939  1.00  0.00     0.015 A 
ATOM     28  C   UNL A   1      29.766  30.491  23.863  1.00  0.00     0.015 A 
ATOM     29  C   UNL A   1      31.757  30.289  25.830  1.00  0.00     0.021 A 
ATOM     30  C   UNL A   1      29.996  31.554  24.746  1.00  0.00     0.021 A 
ATOM     31  C   UNL A   1      31.012  31.460  25.700  1.00  0.00     0.041 A 
ATOM     32  Cl  UNL A   1      31.387  32.812  26.693  1.00  0.00    -0.084 Cl
ENDBRANCH  23  26
ENDBRANCH  21  22
ENDBRANCH   9  11
ENDBRANCH   8   9
ENDBRANCH   7   8
ENDBRANCH   6   7
ENDBRANCH   5   6
ENDBRANCH   4   5
ENDBRANCH   3   4
ENDBRANCH   2   3
ENDBRANCH   1   2
BRANCH   1  33
ATOM     33  C   UNL A   1      37.692  20.777  24.852  1.00  0.00     0.188 C 
BRANCH  33  34
ATOM     34  O   UNL A   1      38.336  21.362  25.983  1.00  0.00    -0.376 OA
BRANCH  34  35
ATOM     35  C   UNL A   1      39.307  22.375  25.782  1.00  0.00     0.202 C 
BRANCH  35  36
ATOM     36  C   UNL A   1      39.380  23.366  26.954  1.00  0.00     0.261 C 
BRANCH  36  37
ATOM     37  O   UNL A   1      39.081  24.727  26.604  1.00  0.00    -0.460 OA
BRANCH  37  38
ATOM     38  C   UNL A   1      40.117  25.587  26.726  1.00  0.00     0.338 C 
ATOM     39  O   UNL A   1      41.152  25.616  26.059  1.00  0.00    -0.246 OA
BRANCH  38  40
ATOM     40  C   UNL A   1      39.826  26.584  27.768  1.00  0.00     0.060 A 
ATOM     41  C   UNL A   1      40.381  27.865  27.658  1.00  0.00     0.016 A 
ATOM     42  C   UNL A   1      39.098  26.219  28.903  1.00  0.00     0.016 A 
ATOM     43  C   UNL A   1      40.255  28.771  28.711  1.00  0.00     0.010 A 
ATOM     44  C   UNL A   1      38.984  27.122  29.962  1.00  0.00     0.010 A 
ATOM     45  C   UNL A   1      39.602  28.384  29.890  1.00  0.00    -0.014 A 
BRANCH  45  46
ATOM     46  C   UNL A   1      39.738  29.213  31.113  1.00  0.00     0.031 A 
ATOM     47  C   UNL A   1      40.904  28.952  32.032  1.00  0.00     0.074 A 
ATOM     48  C   UNL A   1      38.864  30.195  31.392  1.00  0.00     0.049 A 
ATOM     49  N   UNL A   1      41.207  29.521  33.170  1.00  0.00    -0.248 NA
ATOM     50  C   UNL A   1      41.855  27.911  31.608  1.00  0.00     0.031 C 
ATOM     51  C   UNL A   1      37.729  30.580  30.555  1.00  0.00     0.029 A 
ATOM     52  N   UNL A   1      38.797  31.048  32.465  1.00  0.00    -0.354 N 
ATOM     53  C   UNL A   1      42.376  28.904  33.601  1.00  0.00     0.074 A 
ATOM     54  C   UNL A   1      42.711  27.897  32.619  1.00  0.00     0.031 C 
ATOM     55  C   UNL A   1      37.073  31.592  31.150  1.00  0.00     0.029 A 
ATOM     56  C   UNL A   1      37.719  31.900  32.425  1.00  0.00     0.049 A 
ATOM     57  H   UNL A   1      39.458  31.050  33.195  1.00  0.00     0.167 HD
ATOM     58  C   UNL A   1      43.110  29.157  34.711  1.00  0.00     0.031 A 
ATOM     59  C   UNL A   1      37.292  32.810  33.324  1.00  0.00     0.031 A 
ATOM     60  C   UNL A   1      42.763  30.147  35.696  1.00  0.00     0.049 A 
ATOM     61  C   UNL A   1      38.075  33.012  34.597  1.00  0.00     0.074 A 
ATOM     62  C   UNL A   1      43.441  30.482  36.855  1.00  0.00     0.029 A 
ATOM     63  N   UNL A   1      41.639  30.956  35.642  1.00  0.00    -0.354 N 
ATOM     64  N   UNL A   1      39.185  32.429  34.985  1.00  0.00    -0.248 NA
ATOM     65  C   UNL A   1      37.549  34.001  35.549  1.00  0.00     0.031 C 
ATOM     66  C   UNL A   1      42.692  31.451  37.533  1.00  0.00     0.029 A 
ATOM     67  C   UNL A   1      41.587  31.770  36.761  1.00  0.00     0.049 A 
ATOM     68  H   UNL A   1      40.974  30.953  34.915  1.00  0.00     0.167 HD
ATOM     69  C   UNL A   1      39.505  33.003  36.213  1.00  0.00     0.074 A 
ATOM     70  C   UNL A   1      38.479  33.985  36.495  1.00  0.00     0.031 C 
ATOM     71  C   UNL A   1      40.558  32.744  37.030  1.00  0.00     0.031 A 
BRANCH  58  72
ATOM     72  C   UNL A   1      44.342  28.319  34.937  1.00  0.00    -0.014 A 
ATOM     73  C   UNL A   1      44.268  27.065  35.569  1.00  0.00     0.010 A 
ATOM     74  C   UNL A   1      45.590  28.782  34.481  1.00  0.00     0.010 A 
ATOM     75  C   UNL A   1      45.423  26.305  35.773  1.00  0.00     0.020 A 
ATOM     76  C   UNL A   1      46.744  28.012  34.659  1.00  0.00     0.020 A 
ATOM     77  C   UNL A   1      46.655  26.786  35.319  1.00  0.00     0.054 A 
BRANCH  77  78
ATOM     78  S   UNL A   1      48.135  25.769  35.579  1.00  0.00     0.124 S 
ATOM     79  O   UNL A   1      49.169  26.784  35.771  1.00  0.00    -0.237 OA
ATOM     80  O   UNL A   1      47.787  24.995  36.768  1.00  0.00    -0.237 OA
ATOM     81  O   UNL A   1      48.246  24.994  34.345  1.00  0.00    -0.744 OA
ENDBRANCH  77  78
ENDBRANCH  58  72
BRANCH  59  82
ATOM     82  C   UNL A   1      36.049  33.587  33.062  1.00  0.00    -0.014 A 
ATOM     83  C   UNL A   1      34.785  33.031  33.318  1.00  0.00     0.010 A 
ATOM     84  C   UNL A   1      36.128  34.898  32.556  1.00  0.00     0.010 A 
ATOM     85  C   UNL A   1      33.622  33.766  33.064  1.00  0.00     0.020 A 
ATOM     86  C   UNL A   1      34.970  35.647  32.328  1.00  0.00     0.020 A 
ATOM     87  C   UNL A   1      33.722  35.072  32.576  1.00  0.00     0.054 A 
BRANCH  87  88
ATOM     88  S   UNL A   1      32.203  36.029  32.317  1.00  0.00     0.124 S 
ATOM     89  O   UNL A   1      31.168  35.049  32.633  1.00  0.00    -0.237 OA
ATOM     90  O   UNL A   1      32.353  37.124  33.273  1.00  0.00    -0.237 OA
ATOM     91  O   UNL A   1      32.284  36.425  30.912  1.00  0.00    -0.744 OA
ENDBRANCH  87  88
ENDBRANCH  59  82
BRANCH  71  92
ATOM     92  C   UNL A   1      40.680  33.557  38.292  1.00  0.00    -0.014 A 
ATOM     93  C   UNL A   1      39.827  33.343  39.389  1.00  0.00     0.010 A 
ATOM     94  C   UNL A   1      41.709  34.512  38.402  1.00  0.00     0.010 A 
ATOM     95  C   UNL A   1      39.982  34.090  40.561  1.00  0.00     0.020 A 
ATOM     96  C   UNL A   1      41.886  35.238  39.582  1.00  0.00     0.020 A 
ATOM     97  C   UNL A   1      41.011  35.033  40.650  1.00  0.00     0.054 A 
BRANCH  97  98
ATOM     98  S   UNL A   1      41.218  35.956  42.198  1.00  0.00     0.124 S 
ATOM     99  O   UNL A   1      42.597  36.425  42.089  1.00  0.00    -0.237 OA
ATOM    100  O   UNL A   1      40.192  36.992  42.093  1.00  0.00    -0.237 OA
ATOM    101  O   UNL A   1      40.981  34.955  43.235  1.00  0.00    -0.744 OA
ENDBRANCH  97  98
ENDBRANCH  71  92
ENDBRANCH  45  46
ENDBRANCH  38  40
ENDBRANCH  37  38
ENDBRANCH  36  37
ENDBRANCH  35  36
ENDBRANCH  34  35
ENDBRANCH  33  34
ENDBRANCH   1  33
TORSDOF 25
ENDMDL
MODEL 3
REMARK VINA RESULT:      -9.4      4.314      7.965
REMARK SMILES CC1(C)[C@@]2(C(=O)OCCOCCOCCOCCOC(=O)c3ccc(-c4c5nc(c(-c6ccc(S(=O)(=O)[O-])cc6)c6ccc([nH]6)c(-c6ccc(S(=O)(=O)[O-])cc6)c6nc(c(-c7ccc(S(=O)(=O)[O-])cc7)c7ccc4[nH]7)C=C6)C=C5)cc3)CC[C@]1(C)/C(=N/NC(=O)c1ccc(Cl)cc1)C2
REMARK SMILES IDX 14 1 13 2 12 3 11 4 10 5 9 6 8 7 7 8 5 9 6 10 4 11 1 12 2 13
REMARK SMILES IDX 3 14 84 15 82 16 98 17 83 18 85 19 86 20 87 21 88 22 89 23
REMARK SMILES IDX 90 25 91 26 92 27 97 28 93 29 96 30 94 31 95 32 15 33 16 34
REMARK SMILES IDX 17 35 18 36 19 37 20 38 21 39 22 40 23 41 81 42 24 43 80 44
REMARK SMILES IDX 25 45 26 46 27 47 74 48 28 49 79 50 73 51 75 52 29 53 78 54
REMARK SMILES IDX 72 55 71 56 30 58 60 59 41 60 59 61 42 62 45 63 58 64 76 65
REMARK SMILES IDX 43 66 44 67 57 69 77 70 46 71 31 72 32 73 40 74 33 75 39 76
REMARK SMILES IDX 34 77 35 78 36 79 37 80 38 81 61 82 62 83 70 84 63 85 69 86
REMARK SMILES IDX 64 87 65 88 66 89 67 90 68 91 47 92 48 93 56 94 49 95 55 96
REMARK SMILES IDX 50 97 51 98 52 99 53 100 54 101
REMARK H PARENT 88 24 75 57 45 68
REMARK Flexibility Score: inf
ROOT
ATOM      1  C   UNL A   1      33.898  29.140  27.285  1.00  0.00     0.188 C 
ENDROOT
BRANCH   1   2
ATOM      2  O   UNL A   1      33.327  27.931  26.837  1.00  0.00    -0.377 OA
BRANCH   2   3
ATOM      3  C   UNL A   1      31.978  27.611  27.099  1.00  0.00     0.188 C 
BRANCH   3   4
ATOM      4  C   UNL A   1      31.161  26.568  26.341  1.00  0.00     0.188 C 
BRANCH   4   5
ATOM      5  O   UNL A   1      30.679  25.423  27.019  1.00  0.00    -0.376 OA
BRANCH   5   6
ATOM      6  C   UNL A   1      29.828  24.476  26.380  1.00  0.00     0.202 C 
BRANCH   6   7
ATOM      7  C   UNL A   1      29.904  22.998  26.760  1.00  0.00     0.261 C 
BRANCH   7   8
ATOM      8  O   UNL A   1      31.029  22.322  26.159  1.00  0.00    -0.463 OA
BRANCH   8   9
ATOM      9  C   UNL A   1      32.247  22.662  26.652  1.00  0.00     0.313 C 
ATOM     10  O   UNL A   1      32.552  22.575  27.834  1.00  0.00    -0.252 OA
BRANCH   9  11
ATOM     11  C   UNL A   1      33.188  23.205  25.588  1.00  0.00     0.079 C 
ATOM     12  C   UNL A   1      35.195  21.701  26.340  1.00  0.00     0.013 C 
ATOM     13  C   UNL A   1      34.304  22.197  25.170  1.00  0.00    -0.008 C 
ATOM     14  C   UNL A   1      33.792  20.950  24.420  1.00  0.00     0.013 C 
ATOM     15  C   UNL A   1      35.004  23.251  24.264  1.00  0.00     0.014 C 
ATOM     16  C   UNL A   1      34.006  24.420  26.125  1.00  0.00     0.021 C 
ATOM     17  C   UNL A   1      32.573  23.660  24.231  1.00  0.00     0.073 C 
ATOM     18  C   UNL A   1      35.261  24.432  25.224  1.00  0.00     0.014 C 
ATOM     19  C   UNL A   1      36.209  22.770  23.479  1.00  0.00     0.018 C 
ATOM     20  C   UNL A   1      33.821  23.748  23.402  1.00  0.00     0.046 C 
ATOM     21  N   UNL A   1      34.064  24.136  22.197  1.00  0.00    -0.181 NA
BRANCH  21  22
ATOM     22  N   UNL A   1      33.285  24.597  21.197  1.00  0.00    -0.243 N 
ATOM     23  C   UNL A   1      32.353  25.573  20.948  1.00  0.00     0.271 C 
ATOM     24  H   UNL A   1      33.431  24.060  20.384  1.00  0.00     0.194 HD
ATOM     25  O   UNL A   1      31.786  25.580  19.852  1.00  0.00    -0.267 OA
BRANCH  23  26
ATOM     26  C   UNL A   1      31.976  26.622  21.890  1.00  0.00     0.041 A 
ATOM     27  C   UNL A   1      32.997  27.440  22.391  1.00  0.00     0.015 A 
ATOM     28  C   UNL A   1      30.667  26.752  22.361  1.00  0.00     0.015 A 
ATOM     29  C   UNL A   1      32.684  28.486  23.257  1.00  0.00     0.021 A 
ATOM     30  C   UNL A   1      30.353  27.819  23.212  1.00  0.00     0.021 A 
ATOM     31  C   UNL A   1      31.358  28.699  23.626  1.00  0.00     0.041 A 
ATOM     32  Cl  UNL A   1      30.954  30.086  24.558  1.00  0.00    -0.084 Cl
ENDBRANCH  23  26
ENDBRANCH  21  22
ENDBRANCH   9  11
ENDBRANCH   8   9
ENDBRANCH   7   8
ENDBRANCH   6   7
ENDBRANCH   5   6
ENDBRANCH   4   5
ENDBRANCH   3   4
ENDBRANCH   2   3
ENDBRANCH   1   2
BRANCH   1  33
ATOM     33  C   UNL A   1      32.986  30.365  27.248  1.00  0.00     0.188 C 
BRANCH  33  34
ATOM     34  O   UNL A   1      33.524  31.652  26.951  1.00  0.00    -0.376 OA
BRANCH  34  35
ATOM     35  C   UNL A   1      34.034  32.451  28.005  1.00  0.00     0.202 C 
BRANCH  35  36
ATOM     36  C   UNL A   1      33.484  33.886  27.979  1.00  0.00     0.261 C 
BRANCH  36  37
ATOM     37  O   UNL A   1      34.044  34.758  28.974  1.00  0.00    -0.460 OA
BRANCH  37  38
ATOM     38  C   UNL A   1      33.368  34.796  30.145  1.00  0.00     0.338 C 
ATOM     39  O   UNL A   1      32.162  34.978  30.310  1.00  0.00    -0.246 OA
BRANCH  38  40
ATOM     40  C   UNL A   1      34.281  34.517  31.264  1.00  0.00     0.060 A 
ATOM     41  C   UNL A   1      34.629  35.558  32.133  1.00  0.00     0.016 A 
ATOM     42  C   UNL A   1      34.875  33.258  31.387  1.00  0.00     0.016 A 
ATOM     43  C   UNL A   1      35.617  35.358  33.098  1.00  0.00     0.010 A 
ATOM     44  C   UNL A   1      35.873  33.064  32.344  1.00  0.00     0.010 A 
ATOM     45  C   UNL A   1      36.281  34.126  33.172  1.00  0.00    -0.014 A 
BRANCH  45  46
ATOM     46  C   UNL A   1      37.529  34.008  33.966  1.00  0.00     0.031 A 
ATOM     47  C   UNL A   1      38.850  34.159  33.256  1.00  0.00     0.074 A 
ATOM     48  C   UNL A   1      37.494  33.801  35.293  1.00  0.00     0.049 A 
ATOM     49  N   UNL A   1      40.063  34.059  33.732  1.00  0.00    -0.248 NA
ATOM     50  C   UNL A   1      38.791  34.463  31.816  1.00  0.00     0.031 C 
ATOM     51  C   UNL A   1      36.281  33.694  36.102  1.00  0.00     0.029 A 
ATOM     52  N   UNL A   1      38.517  33.641  36.195  1.00  0.00    -0.354 N 
ATOM     53  C   UNL A   1      40.912  34.281  32.653  1.00  0.00     0.074 A 
ATOM     54  C   UNL A   1      40.075  34.489  31.491  1.00  0.00     0.031 C 
ATOM     55  C   UNL A   1      36.629  33.479  37.383  1.00  0.00     0.029 A 
ATOM     56  C   UNL A   1      38.087  33.397  37.478  1.00  0.00     0.049 A 
ATOM     57  H   UNL A   1      39.468  33.694  35.948  1.00  0.00     0.167 HD
ATOM     58  C   UNL A   1      42.266  34.315  32.630  1.00  0.00     0.031 A 
ATOM     59  C   UNL A   1      38.788  33.120  38.596  1.00  0.00     0.031 A 
ATOM     60  C   UNL A   1      43.096  34.088  33.784  1.00  0.00     0.049 A 
ATOM     61  C   UNL A   1      40.293  33.074  38.529  1.00  0.00     0.074 A 
ATOM     62  C   UNL A   1      44.477  34.103  33.867  1.00  0.00     0.029 A 
ATOM     63  N   UNL A   1      42.621  33.799  35.054  1.00  0.00    -0.354 N 
ATOM     64  N   UNL A   1      41.082  33.297  37.504  1.00  0.00    -0.248 NA
ATOM     65  C   UNL A   1      41.003  32.744  39.773  1.00  0.00     0.031 C 
ATOM     66  C   UNL A   1      44.838  33.761  35.174  1.00  0.00     0.029 A 
ATOM     67  C   UNL A   1      43.683  33.603  35.923  1.00  0.00     0.049 A 
ATOM     68  H   UNL A   1      41.670  33.740  35.303  1.00  0.00     0.167 HD
ATOM     69  C   UNL A   1      42.381  33.165  37.988  1.00  0.00     0.074 A 
ATOM     70  C   UNL A   1      42.271  32.854  39.398  1.00  0.00     0.031 C 
ATOM     71  C   UNL A   1      43.558  33.294  37.325  1.00  0.00     0.031 A 
BRANCH  58  72
ATOM     72  C   UNL A   1      42.934  34.570  31.303  1.00  0.00    -0.014 A 
ATOM     73  C   UNL A   1      43.292  33.511  30.450  1.00  0.00     0.010 A 
ATOM     74  C   UNL A   1      43.178  35.893  30.891  1.00  0.00     0.010 A 
ATOM     75  C   UNL A   1      43.916  33.769  29.225  1.00  0.00     0.020 A 
ATOM     76  C   UNL A   1      43.775  36.156  29.654  1.00  0.00     0.020 A 
ATOM     77  C   UNL A   1      44.156  35.090  28.837  1.00  0.00     0.054 A 
BRANCH  77  78
ATOM     78  S   UNL A   1      44.947  35.396  27.233  1.00  0.00     0.124 S 
ATOM     79  O   UNL A   1      46.360  35.216  27.554  1.00  0.00    -0.237 OA
ATOM     80  O   UNL A   1      44.359  34.362  26.384  1.00  0.00    -0.237 OA
ATOM     81  O   UNL A   1      44.553  36.764  26.906  1.00  0.00    -0.744 OA
ENDBRANCH  77  78
ENDBRANCH  58  72
BRANCH  59  82
ATOM     82  C   UNL A   1      38.073  32.845  39.873  1.00  0.00    -0.014 A 
ATOM     83  C   UNL A   1      37.668  31.541  40.205  1.00  0.00     0.010 A 
ATOM     84  C   UNL A   1      37.797  33.894  40.770  1.00  0.00     0.010 A 
ATOM     85  C   UNL A   1      36.992  31.292  41.404  1.00  0.00     0.020 A 
ATOM     86  C   UNL A   1      37.148  33.646  41.982  1.00  0.00     0.020 A 
ATOM     87  C   UNL A   1      36.742  32.346  42.289  1.00  0.00     0.054 A 
BRANCH  87  88
ATOM     88  S   UNL A   1      35.923  31.987  43.867  1.00  0.00     0.124 S 
ATOM     89  O   UNL A   1      36.288  33.150  44.671  1.00  0.00    -0.237 OA
ATOM     90  O   UNL A   1      34.517  31.900  43.480  1.00  0.00    -0.237 OA
ATOM     91  O   UNL A   1      36.525  30.723  44.285  1.00  0.00    -0.744 OA
ENDBRANCH  87  88
ENDBRANCH  59  82
BRANCH  71  92
ATOM     92  C   UNL A   1      44.828  33.138  38.120  1.00  0.00    -0.014 A 
ATOM     93  C   UNL A   1      45.354  31.870  38.423  1.00  0.00     0.010 A 
ATOM     94  C   UNL A   1      45.540  34.286  38.518  1.00  0.00     0.010 A 
ATOM     95  C   UNL A   1      46.552  31.754  39.135  1.00  0.00     0.020 A 
ATOM     96  C   UNL A   1      46.752  34.174  39.202  1.00  0.00     0.020 A 
ATOM     97  C   UNL A   1      47.244  32.906  39.520  1.00  0.00     0.054 A 
BRANCH  97  98
ATOM     98  S   UNL A   1      48.818  32.727  40.403  1.00  0.00     0.124 S 
ATOM     99  O   UNL A   1      49.452  34.020  40.159  1.00  0.00    -0.237 OA
ATOM    100  O   UNL A   1      48.389  32.487  41.779  1.00  0.00    -0.237 OA
ATOM    101  O   UNL A   1      49.457  31.588  39.748  1.00  0.00    -0.744 OA
ENDBRANCH  97  98
ENDBRANCH  71  92
ENDBRANCH  45  46
ENDBRANCH  38  40
ENDBRANCH  37  38
ENDBRANCH  36  37
ENDBRANCH  35  36
ENDBRANCH  34  35
ENDBRANCH  33  34
ENDBRANCH   1  33
TORSDOF 25
ENDMDL
