MODEL 1
REMARK VINA RESULT:      -8.3      0.000      0.000
REMARK SMILES Cc1ccc(C)c(CC(=O)N(CC(=O)OCCOCCOCCOCCOC(=O)c2ccc(-c3c4nc(c(-c5ccc(S(=O)(=O)[O-])cc5)c5ccc([nH]5)c(-c5ccc(S(=O)(=O)[O-])cc5)c5nc(c(-c6ccc(S(=O)(=O)[O-])cc6)c6ccc3[nH]6)C=C5)C=C4)cc2)CC(F)(F)F)c1
REMARK SMILES IDX 20 1 19 2 18 3 17 4 16 5 15 6 13 7 14 8 12 9 11 10 9 11
REMARK SMILES IDX 10 12 8 13 7 14 1 15 2 16 3 17 95 18 4 19 5 20 6 21 90 22
REMARK SMILES IDX 91 23 92 24 93 25 94 26 21 27 22 28 23 29 24 30 25 31 26 32
REMARK SMILES IDX 27 33 28 34 29 35 30 36 31 37 89 38 32 39 88 40 33 41 34 42
REMARK SMILES IDX 35 43 82 44 36 45 87 46 81 47 83 48 37 49 86 50 80 51 79 52
REMARK SMILES IDX 38 54 68 55 49 56 67 57 50 58 53 59 66 60 84 61 51 62 52 63
REMARK SMILES IDX 65 65 85 66 54 67 39 68 40 69 48 70 41 71 47 72 42 73 43 74
REMARK SMILES IDX 44 75 45 76 46 77 69 78 70 79 78 80 71 81 77 82 72 83 73 84
REMARK SMILES IDX 74 85 75 86 76 87 55 88 56 89 64 90 57 91 63 92 58 93 59 94
REMARK SMILES IDX 60 95 61 96 62 97
REMARK H PARENT 83 53 53 64
REMARK Flexibility Score: inf
ROOT
ATOM      1  C   UNL A   1      33.576  36.602  32.867  1.00  0.00     0.188 C 
ENDROOT
BRANCH   1   2
ATOM      2  C   UNL A   1      34.718  35.613  32.691  1.00  0.00     0.188 C 
BRANCH   2   3
ATOM      3  O   UNL A   1      34.639  34.356  33.325  1.00  0.00    -0.376 OA
BRANCH   3   4
ATOM      4  C   UNL A   1      35.247  33.251  32.675  1.00  0.00     0.202 C 
BRANCH   4   5
ATOM      5  C   UNL A   1      36.515  33.479  31.846  1.00  0.00     0.261 C 
BRANCH   5   6
ATOM      6  O   UNL A   1      37.717  32.995  32.495  1.00  0.00    -0.462 OA
BRANCH   6   7
ATOM      7  C   UNL A   1      38.065  33.650  33.635  1.00  0.00     0.325 C 
ATOM      8  O   UNL A   1      37.926  34.862  33.772  1.00  0.00    -0.250 OA
BRANCH   7   9
ATOM      9  C   UNL A   1      38.556  32.778  34.827  1.00  0.00     0.242 C 
BRANCH   9  10
ATOM     10  N   UNL A   1      39.592  33.062  35.866  1.00  0.00    -0.322 N 
BRANCH  10  11
ATOM     11  C   UNL A   1      39.532  32.564  37.162  1.00  0.00     0.227 C 
ATOM     12  O   UNL A   1      40.540  32.066  37.678  1.00  0.00    -0.275 OA
BRANCH  11  13
ATOM     13  C   UNL A   1      38.224  32.543  37.924  1.00  0.00     0.136 C 
BRANCH  13  14
ATOM     14  C   UNL A   1      38.154  33.403  39.161  1.00  0.00    -0.035 A 
ATOM     15  C   UNL A   1      40.070  36.480  40.332  1.00  0.00     0.044 C 
ATOM     16  C   UNL A   1      39.018  35.410  40.275  1.00  0.00    -0.051 A 
ATOM     17  C   UNL A   1      38.147  35.191  41.337  1.00  0.00     0.004 A 
ATOM     18  C   UNL A   1      38.949  34.564  39.166  1.00  0.00     0.008 A 
ATOM     19  C   UNL A   1      37.334  34.057  41.347  1.00  0.00     0.004 A 
ATOM     20  C   UNL A   1      37.352  33.132  40.285  1.00  0.00    -0.047 A 
ATOM     21  C   UNL A   1      36.541  31.880  40.464  1.00  0.00     0.044 C 
ENDBRANCH  13  14
ENDBRANCH  11  13
ENDBRANCH  10  11
BRANCH  10  22
ATOM     22  C   UNL A   1      40.960  33.437  35.411  1.00  0.00     0.235 C 
BRANCH  22  23
ATOM     23  C   UNL A   1      41.422  34.916  35.543  1.00  0.00     0.406 C 
ATOM     24  F   UNL A   1      41.192  35.420  36.778  1.00  0.00    -0.169 F 
ATOM     25  F   UNL A   1      42.774  34.984  35.371  1.00  0.00    -0.169 F 
ATOM     26  F   UNL A   1      40.881  35.754  34.636  1.00  0.00    -0.169 F 
ENDBRANCH  22  23
ENDBRANCH  10  22
ENDBRANCH   9  10
ENDBRANCH   7   9
ENDBRANCH   6   7
ENDBRANCH   5   6
ENDBRANCH   4   5
ENDBRANCH   3   4
ENDBRANCH   2   3
ENDBRANCH   1   2
BRANCH   1  27
ATOM     27  O   UNL A   1      33.015  37.277  31.761  1.00  0.00    -0.377 OA
BRANCH  27  28
ATOM     28  C   UNL A   1      32.538  36.487  30.686  1.00  0.00     0.188 C 
BRANCH  28  29
ATOM     29  C   UNL A   1      33.429  36.475  29.444  1.00  0.00     0.188 C 
BRANCH  29  30
ATOM     30  O   UNL A   1      32.829  35.700  28.414  1.00  0.00    -0.376 OA
BRANCH  30  31
ATOM     31  C   UNL A   1      32.847  34.299  28.625  1.00  0.00     0.202 C 
BRANCH  31  32
ATOM     32  C   UNL A   1      34.218  33.695  28.319  1.00  0.00     0.261 C 
BRANCH  32  33
ATOM     33  O   UNL A   1      34.581  32.432  28.939  1.00  0.00    -0.460 OA
BRANCH  33  34
ATOM     34  C   UNL A   1      34.444  31.274  28.248  1.00  0.00     0.338 C 
ATOM     35  O   UNL A   1      33.475  30.999  27.554  1.00  0.00    -0.246 OA
BRANCH  34  36
ATOM     36  C   UNL A   1      35.653  30.423  28.380  1.00  0.00     0.060 A 
ATOM     37  C   UNL A   1      35.989  29.960  29.646  1.00  0.00     0.016 A 
ATOM     38  C   UNL A   1      36.552  30.269  27.308  1.00  0.00     0.016 A 
ATOM     39  C   UNL A   1      37.293  29.541  29.864  1.00  0.00     0.010 A 
ATOM     40  C   UNL A   1      37.875  29.908  27.546  1.00  0.00     0.010 A 
ATOM     41  C   UNL A   1      38.274  29.640  28.848  1.00  0.00    -0.014 A 
BRANCH  41  42
ATOM     42  C   UNL A   1      39.667  29.312  29.227  1.00  0.00     0.031 A 
ATOM     43  C   UNL A   1      39.947  29.795  30.597  1.00  0.00     0.074 A 
ATOM     44  C   UNL A   1      40.597  28.657  28.488  1.00  0.00     0.049 A 
ATOM     45  N   UNL A   1      40.851  30.638  30.977  1.00  0.00    -0.248 NA
ATOM     46  C   UNL A   1      38.938  29.459  31.628  1.00  0.00     0.031 C 
ATOM     47  C   UNL A   1      40.372  28.064  27.169  1.00  0.00     0.029 A 
ATOM     48  N   UNL A   1      41.914  28.318  28.749  1.00  0.00    -0.354 N 
ATOM     49  C   UNL A   1      40.684  30.707  32.354  1.00  0.00     0.074 A 
ATOM     50  C   UNL A   1      39.375  30.178  32.658  1.00  0.00     0.031 C 
ATOM     51  C   UNL A   1      41.426  27.289  26.837  1.00  0.00     0.029 A 
ATOM     52  C   UNL A   1      42.430  27.339  27.890  1.00  0.00     0.049 A 
ATOM     53  H   UNL A   1      42.441  28.729  29.473  1.00  0.00     0.167 HD
ATOM     54  C   UNL A   1      41.775  30.640  33.156  1.00  0.00     0.031 A 
ATOM     55  C   UNL A   1      43.543  26.561  28.029  1.00  0.00     0.031 A 
ATOM     56  C   UNL A   1      42.958  31.186  32.566  1.00  0.00     0.049 A 
ATOM     57  C   UNL A   1      44.428  27.149  29.062  1.00  0.00     0.074 A 
ATOM     58  C   UNL A   1      43.356  32.436  32.149  1.00  0.00     0.029 A 
ATOM     59  N   UNL A   1      43.821  30.274  32.021  1.00  0.00    -0.354 N 
ATOM     60  N   UNL A   1      45.239  28.146  28.858  1.00  0.00    -0.248 NA
ATOM     61  C   UNL A   1      44.262  26.751  30.456  1.00  0.00     0.031 C 
ATOM     62  C   UNL A   1      44.433  32.232  31.246  1.00  0.00     0.029 A 
ATOM     63  C   UNL A   1      44.704  30.867  31.156  1.00  0.00     0.049 A 
ATOM     64  H   UNL A   1      43.808  29.311  32.226  1.00  0.00     0.167 HD
ATOM     65  C   UNL A   1      45.377  28.745  30.099  1.00  0.00     0.074 A 
ATOM     66  C   UNL A   1      44.882  27.768  31.056  1.00  0.00     0.031 C 
ATOM     67  C   UNL A   1      45.513  30.097  30.215  1.00  0.00     0.031 A 
BRANCH  54  68
ATOM     68  C   UNL A   1      41.810  29.526  34.168  1.00  0.00    -0.014 A 
ATOM     69  C   UNL A   1      42.320  29.724  35.451  1.00  0.00     0.010 A 
ATOM     70  C   UNL A   1      41.499  28.198  33.777  1.00  0.00     0.010 A 
ATOM     71  C   UNL A   1      42.432  28.640  36.335  1.00  0.00     0.020 A 
ATOM     72  C   UNL A   1      41.546  27.132  34.661  1.00  0.00     0.020 A 
ATOM     73  C   UNL A   1      42.020  27.360  35.940  1.00  0.00     0.054 A 
BRANCH  73  74
ATOM     74  S   UNL A   1      42.110  25.982  37.105  1.00  0.00     0.124 S 
ATOM     75  O   UNL A   1      40.700  25.741  37.390  1.00  0.00    -0.237 OA
ATOM     76  O   UNL A   1      42.787  24.954  36.319  1.00  0.00    -0.237 OA
ATOM     77  O   UNL A   1      42.894  26.523  38.214  1.00  0.00    -0.744 OA
ENDBRANCH  73  74
ENDBRANCH  54  68
BRANCH  55  78
ATOM     78  C   UNL A   1      43.854  25.205  27.457  1.00  0.00    -0.014 A 
ATOM     79  C   UNL A   1      42.963  24.574  26.557  1.00  0.00     0.010 A 
ATOM     80  C   UNL A   1      45.131  24.628  27.577  1.00  0.00     0.010 A 
ATOM     81  C   UNL A   1      43.380  23.515  25.725  1.00  0.00     0.020 A 
ATOM     82  C   UNL A   1      45.546  23.553  26.782  1.00  0.00     0.020 A 
ATOM     83  C   UNL A   1      44.688  23.036  25.820  1.00  0.00     0.054 A 
BRANCH  83  84
ATOM     84  S   UNL A   1      45.338  21.891  24.567  1.00  0.00     0.124 S 
ATOM     85  O   UNL A   1      44.154  21.124  24.196  1.00  0.00    -0.237 OA
ATOM     86  O   UNL A   1      45.854  22.799  23.546  1.00  0.00    -0.237 OA
ATOM     87  O   UNL A   1      46.362  21.141  25.293  1.00  0.00    -0.744 OA
ENDBRANCH  83  84
ENDBRANCH  55  78
BRANCH  67  88
ATOM     88  C   UNL A   1      46.394  30.839  29.234  1.00  0.00    -0.014 A 
ATOM     89  C   UNL A   1      45.957  31.793  28.302  1.00  0.00     0.010 A 
ATOM     90  C   UNL A   1      47.778  30.560  29.278  1.00  0.00     0.010 A 
ATOM     91  C   UNL A   1      46.863  32.450  27.455  1.00  0.00     0.020 A 
ATOM     92  C   UNL A   1      48.694  31.244  28.477  1.00  0.00     0.020 A 
ATOM     93  C   UNL A   1      48.230  32.192  27.569  1.00  0.00     0.054 A 
BRANCH  93  94
ATOM     94  S   UNL A   1      49.401  33.139  26.560  1.00  0.00     0.124 S 
ATOM     95  O   UNL A   1      49.897  34.138  27.501  1.00  0.00    -0.237 OA
ATOM     96  O   UNL A   1      50.369  32.123  26.162  1.00  0.00    -0.237 OA
ATOM     97  O   UNL A   1      48.577  33.661  25.471  1.00  0.00    -0.744 OA
ENDBRANCH  93  94
ENDBRANCH  67  88
ENDBRANCH  41  42
ENDBRANCH  34  36
ENDBRANCH  33  34
ENDBRANCH  32  33
ENDBRANCH  31  32
ENDBRANCH  30  31
ENDBRANCH  29  30
ENDBRANCH  28  29
ENDBRANCH  27  28
ENDBRANCH   1  27
TORSDOF 29
ENDMDL
MODEL 2
REMARK VINA RESULT:      -8.2      2.364      4.494
REMARK SMILES Cc1ccc(C)c(CC(=O)N(CC(=O)OCCOCCOCCOCCOC(=O)c2ccc(-c3c4nc(c(-c5ccc(S(=O)(=O)[O-])cc5)c5ccc([nH]5)c(-c5ccc(S(=O)(=O)[O-])cc5)c5nc(c(-c6ccc(S(=O)(=O)[O-])cc6)c6ccc3[nH]6)C=C5)C=C4)cc2)CC(F)(F)F)c1
REMARK SMILES IDX 20 1 19 2 18 3 17 4 16 5 15 6 13 7 14 8 12 9 11 10 9 11
REMARK SMILES IDX 10 12 8 13 7 14 1 15 2 16 3 17 95 18 4 19 5 20 6 21 90 22
REMARK SMILES IDX 91 23 92 24 93 25 94 26 21 27 22 28 23 29 24 30 25 31 26 32
REMARK SMILES IDX 27 33 28 34 29 35 30 36 31 37 89 38 32 39 88 40 33 41 34 42
REMARK SMILES IDX 35 43 82 44 36 45 87 46 81 47 83 48 37 49 86 50 80 51 79 52
REMARK SMILES IDX 38 54 68 55 49 56 67 57 50 58 53 59 66 60 84 61 51 62 52 63
REMARK SMILES IDX 65 65 85 66 54 67 39 68 40 69 48 70 41 71 47 72 42 73 43 74
REMARK SMILES IDX 44 75 45 76 46 77 69 78 70 79 78 80 71 81 77 82 72 83 73 84
REMARK SMILES IDX 74 85 75 86 76 87 55 88 56 89 64 90 57 91 63 92 58 93 59 94
REMARK SMILES IDX 60 95 61 96 62 97
REMARK H PARENT 83 53 53 64
REMARK Flexibility Score: inf
ROOT
ATOM      1  C   UNL A   1      33.470  36.489  33.055  1.00  0.00     0.188 C 
ENDROOT
BRANCH   1   2
ATOM      2  C   UNL A   1      34.718  35.638  32.874  1.00  0.00     0.188 C 
BRANCH   2   3
ATOM      3  O   UNL A   1      35.155  34.826  33.941  1.00  0.00    -0.376 OA
BRANCH   3   4
ATOM      4  C   UNL A   1      35.730  33.570  33.621  1.00  0.00     0.202 C 
BRANCH   4   5
ATOM      5  C   UNL A   1      35.640  33.054  32.181  1.00  0.00     0.261 C 
BRANCH   5   6
ATOM      6  O   UNL A   1      36.908  32.576  31.665  1.00  0.00    -0.462 OA
BRANCH   6   7
ATOM      7  C   UNL A   1      37.844  33.537  31.443  1.00  0.00     0.325 C 
ATOM      8  O   UNL A   1      37.561  34.652  31.016  1.00  0.00    -0.250 OA
BRANCH   7   9
ATOM      9  C   UNL A   1      39.306  33.206  31.859  1.00  0.00     0.242 C 
BRANCH   9  10
ATOM     10  N   UNL A   1      40.581  33.925  31.557  1.00  0.00    -0.322 N 
BRANCH  10  11
ATOM     11  C   UNL A   1      41.032  34.174  30.267  1.00  0.00     0.227 C 
ATOM     12  O   UNL A   1      40.412  34.958  29.538  1.00  0.00    -0.275 OA
BRANCH  11  13
ATOM     13  C   UNL A   1      42.225  33.431  29.706  1.00  0.00     0.136 C 
BRANCH  13  14
ATOM     14  C   UNL A   1      43.226  34.254  28.933  1.00  0.00    -0.035 A 
ATOM     15  C   UNL A   1      44.526  34.125  25.355  1.00  0.00     0.044 C 
ATOM     16  C   UNL A   1      44.266  34.632  26.745  1.00  0.00    -0.051 A 
ATOM     17  C   UNL A   1      44.984  35.699  27.274  1.00  0.00     0.004 A 
ATOM     18  C   UNL A   1      43.336  33.981  27.557  1.00  0.00     0.008 A 
ATOM     19  C   UNL A   1      44.878  36.002  28.631  1.00  0.00     0.004 A 
ATOM     20  C   UNL A   1      44.031  35.267  29.484  1.00  0.00    -0.047 A 
ATOM     21  C   UNL A   1      44.100  35.591  30.949  1.00  0.00     0.044 C 
ENDBRANCH  13  14
ENDBRANCH  11  13
ENDBRANCH  10  11
BRANCH  10  22
ATOM     22  C   UNL A   1      41.131  34.845  32.592  1.00  0.00     0.235 C 
BRANCH  22  23
ATOM     23  C   UNL A   1      40.697  34.661  34.075  1.00  0.00     0.406 C 
ATOM     24  F   UNL A   1      40.481  33.364  34.392  1.00  0.00    -0.169 F 
ATOM     25  F   UNL A   1      41.708  35.071  34.895  1.00  0.00    -0.169 F 
ATOM     26  F   UNL A   1      39.607  35.371  34.430  1.00  0.00    -0.169 F 
ENDBRANCH  22  23
ENDBRANCH  10  22
ENDBRANCH   9  10
ENDBRANCH   7   9
ENDBRANCH   6   7
ENDBRANCH   5   6
ENDBRANCH   4   5
ENDBRANCH   3   4
ENDBRANCH   2   3
ENDBRANCH   1   2
BRANCH   1  27
ATOM     27  O   UNL A   1      32.784  37.028  31.945  1.00  0.00    -0.377 OA
BRANCH  27  28
ATOM     28  C   UNL A   1      32.442  36.141  30.894  1.00  0.00     0.188 C 
BRANCH  28  29
ATOM     29  C   UNL A   1      33.331  36.230  29.654  1.00  0.00     0.188 C 
BRANCH  29  30
ATOM     30  O   UNL A   1      32.832  35.385  28.627  1.00  0.00    -0.376 OA
BRANCH  30  31
ATOM     31  C   UNL A   1      33.011  33.996  28.847  1.00  0.00     0.202 C 
BRANCH  31  32
ATOM     32  C   UNL A   1      34.403  33.528  28.422  1.00  0.00     0.261 C 
BRANCH  32  33
ATOM     33  O   UNL A   1      34.889  32.247  28.907  1.00  0.00    -0.460 OA
BRANCH  33  34
ATOM     34  C   UNL A   1      34.834  31.155  28.107  1.00  0.00     0.338 C 
ATOM     35  O   UNL A   1      33.952  30.950  27.284  1.00  0.00    -0.246 OA
BRANCH  34  36
ATOM     36  C   UNL A   1      36.020  30.283  28.303  1.00  0.00     0.060 A 
ATOM     37  C   UNL A   1      36.307  29.854  29.594  1.00  0.00     0.016 A 
ATOM     38  C   UNL A   1      36.947  30.076  27.266  1.00  0.00     0.016 A 
ATOM     39  C   UNL A   1      37.594  29.415  29.865  1.00  0.00     0.010 A 
ATOM     40  C   UNL A   1      38.254  29.695  27.556  1.00  0.00     0.010 A 
ATOM     41  C   UNL A   1      38.607  29.461  28.878  1.00  0.00    -0.014 A 
BRANCH  41  42
ATOM     42  C   UNL A   1      39.980  29.117  29.310  1.00  0.00     0.031 A 
ATOM     43  C   UNL A   1      40.187  29.527  30.716  1.00  0.00     0.074 A 
ATOM     44  C   UNL A   1      40.950  28.504  28.586  1.00  0.00     0.049 A 
ATOM     45  N   UNL A   1      41.066  30.350  31.187  1.00  0.00    -0.248 NA
ATOM     46  C   UNL A   1      39.129  29.134  31.674  1.00  0.00     0.031 C 
ATOM     47  C   UNL A   1      40.797  27.983  27.227  1.00  0.00     0.029 A 
ATOM     48  N   UNL A   1      42.254  28.156  28.896  1.00  0.00    -0.354 N 
ATOM     49  C   UNL A   1      40.828  30.345  32.554  1.00  0.00     0.074 A 
ATOM     50  C   UNL A   1      39.508  29.797  32.762  1.00  0.00     0.031 C 
ATOM     51  C   UNL A   1      41.870  27.229  26.909  1.00  0.00     0.029 A 
ATOM     52  C   UNL A   1      42.819  27.226  28.014  1.00  0.00     0.049 A 
ATOM     53  H   UNL A   1      42.741  28.528  29.667  1.00  0.00     0.167 HD
ATOM     54  C   UNL A   1      41.878  30.238  33.407  1.00  0.00     0.031 A 
ATOM     55  C   UNL A   1      43.927  26.443  28.168  1.00  0.00     0.031 A 
ATOM     56  C   UNL A   1      43.086  30.818  32.909  1.00  0.00     0.049 A 
ATOM     57  C   UNL A   1      44.755  26.978  29.275  1.00  0.00     0.074 A 
ATOM     58  C   UNL A   1      43.498  32.089  32.580  1.00  0.00     0.029 A 
ATOM     59  N   UNL A   1      43.980  29.939  32.361  1.00  0.00    -0.354 N 
ATOM     60  N   UNL A   1      45.570  27.986  29.167  1.00  0.00    -0.248 NA
ATOM     61  C   UNL A   1      44.520  26.505  30.636  1.00  0.00     0.031 C 
ATOM     62  C   UNL A   1      44.621  31.937  31.724  1.00  0.00     0.029 A 
ATOM     63  C   UNL A   1      44.904  30.579  31.576  1.00  0.00     0.049 A 
ATOM     64  H   UNL A   1      43.962  28.966  32.514  1.00  0.00     0.167 HD
ATOM     65  C   UNL A   1      45.641  28.518  30.443  1.00  0.00     0.074 A 
ATOM     66  C   UNL A   1      45.103  27.490  31.320  1.00  0.00     0.031 C 
ATOM     67  C   UNL A   1      45.764  29.862  30.638  1.00  0.00     0.031 A 
BRANCH  54  68
ATOM     68  C   UNL A   1      41.866  29.072  34.358  1.00  0.00    -0.014 A 
ATOM     69  C   UNL A   1      42.032  29.251  35.732  1.00  0.00     0.010 A 
ATOM     70  C   UNL A   1      41.876  27.744  33.859  1.00  0.00     0.010 A 
ATOM     71  C   UNL A   1      42.118  28.135  36.579  1.00  0.00     0.020 A 
ATOM     72  C   UNL A   1      41.898  26.636  34.691  1.00  0.00     0.020 A 
ATOM     73  C   UNL A   1      42.025  26.840  36.053  1.00  0.00     0.054 A 
BRANCH  73  74
ATOM     74  S   UNL A   1      42.075  25.410  37.157  1.00  0.00     0.124 S 
ATOM     75  O   UNL A   1      43.478  25.392  37.555  1.00  0.00    -0.237 OA
ATOM     76  O   UNL A   1      41.121  25.787  38.196  1.00  0.00    -0.237 OA
ATOM     77  O   UNL A   1      41.647  24.304  36.302  1.00  0.00    -0.744 OA
ENDBRANCH  73  74
ENDBRANCH  54  68
BRANCH  55  78
ATOM     78  C   UNL A   1      44.274  25.121  27.542  1.00  0.00    -0.014 A 
ATOM     79  C   UNL A   1      43.301  24.101  27.411  1.00  0.00     0.010 A 
ATOM     80  C   UNL A   1      45.476  24.930  26.836  1.00  0.00     0.010 A 
ATOM     81  C   UNL A   1      43.473  23.028  26.512  1.00  0.00     0.020 A 
ATOM     82  C   UNL A   1      45.672  23.850  25.968  1.00  0.00     0.020 A 
ATOM     83  C   UNL A   1      44.649  22.932  25.767  1.00  0.00     0.054 A 
BRANCH  83  84
ATOM     84  S   UNL A   1      44.771  21.745  24.395  1.00  0.00     0.124 S 
ATOM     85  O   UNL A   1      44.223  22.502  23.275  1.00  0.00    -0.237 OA
ATOM     86  O   UNL A   1      46.204  21.473  24.338  1.00  0.00    -0.237 OA
ATOM     87  O   UNL A   1      43.951  20.621  24.846  1.00  0.00    -0.744 OA
ENDBRANCH  83  84
ENDBRANCH  55  78
BRANCH  67  88
ATOM     88  C   UNL A   1      46.691  30.657  29.744  1.00  0.00    -0.014 A 
ATOM     89  C   UNL A   1      48.093  30.596  29.759  1.00  0.00     0.010 A 
ATOM     90  C   UNL A   1      46.087  31.517  28.801  1.00  0.00     0.010 A 
ATOM     91  C   UNL A   1      48.863  31.354  28.863  1.00  0.00     0.020 A 
ATOM     92  C   UNL A   1      46.840  32.236  27.870  1.00  0.00     0.020 A 
ATOM     93  C   UNL A   1      48.229  32.147  27.904  1.00  0.00     0.054 A 
BRANCH  93  94
ATOM     94  S   UNL A   1      49.229  33.021  26.671  1.00  0.00     0.124 S 
ATOM     95  O   UNL A   1      48.223  33.511  25.734  1.00  0.00    -0.237 OA
ATOM     96  O   UNL A   1      49.889  34.048  27.469  1.00  0.00    -0.237 OA
ATOM     97  O   UNL A   1      50.118  31.985  26.147  1.00  0.00    -0.744 OA
ENDBRANCH  93  94
ENDBRANCH  67  88
ENDBRANCH  41  42
ENDBRANCH  34  36
ENDBRANCH  33  34
ENDBRANCH  32  33
ENDBRANCH  31  32
ENDBRANCH  30  31
ENDBRANCH  29  30
ENDBRANCH  28  29
ENDBRANCH  27  28
ENDBRANCH   1  27
TORSDOF 29
ENDMDL
MODEL 3
REMARK VINA RESULT:      -7.7      5.325      9.556
REMARK SMILES Cc1ccc(C)c(CC(=O)N(CC(=O)OCCOCCOCCOCCOC(=O)c2ccc(-c3c4nc(c(-c5ccc(S(=O)(=O)[O-])cc5)c5ccc([nH]5)c(-c5ccc(S(=O)(=O)[O-])cc5)c5nc(c(-c6ccc(S(=O)(=O)[O-])cc6)c6ccc3[nH]6)C=C5)C=C4)cc2)CC(F)(F)F)c1
REMARK SMILES IDX 20 1 19 2 18 3 17 4 16 5 15 6 13 7 14 8 12 9 11 10 9 11
REMARK SMILES IDX 10 12 8 13 7 14 1 15 2 16 3 17 95 18 4 19 5 20 6 21 90 22
REMARK SMILES IDX 91 23 92 24 93 25 94 26 21 27 22 28 23 29 24 30 25 31 26 32
REMARK SMILES IDX 27 33 28 34 29 35 30 36 31 37 89 38 32 39 88 40 33 41 34 42
REMARK SMILES IDX 35 43 82 44 36 45 87 46 81 47 83 48 37 49 86 50 80 51 79 52
REMARK SMILES IDX 38 54 68 55 49 56 67 57 50 58 53 59 66 60 84 61 51 62 52 63
REMARK SMILES IDX 65 65 85 66 54 67 39 68 40 69 48 70 41 71 47 72 42 73 43 74
REMARK SMILES IDX 44 75 45 76 46 77 69 78 70 79 78 80 71 81 77 82 72 83 73 84
REMARK SMILES IDX 74 85 75 86 76 87 55 88 56 89 64 90 57 91 63 92 58 93 59 94
REMARK SMILES IDX 60 95 61 96 62 97
REMARK H PARENT 83 53 53 64
REMARK Flexibility Score: inf
ROOT
ATOM      1  C   UNL A   1      37.076  29.774  28.588  1.00  0.00     0.188 C 
ENDROOT
BRANCH   1   2
ATOM      2  C   UNL A   1      35.821  30.244  27.867  1.00  0.00     0.188 C 
BRANCH   2   3
ATOM      3  O   UNL A   1      34.757  29.337  27.683  1.00  0.00    -0.376 OA
BRANCH   3   4
ATOM      4  C   UNL A   1      34.386  29.017  26.352  1.00  0.00     0.202 C 
BRANCH   4   5
ATOM      5  C   UNL A   1      32.910  28.768  26.028  1.00  0.00     0.261 C 
BRANCH   5   6
ATOM      6  O   UNL A   1      32.638  28.719  24.605  1.00  0.00    -0.462 OA
BRANCH   6   7
ATOM      7  C   UNL A   1      31.861  27.680  24.199  1.00  0.00     0.325 C 
ATOM      8  O   UNL A   1      31.420  27.588  23.057  1.00  0.00    -0.250 OA
BRANCH   7   9
ATOM      9  C   UNL A   1      31.631  26.529  25.221  1.00  0.00     0.242 C 
BRANCH   9  10
ATOM     10  N   UNL A   1      32.366  25.240  25.403  1.00  0.00    -0.322 N 
BRANCH  10  11
ATOM     11  C   UNL A   1      33.670  25.036  24.969  1.00  0.00     0.227 C 
ATOM     12  O   UNL A   1      34.595  25.689  25.467  1.00  0.00    -0.275 OA
BRANCH  11  13
ATOM     13  C   UNL A   1      33.968  24.083  23.831  1.00  0.00     0.136 C 
BRANCH  13  14
ATOM     14  C   UNL A   1      34.404  22.691  24.217  1.00  0.00    -0.035 A 
ATOM     15  C   UNL A   1      32.553  19.399  24.705  1.00  0.00     0.044 C 
ATOM     16  C   UNL A   1      33.687  20.369  24.541  1.00  0.00    -0.051 A 
ATOM     17  C   UNL A   1      34.998  20.009  24.836  1.00  0.00     0.004 A 
ATOM     18  C   UNL A   1      33.425  21.684  24.153  1.00  0.00     0.008 A 
ATOM     19  C   UNL A   1      35.992  20.986  24.887  1.00  0.00     0.004 A 
ATOM     20  C   UNL A   1      35.706  22.339  24.617  1.00  0.00    -0.047 A 
ATOM     21  C   UNL A   1      36.821  23.322  24.836  1.00  0.00     0.044 C 
ENDBRANCH  13  14
ENDBRANCH  11  13
ENDBRANCH  10  11
BRANCH  10  22
ATOM     22  C   UNL A   1      31.929  24.331  26.499  1.00  0.00     0.235 C 
BRANCH  22  23
ATOM     23  C   UNL A   1      30.785  23.312  26.225  1.00  0.00     0.406 C 
ATOM     24  F   UNL A   1      30.485  23.216  24.910  1.00  0.00    -0.169 F 
ATOM     25  F   UNL A   1      31.195  22.064  26.595  1.00  0.00    -0.169 F 
ATOM     26  F   UNL A   1      29.646  23.555  26.904  1.00  0.00    -0.169 F 
ENDBRANCH  22  23
ENDBRANCH  10  22
ENDBRANCH   9  10
ENDBRANCH   7   9
ENDBRANCH   6   7
ENDBRANCH   5   6
ENDBRANCH   4   5
ENDBRANCH   3   4
ENDBRANCH   2   3
ENDBRANCH   1   2
BRANCH   1  27
ATOM     27  O   UNL A   1      36.998  29.055  29.801  1.00  0.00    -0.377 OA
BRANCH  27  28
ATOM     28  C   UNL A   1      36.411  29.710  30.912  1.00  0.00     0.188 C 
BRANCH  28  29
ATOM     29  C   UNL A   1      37.392  30.447  31.824  1.00  0.00     0.188 C 
BRANCH  29  30
ATOM     30  O   UNL A   1      37.471  31.818  31.458  1.00  0.00    -0.376 OA
BRANCH  30  31
ATOM     31  C   UNL A   1      36.228  32.493  31.377  1.00  0.00     0.202 C 
BRANCH  31  32
ATOM     32  C   UNL A   1      35.947  33.323  32.629  1.00  0.00     0.261 C 
BRANCH  32  33
ATOM     33  O   UNL A   1      35.854  32.646  33.911  1.00  0.00    -0.460 OA
BRANCH  33  34
ATOM     34  C   UNL A   1      36.562  33.103  34.973  1.00  0.00     0.338 C 
ATOM     35  O   UNL A   1      36.089  33.786  35.871  1.00  0.00    -0.246 OA
BRANCH  34  36
ATOM     36  C   UNL A   1      37.960  32.604  34.943  1.00  0.00     0.060 A 
ATOM     37  C   UNL A   1      38.948  33.459  34.467  1.00  0.00     0.016 A 
ATOM     38  C   UNL A   1      38.251  31.247  35.176  1.00  0.00     0.016 A 
ATOM     39  C   UNL A   1      40.143  32.902  34.039  1.00  0.00     0.010 A 
ATOM     40  C   UNL A   1      39.427  30.685  34.686  1.00  0.00     0.010 A 
ATOM     41  C   UNL A   1      40.334  31.500  34.023  1.00  0.00    -0.014 A 
BRANCH  41  42
ATOM     42  C   UNL A   1      41.583  31.001  33.405  1.00  0.00     0.031 A 
ATOM     43  C   UNL A   1      42.699  31.092  34.370  1.00  0.00     0.074 A 
ATOM     44  C   UNL A   1      41.749  30.506  32.152  1.00  0.00     0.049 A 
ATOM     45  N   UNL A   1      43.806  31.750  34.252  1.00  0.00    -0.248 NA
ATOM     46  C   UNL A   1      42.434  30.561  35.727  1.00  0.00     0.031 C 
ATOM     47  C   UNL A   1      40.683  30.292  31.172  1.00  0.00     0.029 A 
ATOM     48  N   UNL A   1      42.868  30.032  31.487  1.00  0.00    -0.354 N 
ATOM     49  C   UNL A   1      44.488  31.467  35.427  1.00  0.00     0.074 A 
ATOM     50  C   UNL A   1      43.526  30.957  36.375  1.00  0.00     0.031 C 
ATOM     51  C   UNL A   1      41.160  29.568  30.138  1.00  0.00     0.029 A 
ATOM     52  C   UNL A   1      42.573  29.281  30.342  1.00  0.00     0.049 A 
ATOM     53  H   UNL A   1      43.788  30.207  31.791  1.00  0.00     0.167 HD
ATOM     54  C   UNL A   1      45.800  31.127  35.364  1.00  0.00     0.031 A 
ATOM     55  C   UNL A   1      43.368  28.428  29.633  1.00  0.00     0.031 A 
ATOM     56  C   UNL A   1      46.501  31.736  34.276  1.00  0.00     0.049 A 
ATOM     57  C   UNL A   1      44.786  28.671  29.986  1.00  0.00     0.074 A 
ATOM     58  C   UNL A   1      46.831  33.024  33.923  1.00  0.00     0.029 A 
ATOM     59  N   UNL A   1      46.675  30.947  33.172  1.00  0.00    -0.354 N 
ATOM     60  N   UNL A   1      45.513  29.635  29.501  1.00  0.00    -0.248 NA
ATOM     61  C   UNL A   1      45.384  27.934  31.095  1.00  0.00     0.031 C 
ATOM     62  C   UNL A   1      47.111  32.999  32.531  1.00  0.00     0.029 A 
ATOM     63  C   UNL A   1      46.990  31.690  32.063  1.00  0.00     0.049 A 
ATOM     64  H   UNL A   1      46.584  29.967  33.174  1.00  0.00     0.167 HD
ATOM     65  C   UNL A   1      46.466  29.881  30.474  1.00  0.00     0.074 A 
ATOM     66  C   UNL A   1      46.431  28.720  31.349  1.00  0.00     0.031 C 
ATOM     67  C   UNL A   1      46.921  31.144  30.710  1.00  0.00     0.031 A 
BRANCH  54  68
ATOM     68  C   UNL A   1      46.185  29.788  35.933  1.00  0.00    -0.014 A 
ATOM     69  C   UNL A   1      47.051  29.682  37.022  1.00  0.00     0.010 A 
ATOM     70  C   UNL A   1      45.825  28.596  35.255  1.00  0.00     0.010 A 
ATOM     71  C   UNL A   1      47.469  28.417  37.464  1.00  0.00     0.020 A 
ATOM     72  C   UNL A   1      46.181  27.339  35.719  1.00  0.00     0.020 A 
ATOM     73  C   UNL A   1      47.010  27.258  36.824  1.00  0.00     0.054 A 
BRANCH  73  74
ATOM     74  S   UNL A   1      47.505  25.631  37.436  1.00  0.00     0.124 S 
ATOM     75  O   UNL A   1      46.422  25.321  38.363  1.00  0.00    -0.237 OA
ATOM     76  O   UNL A   1      47.543  24.837  36.211  1.00  0.00    -0.237 OA
ATOM     77  O   UNL A   1      48.809  25.880  38.049  1.00  0.00    -0.744 OA
ENDBRANCH  73  74
ENDBRANCH  54  68
BRANCH  55  78
ATOM     78  C   UNL A   1      43.000  27.252  28.771  1.00  0.00    -0.014 A 
ATOM     79  C   UNL A   1      43.134  27.313  27.363  1.00  0.00     0.010 A 
ATOM     80  C   UNL A   1      42.762  25.978  29.319  1.00  0.00     0.010 A 
ATOM     81  C   UNL A   1      43.168  26.145  26.573  1.00  0.00     0.020 A 
ATOM     82  C   UNL A   1      42.759  24.815  28.541  1.00  0.00     0.020 A 
ATOM     83  C   UNL A   1      43.017  24.897  27.178  1.00  0.00     0.054 A 
BRANCH  83  84
ATOM     84  S   UNL A   1      43.356  23.377  26.242  1.00  0.00     0.124 S 
ATOM     85  O   UNL A   1      42.391  22.438  26.803  1.00  0.00    -0.237 OA
ATOM     86  O   UNL A   1      43.113  23.791  24.864  1.00  0.00    -0.237 OA
ATOM     87  O   UNL A   1      44.756  23.090  26.557  1.00  0.00    -0.744 OA
ENDBRANCH  83  84
ENDBRANCH  55  78
BRANCH  67  88
ATOM     88  C   UNL A   1      47.197  32.062  29.539  1.00  0.00    -0.014 A 
ATOM     89  C   UNL A   1      48.394  32.115  28.806  1.00  0.00     0.010 A 
ATOM     90  C   UNL A   1      46.150  32.921  29.138  1.00  0.00     0.010 A 
ATOM     91  C   UNL A   1      48.537  32.982  27.712  1.00  0.00     0.020 A 
ATOM     92  C   UNL A   1      46.264  33.750  28.020  1.00  0.00     0.020 A 
ATOM     93  C   UNL A   1      47.460  33.774  27.308  1.00  0.00     0.054 A 
BRANCH  93  94
ATOM     94  S   UNL A   1      47.616  34.794  25.819  1.00  0.00     0.124 S 
ATOM     95  O   UNL A   1      46.328  34.594  25.160  1.00  0.00    -0.237 OA
ATOM     96  O   UNL A   1      47.833  36.127  26.370  1.00  0.00    -0.237 OA
ATOM     97  O   UNL A   1      48.768  34.222  25.124  1.00  0.00    -0.744 OA
ENDBRANCH  93  94
ENDBRANCH  67  88
ENDBRANCH  41  42
ENDBRANCH  34  36
ENDBRANCH  33  34
ENDBRANCH  32  33
ENDBRANCH  31  32
ENDBRANCH  30  31
ENDBRANCH  29  30
ENDBRANCH  28  29
ENDBRANCH  27  28
ENDBRANCH   1  27
TORSDOF 29
ENDMDL
