MODEL 1
REMARK VINA RESULT:      -9.8      0.000      0.000
REMARK SMILES Cc1cccc(CS[C@@H]2CC[C@]([NH3+])(C(=O)OCCOCCOCCOCCOC(=O)c3ccc(-c4c5nc(c(-c6ccc(S(=O)(=O)[O-])cc6)c6ccc([nH]6)c(-c6ccc(S(=O)(=O)[O-])cc6)c6nc(c(-c7ccc(S(=O)(=O)[O-])cc7)c7ccc4[nH]7)C=C6)C=C5)cc3)C2)c1
REMARK SMILES IDX 22 1 21 2 20 3 19 4 18 5 17 6 16 7 14 8 15 9 12 10 9 11
REMARK SMILES IDX 10 12 91 13 11 14 8 15 7 16 6 17 1 18 2 19 3 20 92 21 4 22
REMARK SMILES IDX 5 23 13 24 23 28 24 29 25 30 26 31 27 32 28 33 29 34 30 35
REMARK SMILES IDX 31 36 32 37 90 38 33 39 89 40 34 41 35 42 36 43 83 44 37 45
REMARK SMILES IDX 88 46 82 47 84 48 38 49 87 50 81 51 80 52 39 54 69 55 50 56
REMARK SMILES IDX 68 57 51 58 54 59 67 60 85 61 52 62 53 63 66 65 86 66 55 67
REMARK SMILES IDX 40 68 41 69 49 70 42 71 48 72 43 73 44 74 45 75 46 76 47 77
REMARK SMILES IDX 70 78 71 79 79 80 72 81 78 82 73 83 74 84 75 85 76 86 77 87
REMARK SMILES IDX 56 88 57 89 65 90 58 91 64 92 59 93 60 94 61 95 62 96 63 97
REMARK H PARENT 13 25 13 26 13 27 84 53 54 64
REMARK Flexibility Score: inf
ROOT
ATOM      1  O   UNL A   1      36.887  22.011  26.073  1.00  0.00    -0.377 OA
ENDROOT
BRANCH   1   2
ATOM      2  C   UNL A   1      36.261  21.132  25.152  1.00  0.00     0.188 C 
BRANCH   2   3
ATOM      3  C   UNL A   1      34.789  21.355  24.743  1.00  0.00     0.188 C 
BRANCH   3   4
ATOM      4  O   UNL A   1      33.907  20.251  24.652  1.00  0.00    -0.376 OA
BRANCH   4   5
ATOM      5  C   UNL A   1      32.632  20.477  25.242  1.00  0.00     0.202 C 
BRANCH   5   6
ATOM      6  C   UNL A   1      32.481  21.787  26.006  1.00  0.00     0.261 C 
BRANCH   6   7
ATOM      7  O   UNL A   1      31.441  22.539  25.359  1.00  0.00    -0.459 OA
BRANCH   7   8
ATOM      8  C   UNL A   1      31.100  23.663  26.024  1.00  0.00     0.368 C 
ATOM      9  O   UNL A   1      31.090  23.783  27.236  1.00  0.00    -0.245 OA
BRANCH   8  10
ATOM     10  C   UNL A   1      30.869  24.850  25.077  1.00  0.00     0.193 C 
ATOM     11  C   UNL A   1      32.168  26.692  24.158  1.00  0.00     0.054 C 
ATOM     12  C   UNL A   1      30.850  27.231  24.731  1.00  0.00     0.022 C 
ATOM     13  C   UNL A   1      32.262  25.236  24.580  1.00  0.00     0.095 C 
ATOM     14  C   UNL A   1      30.336  26.150  25.683  1.00  0.00     0.082 C 
BRANCH  11  15
ATOM     15  S   UNL A   1      33.735  27.551  24.544  1.00  0.00    -0.154 SA
BRANCH  15  16
ATOM     16  C   UNL A   1      33.692  27.670  26.383  1.00  0.00     0.105 C 
BRANCH  16  17
ATOM     17  C   UNL A   1      34.022  29.047  26.904  1.00  0.00    -0.038 A 
ATOM     18  C   UNL A   1      36.894  30.823  28.688  1.00  0.00     0.044 C 
ATOM     19  C   UNL A   1      35.570  30.547  28.045  1.00  0.00    -0.051 A 
ATOM     20  C   UNL A   1      34.577  31.527  28.091  1.00  0.00     0.003 A 
ATOM     21  C   UNL A   1      35.285  29.305  27.458  1.00  0.00     0.008 A 
ATOM     22  C   UNL A   1      33.349  31.310  27.478  1.00  0.00     0.001 A 
ATOM     23  C   UNL A   1      33.089  30.093  26.857  1.00  0.00     0.004 A 
ENDBRANCH  16  17
ENDBRANCH  15  16
ENDBRANCH  11  15
BRANCH  10  24
ATOM     24  N   UNL A   1      30.013  24.438  23.946  1.00  0.00    -0.343 N 
ATOM     25  H   UNL A   1      29.566  23.547  24.163  1.00  0.00     0.345 HD
ATOM     26  H   UNL A   1      30.583  24.338  23.107  1.00  0.00     0.345 HD
ATOM     27  H   UNL A   1      29.296  25.146  23.786  1.00  0.00     0.345 HD
ENDBRANCH  10  24
ENDBRANCH   8  10
ENDBRANCH   7   8
ENDBRANCH   6   7
ENDBRANCH   5   6
ENDBRANCH   4   5
ENDBRANCH   3   4
ENDBRANCH   2   3
ENDBRANCH   1   2
BRANCH   1  28
ATOM     28  C   UNL A   1      37.865  22.942  25.584  1.00  0.00     0.188 C 
BRANCH  28  29
ATOM     29  C   UNL A   1      38.331  24.062  26.513  1.00  0.00     0.188 C 
BRANCH  29  30
ATOM     30  O   UNL A   1      39.650  23.761  26.973  1.00  0.00    -0.376 OA
BRANCH  30  31
ATOM     31  C   UNL A   1      40.474  24.859  27.333  1.00  0.00     0.202 C 
BRANCH  31  32
ATOM     32  C   UNL A   1      41.408  25.340  26.221  1.00  0.00     0.261 C 
BRANCH  32  33
ATOM     33  O   UNL A   1      40.939  26.551  25.590  1.00  0.00    -0.460 OA
BRANCH  33  34
ATOM     34  C   UNL A   1      41.828  27.578  25.539  1.00  0.00     0.338 C 
ATOM     35  O   UNL A   1      42.636  27.726  24.623  1.00  0.00    -0.246 OA
BRANCH  34  36
ATOM     36  C   UNL A   1      41.591  28.566  26.617  1.00  0.00     0.060 A 
ATOM     37  C   UNL A   1      42.637  29.302  27.189  1.00  0.00     0.016 A 
ATOM     38  C   UNL A   1      40.313  28.663  27.148  1.00  0.00     0.016 A 
ATOM     39  C   UNL A   1      42.431  30.013  28.386  1.00  0.00     0.010 A 
ATOM     40  C   UNL A   1      40.145  29.279  28.371  1.00  0.00     0.010 A 
ATOM     41  C   UNL A   1      41.193  29.949  29.027  1.00  0.00    -0.014 A 
BRANCH  41  42
ATOM     42  C   UNL A   1      40.889  30.388  30.410  1.00  0.00     0.031 A 
ATOM     43  C   UNL A   1      40.166  31.702  30.620  1.00  0.00     0.074 A 
ATOM     44  C   UNL A   1      40.871  29.448  31.397  1.00  0.00     0.049 A 
ATOM     45  N   UNL A   1      39.685  32.112  31.745  1.00  0.00    -0.248 NA
ATOM     46  C   UNL A   1      39.884  32.672  29.553  1.00  0.00     0.031 C 
ATOM     47  C   UNL A   1      40.008  29.459  32.581  1.00  0.00     0.029 A 
ATOM     48  N   UNL A   1      41.580  28.262  31.575  1.00  0.00    -0.354 N 
ATOM     49  C   UNL A   1      38.760  33.110  31.496  1.00  0.00     0.074 A 
ATOM     50  C   UNL A   1      38.979  33.479  30.124  1.00  0.00     0.031 C 
ATOM     51  C   UNL A   1      40.317  28.454  33.410  1.00  0.00     0.029 A 
ATOM     52  C   UNL A   1      41.577  27.936  32.940  1.00  0.00     0.049 A 
ATOM     53  H   UNL A   1      42.012  27.739  30.862  1.00  0.00     0.167 HD
ATOM     54  C   UNL A   1      37.829  33.403  32.452  1.00  0.00     0.031 A 
ATOM     55  C   UNL A   1      42.697  27.939  33.722  1.00  0.00     0.031 A 
ATOM     56  C   UNL A   1      38.155  32.733  33.711  1.00  0.00     0.049 A 
ATOM     57  C   UNL A   1      42.634  29.071  34.738  1.00  0.00     0.074 A 
ATOM     58  C   UNL A   1      37.536  31.726  34.425  1.00  0.00     0.029 A 
ATOM     59  N   UNL A   1      39.429  32.889  34.259  1.00  0.00    -0.354 N 
ATOM     60  N   UNL A   1      41.918  30.155  34.558  1.00  0.00    -0.248 NA
ATOM     61  C   UNL A   1      43.238  29.036  36.067  1.00  0.00     0.031 C 
ATOM     62  C   UNL A   1      38.540  31.116  35.219  1.00  0.00     0.029 A 
ATOM     63  C   UNL A   1      39.702  31.870  35.147  1.00  0.00     0.049 A 
ATOM     64  H   UNL A   1      40.046  33.625  34.042  1.00  0.00     0.167 HD
ATOM     65  C   UNL A   1      41.819  30.848  35.731  1.00  0.00     0.074 A 
ATOM     66  C   UNL A   1      42.732  30.153  36.626  1.00  0.00     0.031 C 
ATOM     67  C   UNL A   1      40.930  31.867  35.941  1.00  0.00     0.031 A 
BRANCH  54  68
ATOM     68  C   UNL A   1      36.499  34.114  32.240  1.00  0.00    -0.014 A 
ATOM     69  C   UNL A   1      35.932  34.852  33.308  1.00  0.00     0.010 A 
ATOM     70  C   UNL A   1      35.704  34.011  31.080  1.00  0.00     0.010 A 
ATOM     71  C   UNL A   1      34.659  35.447  33.227  1.00  0.00     0.020 A 
ATOM     72  C   UNL A   1      34.439  34.628  30.976  1.00  0.00     0.020 A 
ATOM     73  C   UNL A   1      33.919  35.338  32.055  1.00  0.00     0.054 A 
BRANCH  73  74
ATOM     74  S   UNL A   1      32.293  36.142  31.956  1.00  0.00     0.124 S 
ATOM     75  O   UNL A   1      32.079  36.247  30.515  1.00  0.00    -0.237 OA
ATOM     76  O   UNL A   1      31.427  35.196  32.653  1.00  0.00    -0.237 OA
ATOM     77  O   UNL A   1      32.494  37.415  32.647  1.00  0.00    -0.744 OA
ENDBRANCH  73  74
ENDBRANCH  54  68
BRANCH  55  78
ATOM     78  C   UNL A   1      43.865  27.283  33.066  1.00  0.00    -0.014 A 
ATOM     79  C   UNL A   1      45.050  28.058  33.106  1.00  0.00     0.010 A 
ATOM     80  C   UNL A   1      43.975  25.880  33.094  1.00  0.00     0.010 A 
ATOM     81  C   UNL A   1      46.261  27.475  33.487  1.00  0.00     0.020 A 
ATOM     82  C   UNL A   1      45.198  25.292  33.465  1.00  0.00     0.020 A 
ATOM     83  C   UNL A   1      46.301  26.107  33.750  1.00  0.00     0.054 A 
BRANCH  83  84
ATOM     84  S   UNL A   1      47.684  25.481  34.759  1.00  0.00     0.124 S 
ATOM     85  O   UNL A   1      47.012  25.034  35.973  1.00  0.00    -0.237 OA
ATOM     86  O   UNL A   1      48.227  24.422  33.910  1.00  0.00    -0.237 OA
ATOM     87  O   UNL A   1      48.544  26.651  34.906  1.00  0.00    -0.744 OA
ENDBRANCH  83  84
ENDBRANCH  55  78
BRANCH  67  88
ATOM     88  C   UNL A   1      41.024  32.896  37.046  1.00  0.00    -0.014 A 
ATOM     89  C   UNL A   1      42.122  33.747  37.220  1.00  0.00     0.010 A 
ATOM     90  C   UNL A   1      39.883  33.148  37.853  1.00  0.00     0.010 A 
ATOM     91  C   UNL A   1      42.101  34.769  38.178  1.00  0.00     0.020 A 
ATOM     92  C   UNL A   1      39.831  34.197  38.772  1.00  0.00     0.020 A 
ATOM     93  C   UNL A   1      40.953  34.993  38.940  1.00  0.00     0.054 A 
BRANCH  93  94
ATOM     94  S   UNL A   1      40.913  36.387  40.089  1.00  0.00     0.124 S 
ATOM     95  O   UNL A   1      41.692  35.872  41.211  1.00  0.00    -0.237 OA
ATOM     96  O   UNL A   1      41.551  37.454  39.319  1.00  0.00    -0.237 OA
ATOM     97  O   UNL A   1      39.489  36.583  40.348  1.00  0.00    -0.744 OA
ENDBRANCH  93  94
ENDBRANCH  67  88
ENDBRANCH  41  42
ENDBRANCH  34  36
ENDBRANCH  33  34
ENDBRANCH  32  33
ENDBRANCH  31  32
ENDBRANCH  30  31
ENDBRANCH  29  30
ENDBRANCH  28  29
ENDBRANCH   1  28
TORSDOF 27
ENDMDL
MODEL 2
REMARK VINA RESULT:      -9.6      1.591      2.042
REMARK SMILES Cc1cccc(CS[C@@H]2CC[C@]([NH3+])(C(=O)OCCOCCOCCOCCOC(=O)c3ccc(-c4c5nc(c(-c6ccc(S(=O)(=O)[O-])cc6)c6ccc([nH]6)c(-c6ccc(S(=O)(=O)[O-])cc6)c6nc(c(-c7ccc(S(=O)(=O)[O-])cc7)c7ccc4[nH]7)C=C6)C=C5)cc3)C2)c1
REMARK SMILES IDX 22 1 21 2 20 3 19 4 18 5 17 6 16 7 14 8 15 9 12 10 9 11
REMARK SMILES IDX 10 12 91 13 11 14 8 15 7 16 6 17 1 18 2 19 3 20 92 21 4 22
REMARK SMILES IDX 5 23 13 24 23 28 24 29 25 30 26 31 27 32 28 33 29 34 30 35
REMARK SMILES IDX 31 36 32 37 90 38 33 39 89 40 34 41 35 42 36 43 83 44 37 45
REMARK SMILES IDX 88 46 82 47 84 48 38 49 87 50 81 51 80 52 39 54 69 55 50 56
REMARK SMILES IDX 68 57 51 58 54 59 67 60 85 61 52 62 53 63 66 65 86 66 55 67
REMARK SMILES IDX 40 68 41 69 49 70 42 71 48 72 43 73 44 74 45 75 46 76 47 77
REMARK SMILES IDX 70 78 71 79 79 80 72 81 78 82 73 83 74 84 75 85 76 86 77 87
REMARK SMILES IDX 56 88 57 89 65 90 58 91 64 92 59 93 60 94 61 95 62 96 63 97
REMARK H PARENT 13 25 13 26 13 27 84 53 54 64
REMARK Flexibility Score: inf
ROOT
ATOM      1  O   UNL A   1      36.663  21.871  25.987  1.00  0.00    -0.377 OA
ENDROOT
BRANCH   1   2
ATOM      2  C   UNL A   1      35.854  21.074  25.136  1.00  0.00     0.188 C 
BRANCH   2   3
ATOM      3  C   UNL A   1      34.478  21.590  24.665  1.00  0.00     0.188 C 
BRANCH   3   4
ATOM      4  O   UNL A   1      33.395  20.688  24.528  1.00  0.00    -0.376 OA
BRANCH   4   5
ATOM      5  C   UNL A   1      32.149  21.203  24.985  1.00  0.00     0.202 C 
BRANCH   5   6
ATOM      6  C   UNL A   1      32.224  22.497  25.785  1.00  0.00     0.261 C 
BRANCH   6   7
ATOM      7  O   UNL A   1      31.204  23.371  25.275  1.00  0.00    -0.459 OA
BRANCH   7   8
ATOM      8  C   UNL A   1      31.245  24.611  25.808  1.00  0.00     0.368 C 
ATOM      9  O   UNL A   1      31.349  24.858  26.997  1.00  0.00    -0.245 OA
BRANCH   8  10
ATOM     10  C   UNL A   1      31.304  25.705  24.732  1.00  0.00     0.193 C 
ATOM     11  C   UNL A   1      31.881  28.066  24.604  1.00  0.00     0.054 C 
ATOM     12  C   UNL A   1      30.529  27.832  23.918  1.00  0.00     0.022 C 
ATOM     13  C   UNL A   1      32.247  26.766  25.301  1.00  0.00     0.095 C 
ATOM     14  C   UNL A   1      30.022  26.488  24.443  1.00  0.00     0.082 C 
BRANCH  11  15
ATOM     15  S   UNL A   1      32.071  29.465  25.766  1.00  0.00    -0.154 SA
BRANCH  15  16
ATOM     16  C   UNL A   1      33.220  28.785  27.037  1.00  0.00     0.105 C 
BRANCH  16  17
ATOM     17  C   UNL A   1      34.288  29.761  27.465  1.00  0.00    -0.038 A 
ATOM     18  C   UNL A   1      34.689  33.523  27.988  1.00  0.00     0.044 C 
ATOM     19  C   UNL A   1      34.988  32.059  27.890  1.00  0.00    -0.051 A 
ATOM     20  C   UNL A   1      36.308  31.625  28.027  1.00  0.00     0.003 A 
ATOM     21  C   UNL A   1      33.982  31.124  27.601  1.00  0.00     0.008 A 
ATOM     22  C   UNL A   1      36.610  30.270  27.969  1.00  0.00     0.001 A 
ATOM     23  C   UNL A   1      35.601  29.343  27.727  1.00  0.00     0.004 A 
ENDBRANCH  16  17
ENDBRANCH  15  16
ENDBRANCH  11  15
BRANCH  10  24
ATOM     24  N   UNL A   1      31.847  25.151  23.475  1.00  0.00    -0.343 N 
ATOM     25  H   UNL A   1      32.090  25.914  22.843  1.00  0.00     0.345 HD
ATOM     26  H   UNL A   1      31.146  24.555  23.035  1.00  0.00     0.345 HD
ATOM     27  H   UNL A   1      32.681  24.601  23.678  1.00  0.00     0.345 HD
ENDBRANCH  10  24
ENDBRANCH   8  10
ENDBRANCH   7   8
ENDBRANCH   6   7
ENDBRANCH   5   6
ENDBRANCH   4   5
ENDBRANCH   3   4
ENDBRANCH   2   3
ENDBRANCH   1   2
BRANCH   1  28
ATOM     28  C   UNL A   1      37.726  22.642  25.406  1.00  0.00     0.188 C 
BRANCH  28  29
ATOM     29  C   UNL A   1      38.198  23.897  26.139  1.00  0.00     0.188 C 
BRANCH  29  30
ATOM     30  O   UNL A   1      39.374  23.579  26.886  1.00  0.00    -0.376 OA
BRANCH  30  31
ATOM     31  C   UNL A   1      40.233  24.657  27.226  1.00  0.00     0.202 C 
BRANCH  31  32
ATOM     32  C   UNL A   1      41.085  25.175  26.066  1.00  0.00     0.261 C 
BRANCH  32  33
ATOM     33  O   UNL A   1      40.677  26.488  25.625  1.00  0.00    -0.460 OA
BRANCH  33  34
ATOM     34  C   UNL A   1      41.647  27.442  25.621  1.00  0.00     0.338 C 
ATOM     35  O   UNL A   1      42.493  27.540  24.735  1.00  0.00    -0.246 OA
BRANCH  34  36
ATOM     36  C   UNL A   1      41.453  28.427  26.710  1.00  0.00     0.060 A 
ATOM     37  C   UNL A   1      42.514  29.190  27.215  1.00  0.00     0.016 A 
ATOM     38  C   UNL A   1      40.208  28.496  27.320  1.00  0.00     0.016 A 
ATOM     39  C   UNL A   1      42.367  29.901  28.420  1.00  0.00     0.010 A 
ATOM     40  C   UNL A   1      40.102  29.112  28.549  1.00  0.00     0.010 A 
ATOM     41  C   UNL A   1      41.173  29.810  29.137  1.00  0.00    -0.014 A 
BRANCH  41  42
ATOM     42  C   UNL A   1      40.945  30.245  30.536  1.00  0.00     0.031 A 
ATOM     43  C   UNL A   1      40.193  31.536  30.788  1.00  0.00     0.074 A 
ATOM     44  C   UNL A   1      41.023  29.312  31.525  1.00  0.00     0.049 A 
ATOM     45  N   UNL A   1      39.773  31.936  31.940  1.00  0.00    -0.248 NA
ATOM     46  C   UNL A   1      39.809  32.490  29.738  1.00  0.00     0.031 C 
ATOM     47  C   UNL A   1      40.239  29.300  32.763  1.00  0.00     0.029 A 
ATOM     48  N   UNL A   1      41.782  28.151  31.660  1.00  0.00    -0.354 N 
ATOM     49  C   UNL A   1      38.800  32.901  31.749  1.00  0.00     0.074 A 
ATOM     50  C   UNL A   1      38.917  33.269  30.365  1.00  0.00     0.031 C 
ATOM     51  C   UNL A   1      40.635  28.311  33.574  1.00  0.00     0.029 A 
ATOM     52  C   UNL A   1      41.878  27.833  33.024  1.00  0.00     0.049 A 
ATOM     53  H   UNL A   1      42.183  27.638  30.922  1.00  0.00     0.167 HD
ATOM     54  C   UNL A   1      37.925  33.168  32.763  1.00  0.00     0.031 A 
ATOM     55  C   UNL A   1      43.046  27.878  33.731  1.00  0.00     0.031 A 
ATOM     56  C   UNL A   1      38.354  32.516  34.000  1.00  0.00     0.049 A 
ATOM     57  C   UNL A   1      43.012  29.013  34.745  1.00  0.00     0.074 A 
ATOM     58  C   UNL A   1      37.817  31.494  34.756  1.00  0.00     0.029 A 
ATOM     59  N   UNL A   1      39.655  32.719  34.463  1.00  0.00    -0.354 N 
ATOM     60  N   UNL A   1      42.249  30.071  34.608  1.00  0.00    -0.248 NA
ATOM     61  C   UNL A   1      43.702  29.006  36.032  1.00  0.00     0.031 C 
ATOM     62  C   UNL A   1      38.891  30.922  35.485  1.00  0.00     0.029 A 
ATOM     63  C   UNL A   1      40.019  31.714  35.335  1.00  0.00     0.049 A 
ATOM     64  H   UNL A   1      40.232  33.473  34.204  1.00  0.00     0.167 HD
ATOM     65  C   UNL A   1      42.204  30.767  35.783  1.00  0.00     0.074 A 
ATOM     66  C   UNL A   1      43.196  30.109  36.619  1.00  0.00     0.031 C 
ATOM     67  C   UNL A   1      41.296  31.756  36.047  1.00  0.00     0.031 A 
BRANCH  54  68
ATOM     68  C   UNL A   1      36.560  33.833  32.636  1.00  0.00    -0.014 A 
ATOM     69  C   UNL A   1      35.616  33.304  31.722  1.00  0.00     0.010 A 
ATOM     70  C   UNL A   1      36.179  35.027  33.282  1.00  0.00     0.010 A 
ATOM     71  C   UNL A   1      34.377  33.921  31.468  1.00  0.00     0.020 A 
ATOM     72  C   UNL A   1      34.928  35.639  33.059  1.00  0.00     0.020 A 
ATOM     73  C   UNL A   1      34.035  35.086  32.146  1.00  0.00     0.054 A 
BRANCH  73  74
ATOM     74  S   UNL A   1      32.417  35.850  31.832  1.00  0.00     0.124 S 
ATOM     75  O   UNL A   1      32.652  37.247  32.185  1.00  0.00    -0.237 OA
ATOM     76  O   UNL A   1      32.210  35.587  30.411  1.00  0.00    -0.237 OA
ATOM     77  O   UNL A   1      31.513  35.129  32.728  1.00  0.00    -0.744 OA
ENDBRANCH  73  74
ENDBRANCH  54  68
BRANCH  55  78
ATOM     78  C   UNL A   1      44.191  27.258  33.003  1.00  0.00    -0.014 A 
ATOM     79  C   UNL A   1      44.168  25.842  33.006  1.00  0.00     0.010 A 
ATOM     80  C   UNL A   1      44.743  27.920  31.890  1.00  0.00     0.010 A 
ATOM     81  C   UNL A   1      44.381  25.130  31.823  1.00  0.00     0.020 A 
ATOM     82  C   UNL A   1      44.971  27.202  30.702  1.00  0.00     0.020 A 
ATOM     83  C   UNL A   1      44.694  25.830  30.659  1.00  0.00     0.054 A 
BRANCH  83  84
ATOM     84  S   UNL A   1      44.416  24.987  29.066  1.00  0.00     0.124 S 
ATOM     85  O   UNL A   1      45.059  23.695  29.278  1.00  0.00    -0.237 OA
ATOM     86  O   UNL A   1      42.956  24.961  28.985  1.00  0.00    -0.237 OA
ATOM     87  O   UNL A   1      45.068  25.869  28.105  1.00  0.00    -0.744 OA
ENDBRANCH  83  84
ENDBRANCH  55  78
BRANCH  67  88
ATOM     88  C   UNL A   1      41.427  32.795  37.140  1.00  0.00    -0.014 A 
ATOM     89  C   UNL A   1      42.504  33.684  37.238  1.00  0.00     0.010 A 
ATOM     90  C   UNL A   1      40.334  33.011  38.020  1.00  0.00     0.010 A 
ATOM     91  C   UNL A   1      42.511  34.710  38.192  1.00  0.00     0.020 A 
ATOM     92  C   UNL A   1      40.306  34.064  38.936  1.00  0.00     0.020 A 
ATOM     93  C   UNL A   1      41.409  34.898  39.027  1.00  0.00     0.054 A 
BRANCH  93  94
ATOM     94  S   UNL A   1      41.396  36.297  40.172  1.00  0.00     0.124 S 
ATOM     95  O   UNL A   1      42.471  37.129  39.639  1.00  0.00    -0.237 OA
ATOM     96  O   UNL A   1      40.046  36.833  40.007  1.00  0.00    -0.237 OA
ATOM     97  O   UNL A   1      41.660  35.684  41.472  1.00  0.00    -0.744 OA
ENDBRANCH  93  94
ENDBRANCH  67  88
ENDBRANCH  41  42
ENDBRANCH  34  36
ENDBRANCH  33  34
ENDBRANCH  32  33
ENDBRANCH  31  32
ENDBRANCH  30  31
ENDBRANCH  29  30
ENDBRANCH  28  29
ENDBRANCH   1  28
TORSDOF 27
ENDMDL
MODEL 3
REMARK VINA RESULT:      -8.9      2.356      8.178
REMARK SMILES Cc1cccc(CS[C@@H]2CC[C@]([NH3+])(C(=O)OCCOCCOCCOCCOC(=O)c3ccc(-c4c5nc(c(-c6ccc(S(=O)(=O)[O-])cc6)c6ccc([nH]6)c(-c6ccc(S(=O)(=O)[O-])cc6)c6nc(c(-c7ccc(S(=O)(=O)[O-])cc7)c7ccc4[nH]7)C=C6)C=C5)cc3)C2)c1
REMARK SMILES IDX 22 1 21 2 20 3 19 4 18 5 17 6 16 7 14 8 15 9 12 10 9 11
REMARK SMILES IDX 10 12 91 13 11 14 8 15 7 16 6 17 1 18 2 19 3 20 92 21 4 22
REMARK SMILES IDX 5 23 13 24 23 28 24 29 25 30 26 31 27 32 28 33 29 34 30 35
REMARK SMILES IDX 31 36 32 37 90 38 33 39 89 40 34 41 35 42 36 43 83 44 37 45
REMARK SMILES IDX 88 46 82 47 84 48 38 49 87 50 81 51 80 52 39 54 69 55 50 56
REMARK SMILES IDX 68 57 51 58 54 59 67 60 85 61 52 62 53 63 66 65 86 66 55 67
REMARK SMILES IDX 40 68 41 69 49 70 42 71 48 72 43 73 44 74 45 75 46 76 47 77
REMARK SMILES IDX 70 78 71 79 79 80 72 81 78 82 73 83 74 84 75 85 76 86 77 87
REMARK SMILES IDX 56 88 57 89 65 90 58 91 64 92 59 93 60 94 61 95 62 96 63 97
REMARK H PARENT 13 25 13 26 13 27 84 53 54 64
REMARK Flexibility Score: inf
ROOT
ATOM      1  O   UNL A   1      34.079  22.237  24.205  1.00  0.00    -0.377 OA
ENDROOT
BRANCH   1   2
ATOM      2  C   UNL A   1      33.562  22.614  22.939  1.00  0.00     0.188 C 
BRANCH   2   3
ATOM      3  C   UNL A   1      33.477  24.104  22.546  1.00  0.00     0.188 C 
BRANCH   3   4
ATOM      4  O   UNL A   1      33.178  24.467  21.210  1.00  0.00    -0.376 OA
BRANCH   4   5
ATOM      5  C   UNL A   1      32.316  25.593  21.093  1.00  0.00     0.202 C 
BRANCH   5   6
ATOM      6  C   UNL A   1      32.388  26.600  22.235  1.00  0.00     0.261 C 
BRANCH   6   7
ATOM      7  O   UNL A   1      31.050  26.778  22.728  1.00  0.00    -0.459 OA
BRANCH   7   8
ATOM      8  C   UNL A   1      30.701  25.875  23.669  1.00  0.00     0.368 C 
ATOM      9  O   UNL A   1      30.172  24.800  23.445  1.00  0.00    -0.245 OA
BRANCH   8  10
ATOM     10  C   UNL A   1      31.184  26.278  25.070  1.00  0.00     0.193 C 
ATOM     11  C   UNL A   1      32.539  28.040  26.062  1.00  0.00     0.054 C 
ATOM     12  C   UNL A   1      33.017  26.676  26.577  1.00  0.00     0.022 C 
ATOM     13  C   UNL A   1      31.539  27.761  24.953  1.00  0.00     0.095 C 
ATOM     14  C   UNL A   1      32.477  25.643  25.586  1.00  0.00     0.082 C 
BRANCH  11  15
ATOM     15  S   UNL A   1      33.768  29.268  25.492  1.00  0.00    -0.154 SA
BRANCH  15  16
ATOM     16  C   UNL A   1      33.934  30.383  26.950  1.00  0.00     0.105 C 
BRANCH  16  17
ATOM     17  C   UNL A   1      35.167  30.112  27.777  1.00  0.00    -0.038 A 
ATOM     18  C   UNL A   1      38.918  29.619  27.252  1.00  0.00     0.044 C 
ATOM     19  C   UNL A   1      37.571  29.715  27.899  1.00  0.00    -0.051 A 
ATOM     20  C   UNL A   1      37.440  29.376  29.247  1.00  0.00     0.003 A 
ATOM     21  C   UNL A   1      36.430  30.074  27.166  1.00  0.00     0.008 A 
ATOM     22  C   UNL A   1      36.208  29.482  29.880  1.00  0.00     0.001 A 
ATOM     23  C   UNL A   1      35.089  29.883  29.158  1.00  0.00     0.004 A 
ENDBRANCH  16  17
ENDBRANCH  15  16
ENDBRANCH  11  15
BRANCH  10  24
ATOM     24  N   UNL A   1      30.102  26.083  26.056  1.00  0.00    -0.343 N 
ATOM     25  H   UNL A   1      30.043  26.899  26.665  1.00  0.00     0.345 HD
ATOM     26  H   UNL A   1      30.299  25.254  26.617  1.00  0.00     0.345 HD
ATOM     27  H   UNL A   1      29.215  25.959  25.568  1.00  0.00     0.345 HD
ENDBRANCH  10  24
ENDBRANCH   8  10
ENDBRANCH   7   8
ENDBRANCH   6   7
ENDBRANCH   5   6
ENDBRANCH   4   5
ENDBRANCH   3   4
ENDBRANCH   2   3
ENDBRANCH   1   2
BRANCH   1  28
ATOM     28  C   UNL A   1      35.504  22.196  24.385  1.00  0.00     0.188 C 
BRANCH  28  29
ATOM     29  C   UNL A   1      36.063  22.361  25.797  1.00  0.00     0.188 C 
BRANCH  29  30
ATOM     30  O   UNL A   1      37.491  22.354  25.731  1.00  0.00    -0.376 OA
BRANCH  30  31
ATOM     31  C   UNL A   1      38.146  23.608  25.838  1.00  0.00     0.202 C 
BRANCH  31  32
ATOM     32  C   UNL A   1      39.205  23.676  26.939  1.00  0.00     0.261 C 
BRANCH  32  33
ATOM     33  O   UNL A   1      39.424  25.023  27.412  1.00  0.00    -0.460 OA
BRANCH  33  34
ATOM     34  C   UNL A   1      40.483  25.195  28.248  1.00  0.00     0.338 C 
ATOM     35  O   UNL A   1      41.451  24.436  28.276  1.00  0.00    -0.246 OA
BRANCH  34  36
ATOM     36  C   UNL A   1      40.400  26.477  28.984  1.00  0.00     0.060 A 
ATOM     37  C   UNL A   1      41.457  27.397  28.990  1.00  0.00     0.016 A 
ATOM     38  C   UNL A   1      39.290  26.704  29.786  1.00  0.00     0.016 A 
ATOM     39  C   UNL A   1      41.468  28.460  29.912  1.00  0.00     0.010 A 
ATOM     40  C   UNL A   1      39.355  27.687  30.751  1.00  0.00     0.010 A 
ATOM     41  C   UNL A   1      40.443  28.572  30.852  1.00  0.00    -0.014 A 
BRANCH  41  42
ATOM     42  C   UNL A   1      40.438  29.437  32.057  1.00  0.00     0.031 A 
ATOM     43  C   UNL A   1      41.126  28.947  33.314  1.00  0.00     0.074 A 
ATOM     44  C   UNL A   1      40.210  30.770  31.895  1.00  0.00     0.049 A 
ATOM     45  N   UNL A   1      41.350  29.662  34.364  1.00  0.00    -0.248 NA
ATOM     46  C   UNL A   1      41.664  27.590  33.489  1.00  0.00     0.031 C 
ATOM     47  C   UNL A   1      40.784  31.847  32.706  1.00  0.00     0.029 A 
ATOM     48  N   UNL A   1      39.452  31.486  30.971  1.00  0.00    -0.354 N 
ATOM     49  C   UNL A   1      42.330  29.047  35.121  1.00  0.00     0.074 A 
ATOM     50  C   UNL A   1      42.435  27.721  34.577  1.00  0.00     0.031 C 
ATOM     51  C   UNL A   1      40.272  33.035  32.360  1.00  0.00     0.029 A 
ATOM     52  C   UNL A   1      39.139  32.740  31.520  1.00  0.00     0.049 A 
ATOM     53  H   UNL A   1      39.180  31.167  30.080  1.00  0.00     0.167 HD
ATOM     54  C   UNL A   1      43.028  29.790  36.031  1.00  0.00     0.031 A 
ATOM     55  C   UNL A   1      37.872  33.125  31.854  1.00  0.00     0.031 A 
ATOM     56  C   UNL A   1      42.411  31.105  36.203  1.00  0.00     0.049 A 
ATOM     57  C   UNL A   1      37.730  33.241  33.365  1.00  0.00     0.074 A 
ATOM     58  C   UNL A   1      42.829  32.384  35.897  1.00  0.00     0.029 A 
ATOM     59  N   UNL A   1      41.050  31.187  36.503  1.00  0.00    -0.354 N 
ATOM     60  N   UNL A   1      38.494  32.586  34.206  1.00  0.00    -0.248 NA
ATOM     61  C   UNL A   1      36.841  34.173  34.053  1.00  0.00     0.031 C 
ATOM     62  C   UNL A   1      41.657  33.172  35.763  1.00  0.00     0.029 A 
ATOM     63  C   UNL A   1      40.560  32.437  36.184  1.00  0.00     0.049 A 
ATOM     64  H   UNL A   1      40.515  30.456  36.888  1.00  0.00     0.167 HD
ATOM     65  C   UNL A   1      38.342  33.094  35.465  1.00  0.00     0.074 A 
ATOM     66  C   UNL A   1      37.234  34.029  35.334  1.00  0.00     0.031 C 
ATOM     67  C   UNL A   1      39.185  32.815  36.507  1.00  0.00     0.031 A 
BRANCH  54  68
ATOM     68  C   UNL A   1      44.388  29.455  36.629  1.00  0.00    -0.014 A 
ATOM     69  C   UNL A   1      44.468  28.498  37.670  1.00  0.00     0.010 A 
ATOM     70  C   UNL A   1      45.595  30.109  36.308  1.00  0.00     0.010 A 
ATOM     71  C   UNL A   1      45.669  28.211  38.346  1.00  0.00     0.020 A 
ATOM     72  C   UNL A   1      46.811  29.809  36.958  1.00  0.00     0.020 A 
ATOM     73  C   UNL A   1      46.840  28.865  37.980  1.00  0.00     0.054 A 
BRANCH  73  74
ATOM     74  S   UNL A   1      48.387  28.457  38.840  1.00  0.00     0.124 S 
ATOM     75  O   UNL A   1      47.937  28.230  40.211  1.00  0.00    -0.237 OA
ATOM     76  O   UNL A   1      48.847  27.271  38.124  1.00  0.00    -0.237 OA
ATOM     77  O   UNL A   1      49.214  29.649  38.650  1.00  0.00    -0.744 OA
ENDBRANCH  73  74
ENDBRANCH  54  68
BRANCH  55  78
ATOM     78  C   UNL A   1      36.867  32.788  30.804  1.00  0.00    -0.014 A 
ATOM     79  C   UNL A   1      35.570  32.540  31.316  1.00  0.00     0.010 A 
ATOM     80  C   UNL A   1      36.988  33.356  29.522  1.00  0.00     0.010 A 
ATOM     81  C   UNL A   1      34.452  33.132  30.722  1.00  0.00     0.020 A 
ATOM     82  C   UNL A   1      35.861  33.940  28.917  1.00  0.00     0.020 A 
ATOM     83  C   UNL A   1      34.624  33.903  29.574  1.00  0.00     0.054 A 
BRANCH  83  84
ATOM     84  S   UNL A   1      33.309  35.092  29.150  1.00  0.00     0.124 S 
ATOM     85  O   UNL A   1      32.490  34.334  28.212  1.00  0.00    -0.237 OA
ATOM     86  O   UNL A   1      32.701  35.351  30.455  1.00  0.00    -0.237 OA
ATOM     87  O   UNL A   1      34.047  36.215  28.583  1.00  0.00    -0.744 OA
ENDBRANCH  83  84
ENDBRANCH  55  78
BRANCH  67  88
ATOM     88  C   UNL A   1      38.868  33.030  37.971  1.00  0.00    -0.014 A 
ATOM     89  C   UNL A   1      39.473  34.018  38.757  1.00  0.00     0.010 A 
ATOM     90  C   UNL A   1      37.785  32.320  38.554  1.00  0.00     0.010 A 
ATOM     91  C   UNL A   1      39.049  34.258  40.070  1.00  0.00     0.020 A 
ATOM     92  C   UNL A   1      37.318  32.589  39.841  1.00  0.00     0.020 A 
ATOM     93  C   UNL A   1      37.970  33.550  40.599  1.00  0.00     0.054 A 
BRANCH  93  94
ATOM     94  S   UNL A   1      37.372  33.956  42.255  1.00  0.00     0.124 S 
ATOM     95  O   UNL A   1      37.527  35.408  42.281  1.00  0.00    -0.237 OA
ATOM     96  O   UNL A   1      35.993  33.472  42.226  1.00  0.00    -0.237 OA
ATOM     97  O   UNL A   1      38.266  33.212  43.140  1.00  0.00    -0.744 OA
ENDBRANCH  93  94
ENDBRANCH  67  88
ENDBRANCH  41  42
ENDBRANCH  34  36
ENDBRANCH  33  34
ENDBRANCH  32  33
ENDBRANCH  31  32
ENDBRANCH  30  31
ENDBRANCH  29  30
ENDBRANCH  28  29
ENDBRANCH   1  28
TORSDOF 27
ENDMDL
