MODEL 1
REMARK VINA RESULT:      -8.5      0.000      0.000
REMARK SMILES C[C@@H](C(=O)OCCOCCOCCOCCOC(=O)c1ccc(-c2c3nc(c(-c4ccc(S(=O)(=O)[O-])cc4)c4ccc([nH]4)c(-c4ccc(S(=O)(=O)[O-])cc4)c4nc(c(-c5ccc(S(=O)(=O)[O-])cc5)c5ccc2[nH]5)C=C4)C=C3)cc1)c1ccc(=O)n(C(F)F)c1
REMARK SMILES IDX 12 1 11 2 10 3 9 4 8 5 7 6 6 7 5 8 3 9 4 10 2 11 1 12 80 13
REMARK SMILES IDX 81 14 89 15 82 16 85 17 83 18 84 19 86 20 87 21 88 22 13 23
REMARK SMILES IDX 14 24 15 25 16 26 17 27 18 28 19 29 20 30 21 31 79 32 22 33
REMARK SMILES IDX 78 34 23 35 24 36 25 37 72 38 26 39 77 40 71 41 73 42 27 43
REMARK SMILES IDX 76 44 70 45 69 46 28 48 58 49 39 50 57 51 40 52 43 53 56 54
REMARK SMILES IDX 74 55 41 56 42 57 55 59 75 60 44 61 29 62 30 63 38 64 31 65
REMARK SMILES IDX 37 66 32 67 33 68 34 69 35 70 36 71 59 72 60 73 68 74 61 75
REMARK SMILES IDX 67 76 62 77 63 78 64 79 65 80 66 81 45 82 46 83 54 84 47 85
REMARK SMILES IDX 53 86 48 87 49 88 50 89 51 90 52 91
REMARK H PARENT 73 47 43 58
REMARK Flexibility Score: inf
ROOT
ATOM      1  C   UNL A   1      42.465  20.742  26.204  1.00  0.00     0.188 C 
ENDROOT
BRANCH   1   2
ATOM      2  O   UNL A   1      41.132  20.663  25.726  1.00  0.00    -0.377 OA
BRANCH   2   3
ATOM      3  C   UNL A   1      40.117  21.022  26.637  1.00  0.00     0.188 C 
BRANCH   3   4
ATOM      4  C   UNL A   1      39.039  21.970  26.074  1.00  0.00     0.188 C 
BRANCH   4   5
ATOM      5  O   UNL A   1      38.360  21.650  24.871  1.00  0.00    -0.376 OA
BRANCH   5   6
ATOM      6  C   UNL A   1      37.153  20.902  24.914  1.00  0.00     0.202 C 
BRANCH   6   7
ATOM      7  C   UNL A   1      35.907  21.409  25.671  1.00  0.00     0.261 C 
BRANCH   7   8
ATOM      8  O   UNL A   1      34.617  21.080  25.116  1.00  0.00    -0.463 OA
BRANCH   8   9
ATOM      9  C   UNL A   1      34.138  21.907  24.154  1.00  0.00     0.313 C 
ATOM     10  O   UNL A   1      34.838  22.682  23.508  1.00  0.00    -0.252 OA
BRANCH   9  11
ATOM     11  C   UNL A   1      32.612  21.808  23.930  1.00  0.00     0.127 C 
ATOM     12  C   UNL A   1      32.068  21.119  22.674  1.00  0.00     0.025 C 
BRANCH  11  13
ATOM     13  C   UNL A   1      31.999  23.183  24.204  1.00  0.00    -0.017 A 
ATOM     14  C   UNL A   1      30.787  23.637  23.544  1.00  0.00     0.012 A 
ATOM     15  C   UNL A   1      32.631  24.056  25.007  1.00  0.00     0.099 A 
ATOM     16  C   UNL A   1      30.395  24.918  23.601  1.00  0.00     0.072 A 
ATOM     17  N   UNL A   1      32.205  25.364  25.151  1.00  0.00    -0.258 N 
ATOM     18  C   UNL A   1      31.149  25.894  24.429  1.00  0.00     0.254 A 
ATOM     19  O   UNL A   1      30.778  27.063  24.443  1.00  0.00    -0.269 OA
BRANCH  17  20
ATOM     20  C   UNL A   1      32.923  26.261  26.013  1.00  0.00     0.451 C 
ATOM     21  F   UNL A   1      33.376  27.340  25.331  1.00  0.00    -0.185 F 
ATOM     22  F   UNL A   1      32.134  26.701  27.024  1.00  0.00    -0.185 F 
ENDBRANCH  17  20
ENDBRANCH  11  13
ENDBRANCH   9  11
ENDBRANCH   8   9
ENDBRANCH   7   8
ENDBRANCH   6   7
ENDBRANCH   5   6
ENDBRANCH   4   5
ENDBRANCH   3   4
ENDBRANCH   2   3
ENDBRANCH   1   2
BRANCH   1  23
ATOM     23  C   UNL A   1      43.196  22.091  26.074  1.00  0.00     0.188 C 
BRANCH  23  24
ATOM     24  O   UNL A   1      43.386  22.521  24.728  1.00  0.00    -0.376 OA
BRANCH  24  25
ATOM     25  C   UNL A   1      44.200  23.659  24.481  1.00  0.00     0.202 C 
BRANCH  25  26
ATOM     26  C   UNL A   1      44.092  24.835  25.468  1.00  0.00     0.261 C 
BRANCH  26  27
ATOM     27  O   UNL A   1      42.839  25.534  25.502  1.00  0.00    -0.460 OA
BRANCH  27  28
ATOM     28  C   UNL A   1      42.859  26.877  25.372  1.00  0.00     0.338 C 
ATOM     29  O   UNL A   1      42.815  27.512  24.332  1.00  0.00    -0.246 OA
BRANCH  28  30
ATOM     30  C   UNL A   1      42.720  27.462  26.723  1.00  0.00     0.060 A 
ATOM     31  C   UNL A   1      41.754  26.935  27.591  1.00  0.00     0.016 A 
ATOM     32  C   UNL A   1      43.548  28.506  27.139  1.00  0.00     0.016 A 
ATOM     33  C   UNL A   1      41.589  27.476  28.867  1.00  0.00     0.010 A 
ATOM     34  C   UNL A   1      43.364  29.065  28.407  1.00  0.00     0.010 A 
ATOM     35  C   UNL A   1      42.360  28.576  29.261  1.00  0.00    -0.014 A 
BRANCH  35  36
ATOM     36  C   UNL A   1      41.970  29.350  30.464  1.00  0.00     0.031 A 
ATOM     37  C   UNL A   1      42.824  29.220  31.697  1.00  0.00     0.074 A 
ATOM     38  C   UNL A   1      40.901  30.167  30.463  1.00  0.00     0.049 A 
ATOM     39  N   UNL A   1      42.668  29.759  32.877  1.00  0.00    -0.248 NA
ATOM     40  C   UNL A   1      44.017  28.363  31.579  1.00  0.00     0.031 C 
ATOM     41  C   UNL A   1      40.030  30.423  29.317  1.00  0.00     0.029 A 
ATOM     42  N   UNL A   1      40.367  30.933  31.470  1.00  0.00    -0.354 N 
ATOM     43  C   UNL A   1      43.730  29.296  33.646  1.00  0.00     0.074 A 
ATOM     44  C   UNL A   1      44.508  28.411  32.807  1.00  0.00     0.031 C 
ATOM     45  C   UNL A   1      39.064  31.283  29.688  1.00  0.00     0.029 A 
ATOM     46  C   UNL A   1      39.226  31.607  31.105  1.00  0.00     0.049 A 
ATOM     47  H   UNL A   1      40.765  30.993  32.368  1.00  0.00     0.167 HD
ATOM     48  C   UNL A   1      44.031  29.581  34.934  1.00  0.00     0.031 A 
ATOM     49  C   UNL A   1      38.397  32.378  31.839  1.00  0.00     0.031 A 
ATOM     50  C   UNL A   1      43.244  30.449  35.768  1.00  0.00     0.049 A 
ATOM     51  C   UNL A   1      38.706  32.614  33.297  1.00  0.00     0.074 A 
ATOM     52  C   UNL A   1      43.473  30.817  37.082  1.00  0.00     0.029 A 
ATOM     53  N   UNL A   1      42.071  31.077  35.375  1.00  0.00    -0.354 N 
ATOM     54  N   UNL A   1      39.727  32.189  34.004  1.00  0.00    -0.248 NA
ATOM     55  C   UNL A   1      37.752  33.438  34.053  1.00  0.00     0.031 C 
ATOM     56  C   UNL A   1      42.402  31.609  37.505  1.00  0.00     0.029 A 
ATOM     57  C   UNL A   1      41.546  31.800  36.431  1.00  0.00     0.049 A 
ATOM     58  H   UNL A   1      41.672  31.017  34.478  1.00  0.00     0.167 HD
ATOM     59  C   UNL A   1      39.555  32.724  35.277  1.00  0.00     0.074 A 
ATOM     60  C   UNL A   1      38.341  33.513  35.239  1.00  0.00     0.031 C 
ATOM     61  C   UNL A   1      40.336  32.581  36.379  1.00  0.00     0.031 A 
BRANCH  48  62
ATOM     62  C   UNL A   1      45.237  28.908  35.534  1.00  0.00    -0.014 A 
ATOM     63  C   UNL A   1      46.481  29.561  35.615  1.00  0.00     0.010 A 
ATOM     64  C   UNL A   1      45.114  27.608  36.057  1.00  0.00     0.010 A 
ATOM     65  C   UNL A   1      47.585  28.912  36.173  1.00  0.00     0.020 A 
ATOM     66  C   UNL A   1      46.207  26.967  36.645  1.00  0.00     0.020 A 
ATOM     67  C   UNL A   1      47.441  27.619  36.685  1.00  0.00     0.054 A 
BRANCH  67  68
ATOM     68  S   UNL A   1      48.885  26.812  37.428  1.00  0.00     0.124 S 
ATOM     69  O   UNL A   1      49.597  27.946  38.011  1.00  0.00    -0.237 OA
ATOM     70  O   UNL A   1      48.277  25.892  38.386  1.00  0.00    -0.237 OA
ATOM     71  O   UNL A   1      49.550  26.175  36.294  1.00  0.00    -0.744 OA
ENDBRANCH  67  68
ENDBRANCH  48  62
BRANCH  49  72
ATOM     72  C   UNL A   1      37.180  32.972  31.215  1.00  0.00    -0.014 A 
ATOM     73  C   UNL A   1      37.291  33.944  30.206  1.00  0.00     0.010 A 
ATOM     74  C   UNL A   1      35.898  32.573  31.638  1.00  0.00     0.010 A 
ATOM     75  C   UNL A   1      36.145  34.517  29.643  1.00  0.00     0.020 A 
ATOM     76  C   UNL A   1      34.751  33.119  31.057  1.00  0.00     0.020 A 
ATOM     77  C   UNL A   1      34.882  34.096  30.068  1.00  0.00     0.054 A 
BRANCH  77  78
ATOM     78  S   UNL A   1      33.411  34.814  29.285  1.00  0.00     0.124 S 
ATOM     79  O   UNL A   1      32.484  34.910  30.409  1.00  0.00    -0.237 OA
ATOM     80  O   UNL A   1      33.919  36.084  28.772  1.00  0.00    -0.237 OA
ATOM     81  O   UNL A   1      33.056  33.833  28.262  1.00  0.00    -0.744 OA
ENDBRANCH  77  78
ENDBRANCH  49  72
BRANCH  61  82
ATOM     82  C   UNL A   1      39.932  33.327  37.626  1.00  0.00    -0.014 A 
ATOM     83  C   UNL A   1      40.268  34.678  37.817  1.00  0.00     0.010 A 
ATOM     84  C   UNL A   1      39.144  32.674  38.594  1.00  0.00     0.010 A 
ATOM     85  C   UNL A   1      39.852  35.353  38.970  1.00  0.00     0.020 A 
ATOM     86  C   UNL A   1      38.699  33.354  39.731  1.00  0.00     0.020 A 
ATOM     87  C   UNL A   1      39.069  34.687  39.918  1.00  0.00     0.054 A 
BRANCH  87  88
ATOM     88  S   UNL A   1      38.506  35.598  41.382  1.00  0.00     0.124 S 
ATOM     89  O   UNL A   1      38.489  36.975  40.894  1.00  0.00    -0.237 OA
ATOM     90  O   UNL A   1      37.196  35.007  41.642  1.00  0.00    -0.237 OA
ATOM     91  O   UNL A   1      39.526  35.306  42.387  1.00  0.00    -0.744 OA
ENDBRANCH  87  88
ENDBRANCH  61  82
ENDBRANCH  35  36
ENDBRANCH  28  30
ENDBRANCH  27  28
ENDBRANCH  26  27
ENDBRANCH  25  26
ENDBRANCH  24  25
ENDBRANCH  23  24
ENDBRANCH   1  23
TORSDOF 25
ENDMDL
MODEL 2
REMARK VINA RESULT:      -8.3      7.076     13.428
REMARK SMILES C[C@@H](C(=O)OCCOCCOCCOCCOC(=O)c1ccc(-c2c3nc(c(-c4ccc(S(=O)(=O)[O-])cc4)c4ccc([nH]4)c(-c4ccc(S(=O)(=O)[O-])cc4)c4nc(c(-c5ccc(S(=O)(=O)[O-])cc5)c5ccc2[nH]5)C=C4)C=C3)cc1)c1ccc(=O)n(C(F)F)c1
REMARK SMILES IDX 12 1 11 2 10 3 9 4 8 5 7 6 6 7 5 8 3 9 4 10 2 11 1 12 80 13
REMARK SMILES IDX 81 14 89 15 82 16 85 17 83 18 84 19 86 20 87 21 88 22 13 23
REMARK SMILES IDX 14 24 15 25 16 26 17 27 18 28 19 29 20 30 21 31 79 32 22 33
REMARK SMILES IDX 78 34 23 35 24 36 25 37 72 38 26 39 77 40 71 41 73 42 27 43
REMARK SMILES IDX 76 44 70 45 69 46 28 48 58 49 39 50 57 51 40 52 43 53 56 54
REMARK SMILES IDX 74 55 41 56 42 57 55 59 75 60 44 61 29 62 30 63 38 64 31 65
REMARK SMILES IDX 37 66 32 67 33 68 34 69 35 70 36 71 59 72 60 73 68 74 61 75
REMARK SMILES IDX 67 76 62 77 63 78 64 79 65 80 66 81 45 82 46 83 54 84 47 85
REMARK SMILES IDX 53 86 48 87 49 88 50 89 51 90 52 91
REMARK H PARENT 73 47 43 58
REMARK Flexibility Score: inf
ROOT
ATOM      1  C   UNL A   1      49.145  21.076  36.769  1.00  0.00     0.188 C 
ENDROOT
BRANCH   1   2
ATOM      2  O   UNL A   1      47.741  21.165  36.955  1.00  0.00    -0.377 OA
BRANCH   2   3
ATOM      3  C   UNL A   1      47.124  20.071  37.595  1.00  0.00     0.188 C 
BRANCH   3   4
ATOM      4  C   UNL A   1      47.778  19.635  38.921  1.00  0.00     0.188 C 
BRANCH   4   5
ATOM      5  O   UNL A   1      47.081  18.790  39.822  1.00  0.00    -0.376 OA
BRANCH   5   6
ATOM      6  C   UNL A   1      47.635  18.503  41.098  1.00  0.00     0.202 C 
BRANCH   6   7
ATOM      7  C   UNL A   1      46.744  18.184  42.318  1.00  0.00     0.261 C 
BRANCH   7   8
ATOM      8  O   UNL A   1      45.845  17.062  42.203  1.00  0.00    -0.463 OA
BRANCH   8   9
ATOM      9  C   UNL A   1      44.522  17.347  42.118  1.00  0.00     0.313 C 
ATOM     10  O   UNL A   1      44.051  18.179  41.346  1.00  0.00    -0.252 OA
BRANCH   9  11
ATOM     11  C   UNL A   1      43.630  16.538  43.087  1.00  0.00     0.127 C 
ATOM     12  C   UNL A   1      44.132  16.220  44.500  1.00  0.00     0.025 C 
BRANCH  11  13
ATOM     13  C   UNL A   1      43.079  15.327  42.332  1.00  0.00    -0.017 A 
ATOM     14  C   UNL A   1      42.906  15.327  40.889  1.00  0.00     0.012 A 
ATOM     15  C   UNL A   1      42.646  14.250  43.008  1.00  0.00     0.099 A 
ATOM     16  C   UNL A   1      42.204  14.369  40.268  1.00  0.00     0.072 A 
ATOM     17  N   UNL A   1      41.989  13.206  42.383  1.00  0.00    -0.258 N 
ATOM     18  C   UNL A   1      41.661  13.221  41.038  1.00  0.00     0.254 A 
ATOM     19  O   UNL A   1      41.004  12.372  40.445  1.00  0.00    -0.269 OA
BRANCH  17  20
ATOM     20  C   UNL A   1      41.536  12.081  43.154  1.00  0.00     0.451 C 
ATOM     21  F   UNL A   1      42.128  12.049  44.372  1.00  0.00    -0.185 F 
ATOM     22  F   UNL A   1      40.194  12.126  43.340  1.00  0.00    -0.185 F 
ENDBRANCH  17  20
ENDBRANCH  11  13
ENDBRANCH   9  11
ENDBRANCH   8   9
ENDBRANCH   7   8
ENDBRANCH   6   7
ENDBRANCH   5   6
ENDBRANCH   4   5
ENDBRANCH   3   4
ENDBRANCH   2   3
ENDBRANCH   1   2
BRANCH   1  23
ATOM     23  C   UNL A   1      49.904  22.366  36.405  1.00  0.00     0.188 C 
BRANCH  23  24
ATOM     24  O   UNL A   1      49.133  23.555  36.554  1.00  0.00    -0.376 OA
BRANCH  24  25
ATOM     25  C   UNL A   1      49.618  24.583  37.407  1.00  0.00     0.202 C 
BRANCH  25  26
ATOM     26  C   UNL A   1      48.652  25.140  38.467  1.00  0.00     0.261 C 
BRANCH  26  27
ATOM     27  O   UNL A   1      47.462  25.778  37.982  1.00  0.00    -0.460 OA
BRANCH  27  28
ATOM     28  C   UNL A   1      47.343  27.112  38.153  1.00  0.00     0.338 C 
ATOM     29  O   UNL A   1      48.104  27.841  38.767  1.00  0.00    -0.246 OA
BRANCH  28  30
ATOM     30  C   UNL A   1      46.246  27.582  37.280  1.00  0.00     0.060 A 
ATOM     31  C   UNL A   1      46.491  28.644  36.400  1.00  0.00     0.016 A 
ATOM     32  C   UNL A   1      44.993  26.967  37.314  1.00  0.00     0.016 A 
ATOM     33  C   UNL A   1      45.471  29.119  35.575  1.00  0.00     0.010 A 
ATOM     34  C   UNL A   1      43.964  27.461  36.507  1.00  0.00     0.010 A 
ATOM     35  C   UNL A   1      44.190  28.562  35.661  1.00  0.00    -0.014 A 
BRANCH  35  36
ATOM     36  C   UNL A   1      43.041  29.266  35.041  1.00  0.00     0.031 A 
ATOM     37  C   UNL A   1      42.541  28.767  33.711  1.00  0.00     0.074 A 
ATOM     38  C   UNL A   1      42.440  30.306  35.645  1.00  0.00     0.049 A 
ATOM     39  N   UNL A   1      41.585  29.236  32.954  1.00  0.00    -0.248 NA
ATOM     40  C   UNL A   1      43.213  27.575  33.164  1.00  0.00     0.031 C 
ATOM     41  C   UNL A   1      42.793  30.846  36.957  1.00  0.00     0.029 A 
ATOM     42  N   UNL A   1      41.398  31.096  35.225  1.00  0.00    -0.354 N 
ATOM     43  C   UNL A   1      41.551  28.411  31.836  1.00  0.00     0.074 A 
ATOM     44  C   UNL A   1      42.598  27.427  32.001  1.00  0.00     0.031 C 
ATOM     45  C   UNL A   1      41.985  31.886  37.232  1.00  0.00     0.029 A 
ATOM     46  C   UNL A   1      41.084  32.108  36.101  1.00  0.00     0.049 A 
ATOM     47  H   UNL A   1      40.922  30.952  34.376  1.00  0.00     0.167 HD
ATOM     48  C   UNL A   1      40.721  28.464  30.768  1.00  0.00     0.031 A 
ATOM     49  C   UNL A   1      40.190  33.111  35.990  1.00  0.00     0.031 A 
ATOM     50  C   UNL A   1      39.691  29.454  30.602  1.00  0.00     0.049 A 
ATOM     51  C   UNL A   1      39.334  33.202  34.751  1.00  0.00     0.074 A 
ATOM     52  C   UNL A   1      38.786  29.586  29.564  1.00  0.00     0.029 A 
ATOM     53  N   UNL A   1      39.435  30.488  31.490  1.00  0.00    -0.354 N 
ATOM     54  N   UNL A   1      39.296  32.400  33.712  1.00  0.00    -0.248 NA
ATOM     55  C   UNL A   1      38.396  34.332  34.672  1.00  0.00     0.031 C 
ATOM     56  C   UNL A   1      38.030  30.740  29.788  1.00  0.00     0.029 A 
ATOM     57  C   UNL A   1      38.411  31.283  31.006  1.00  0.00     0.049 A 
ATOM     58  H   UNL A   1      39.912  30.636  32.338  1.00  0.00     0.167 HD
ATOM     59  C   UNL A   1      38.306  32.909  32.876  1.00  0.00     0.074 A 
ATOM     60  C   UNL A   1      37.763  34.079  33.534  1.00  0.00     0.031 C 
ATOM     61  C   UNL A   1      37.880  32.446  31.673  1.00  0.00     0.031 A 
BRANCH  48  62
ATOM     62  C   UNL A   1      40.928  27.452  29.672  1.00  0.00    -0.014 A 
ATOM     63  C   UNL A   1      42.165  27.319  29.015  1.00  0.00     0.010 A 
ATOM     64  C   UNL A   1      39.871  26.594  29.317  1.00  0.00     0.010 A 
ATOM     65  C   UNL A   1      42.329  26.374  28.000  1.00  0.00     0.020 A 
ATOM     66  C   UNL A   1      40.040  25.626  28.324  1.00  0.00     0.020 A 
ATOM     67  C   UNL A   1      41.265  25.533  27.660  1.00  0.00     0.054 A 
BRANCH  67  68
ATOM     68  S   UNL A   1      41.514  24.298  26.356  1.00  0.00     0.124 S 
ATOM     69  O   UNL A   1      42.638  23.527  26.882  1.00  0.00    -0.237 OA
ATOM     70  O   UNL A   1      40.231  23.600  26.330  1.00  0.00    -0.237 OA
ATOM     71  O   UNL A   1      41.809  25.098  25.170  1.00  0.00    -0.744 OA
ENDBRANCH  67  68
ENDBRANCH  48  62
BRANCH  49  72
ATOM     72  C   UNL A   1      40.065  34.127  37.074  1.00  0.00    -0.014 A 
ATOM     73  C   UNL A   1      40.891  35.265  37.092  1.00  0.00     0.010 A 
ATOM     74  C   UNL A   1      39.122  33.954  38.105  1.00  0.00     0.010 A 
ATOM     75  C   UNL A   1      40.787  36.201  38.126  1.00  0.00     0.020 A 
ATOM     76  C   UNL A   1      38.994  34.903  39.123  1.00  0.00     0.020 A 
ATOM     77  C   UNL A   1      39.835  36.017  39.132  1.00  0.00     0.054 A 
BRANCH  77  78
ATOM     78  S   UNL A   1      39.683  37.272  40.433  1.00  0.00     0.124 S 
ATOM     79  O   UNL A   1      40.156  36.550  41.610  1.00  0.00    -0.237 OA
ATOM     80  O   UNL A   1      40.559  38.335  39.946  1.00  0.00    -0.237 OA
ATOM     81  O   UNL A   1      38.258  37.597  40.428  1.00  0.00    -0.744 OA
ENDBRANCH  77  78
ENDBRANCH  49  72
BRANCH  61  82
ATOM     82  C   UNL A   1      36.742  33.175  31.004  1.00  0.00    -0.014 A 
ATOM     83  C   UNL A   1      35.437  33.137  31.525  1.00  0.00     0.010 A 
ATOM     84  C   UNL A   1      37.001  33.965  29.868  1.00  0.00     0.010 A 
ATOM     85  C   UNL A   1      34.406  33.849  30.901  1.00  0.00     0.020 A 
ATOM     86  C   UNL A   1      35.982  34.703  29.262  1.00  0.00     0.020 A 
ATOM     87  C   UNL A   1      34.686  34.629  29.775  1.00  0.00     0.054 A 
BRANCH  87  88
ATOM     88  S   UNL A   1      33.341  35.576  29.013  1.00  0.00     0.124 S 
ATOM     89  O   UNL A   1      32.731  36.224  30.171  1.00  0.00    -0.237 OA
ATOM     90  O   UNL A   1      34.055  36.465  28.099  1.00  0.00    -0.237 OA
ATOM     91  O   UNL A   1      32.520  34.556  28.365  1.00  0.00    -0.744 OA
ENDBRANCH  87  88
ENDBRANCH  61  82
ENDBRANCH  35  36
ENDBRANCH  28  30
ENDBRANCH  27  28
ENDBRANCH  26  27
ENDBRANCH  25  26
ENDBRANCH  24  25
ENDBRANCH  23  24
ENDBRANCH   1  23
TORSDOF 25
ENDMDL
MODEL 3
REMARK VINA RESULT:      -8.0      9.938     17.001
REMARK SMILES C[C@@H](C(=O)OCCOCCOCCOCCOC(=O)c1ccc(-c2c3nc(c(-c4ccc(S(=O)(=O)[O-])cc4)c4ccc([nH]4)c(-c4ccc(S(=O)(=O)[O-])cc4)c4nc(c(-c5ccc(S(=O)(=O)[O-])cc5)c5ccc2[nH]5)C=C4)C=C3)cc1)c1ccc(=O)n(C(F)F)c1
REMARK SMILES IDX 12 1 11 2 10 3 9 4 8 5 7 6 6 7 5 8 3 9 4 10 2 11 1 12 80 13
REMARK SMILES IDX 81 14 89 15 82 16 85 17 83 18 84 19 86 20 87 21 88 22 13 23
REMARK SMILES IDX 14 24 15 25 16 26 17 27 18 28 19 29 20 30 21 31 79 32 22 33
REMARK SMILES IDX 78 34 23 35 24 36 25 37 72 38 26 39 77 40 71 41 73 42 27 43
REMARK SMILES IDX 76 44 70 45 69 46 28 48 58 49 39 50 57 51 40 52 43 53 56 54
REMARK SMILES IDX 74 55 41 56 42 57 55 59 75 60 44 61 29 62 30 63 38 64 31 65
REMARK SMILES IDX 37 66 32 67 33 68 34 69 35 70 36 71 59 72 60 73 68 74 61 75
REMARK SMILES IDX 67 76 62 77 63 78 64 79 65 80 66 81 45 82 46 83 54 84 47 85
REMARK SMILES IDX 53 86 48 87 49 88 50 89 51 90 52 91
REMARK H PARENT 73 47 43 58
REMARK Flexibility Score: inf
ROOT
ATOM      1  C   UNL A   1      41.933  40.056  28.233  1.00  0.00     0.188 C 
ENDROOT
BRANCH   1   2
ATOM      2  O   UNL A   1      41.839  40.687  26.967  1.00  0.00    -0.377 OA
BRANCH   2   3
ATOM      3  C   UNL A   1      42.945  40.531  26.106  1.00  0.00     0.188 C 
BRANCH   3   4
ATOM      4  C   UNL A   1      43.562  41.845  25.588  1.00  0.00     0.188 C 
BRANCH   4   5
ATOM      5  O   UNL A   1      44.136  41.908  24.293  1.00  0.00    -0.376 OA
BRANCH   5   6
ATOM      6  C   UNL A   1      43.584  42.774  23.312  1.00  0.00     0.202 C 
BRANCH   6   7
ATOM      7  C   UNL A   1      44.459  43.440  22.229  1.00  0.00     0.261 C 
BRANCH   7   8
ATOM      8  O   UNL A   1      43.940  43.464  20.884  1.00  0.00    -0.463 OA
BRANCH   8   9
ATOM      9  C   UNL A   1      44.202  44.573  20.148  1.00  0.00     0.313 C 
ATOM     10  O   UNL A   1      44.989  45.451  20.492  1.00  0.00    -0.252 OA
BRANCH   9  11
ATOM     11  C   UNL A   1      43.414  44.659  18.821  1.00  0.00     0.127 C 
ATOM     12  C   UNL A   1      43.167  43.392  17.996  1.00  0.00     0.025 C 
BRANCH  11  13
ATOM     13  C   UNL A   1      43.967  45.835  18.013  1.00  0.00    -0.017 A 
ATOM     14  C   UNL A   1      45.280  45.797  17.391  1.00  0.00     0.012 A 
ATOM     15  C   UNL A   1      43.278  46.986  17.938  1.00  0.00     0.099 A 
ATOM     16  C   UNL A   1      45.854  46.904  16.899  1.00  0.00     0.072 A 
ATOM     17  N   UNL A   1      43.812  48.125  17.363  1.00  0.00    -0.258 N 
ATOM     18  C   UNL A   1      45.113  48.191  16.893  1.00  0.00     0.254 A 
ATOM     19  O   UNL A   1      45.673  49.190  16.455  1.00  0.00    -0.269 OA
BRANCH  17  20
ATOM     20  C   UNL A   1      43.038  49.334  17.317  1.00  0.00     0.451 C 
ATOM     21  F   UNL A   1      41.713  49.074  17.428  1.00  0.00    -0.185 F 
ATOM     22  F   UNL A   1      43.387  50.175  18.322  1.00  0.00    -0.185 F 
ENDBRANCH  17  20
ENDBRANCH  11  13
ENDBRANCH   9  11
ENDBRANCH   8   9
ENDBRANCH   7   8
ENDBRANCH   6   7
ENDBRANCH   5   6
ENDBRANCH   4   5
ENDBRANCH   3   4
ENDBRANCH   2   3
ENDBRANCH   1   2
BRANCH   1  23
ATOM     23  C   UNL A   1      42.865  40.688  29.284  1.00  0.00     0.188 C 
BRANCH  23  24
ATOM     24  O   UNL A   1      42.243  40.926  30.544  1.00  0.00    -0.376 OA
BRANCH  24  25
ATOM     25  C   UNL A   1      43.043  41.381  31.627  1.00  0.00     0.202 C 
BRANCH  25  26
ATOM     26  C   UNL A   1      43.746  40.315  32.485  1.00  0.00     0.261 C 
BRANCH  26  27
ATOM     27  O   UNL A   1      44.731  39.505  31.827  1.00  0.00    -0.460 OA
BRANCH  27  28
ATOM     28  C   UNL A   1      45.483  38.680  32.586  1.00  0.00     0.338 C 
ATOM     29  O   UNL A   1      46.005  38.943  33.656  1.00  0.00    -0.246 OA
BRANCH  28  30
ATOM     30  C   UNL A   1      45.386  37.322  32.007  1.00  0.00     0.060 A 
ATOM     31  C   UNL A   1      44.986  37.185  30.671  1.00  0.00     0.016 A 
ATOM     32  C   UNL A   1      45.707  36.197  32.768  1.00  0.00     0.016 A 
ATOM     33  C   UNL A   1      44.871  35.917  30.102  1.00  0.00     0.010 A 
ATOM     34  C   UNL A   1      45.565  34.925  32.205  1.00  0.00     0.010 A 
ATOM     35  C   UNL A   1      45.112  34.779  30.881  1.00  0.00    -0.014 A 
BRANCH  35  36
ATOM     36  C   UNL A   1      44.679  33.449  30.390  1.00  0.00     0.031 A 
ATOM     37  C   UNL A   1      43.206  33.138  30.396  1.00  0.00     0.074 A 
ATOM     38  C   UNL A   1      45.561  32.545  29.927  1.00  0.00     0.049 A 
ATOM     39  N   UNL A   1      42.587  32.038  30.058  1.00  0.00    -0.248 NA
ATOM     40  C   UNL A   1      42.311  34.218  30.848  1.00  0.00     0.031 C 
ATOM     41  C   UNL A   1      47.005  32.748  29.814  1.00  0.00     0.029 A 
ATOM     42  N   UNL A   1      45.363  31.267  29.464  1.00  0.00    -0.354 N 
ATOM     43  C   UNL A   1      41.236  32.285  30.270  1.00  0.00     0.074 A 
ATOM     44  C   UNL A   1      41.126  33.630  30.791  1.00  0.00     0.031 C 
ATOM     45  C   UNL A   1      47.564  31.629  29.321  1.00  0.00     0.029 A 
ATOM     46  C   UNL A   1      46.525  30.619  29.118  1.00  0.00     0.049 A 
ATOM     47  H   UNL A   1      44.473  30.855  29.387  1.00  0.00     0.167 HD
ATOM     48  C   UNL A   1      40.180  31.468  30.049  1.00  0.00     0.031 A 
ATOM     49  C   UNL A   1      46.727  29.350  28.708  1.00  0.00     0.031 A 
ATOM     50  C   UNL A   1      40.296  30.126  29.545  1.00  0.00     0.049 A 
ATOM     51  C   UNL A   1      45.542  28.429  28.551  1.00  0.00     0.074 A 
ATOM     52  C   UNL A   1      39.286  29.222  29.270  1.00  0.00     0.029 A 
ATOM     53  N   UNL A   1      41.494  29.492  29.250  1.00  0.00    -0.354 N 
ATOM     54  N   UNL A   1      44.267  28.684  28.732  1.00  0.00    -0.248 NA
ATOM     55  C   UNL A   1      45.825  27.050  28.129  1.00  0.00     0.031 C 
ATOM     56  C   UNL A   1      39.875  28.017  28.877  1.00  0.00     0.029 A 
ATOM     57  C   UNL A   1      41.250  28.196  28.831  1.00  0.00     0.049 A 
ATOM     58  H   UNL A   1      42.385  29.902  29.327  1.00  0.00     0.167 HD
ATOM     59  C   UNL A   1      43.595  27.508  28.411  1.00  0.00     0.074 A 
ATOM     60  C   UNL A   1      44.603  26.547  28.013  1.00  0.00     0.031 C 
ATOM     61  C   UNL A   1      42.263  27.249  28.437  1.00  0.00     0.031 A 
BRANCH  48  62
ATOM     62  C   UNL A   1      38.811  31.987  30.400  1.00  0.00    -0.014 A 
ATOM     63  C   UNL A   1      38.163  31.612  31.591  1.00  0.00     0.010 A 
ATOM     64  C   UNL A   1      38.174  32.895  29.535  1.00  0.00     0.010 A 
ATOM     65  C   UNL A   1      36.891  32.106  31.891  1.00  0.00     0.020 A 
ATOM     66  C   UNL A   1      36.915  33.417  29.845  1.00  0.00     0.020 A 
ATOM     67  C   UNL A   1      36.275  33.005  31.016  1.00  0.00     0.054 A 
BRANCH  67  68
ATOM     68  S   UNL A   1      34.635  33.650  31.442  1.00  0.00     0.124 S 
ATOM     69  O   UNL A   1      34.086  32.565  32.252  1.00  0.00    -0.237 OA
ATOM     70  O   UNL A   1      34.954  34.876  32.170  1.00  0.00    -0.237 OA
ATOM     71  O   UNL A   1      33.990  33.848  30.147  1.00  0.00    -0.744 OA
ENDBRANCH  67  68
ENDBRANCH  48  62
BRANCH  49  72
ATOM     72  C   UNL A   1      48.108  28.863  28.433  1.00  0.00    -0.014 A 
ATOM     73  C   UNL A   1      48.890  28.299  29.458  1.00  0.00     0.010 A 
ATOM     74  C   UNL A   1      48.656  28.971  27.141  1.00  0.00     0.010 A 
ATOM     75  C   UNL A   1      50.195  27.868  29.199  1.00  0.00     0.020 A 
ATOM     76  C   UNL A   1      49.948  28.512  26.872  1.00  0.00     0.020 A 
ATOM     77  C   UNL A   1      50.714  27.972  27.906  1.00  0.00     0.054 A 
BRANCH  77  78
ATOM     78  S   UNL A   1      52.390  27.355  27.584  1.00  0.00     0.124 S 
ATOM     79  O   UNL A   1      52.926  27.210  28.933  1.00  0.00    -0.237 OA
ATOM     80  O   UNL A   1      52.131  26.110  26.865  1.00  0.00    -0.237 OA
ATOM     81  O   UNL A   1      52.994  28.416  26.780  1.00  0.00    -0.744 OA
ENDBRANCH  77  78
ENDBRANCH  49  72
BRANCH  61  82
ATOM     82  C   UNL A   1      41.806  25.886  27.982  1.00  0.00    -0.014 A 
ATOM     83  C   UNL A   1      41.434  25.641  26.649  1.00  0.00     0.010 A 
ATOM     84  C   UNL A   1      41.810  24.815  28.898  1.00  0.00     0.010 A 
ATOM     85  C   UNL A   1      41.044  24.358  26.248  1.00  0.00     0.020 A 
ATOM     86  C   UNL A   1      41.453  23.527  28.494  1.00  0.00     0.020 A 
ATOM     87  C   UNL A   1      41.058  23.310  27.173  1.00  0.00     0.054 A 
BRANCH  87  88
ATOM     88  S   UNL A   1      40.590  21.648  26.616  1.00  0.00     0.124 S 
ATOM     89  O   UNL A   1      40.820  20.849  27.817  1.00  0.00    -0.237 OA
ATOM     90  O   UNL A   1      39.191  21.822  26.234  1.00  0.00    -0.237 OA
ATOM     91  O   UNL A   1      41.504  21.383  25.508  1.00  0.00    -0.744 OA
ENDBRANCH  87  88
ENDBRANCH  61  82
ENDBRANCH  35  36
ENDBRANCH  28  30
ENDBRANCH  27  28
ENDBRANCH  26  27
ENDBRANCH  25  26
ENDBRANCH  24  25
ENDBRANCH  23  24
ENDBRANCH   1  23
TORSDOF 25
ENDMDL
