MODEL 1
REMARK VINA RESULT:      -8.7      0.000      0.000
REMARK SMILES CC(C)N(CCCC(=O)OCCOCCOCCOCCOC(=O)c1ccc(-c2c3nc(c(-c4ccc(S(=O)(=O)[O-])cc4)c4ccc([nH]4)c(-c4ccc(S(=O)(=O)[O-])cc4)c4nc(c(-c5ccc(S(=O)(=O)[O-])cc5)c5ccc2[nH]5)C=C4)C=C3)cc1)C(=O)Cc1c(F)cccc1F
REMARK SMILES IDX 14 1 13 2 12 3 11 4 10 5 8 6 9 7 7 8 6 9 5 10 4 11 2 12 1 13
REMARK SMILES IDX 3 14 85 15 86 16 87 17 88 18 89 19 94 20 90 21 91 22 93 23
REMARK SMILES IDX 95 24 92 25 15 26 16 27 17 28 18 29 19 30 20 31 21 32 22 33
REMARK SMILES IDX 23 34 24 35 25 36 26 37 84 38 27 39 83 40 28 41 29 42 30 43
REMARK SMILES IDX 77 44 31 45 82 46 76 47 78 48 32 49 81 50 75 51 74 52 33 54
REMARK SMILES IDX 63 55 44 56 62 57 45 58 48 59 61 60 79 61 46 62 47 63 60 65
REMARK SMILES IDX 80 66 49 67 34 68 35 69 43 70 36 71 42 72 37 73 38 74 39 75
REMARK SMILES IDX 40 76 41 77 64 78 65 79 73 80 66 81 72 82 67 83 68 84 69 85
REMARK SMILES IDX 70 86 71 87 50 88 51 89 59 90 52 91 58 92 53 93 54 94 55 95
REMARK SMILES IDX 56 96 57 97
REMARK H PARENT 78 53 48 64
REMARK Flexibility Score: inf
ROOT
ATOM      1  C   UNL A   1      38.226  22.365  25.925  1.00  0.00     0.188 C 
ENDROOT
BRANCH   1   2
ATOM      2  O   UNL A   1      36.893  21.801  25.813  1.00  0.00    -0.376 OA
BRANCH   2   3
ATOM      3  C   UNL A   1      35.749  22.621  26.186  1.00  0.00     0.202 C 
BRANCH   3   4
ATOM      4  C   UNL A   1      34.419  21.876  27.144  1.00  0.00     0.261 C 
BRANCH   4   5
ATOM      5  O   UNL A   1      32.719  22.828  27.763  1.00  0.00    -0.463 OA
BRANCH   5   6
ATOM      6  C   UNL A   1      31.365  23.498  27.156  1.00  0.00     0.305 C 
ATOM      7  O   UNL A   1      30.198  23.115  27.355  1.00  0.00    -0.252 OA
BRANCH   6   8
ATOM      8  C   UNL A   1      31.401  24.817  26.476  1.00  0.00     0.124 C 
BRANCH   8   9
ATOM      9  C   UNL A   1      31.431  24.828  25.007  1.00  0.00     0.033 C 
BRANCH   9  10
ATOM     10  C   UNL A   1      32.823  24.504  24.532  1.00  0.00     0.120 C 
BRANCH  10  11
ATOM     11  N   UNL A   1      33.101  24.626  23.077  1.00  0.00    -0.340 N 
BRANCH  11  12
ATOM     12  C   UNL A   1      33.483  23.264  22.635  1.00  0.00     0.078 C 
ATOM     13  C   UNL A   1      34.987  23.023  22.786  1.00  0.00     0.031 C 
ATOM     14  C   UNL A   1      32.567  22.154  23.111  1.00  0.00     0.031 C 
ENDBRANCH  11  12
BRANCH  11  15
ATOM     15  C   UNL A   1      32.659  25.565  22.067  1.00  0.00     0.227 C 
ATOM     16  O   UNL A   1      33.296  25.519  20.990  1.00  0.00    -0.275 OA
BRANCH  15  17
ATOM     17  C   UNL A   1      31.627  26.888  22.085  1.00  0.00     0.142 C 
BRANCH  17  18
ATOM     18  C   UNL A   1      32.023  28.367  22.740  1.00  0.00     0.033 A 
ATOM     19  C   UNL A   1      30.758  28.399  23.956  1.00  0.00     0.129 A 
ATOM     20  C   UNL A   1      33.755  28.603  23.271  1.00  0.00     0.129 A 
ATOM     21  F   UNL A   1      29.490  28.243  23.536  1.00  0.00    -0.207 F 
ATOM     22  C   UNL A   1      31.089  28.365  25.657  1.00  0.00     0.040 A 
ATOM     23  C   UNL A   1      34.135  28.419  25.064  1.00  0.00     0.040 A 
ATOM     24  F   UNL A   1      34.753  28.784  22.392  1.00  0.00    -0.207 F 
ATOM     25  C   UNL A   1      32.758  28.335  26.245  1.00  0.00     0.006 A 
ENDBRANCH  17  18
ENDBRANCH  15  17
ENDBRANCH  11  15
ENDBRANCH  10  11
ENDBRANCH   9  10
ENDBRANCH   8   9
ENDBRANCH   6   8
ENDBRANCH   5   6
ENDBRANCH   4   5
ENDBRANCH   3   4
ENDBRANCH   2   3
ENDBRANCH   1   2
BRANCH   1  26
ATOM     26  C   UNL A   1      39.466  21.419  26.103  1.00  0.00     0.188 C 
BRANCH  26  27
ATOM     27  O   UNL A   1      40.712  21.971  26.563  1.00  0.00    -0.377 OA
BRANCH  27  28
ATOM     28  C   UNL A   1      41.917  21.354  26.136  1.00  0.00     0.188 C 
BRANCH  28  29
ATOM     29  C   UNL A   1      41.872  19.840  26.057  1.00  0.00     0.188 C 
BRANCH  29  30
ATOM     30  O   UNL A   1      42.736  19.323  25.073  1.00  0.00    -0.376 OA
BRANCH  30  31
ATOM     31  C   UNL A   1      44.060  18.937  25.395  1.00  0.00     0.202 C 
BRANCH  31  32
ATOM     32  C   UNL A   1      45.345  19.461  24.723  1.00  0.00     0.261 C 
BRANCH  32  33
ATOM     33  O   UNL A   1      45.773  20.811  24.929  1.00  0.00    -0.460 OA
BRANCH  33  34
ATOM     34  C   UNL A   1      45.108  21.808  24.312  1.00  0.00     0.338 C 
ATOM     35  O   UNL A   1      44.518  21.753  23.251  1.00  0.00    -0.246 OA
BRANCH  34  36
ATOM     36  C   UNL A   1      45.107  22.960  25.242  1.00  0.00     0.060 A 
ATOM     37  C   UNL A   1      44.741  24.230  24.778  1.00  0.00     0.016 A 
ATOM     38  C   UNL A   1      45.512  22.781  26.568  1.00  0.00     0.016 A 
ATOM     39  C   UNL A   1      44.837  25.338  25.628  1.00  0.00     0.010 A 
ATOM     40  C   UNL A   1      45.621  23.892  27.411  1.00  0.00     0.010 A 
ATOM     41  C   UNL A   1      45.329  25.181  26.933  1.00  0.00    -0.014 A 
BRANCH  41  42
ATOM     42  C   UNL A   1      45.802  26.362  27.703  1.00  0.00     0.031 A 
ATOM     43  C   UNL A   1      44.789  27.095  28.547  1.00  0.00     0.074 A 
ATOM     44  C   UNL A   1      47.075  26.794  27.651  1.00  0.00     0.049 A 
ATOM     45  N   UNL A   1      44.924  28.199  29.233  1.00  0.00    -0.248 NA
ATOM     46  C   UNL A   1      43.442  26.499  28.622  1.00  0.00     0.031 C 
ATOM     47  C   UNL A   1      48.165  26.154  26.917  1.00  0.00     0.029 A 
ATOM     48  N   UNL A   1      47.661  27.895  28.228  1.00  0.00    -0.354 N 
ATOM     49  C   UNL A   1      43.678  28.440  29.804  1.00  0.00     0.074 A 
ATOM     50  C   UNL A   1      42.797  27.378  29.374  1.00  0.00     0.031 C 
ATOM     51  C   UNL A   1      49.286  26.884  27.076  1.00  0.00     0.029 A 
ATOM     52  C   UNL A   1      48.985  28.060  27.892  1.00  0.00     0.049 A 
ATOM     53  H   UNL A   1      47.178  28.510  28.827  1.00  0.00     0.167 HD
ATOM     54  C   UNL A   1      43.297  29.456  30.612  1.00  0.00     0.031 A 
ATOM     55  C   UNL A   1      49.844  29.057  28.189  1.00  0.00     0.031 A 
ATOM     56  C   UNL A   1      44.164  30.520  31.035  1.00  0.00     0.049 A 
ATOM     57  C   UNL A   1      49.374  30.221  29.032  1.00  0.00     0.074 A 
ATOM     58  C   UNL A   1      43.870  31.587  31.865  1.00  0.00     0.029 A 
ATOM     59  N   UNL A   1      45.490  30.656  30.656  1.00  0.00    -0.354 N 
ATOM     60  N   UNL A   1      48.200  30.418  29.586  1.00  0.00    -0.248 NA
ATOM     61  C   UNL A   1      50.346  31.294  29.292  1.00  0.00     0.031 C 
ATOM     62  C   UNL A   1      45.005  32.400  31.946  1.00  0.00     0.029 A 
ATOM     63  C   UNL A   1      46.021  31.803  31.217  1.00  0.00     0.049 A 
ATOM     64  H   UNL A   1      45.980  30.030  30.075  1.00  0.00     0.167 HD
ATOM     65  C   UNL A   1      48.311  31.613  30.294  1.00  0.00     0.074 A 
ATOM     66  C   UNL A   1      49.662  32.093  30.101  1.00  0.00     0.031 C 
ATOM     67  C   UNL A   1      47.378  32.252  31.040  1.00  0.00     0.031 A 
BRANCH  54  68
ATOM     68  C   UNL A   1      41.864  29.488  31.066  1.00  0.00    -0.014 A 
ATOM     69  C   UNL A   1      40.916  30.311  30.430  1.00  0.00     0.010 A 
ATOM     70  C   UNL A   1      41.449  28.638  32.106  1.00  0.00     0.010 A 
ATOM     71  C   UNL A   1      39.583  30.298  30.844  1.00  0.00     0.020 A 
ATOM     72  C   UNL A   1      40.111  28.604  32.506  1.00  0.00     0.020 A 
ATOM     73  C   UNL A   1      39.188  29.443  31.879  1.00  0.00     0.054 A 
BRANCH  73  74
ATOM     74  S   UNL A   1      37.441  29.413  32.364  1.00  0.00     0.124 S 
ATOM     75  O   UNL A   1      37.391  28.241  33.235  1.00  0.00    -0.237 OA
ATOM     76  O   UNL A   1      37.272  30.700  33.033  1.00  0.00    -0.237 OA
ATOM     77  O   UNL A   1      36.731  29.275  31.095  1.00  0.00    -0.744 OA
ENDBRANCH  73  74
ENDBRANCH  54  68
BRANCH  55  78
ATOM     78  C   UNL A   1      51.241  29.036  27.668  1.00  0.00    -0.014 A 
ATOM     79  C   UNL A   1      51.533  29.517  26.379  1.00  0.00     0.010 A 
ATOM     80  C   UNL A   1      52.279  28.480  28.439  1.00  0.00     0.010 A 
ATOM     81  C   UNL A   1      52.827  29.408  25.857  1.00  0.00     0.020 A 
ATOM     82  C   UNL A   1      53.579  28.398  27.933  1.00  0.00     0.020 A 
ATOM     83  C   UNL A   1      53.840  28.844  26.637  1.00  0.00     0.054 A 
BRANCH  83  84
ATOM     84  S   UNL A   1      55.513  28.720  25.942  1.00  0.00     0.124 S 
ATOM     85  O   UNL A   1      55.335  27.706  24.908  1.00  0.00    -0.237 OA
ATOM     86  O   UNL A   1      55.755  30.078  25.461  1.00  0.00    -0.237 OA
ATOM     87  O   UNL A   1      56.325  28.315  27.086  1.00  0.00    -0.744 OA
ENDBRANCH  83  84
ENDBRANCH  55  78
BRANCH  67  88
ATOM     88  C   UNL A   1      47.788  33.505  31.769  1.00  0.00    -0.014 A 
ATOM     89  C   UNL A   1      47.612  34.778  31.202  1.00  0.00     0.010 A 
ATOM     90  C   UNL A   1      48.273  33.403  33.088  1.00  0.00     0.010 A 
ATOM     91  C   UNL A   1      47.930  35.927  31.934  1.00  0.00     0.020 A 
ATOM     92  C   UNL A   1      48.565  34.548  33.831  1.00  0.00     0.020 A 
ATOM     93  C   UNL A   1      48.401  35.805  33.245  1.00  0.00     0.054 A 
BRANCH  93  94
ATOM     94  S   UNL A   1      48.741  37.311  34.199  1.00  0.00     0.124 S 
ATOM     95  O   UNL A   1      49.137  36.767  35.494  1.00  0.00    -0.237 OA
ATOM     96  O   UNL A   1      49.808  37.943  33.428  1.00  0.00    -0.237 OA
ATOM     97  O   UNL A   1      47.466  38.023  34.186  1.00  0.00    -0.744 OA
ENDBRANCH  93  94
ENDBRANCH  67  88
ENDBRANCH  41  42
ENDBRANCH  34  36
ENDBRANCH  33  34
ENDBRANCH  32  33
ENDBRANCH  31  32
ENDBRANCH  30  31
ENDBRANCH  29  30
ENDBRANCH  28  29
ENDBRANCH  27  28
ENDBRANCH  26  27
ENDBRANCH   1  26
TORSDOF 30
ENDMDL
MODEL 2
REMARK VINA RESULT:      -8.6      2.243      8.301
REMARK SMILES CC(C)N(CCCC(=O)OCCOCCOCCOCCOC(=O)c1ccc(-c2c3nc(c(-c4ccc(S(=O)(=O)[O-])cc4)c4ccc([nH]4)c(-c4ccc(S(=O)(=O)[O-])cc4)c4nc(c(-c5ccc(S(=O)(=O)[O-])cc5)c5ccc2[nH]5)C=C4)C=C3)cc1)C(=O)Cc1c(F)cccc1F
REMARK SMILES IDX 14 1 13 2 12 3 11 4 10 5 8 6 9 7 7 8 6 9 5 10 4 11 2 12 1 13
REMARK SMILES IDX 3 14 85 15 86 16 87 17 88 18 89 19 94 20 90 21 91 22 93 23
REMARK SMILES IDX 95 24 92 25 15 26 16 27 17 28 18 29 19 30 20 31 21 32 22 33
REMARK SMILES IDX 23 34 24 35 25 36 26 37 84 38 27 39 83 40 28 41 29 42 30 43
REMARK SMILES IDX 77 44 31 45 82 46 76 47 78 48 32 49 81 50 75 51 74 52 33 54
REMARK SMILES IDX 63 55 44 56 62 57 45 58 48 59 61 60 79 61 46 62 47 63 60 65
REMARK SMILES IDX 80 66 49 67 34 68 35 69 43 70 36 71 42 72 37 73 38 74 39 75
REMARK SMILES IDX 40 76 41 77 64 78 65 79 73 80 66 81 72 82 67 83 68 84 69 85
REMARK SMILES IDX 70 86 71 87 50 88 51 89 59 90 52 91 58 92 53 93 54 94 55 95
REMARK SMILES IDX 56 96 57 97
REMARK H PARENT 78 53 48 64
REMARK Flexibility Score: inf
ROOT
ATOM      1  C   UNL A   1      38.446  24.285  26.391  1.00  0.00     0.188 C 
ENDROOT
BRANCH   1   2
ATOM      2  O   UNL A   1      37.499  23.876  25.369  1.00  0.00    -0.376 OA
BRANCH   2   3
ATOM      3  C   UNL A   1      36.364  23.048  25.753  1.00  0.00     0.202 C 
BRANCH   3   4
ATOM      4  C   UNL A   1      36.264  21.364  25.125  1.00  0.00     0.261 C 
BRANCH   4   5
ATOM      5  O   UNL A   1      34.538  20.321  24.784  1.00  0.00    -0.463 OA
BRANCH   5   6
ATOM      6  C   UNL A   1      33.053  20.526  24.150  1.00  0.00     0.305 C 
ATOM      7  O   UNL A   1      32.436  19.715  23.437  1.00  0.00    -0.252 OA
BRANCH   6   8
ATOM      8  C   UNL A   1      32.183  21.647  24.584  1.00  0.00     0.124 C 
BRANCH   8   9
ATOM      9  C   UNL A   1      31.786  22.634  23.570  1.00  0.00     0.033 C 
BRANCH   9  10
ATOM     10  C   UNL A   1      32.451  23.953  23.867  1.00  0.00     0.120 C 
BRANCH  10  11
ATOM     11  N   UNL A   1      31.618  25.024  24.475  1.00  0.00    -0.340 N 
BRANCH  11  12
ATOM     12  C   UNL A   1      32.226  25.288  25.800  1.00  0.00     0.078 C 
ATOM     13  C   UNL A   1      31.678  24.342  26.872  1.00  0.00     0.031 C 
ATOM     14  C   UNL A   1      33.726  25.503  25.787  1.00  0.00     0.031 C 
ENDBRANCH  11  12
BRANCH  11  15
ATOM     15  C   UNL A   1      30.763  26.046  23.908  1.00  0.00     0.227 C 
ATOM     16  O   UNL A   1      29.605  26.087  24.381  1.00  0.00    -0.275 OA
BRANCH  15  17
ATOM     17  C   UNL A   1      30.890  27.055  22.572  1.00  0.00     0.142 C 
BRANCH  17  18
ATOM     18  C   UNL A   1      31.726  28.495  22.572  1.00  0.00     0.033 A 
ATOM     19  C   UNL A   1      30.766  29.291  23.807  1.00  0.00     0.129 A 
ATOM     20  C   UNL A   1      33.537  28.404  22.793  1.00  0.00     0.129 A 
ATOM     21  F   UNL A   1      29.437  29.361  23.610  1.00  0.00    -0.207 F 
ATOM     22  C   UNL A   1      31.410  29.746  25.350  1.00  0.00     0.040 A 
ATOM     23  C   UNL A   1      34.213  28.743  24.473  1.00  0.00     0.040 A 
ATOM     24  F   UNL A   1      34.356  27.990  21.815  1.00  0.00    -0.207 F 
ATOM     25  C   UNL A   1      33.114  29.453  25.732  1.00  0.00     0.006 A 
ENDBRANCH  17  18
ENDBRANCH  15  17
ENDBRANCH  11  15
ENDBRANCH  10  11
ENDBRANCH   9  10
ENDBRANCH   8   9
ENDBRANCH   6   8
ENDBRANCH   5   6
ENDBRANCH   4   5
ENDBRANCH   3   4
ENDBRANCH   2   3
ENDBRANCH   1   2
BRANCH   1  26
ATOM     26  C   UNL A   1      39.645  23.346  26.770  1.00  0.00     0.188 C 
BRANCH  26  27
ATOM     27  O   UNL A   1      39.833  22.118  26.045  1.00  0.00    -0.377 OA
BRANCH  27  28
ATOM     28  C   UNL A   1      40.929  21.289  26.403  1.00  0.00     0.188 C 
BRANCH  28  29
ATOM     29  C   UNL A   1      40.579  19.837  26.665  1.00  0.00     0.188 C 
BRANCH  29  30
ATOM     30  O   UNL A   1      41.494  19.207  27.529  1.00  0.00    -0.376 OA
BRANCH  30  31
ATOM     31  C   UNL A   1      42.838  18.993  27.138  1.00  0.00     0.202 C 
BRANCH  31  32
ATOM     32  C   UNL A   1      43.309  18.432  25.780  1.00  0.00     0.261 C 
BRANCH  32  33
ATOM     33  O   UNL A   1      43.552  19.310  24.677  1.00  0.00    -0.460 OA
BRANCH  33  34
ATOM     34  C   UNL A   1      44.825  19.604  24.346  1.00  0.00     0.338 C 
ATOM     35  O   UNL A   1      45.685  18.832  23.969  1.00  0.00    -0.246 OA
BRANCH  34  36
ATOM     36  C   UNL A   1      44.948  21.079  24.390  1.00  0.00     0.060 A 
ATOM     37  C   UNL A   1      46.212  21.676  24.305  1.00  0.00     0.016 A 
ATOM     38  C   UNL A   1      43.805  21.865  24.560  1.00  0.00     0.016 A 
ATOM     39  C   UNL A   1      46.341  23.062  24.449  1.00  0.00     0.010 A 
ATOM     40  C   UNL A   1      43.937  23.248  24.719  1.00  0.00     0.010 A 
ATOM     41  C   UNL A   1      45.208  23.848  24.710  1.00  0.00    -0.014 A 
BRANCH  41  42
ATOM     42  C   UNL A   1      45.360  25.227  25.246  1.00  0.00     0.031 A 
ATOM     43  C   UNL A   1      46.752  25.810  25.285  1.00  0.00     0.074 A 
ATOM     44  C   UNL A   1      44.317  25.942  25.704  1.00  0.00     0.049 A 
ATOM     45  N   UNL A   1      47.162  26.945  25.787  1.00  0.00    -0.248 NA
ATOM     46  C   UNL A   1      47.821  24.998  24.677  1.00  0.00     0.031 C 
ATOM     47  C   UNL A   1      42.918  25.521  25.681  1.00  0.00     0.029 A 
ATOM     48  N   UNL A   1      44.284  27.182  26.295  1.00  0.00    -0.354 N 
ATOM     49  C   UNL A   1      48.536  26.974  25.573  1.00  0.00     0.074 A 
ATOM     50  C   UNL A   1      48.893  25.741  24.910  1.00  0.00     0.031 C 
ATOM     51  C   UNL A   1      42.164  26.483  26.247  1.00  0.00     0.029 A 
ATOM     52  C   UNL A   1      43.029  27.570  26.705  1.00  0.00     0.049 A 
ATOM     53  H   UNL A   1      45.085  27.743  26.413  1.00  0.00     0.167 HD
ATOM     54  C   UNL A   1      49.426  27.939  25.901  1.00  0.00     0.031 A 
ATOM     55  C   UNL A   1      42.632  28.661  27.392  1.00  0.00     0.031 A 
ATOM     56  C   UNL A   1      49.080  29.163  26.569  1.00  0.00     0.049 A 
ATOM     57  C   UNL A   1      43.657  29.690  27.813  1.00  0.00     0.074 A 
ATOM     58  C   UNL A   1      49.912  30.207  26.931  1.00  0.00     0.029 A 
ATOM     59  N   UNL A   1      47.802  29.504  26.981  1.00  0.00    -0.354 N 
ATOM     60  N   UNL A   1      44.948  29.714  27.578  1.00  0.00    -0.248 NA
ATOM     61  C   UNL A   1      43.168  30.840  28.590  1.00  0.00     0.031 C 
ATOM     62  C   UNL A   1      49.145  31.158  27.611  1.00  0.00     0.029 A 
ATOM     63  C   UNL A   1      47.827  30.732  27.615  1.00  0.00     0.049 A 
ATOM     64  H   UNL A   1      46.997  28.953  26.843  1.00  0.00     0.167 HD
ATOM     65  C   UNL A   1      45.413  30.902  28.139  1.00  0.00     0.074 A 
ATOM     66  C   UNL A   1      44.269  31.568  28.724  1.00  0.00     0.031 C 
ATOM     67  C   UNL A   1      46.674  31.397  28.165  1.00  0.00     0.031 A 
BRANCH  54  68
ATOM     68  C   UNL A   1      50.873  27.695  25.574  1.00  0.00    -0.014 A 
ATOM     69  C   UNL A   1      51.729  27.053  26.488  1.00  0.00     0.010 A 
ATOM     70  C   UNL A   1      51.368  28.063  24.311  1.00  0.00     0.010 A 
ATOM     71  C   UNL A   1      53.060  26.804  26.150  1.00  0.00     0.020 A 
ATOM     72  C   UNL A   1      52.693  27.793  23.960  1.00  0.00     0.020 A 
ATOM     73  C   UNL A   1      53.534  27.175  24.887  1.00  0.00     0.054 A 
BRANCH  73  74
ATOM     74  S   UNL A   1      55.255  26.796  24.458  1.00  0.00     0.124 S 
ATOM     75  O   UNL A   1      55.370  25.402  24.881  1.00  0.00    -0.237 OA
ATOM     76  O   UNL A   1      55.280  27.018  23.014  1.00  0.00    -0.237 OA
ATOM     77  O   UNL A   1      56.028  27.751  25.246  1.00  0.00    -0.744 OA
ENDBRANCH  73  74
ENDBRANCH  54  68
BRANCH  55  78
ATOM     78  C   UNL A   1      41.200  28.844  27.764  1.00  0.00    -0.014 A 
ATOM     79  C   UNL A   1      40.262  29.279  26.812  1.00  0.00     0.010 A 
ATOM     80  C   UNL A   1      40.779  28.639  29.091  1.00  0.00     0.010 A 
ATOM     81  C   UNL A   1      38.940  29.543  27.186  1.00  0.00     0.020 A 
ATOM     82  C   UNL A   1      39.452  28.872  29.463  1.00  0.00     0.020 A 
ATOM     83  C   UNL A   1      38.545  29.341  28.511  1.00  0.00     0.054 A 
BRANCH  83  84
ATOM     84  S   UNL A   1      36.823  29.682  28.973  1.00  0.00     0.124 S 
ATOM     85  O   UNL A   1      36.735  29.058  30.290  1.00  0.00    -0.237 OA
ATOM     86  O   UNL A   1      36.777  31.142  28.960  1.00  0.00    -0.237 OA
ATOM     87  O   UNL A   1      36.054  29.030  27.917  1.00  0.00    -0.744 OA
ENDBRANCH  83  84
ENDBRANCH  55  78
BRANCH  67  88
ATOM     88  C   UNL A   1      46.891  32.756  28.779  1.00  0.00    -0.014 A 
ATOM     89  C   UNL A   1      47.321  32.902  30.108  1.00  0.00     0.010 A 
ATOM     90  C   UNL A   1      46.750  33.903  27.973  1.00  0.00     0.010 A 
ATOM     91  C   UNL A   1      47.590  34.174  30.626  1.00  0.00     0.020 A 
ATOM     92  C   UNL A   1      47.043  35.170  28.479  1.00  0.00     0.020 A 
ATOM     93  C   UNL A   1      47.453  35.299  29.808  1.00  0.00     0.054 A 
BRANCH  93  94
ATOM     94  S   UNL A   1      47.873  36.930  30.482  1.00  0.00     0.124 S 
ATOM     95  O   UNL A   1      49.148  37.210  29.828  1.00  0.00    -0.237 OA
ATOM     96  O   UNL A   1      46.749  37.756  30.048  1.00  0.00    -0.237 OA
ATOM     97  O   UNL A   1      47.949  36.700  31.923  1.00  0.00    -0.744 OA
ENDBRANCH  93  94
ENDBRANCH  67  88
ENDBRANCH  41  42
ENDBRANCH  34  36
ENDBRANCH  33  34
ENDBRANCH  32  33
ENDBRANCH  31  32
ENDBRANCH  30  31
ENDBRANCH  29  30
ENDBRANCH  28  29
ENDBRANCH  27  28
ENDBRANCH  26  27
ENDBRANCH   1  26
TORSDOF 30
ENDMDL
MODEL 3
REMARK VINA RESULT:      -8.3      1.752      2.212
REMARK SMILES CC(C)N(CCCC(=O)OCCOCCOCCOCCOC(=O)c1ccc(-c2c3nc(c(-c4ccc(S(=O)(=O)[O-])cc4)c4ccc([nH]4)c(-c4ccc(S(=O)(=O)[O-])cc4)c4nc(c(-c5ccc(S(=O)(=O)[O-])cc5)c5ccc2[nH]5)C=C4)C=C3)cc1)C(=O)Cc1c(F)cccc1F
REMARK SMILES IDX 14 1 13 2 12 3 11 4 10 5 8 6 9 7 7 8 6 9 5 10 4 11 2 12 1 13
REMARK SMILES IDX 3 14 85 15 86 16 87 17 88 18 89 19 94 20 90 21 91 22 93 23
REMARK SMILES IDX 95 24 92 25 15 26 16 27 17 28 18 29 19 30 20 31 21 32 22 33
REMARK SMILES IDX 23 34 24 35 25 36 26 37 84 38 27 39 83 40 28 41 29 42 30 43
REMARK SMILES IDX 77 44 31 45 82 46 76 47 78 48 32 49 81 50 75 51 74 52 33 54
REMARK SMILES IDX 63 55 44 56 62 57 45 58 48 59 61 60 79 61 46 62 47 63 60 65
REMARK SMILES IDX 80 66 49 67 34 68 35 69 43 70 36 71 42 72 37 73 38 74 39 75
REMARK SMILES IDX 40 76 41 77 64 78 65 79 73 80 66 81 72 82 67 83 68 84 69 85
REMARK SMILES IDX 70 86 71 87 50 88 51 89 59 90 52 91 58 92 53 93 54 94 55 95
REMARK SMILES IDX 56 96 57 97
REMARK H PARENT 78 53 48 64
REMARK Flexibility Score: inf
ROOT
ATOM      1  C   UNL A   1      38.417  22.167  25.933  1.00  0.00     0.188 C 
ENDROOT
BRANCH   1   2
ATOM      2  O   UNL A   1      37.070  21.718  25.630  1.00  0.00    -0.376 OA
BRANCH   2   3
ATOM      3  C   UNL A   1      35.942  22.512  26.097  1.00  0.00     0.202 C 
BRANCH   3   4
ATOM      4  C   UNL A   1      34.455  21.667  26.660  1.00  0.00     0.261 C 
BRANCH   4   5
ATOM      5  O   UNL A   1      32.674  22.564  27.110  1.00  0.00    -0.463 OA
BRANCH   5   6
ATOM      6  C   UNL A   1      31.815  23.898  26.747  1.00  0.00     0.305 C 
ATOM      7  O   UNL A   1      30.576  24.012  26.789  1.00  0.00    -0.252 OA
BRANCH   6   8
ATOM      8  C   UNL A   1      32.480  25.210  26.554  1.00  0.00     0.124 C 
BRANCH   8   9
ATOM      9  C   UNL A   1      32.426  25.813  25.216  1.00  0.00     0.033 C 
BRANCH   9  10
ATOM     10  C   UNL A   1      33.436  25.140  24.322  1.00  0.00     0.120 C 
BRANCH  10  11
ATOM     11  N   UNL A   1      33.078  24.959  22.891  1.00  0.00    -0.340 N 
BRANCH  11  12
ATOM     12  C   UNL A   1      32.824  23.508  22.730  1.00  0.00     0.078 C 
ATOM     13  C   UNL A   1      33.993  22.669  23.254  1.00  0.00     0.031 C 
ATOM     14  C   UNL A   1      31.432  23.053  23.123  1.00  0.00     0.031 C 
ENDBRANCH  11  12
BRANCH  11  15
ATOM     15  C   UNL A   1      32.530  25.855  21.893  1.00  0.00     0.227 C 
ATOM     16  O   UNL A   1      32.987  25.700  20.738  1.00  0.00    -0.275 OA
BRANCH  15  17
ATOM     17  C   UNL A   1      31.580  27.237  21.971  1.00  0.00     0.142 C 
BRANCH  17  18
ATOM     18  C   UNL A   1      32.179  28.759  22.284  1.00  0.00     0.033 A 
ATOM     19  C   UNL A   1      30.630  29.537  22.559  1.00  0.00     0.129 A 
ATOM     20  C   UNL A   1      33.469  28.896  23.569  1.00  0.00     0.129 A 
ATOM     21  F   UNL A   1      29.705  29.437  21.589  1.00  0.00    -0.207 F 
ATOM     22  C   UNL A   1      30.166  30.188  24.097  1.00  0.00     0.040 A 
ATOM     23  C   UNL A   1      32.951  29.447  25.249  1.00  0.00     0.040 A 
ATOM     24  F   UNL A   1      34.734  28.500  23.357  1.00  0.00    -0.207 F 
ATOM     25  C   UNL A   1      31.281  30.126  25.470  1.00  0.00     0.006 A 
ENDBRANCH  17  18
ENDBRANCH  15  17
ENDBRANCH  11  15
ENDBRANCH  10  11
ENDBRANCH   9  10
ENDBRANCH   8   9
ENDBRANCH   6   8
ENDBRANCH   5   6
ENDBRANCH   4   5
ENDBRANCH   3   4
ENDBRANCH   2   3
ENDBRANCH   1   2
BRANCH   1  26
ATOM     26  C   UNL A   1      39.590  21.127  26.016  1.00  0.00     0.188 C 
BRANCH  26  27
ATOM     27  O   UNL A   1      40.772  21.457  26.766  1.00  0.00    -0.377 OA
BRANCH  27  28
ATOM     28  C   UNL A   1      42.017  20.941  26.319  1.00  0.00     0.188 C 
BRANCH  28  29
ATOM     29  C   UNL A   1      42.051  19.441  26.102  1.00  0.00     0.188 C 
BRANCH  29  30
ATOM     30  O   UNL A   1      42.852  19.070  25.006  1.00  0.00    -0.376 OA
BRANCH  30  31
ATOM     31  C   UNL A   1      44.256  18.938  25.140  1.00  0.00     0.202 C 
BRANCH  31  32
ATOM     32  C   UNL A   1      45.318  19.607  24.246  1.00  0.00     0.261 C 
BRANCH  32  33
ATOM     33  O   UNL A   1      45.752  20.945  24.510  1.00  0.00    -0.460 OA
BRANCH  33  34
ATOM     34  C   UNL A   1      45.000  21.974  24.071  1.00  0.00     0.338 C 
ATOM     35  O   UNL A   1      44.382  22.040  23.026  1.00  0.00    -0.246 OA
BRANCH  34  36
ATOM     36  C   UNL A   1      44.949  22.966  25.168  1.00  0.00     0.060 A 
ATOM     37  C   UNL A   1      44.919  24.334  24.871  1.00  0.00     0.016 A 
ATOM     38  C   UNL A   1      44.973  22.532  26.496  1.00  0.00     0.016 A 
ATOM     39  C   UNL A   1      44.974  25.275  25.906  1.00  0.00     0.010 A 
ATOM     40  C   UNL A   1      45.043  23.473  27.529  1.00  0.00     0.010 A 
ATOM     41  C   UNL A   1      45.090  24.847  27.237  1.00  0.00    -0.014 A 
BRANCH  41  42
ATOM     42  C   UNL A   1      45.536  25.795  28.292  1.00  0.00     0.031 A 
ATOM     43  C   UNL A   1      44.481  26.642  28.960  1.00  0.00     0.074 A 
ATOM     44  C   UNL A   1      46.828  25.927  28.644  1.00  0.00     0.049 A 
ATOM     45  N   UNL A   1      44.620  27.603  29.835  1.00  0.00    -0.248 NA
ATOM     46  C   UNL A   1      43.083  26.367  28.583  1.00  0.00     0.031 C 
ATOM     47  C   UNL A   1      47.941  25.140  28.116  1.00  0.00     0.029 A 
ATOM     48  N   UNL A   1      47.421  26.794  29.531  1.00  0.00    -0.354 N 
ATOM     49  C   UNL A   1      43.332  28.058  30.099  1.00  0.00     0.074 A 
ATOM     50  C   UNL A   1      42.427  27.281  29.283  1.00  0.00     0.031 C 
ATOM     51  C   UNL A   1      49.086  25.571  28.681  1.00  0.00     0.029 A 
ATOM     52  C   UNL A   1      48.792  26.687  29.580  1.00  0.00     0.049 A 
ATOM     53  H   UNL A   1      46.912  27.432  30.081  1.00  0.00     0.167 HD
ATOM     54  C   UNL A   1      42.934  29.038  30.943  1.00  0.00     0.031 A 
ATOM     55  C   UNL A   1      49.702  27.421  30.253  1.00  0.00     0.031 A 
ATOM     56  C   UNL A   1      43.828  29.821  31.749  1.00  0.00     0.049 A 
ATOM     57  C   UNL A   1      49.238  28.560  31.132  1.00  0.00     0.074 A 
ATOM     58  C   UNL A   1      43.516  30.828  32.645  1.00  0.00     0.029 A 
ATOM     59  N   UNL A   1      45.207  29.691  31.753  1.00  0.00    -0.354 N 
ATOM     60  N   UNL A   1      48.014  28.958  31.391  1.00  0.00    -0.248 NA
ATOM     61  C   UNL A   1      50.279  29.346  31.812  1.00  0.00     0.031 C 
ATOM     62  C   UNL A   1      44.711  31.344  33.152  1.00  0.00     0.029 A 
ATOM     63  C   UNL A   1      45.762  30.615  32.618  1.00  0.00     0.049 A 
ATOM     64  H   UNL A   1      45.716  29.038  31.220  1.00  0.00     0.167 HD
ATOM     65  C   UNL A   1      48.141  30.009  32.297  1.00  0.00     0.074 A 
ATOM     66  C   UNL A   1      49.556  30.186  32.542  1.00  0.00     0.031 C 
ATOM     67  C   UNL A   1      47.172  30.759  32.875  1.00  0.00     0.031 A 
BRANCH  54  68
ATOM     68  C   UNL A   1      41.464  29.347  31.011  1.00  0.00    -0.014 A 
ATOM     69  C   UNL A   1      40.662  28.843  32.051  1.00  0.00     0.010 A 
ATOM     70  C   UNL A   1      40.891  30.200  30.052  1.00  0.00     0.010 A 
ATOM     71  C   UNL A   1      39.306  29.172  32.116  1.00  0.00     0.020 A 
ATOM     72  C   UNL A   1      39.541  30.551  30.128  1.00  0.00     0.020 A 
ATOM     73  C   UNL A   1      38.754  30.025  31.155  1.00  0.00     0.054 A 
BRANCH  73  74
ATOM     74  S   UNL A   1      37.002  30.472  31.292  1.00  0.00     0.124 S 
ATOM     75  O   UNL A   1      36.510  29.474  32.238  1.00  0.00    -0.237 OA
ATOM     76  O   UNL A   1      37.061  31.842  31.797  1.00  0.00    -0.237 OA
ATOM     77  O   UNL A   1      36.501  30.335  29.927  1.00  0.00    -0.744 OA
ENDBRANCH  73  74
ENDBRANCH  54  68
BRANCH  55  78
ATOM     78  C   UNL A   1      51.159  27.138  30.113  1.00  0.00    -0.014 A 
ATOM     79  C   UNL A   1      51.893  27.673  29.039  1.00  0.00     0.010 A 
ATOM     80  C   UNL A   1      51.808  26.284  31.024  1.00  0.00     0.010 A 
ATOM     81  C   UNL A   1      53.237  27.329  28.856  1.00  0.00     0.020 A 
ATOM     82  C   UNL A   1      53.159  25.962  30.863  1.00  0.00     0.020 A 
ATOM     83  C   UNL A   1      53.860  26.471  29.769  1.00  0.00     0.054 A 
BRANCH  83  84
ATOM     84  S   UNL A   1      55.606  26.044  29.517  1.00  0.00     0.124 S 
ATOM     85  O   UNL A   1      55.907  25.281  30.723  1.00  0.00    -0.237 OA
ATOM     86  O   UNL A   1      55.566  25.277  28.275  1.00  0.00    -0.237 OA
ATOM     87  O   UNL A   1      56.262  27.346  29.418  1.00  0.00    -0.744 OA
ENDBRANCH  83  84
ENDBRANCH  55  78
BRANCH  67  88
ATOM     88  C   UNL A   1      47.584  31.795  33.888  1.00  0.00    -0.014 A 
ATOM     89  C   UNL A   1      47.837  31.455  35.228  1.00  0.00     0.010 A 
ATOM     90  C   UNL A   1      47.813  33.118  33.462  1.00  0.00     0.010 A 
ATOM     91  C   UNL A   1      48.295  32.424  36.127  1.00  0.00     0.020 A 
ATOM     92  C   UNL A   1      48.294  34.080  34.351  1.00  0.00     0.020 A 
ATOM     93  C   UNL A   1      48.523  33.729  35.682  1.00  0.00     0.054 A 
BRANCH  93  94
ATOM     94  S   UNL A   1      49.182  34.951  36.851  1.00  0.00     0.124 S 
ATOM     95  O   UNL A   1      50.478  34.374  37.195  1.00  0.00    -0.237 OA
ATOM     96  O   UNL A   1      49.228  36.170  36.048  1.00  0.00    -0.237 OA
ATOM     97  O   UNL A   1      48.199  34.962  37.932  1.00  0.00    -0.744 OA
ENDBRANCH  93  94
ENDBRANCH  67  88
ENDBRANCH  41  42
ENDBRANCH  34  36
ENDBRANCH  33  34
ENDBRANCH  32  33
ENDBRANCH  31  32
ENDBRANCH  30  31
ENDBRANCH  29  30
ENDBRANCH  28  29
ENDBRANCH  27  28
ENDBRANCH  26  27
ENDBRANCH   1  26
TORSDOF 30
ENDMDL
