MODEL 1
REMARK VINA RESULT:      -9.2      0.000      0.000
REMARK SMILES Cc1ccc(-c2c(C(=O)OCCOCCOCCOCCOC(=O)c3ccc(-c4c5nc(c(-c6ccc(S(=O)(=O)[O-])cc6)c6ccc([nH]6)c(-c6ccc(S(=O)(=O)[O-])cc6)c6nc(c(-c7ccc(S(=O)(=O)[O-])cc7)c7ccc4[nH]7)C=C6)C=C5)cc3)nnn2Cc2c(F)cccc2Cl)cc1
REMARK SMILES IDX 17 1 16 2 15 3 14 4 13 5 12 6 11 7 10 8 8 9 9 10 7 11 6 12
REMARK SMILES IDX 87 13 85 14 86 15 5 16 1 17 2 18 3 19 98 20 4 21 97 22 88 23
REMARK SMILES IDX 89 24 90 25 95 26 91 27 92 28 94 29 96 30 93 31 18 32 19 33
REMARK SMILES IDX 20 34 21 35 22 36 23 37 24 38 25 39 26 40 84 41 27 42 83 43
REMARK SMILES IDX 28 44 29 45 30 46 77 47 31 48 82 49 76 50 78 51 32 52 81 53
REMARK SMILES IDX 75 54 74 55 33 57 63 58 44 59 62 60 45 61 48 62 61 63 79 64
REMARK SMILES IDX 46 65 47 66 60 68 80 69 49 70 34 71 35 72 43 73 36 74 42 75
REMARK SMILES IDX 37 76 38 77 39 78 40 79 41 80 64 81 65 82 73 83 66 84 72 85
REMARK SMILES IDX 67 86 68 87 69 88 70 89 71 90 50 91 51 92 59 93 52 94 58 95
REMARK SMILES IDX 53 96 54 97 55 98 56 99 57 100
REMARK H PARENT 78 56 48 67
REMARK Flexibility Score: inf
ROOT
ATOM      1  C   UNL A   1      43.977  22.882  25.745  1.00  0.00     0.188 C 
ENDROOT
BRANCH   1   2
ATOM      2  O   UNL A   1      43.538  22.183  26.921  1.00  0.00    -0.377 OA
BRANCH   2   3
ATOM      3  C   UNL A   1      42.147  22.031  27.150  1.00  0.00     0.188 C 
BRANCH   3   4
ATOM      4  C   UNL A   1      41.552  20.616  27.123  1.00  0.00     0.188 C 
BRANCH   4   5
ATOM      5  O   UNL A   1      40.375  20.366  26.367  1.00  0.00    -0.376 OA
BRANCH   5   6
ATOM      6  C   UNL A   1      39.530  21.492  26.116  1.00  0.00     0.202 C 
BRANCH   6   7
ATOM      7  C   UNL A   1      38.337  21.268  25.181  1.00  0.00     0.261 C 
BRANCH   7   8
ATOM      8  O   UNL A   1      37.431  22.374  25.314  1.00  0.00    -0.458 OA
BRANCH   8   9
ATOM      9  C   UNL A   1      36.645  22.585  24.235  1.00  0.00     0.361 C 
ATOM     10  O   UNL A   1      37.028  22.573  23.069  1.00  0.00    -0.244 OA
BRANCH   9  11
ATOM     11  C   UNL A   1      35.250  22.457  24.576  1.00  0.00     0.198 A 
ATOM     12  C   UNL A   1      34.201  23.369  24.683  1.00  0.00     0.104 A 
ATOM     13  N   UNL A   1      33.133  22.482  24.688  1.00  0.00    -0.239 N 
ATOM     14  N   UNL A   1      34.796  21.191  24.900  1.00  0.00    -0.122 NA
ATOM     15  N   UNL A   1      33.501  21.258  25.096  1.00  0.00    -0.066 NA
BRANCH  12  16
ATOM     16  C   UNL A   1      34.044  24.824  24.597  1.00  0.00     0.002 A 
ATOM     17  C   UNL A   1      33.275  29.100  24.535  1.00  0.00     0.044 C 
ATOM     18  C   UNL A   1      33.545  27.623  24.559  1.00  0.00    -0.051 A 
ATOM     19  C   UNL A   1      33.729  26.905  23.369  1.00  0.00     0.004 A 
ATOM     20  C   UNL A   1      33.649  26.937  25.770  1.00  0.00     0.004 A 
ATOM     21  C   UNL A   1      33.980  25.520  23.386  1.00  0.00     0.011 A 
ATOM     22  C   UNL A   1      33.902  25.560  25.785  1.00  0.00     0.011 A 
ENDBRANCH  12  16
BRANCH  13  23
ATOM     23  C   UNL A   1      31.798  22.601  24.116  1.00  0.00     0.187 C 
BRANCH  23  24
ATOM     24  C   UNL A   1      31.001  23.806  24.540  1.00  0.00     0.028 A 
ATOM     25  C   UNL A   1      30.614  24.686  23.524  1.00  0.00     0.129 A 
ATOM     26  C   UNL A   1      30.648  24.157  25.854  1.00  0.00     0.049 A 
ATOM     27  F   UNL A   1      31.054  24.485  22.273  1.00  0.00    -0.207 F 
ATOM     28  C   UNL A   1      29.805  25.792  23.767  1.00  0.00     0.040 A 
ATOM     29  C   UNL A   1      29.769  25.219  26.098  1.00  0.00     0.021 A 
ATOM     30  Cl  UNL A   1      31.323  23.407  27.253  1.00  0.00    -0.084 Cl
ATOM     31  C   UNL A   1      29.338  26.031  25.053  1.00  0.00     0.005 A 
ENDBRANCH  23  24
ENDBRANCH  13  23
ENDBRANCH   9  11
ENDBRANCH   8   9
ENDBRANCH   7   8
ENDBRANCH   6   7
ENDBRANCH   5   6
ENDBRANCH   4   5
ENDBRANCH   3   4
ENDBRANCH   2   3
ENDBRANCH   1   2
BRANCH   1  32
ATOM     32  C   UNL A   1      43.260  24.161  25.319  1.00  0.00     0.188 C 
BRANCH  32  33
ATOM     33  O   UNL A   1      43.832  25.247  26.062  1.00  0.00    -0.376 OA
BRANCH  33  34
ATOM     34  C   UNL A   1      43.658  26.534  25.489  1.00  0.00     0.202 C 
BRANCH  34  35
ATOM     35  C   UNL A   1      42.284  26.750  24.852  1.00  0.00     0.261 C 
BRANCH  35  36
ATOM     36  O   UNL A   1      41.401  27.430  25.768  1.00  0.00    -0.460 OA
BRANCH  36  37
ATOM     37  C   UNL A   1      40.693  26.609  26.593  1.00  0.00     0.338 C 
ATOM     38  O   UNL A   1      40.117  25.604  26.213  1.00  0.00    -0.246 OA
BRANCH  37  39
ATOM     39  C   UNL A   1      40.813  27.041  28.012  1.00  0.00     0.060 A 
ATOM     40  C   UNL A   1      39.725  26.940  28.889  1.00  0.00     0.016 A 
ATOM     41  C   UNL A   1      41.979  27.664  28.443  1.00  0.00     0.016 A 
ATOM     42  C   UNL A   1      39.770  27.556  30.155  1.00  0.00     0.010 A 
ATOM     43  C   UNL A   1      41.984  28.342  29.652  1.00  0.00     0.010 A 
ATOM     44  C   UNL A   1      40.884  28.317  30.527  1.00  0.00    -0.014 A 
BRANCH  44  45
ATOM     45  C   UNL A   1      40.919  29.305  31.640  1.00  0.00     0.031 A 
ATOM     46  C   UNL A   1      40.043  30.546  31.627  1.00  0.00     0.074 A 
ATOM     47  C   UNL A   1      41.283  28.811  32.850  1.00  0.00     0.049 A 
ATOM     48  N   UNL A   1      39.792  31.315  32.643  1.00  0.00    -0.248 NA
ATOM     49  C   UNL A   1      39.378  31.028  30.420  1.00  0.00     0.031 C 
ATOM     50  C   UNL A   1      40.490  29.065  34.047  1.00  0.00     0.029 A 
ATOM     51  N   UNL A   1      42.162  27.830  33.280  1.00  0.00    -0.354 N 
ATOM     52  C   UNL A   1      38.739  32.159  32.329  1.00  0.00     0.074 A 
ATOM     53  C   UNL A   1      38.596  32.003  30.900  1.00  0.00     0.031 C 
ATOM     54  C   UNL A   1      40.848  28.233  35.022  1.00  0.00     0.029 A 
ATOM     55  C   UNL A   1      42.131  27.707  34.674  1.00  0.00     0.049 A 
ATOM     56  H   UNL A   1      42.732  27.291  32.684  1.00  0.00     0.167 HD
ATOM     57  C   UNL A   1      38.034  32.814  33.311  1.00  0.00     0.031 A 
ATOM     58  C   UNL A   1      43.196  27.918  35.498  1.00  0.00     0.031 A 
ATOM     59  C   UNL A   1      38.579  32.587  34.678  1.00  0.00     0.049 A 
ATOM     60  C   UNL A   1      43.109  29.211  36.306  1.00  0.00     0.074 A 
ATOM     61  C   UNL A   1      38.019  32.246  35.901  1.00  0.00     0.029 A 
ATOM     62  N   UNL A   1      39.959  32.584  34.905  1.00  0.00    -0.354 N 
ATOM     63  N   UNL A   1      42.080  30.028  36.284  1.00  0.00    -0.248 NA
ATOM     64  C   UNL A   1      44.176  29.741  37.151  1.00  0.00     0.031 C 
ATOM     65  C   UNL A   1      39.065  31.974  36.831  1.00  0.00     0.029 A 
ATOM     66  C   UNL A   1      40.273  32.212  36.202  1.00  0.00     0.049 A 
ATOM     67  H   UNL A   1      40.629  32.821  34.224  1.00  0.00     0.167 HD
ATOM     68  C   UNL A   1      42.397  31.222  36.867  1.00  0.00     0.074 A 
ATOM     69  C   UNL A   1      43.681  30.947  37.489  1.00  0.00     0.031 C 
ATOM     70  C   UNL A   1      41.641  32.354  36.704  1.00  0.00     0.031 A 
BRANCH  57  71
ATOM     71  C   UNL A   1      36.698  33.572  33.089  1.00  0.00    -0.014 A 
ATOM     72  C   UNL A   1      36.674  34.811  32.403  1.00  0.00     0.010 A 
ATOM     73  C   UNL A   1      35.433  33.151  33.554  1.00  0.00     0.010 A 
ATOM     74  C   UNL A   1      35.500  35.582  32.233  1.00  0.00     0.020 A 
ATOM     75  C   UNL A   1      34.246  33.891  33.367  1.00  0.00     0.020 A 
ATOM     76  C   UNL A   1      34.286  35.114  32.718  1.00  0.00     0.054 A 
BRANCH  76  77
ATOM     77  S   UNL A   1      32.772  36.085  32.467  1.00  0.00     0.124 S 
ATOM     78  O   UNL A   1      32.789  36.999  33.606  1.00  0.00    -0.237 OA
ATOM     79  O   UNL A   1      32.995  36.700  31.162  1.00  0.00    -0.237 OA
ATOM     80  O   UNL A   1      31.707  35.083  32.500  1.00  0.00    -0.744 OA
ENDBRANCH  76  77
ENDBRANCH  57  71
BRANCH  58  81
ATOM     81  C   UNL A   1      44.278  26.912  35.282  1.00  0.00    -0.014 A 
ATOM     82  C   UNL A   1      43.757  25.610  35.074  1.00  0.00     0.010 A 
ATOM     83  C   UNL A   1      45.403  27.301  34.532  1.00  0.00     0.010 A 
ATOM     84  C   UNL A   1      44.067  24.907  33.907  1.00  0.00     0.020 A 
ATOM     85  C   UNL A   1      45.723  26.592  33.362  1.00  0.00     0.020 A 
ATOM     86  C   UNL A   1      44.978  25.459  33.010  1.00  0.00     0.054 A 
BRANCH  86  87
ATOM     87  S   UNL A   1      44.895  24.953  31.257  1.00  0.00     0.124 S 
ATOM     88  O   UNL A   1      46.254  25.209  30.796  1.00  0.00    -0.237 OA
ATOM     89  O   UNL A   1      44.503  23.546  31.331  1.00  0.00    -0.237 OA
ATOM     90  O   UNL A   1      43.861  25.838  30.725  1.00  0.00    -0.744 OA
ENDBRANCH  86  87
ENDBRANCH  58  81
BRANCH  70  91
ATOM     91  C   UNL A   1      42.107  33.771  37.001  1.00  0.00    -0.014 A 
ATOM     92  C   UNL A   1      41.894  34.431  38.219  1.00  0.00     0.010 A 
ATOM     93  C   UNL A   1      42.940  34.439  36.063  1.00  0.00     0.010 A 
ATOM     94  C   UNL A   1      42.420  35.707  38.465  1.00  0.00     0.020 A 
ATOM     95  C   UNL A   1      43.512  35.690  36.316  1.00  0.00     0.020 A 
ATOM     96  C   UNL A   1      43.224  36.330  37.512  1.00  0.00     0.054 A 
BRANCH  96  97
ATOM     97  S   UNL A   1      43.934  37.950  37.889  1.00  0.00     0.124 S 
ATOM     98  O   UNL A   1      45.366  37.676  37.807  1.00  0.00    -0.237 OA
ATOM     99  O   UNL A   1      43.397  38.792  36.823  1.00  0.00    -0.237 OA
ATOM    100  O   UNL A   1      43.428  38.252  39.225  1.00  0.00    -0.744 OA
ENDBRANCH  96  97
ENDBRANCH  70  91
ENDBRANCH  44  45
ENDBRANCH  37  39
ENDBRANCH  36  37
ENDBRANCH  35  36
ENDBRANCH  34  35
ENDBRANCH  33  34
ENDBRANCH  32  33
ENDBRANCH   1  32
TORSDOF 26
ENDMDL
MODEL 2
REMARK VINA RESULT:      -9.0      3.321      7.288
REMARK SMILES Cc1ccc(-c2c(C(=O)OCCOCCOCCOCCOC(=O)c3ccc(-c4c5nc(c(-c6ccc(S(=O)(=O)[O-])cc6)c6ccc([nH]6)c(-c6ccc(S(=O)(=O)[O-])cc6)c6nc(c(-c7ccc(S(=O)(=O)[O-])cc7)c7ccc4[nH]7)C=C6)C=C5)cc3)nnn2Cc2c(F)cccc2Cl)cc1
REMARK SMILES IDX 17 1 16 2 15 3 14 4 13 5 12 6 11 7 10 8 8 9 9 10 7 11 6 12
REMARK SMILES IDX 87 13 85 14 86 15 5 16 1 17 2 18 3 19 98 20 4 21 97 22 88 23
REMARK SMILES IDX 89 24 90 25 95 26 91 27 92 28 94 29 96 30 93 31 18 32 19 33
REMARK SMILES IDX 20 34 21 35 22 36 23 37 24 38 25 39 26 40 84 41 27 42 83 43
REMARK SMILES IDX 28 44 29 45 30 46 77 47 31 48 82 49 76 50 78 51 32 52 81 53
REMARK SMILES IDX 75 54 74 55 33 57 63 58 44 59 62 60 45 61 48 62 61 63 79 64
REMARK SMILES IDX 46 65 47 66 60 68 80 69 49 70 34 71 35 72 43 73 36 74 42 75
REMARK SMILES IDX 37 76 38 77 39 78 40 79 41 80 64 81 65 82 73 83 66 84 72 85
REMARK SMILES IDX 67 86 68 87 69 88 70 89 71 90 50 91 51 92 59 93 52 94 58 95
REMARK SMILES IDX 53 96 54 97 55 98 56 99 57 100
REMARK H PARENT 78 56 48 67
REMARK Flexibility Score: inf
ROOT
ATOM      1  C   UNL A   1      43.448  23.800  25.722  1.00  0.00     0.188 C 
ENDROOT
BRANCH   1   2
ATOM      2  O   UNL A   1      42.800  23.213  26.863  1.00  0.00    -0.377 OA
BRANCH   2   3
ATOM      3  C   UNL A   1      41.384  23.195  26.914  1.00  0.00     0.188 C 
BRANCH   3   4
ATOM      4  C   UNL A   1      40.687  21.930  27.436  1.00  0.00     0.188 C 
BRANCH   4   5
ATOM      5  O   UNL A   1      39.502  21.471  26.799  1.00  0.00    -0.376 OA
BRANCH   5   6
ATOM      6  C   UNL A   1      38.720  22.459  26.123  1.00  0.00     0.202 C 
BRANCH   6   7
ATOM      7  C   UNL A   1      37.312  22.047  25.684  1.00  0.00     0.261 C 
BRANCH   7   8
ATOM      8  O   UNL A   1      36.365  22.976  26.233  1.00  0.00    -0.458 OA
BRANCH   8   9
ATOM      9  C   UNL A   1      35.675  23.681  25.310  1.00  0.00     0.361 C 
ATOM     10  O   UNL A   1      36.134  24.101  24.252  1.00  0.00    -0.244 OA
BRANCH   9  11
ATOM     11  C   UNL A   1      34.254  23.569  25.527  1.00  0.00     0.198 A 
ATOM     12  C   UNL A   1      33.237  24.502  25.726  1.00  0.00     0.104 A 
ATOM     13  N   UNL A   1      32.136  23.686  25.498  1.00  0.00    -0.239 N 
ATOM     14  N   UNL A   1      33.726  22.292  25.585  1.00  0.00    -0.122 NA
ATOM     15  N   UNL A   1      32.423  22.391  25.703  1.00  0.00    -0.066 NA
BRANCH  12  16
ATOM     16  C   UNL A   1      33.144  25.956  25.894  1.00  0.00     0.002 A 
ATOM     17  C   UNL A   1      32.516  30.231  26.343  1.00  0.00     0.044 C 
ATOM     18  C   UNL A   1      32.735  28.752  26.192  1.00  0.00    -0.051 A 
ATOM     19  C   UNL A   1      33.638  28.252  25.245  1.00  0.00     0.004 A 
ATOM     20  C   UNL A   1      32.065  27.845  27.015  1.00  0.00     0.004 A 
ATOM     21  C   UNL A   1      33.845  26.867  25.098  1.00  0.00     0.011 A 
ATOM     22  C   UNL A   1      32.275  26.469  26.870  1.00  0.00     0.011 A 
ENDBRANCH  12  16
BRANCH  13  23
ATOM     23  C   UNL A   1      30.854  23.974  24.868  1.00  0.00     0.187 C 
BRANCH  23  24
ATOM     24  C   UNL A   1      30.838  25.125  23.896  1.00  0.00     0.028 A 
ATOM     25  C   UNL A   1      29.920  26.146  24.156  1.00  0.00     0.129 A 
ATOM     26  C   UNL A   1      31.618  25.251  22.735  1.00  0.00     0.049 A 
ATOM     27  F   UNL A   1      29.042  26.007  25.161  1.00  0.00    -0.207 F 
ATOM     28  C   UNL A   1      29.859  27.304  23.386  1.00  0.00     0.040 A 
ATOM     29  C   UNL A   1      31.621  26.444  22.003  1.00  0.00     0.021 A 
ATOM     30  Cl  UNL A   1      32.536  23.955  22.061  1.00  0.00    -0.084 Cl
ATOM     31  C   UNL A   1      30.749  27.476  22.335  1.00  0.00     0.005 A 
ENDBRANCH  23  24
ENDBRANCH  13  23
ENDBRANCH   9  11
ENDBRANCH   8   9
ENDBRANCH   7   8
ENDBRANCH   6   7
ENDBRANCH   5   6
ENDBRANCH   4   5
ENDBRANCH   3   4
ENDBRANCH   2   3
ENDBRANCH   1   2
BRANCH   1  32
ATOM     32  C   UNL A   1      43.098  25.228  25.312  1.00  0.00     0.188 C 
BRANCH  32  33
ATOM     33  O   UNL A   1      43.584  26.106  26.336  1.00  0.00    -0.376 OA
BRANCH  33  34
ATOM     34  C   UNL A   1      43.080  27.432  26.293  1.00  0.00     0.202 C 
BRANCH  34  35
ATOM     35  C   UNL A   1      41.630  27.529  25.813  1.00  0.00     0.261 C 
BRANCH  35  36
ATOM     36  O   UNL A   1      40.776  28.005  26.874  1.00  0.00    -0.460 OA
BRANCH  36  37
ATOM     37  C   UNL A   1      40.121  27.029  27.562  1.00  0.00     0.338 C 
ATOM     38  O   UNL A   1      39.598  26.064  27.032  1.00  0.00    -0.246 OA
BRANCH  37  39
ATOM     39  C   UNL A   1      40.232  27.242  29.031  1.00  0.00     0.060 A 
ATOM     40  C   UNL A   1      39.090  27.258  29.843  1.00  0.00     0.016 A 
ATOM     41  C   UNL A   1      41.468  27.550  29.588  1.00  0.00     0.016 A 
ATOM     42  C   UNL A   1      39.174  27.685  31.183  1.00  0.00     0.010 A 
ATOM     43  C   UNL A   1      41.529  28.051  30.878  1.00  0.00     0.010 A 
ATOM     44  C   UNL A   1      40.391  28.145  31.699  1.00  0.00    -0.014 A 
BRANCH  44  45
ATOM     45  C   UNL A   1      40.550  28.953  32.938  1.00  0.00     0.031 A 
ATOM     46  C   UNL A   1      41.356  28.441  34.120  1.00  0.00     0.074 A 
ATOM     47  C   UNL A   1      40.466  30.297  32.776  1.00  0.00     0.049 A 
ATOM     48  N   UNL A   1      41.784  29.152  35.119  1.00  0.00    -0.248 NA
ATOM     49  C   UNL A   1      41.736  27.039  34.266  1.00  0.00     0.031 C 
ATOM     50  C   UNL A   1      41.481  31.195  33.315  1.00  0.00     0.029 A 
ATOM     51  N   UNL A   1      39.734  31.137  31.952  1.00  0.00    -0.354 N 
ATOM     52  C   UNL A   1      42.715  28.420  35.837  1.00  0.00     0.074 A 
ATOM     53  C   UNL A   1      42.563  27.080  35.319  1.00  0.00     0.031 C 
ATOM     54  C   UNL A   1      41.366  32.402  32.765  1.00  0.00     0.029 A 
ATOM     55  C   UNL A   1      40.060  32.478  32.189  1.00  0.00     0.049 A 
ATOM     56  H   UNL A   1      39.073  30.832  31.289  1.00  0.00     0.167 HD
ATOM     57  C   UNL A   1      43.584  29.032  36.709  1.00  0.00     0.031 A 
ATOM     58  C   UNL A   1      39.183  33.427  32.622  1.00  0.00     0.031 A 
ATOM     59  C   UNL A   1      43.345  30.495  36.849  1.00  0.00     0.049 A 
ATOM     60  C   UNL A   1      39.387  33.844  34.077  1.00  0.00     0.074 A 
ATOM     61  C   UNL A   1      44.160  31.618  36.822  1.00  0.00     0.029 A 
ATOM     62  N   UNL A   1      42.044  31.002  36.927  1.00  0.00    -0.354 N 
ATOM     63  N   UNL A   1      40.357  33.399  34.844  1.00  0.00    -0.248 NA
ATOM     64  C   UNL A   1      38.500  34.734  34.822  1.00  0.00     0.031 C 
ATOM     65  C   UNL A   1      43.343  32.785  36.814  1.00  0.00     0.029 A 
ATOM     66  C   UNL A   1      42.021  32.387  36.904  1.00  0.00     0.049 A 
ATOM     67  H   UNL A   1      41.238  30.440  36.992  1.00  0.00     0.167 HD
ATOM     68  C   UNL A   1      40.123  33.714  36.152  1.00  0.00     0.074 A 
ATOM     69  C   UNL A   1      39.008  34.643  36.067  1.00  0.00     0.031 C 
ATOM     70  C   UNL A   1      40.784  33.114  37.192  1.00  0.00     0.031 A 
BRANCH  57  71
ATOM     71  C   UNL A   1      44.814  28.348  37.363  1.00  0.00    -0.014 A 
ATOM     72  C   UNL A   1      45.839  27.783  36.564  1.00  0.00     0.010 A 
ATOM     73  C   UNL A   1      45.019  28.189  38.751  1.00  0.00     0.010 A 
ATOM     74  C   UNL A   1      46.946  27.086  37.099  1.00  0.00     0.020 A 
ATOM     75  C   UNL A   1      46.132  27.523  39.306  1.00  0.00     0.020 A 
ATOM     76  C   UNL A   1      47.088  26.960  38.476  1.00  0.00     0.054 A 
BRANCH  76  77
ATOM     77  S   UNL A   1      48.529  26.096  39.165  1.00  0.00     0.124 S 
ATOM     78  O   UNL A   1      48.157  24.691  39.018  1.00  0.00    -0.237 OA
ATOM     79  O   UNL A   1      49.619  26.553  38.309  1.00  0.00    -0.237 OA
ATOM     80  O   UNL A   1      48.591  26.573  40.546  1.00  0.00    -0.744 OA
ENDBRANCH  76  77
ENDBRANCH  57  71
BRANCH  58  81
ATOM     81  C   UNL A   1      38.119  33.707  31.612  1.00  0.00    -0.014 A 
ATOM     82  C   UNL A   1      38.636  33.741  30.293  1.00  0.00     0.010 A 
ATOM     83  C   UNL A   1      36.851  33.130  31.809  1.00  0.00     0.010 A 
ATOM     84  C   UNL A   1      38.124  32.885  29.314  1.00  0.00     0.020 A 
ATOM     85  C   UNL A   1      36.328  32.275  30.825  1.00  0.00     0.020 A 
ATOM     86  C   UNL A   1      37.029  32.084  29.627  1.00  0.00     0.054 A 
BRANCH  86  87
ATOM     87  S   UNL A   1      36.774  30.544  28.680  1.00  0.00     0.124 S 
ATOM     88  O   UNL A   1      36.317  29.619  29.709  1.00  0.00    -0.237 OA
ATOM     89  O   UNL A   1      35.777  30.925  27.679  1.00  0.00    -0.237 OA
ATOM     90  O   UNL A   1      38.105  30.288  28.133  1.00  0.00    -0.744 OA
ENDBRANCH  86  87
ENDBRANCH  58  81
BRANCH  70  91
ATOM     91  C   UNL A   1      40.336  33.134  38.646  1.00  0.00    -0.014 A 
ATOM     92  C   UNL A   1      39.009  32.972  39.063  1.00  0.00     0.010 A 
ATOM     93  C   UNL A   1      41.318  33.168  39.674  1.00  0.00     0.010 A 
ATOM     94  C   UNL A   1      38.666  32.915  40.421  1.00  0.00     0.020 A 
ATOM     95  C   UNL A   1      40.994  33.061  41.031  1.00  0.00     0.020 A 
ATOM     96  C   UNL A   1      39.660  32.961  41.397  1.00  0.00     0.054 A 
BRANCH  96  97
ATOM     97  S   UNL A   1      39.186  32.824  43.137  1.00  0.00     0.124 S 
ATOM     98  O   UNL A   1      37.816  33.330  43.114  1.00  0.00    -0.237 OA
ATOM     99  O   UNL A   1      39.319  31.392  43.395  1.00  0.00    -0.237 OA
ATOM    100  O   UNL A   1      40.155  33.667  43.831  1.00  0.00    -0.744 OA
ENDBRANCH  96  97
ENDBRANCH  70  91
ENDBRANCH  44  45
ENDBRANCH  37  39
ENDBRANCH  36  37
ENDBRANCH  35  36
ENDBRANCH  34  35
ENDBRANCH  33  34
ENDBRANCH  32  33
ENDBRANCH   1  32
TORSDOF 26
ENDMDL
MODEL 3
REMARK VINA RESULT:      -8.1      4.232      5.882
REMARK SMILES Cc1ccc(-c2c(C(=O)OCCOCCOCCOCCOC(=O)c3ccc(-c4c5nc(c(-c6ccc(S(=O)(=O)[O-])cc6)c6ccc([nH]6)c(-c6ccc(S(=O)(=O)[O-])cc6)c6nc(c(-c7ccc(S(=O)(=O)[O-])cc7)c7ccc4[nH]7)C=C6)C=C5)cc3)nnn2Cc2c(F)cccc2Cl)cc1
REMARK SMILES IDX 17 1 16 2 15 3 14 4 13 5 12 6 11 7 10 8 8 9 9 10 7 11 6 12
REMARK SMILES IDX 87 13 85 14 86 15 5 16 1 17 2 18 3 19 98 20 4 21 97 22 88 23
REMARK SMILES IDX 89 24 90 25 95 26 91 27 92 28 94 29 96 30 93 31 18 32 19 33
REMARK SMILES IDX 20 34 21 35 22 36 23 37 24 38 25 39 26 40 84 41 27 42 83 43
REMARK SMILES IDX 28 44 29 45 30 46 77 47 31 48 82 49 76 50 78 51 32 52 81 53
REMARK SMILES IDX 75 54 74 55 33 57 63 58 44 59 62 60 45 61 48 62 61 63 79 64
REMARK SMILES IDX 46 65 47 66 60 68 80 69 49 70 34 71 35 72 43 73 36 74 42 75
REMARK SMILES IDX 37 76 38 77 39 78 40 79 41 80 64 81 65 82 73 83 66 84 72 85
REMARK SMILES IDX 67 86 68 87 69 88 70 89 71 90 50 91 51 92 59 93 52 94 58 95
REMARK SMILES IDX 53 96 54 97 55 98 56 99 57 100
REMARK H PARENT 78 56 48 67
REMARK Flexibility Score: inf
ROOT
ATOM      1  C   UNL A   1      42.282  23.908  25.900  1.00  0.00     0.188 C 
ENDROOT
BRANCH   1   2
ATOM      2  O   UNL A   1      42.320  24.148  27.316  1.00  0.00    -0.377 OA
BRANCH   2   3
ATOM      3  C   UNL A   1      41.823  23.153  28.194  1.00  0.00     0.188 C 
BRANCH   3   4
ATOM      4  C   UNL A   1      41.388  21.805  27.600  1.00  0.00     0.188 C 
BRANCH   4   5
ATOM      5  O   UNL A   1      40.004  21.539  27.409  1.00  0.00    -0.376 OA
BRANCH   5   6
ATOM      6  C   UNL A   1      39.541  21.522  26.057  1.00  0.00     0.202 C 
BRANCH   6   7
ATOM      7  C   UNL A   1      38.386  22.465  25.708  1.00  0.00     0.261 C 
BRANCH   7   8
ATOM      8  O   UNL A   1      37.145  21.814  26.022  1.00  0.00    -0.458 OA
BRANCH   8   9
ATOM      9  C   UNL A   1      36.787  20.844  25.152  1.00  0.00     0.361 C 
ATOM     10  O   UNL A   1      37.306  19.734  25.078  1.00  0.00    -0.244 OA
BRANCH   9  11
ATOM     11  C   UNL A   1      35.495  21.117  24.574  1.00  0.00     0.198 A 
ATOM     12  C   UNL A   1      34.319  20.376  24.462  1.00  0.00     0.104 A 
ATOM     13  N   UNL A   1      33.440  21.399  24.130  1.00  0.00    -0.239 N 
ATOM     14  N   UNL A   1      35.326  22.347  23.965  1.00  0.00    -0.122 NA
ATOM     15  N   UNL A   1      34.076  22.444  23.577  1.00  0.00    -0.066 NA
BRANCH  12  16
ATOM     16  C   UNL A   1      33.888  19.010  24.776  1.00  0.00     0.002 A 
ATOM     17  C   UNL A   1      32.532  14.924  25.357  1.00  0.00     0.044 C 
ATOM     18  C   UNL A   1      33.005  16.335  25.158  1.00  0.00    -0.051 A 
ATOM     19  C   UNL A   1      32.459  17.389  25.902  1.00  0.00     0.004 A 
ATOM     20  C   UNL A   1      34.022  16.624  24.246  1.00  0.00     0.004 A 
ATOM     21  C   UNL A   1      32.897  18.714  25.717  1.00  0.00     0.011 A 
ATOM     22  C   UNL A   1      34.460  17.941  24.066  1.00  0.00     0.011 A 
ENDBRANCH  12  16
BRANCH  13  23
ATOM     23  C   UNL A   1      32.044  21.607  24.491  1.00  0.00     0.187 C 
BRANCH  23  24
ATOM     24  C   UNL A   1      31.700  22.963  25.050  1.00  0.00     0.028 A 
ATOM     25  C   UNL A   1      30.882  23.773  24.257  1.00  0.00     0.129 A 
ATOM     26  C   UNL A   1      32.154  23.509  26.261  1.00  0.00     0.049 A 
ATOM     27  F   UNL A   1      30.545  23.367  23.024  1.00  0.00    -0.207 F 
ATOM     28  C   UNL A   1      30.421  25.013  24.690  1.00  0.00     0.040 A 
ATOM     29  C   UNL A   1      31.633  24.717  26.740  1.00  0.00     0.021 A 
ATOM     30  Cl  UNL A   1      33.433  22.823  27.194  1.00  0.00    -0.084 Cl
ATOM     31  C   UNL A   1      30.757  25.464  25.959  1.00  0.00     0.005 A 
ENDBRANCH  23  24
ENDBRANCH  13  23
ENDBRANCH   9  11
ENDBRANCH   8   9
ENDBRANCH   7   8
ENDBRANCH   6   7
ENDBRANCH   5   6
ENDBRANCH   4   5
ENDBRANCH   3   4
ENDBRANCH   2   3
ENDBRANCH   1   2
BRANCH   1  32
ATOM     32  C   UNL A   1      43.506  23.318  25.205  1.00  0.00     0.188 C 
BRANCH  32  33
ATOM     33  O   UNL A   1      44.671  23.886  25.820  1.00  0.00    -0.376 OA
BRANCH  33  34
ATOM     34  C   UNL A   1      45.092  25.134  25.293  1.00  0.00     0.202 C 
BRANCH  34  35
ATOM     35  C   UNL A   1      46.610  25.316  25.265  1.00  0.00     0.261 C 
BRANCH  35  36
ATOM     36  O   UNL A   1      47.017  26.002  24.063  1.00  0.00    -0.460 OA
BRANCH  36  37
ATOM     37  C   UNL A   1      48.078  26.843  24.217  1.00  0.00     0.338 C 
ATOM     38  O   UNL A   1      49.097  26.774  23.552  1.00  0.00    -0.246 OA
BRANCH  37  39
ATOM     39  C   UNL A   1      47.777  27.908  25.212  1.00  0.00     0.060 A 
ATOM     40  C   UNL A   1      48.642  28.151  26.288  1.00  0.00     0.016 A 
ATOM     41  C   UNL A   1      46.567  28.588  25.145  1.00  0.00     0.016 A 
ATOM     42  C   UNL A   1      48.245  28.993  27.345  1.00  0.00     0.010 A 
ATOM     43  C   UNL A   1      46.147  29.344  26.228  1.00  0.00     0.010 A 
ATOM     44  C   UNL A   1      46.962  29.553  27.354  1.00  0.00    -0.014 A 
BRANCH  44  45
ATOM     45  C   UNL A   1      46.286  30.139  28.543  1.00  0.00     0.031 A 
ATOM     46  C   UNL A   1      45.998  31.628  28.639  1.00  0.00     0.074 A 
ATOM     47  C   UNL A   1      45.464  29.300  29.221  1.00  0.00     0.049 A 
ATOM     48  N   UNL A   1      45.189  32.198  29.480  1.00  0.00    -0.248 NA
ATOM     49  C   UNL A   1      46.637  32.611  27.769  1.00  0.00     0.031 C 
ATOM     50  C   UNL A   1      44.099  29.682  29.565  1.00  0.00     0.029 A 
ATOM     51  N   UNL A   1      45.473  27.944  29.508  1.00  0.00    -0.354 N 
ATOM     52  C   UNL A   1      44.961  33.504  29.083  1.00  0.00     0.074 A 
ATOM     53  C   UNL A   1      45.971  33.731  28.074  1.00  0.00     0.031 C 
ATOM     54  C   UNL A   1      43.398  28.610  29.926  1.00  0.00     0.029 A 
ATOM     55  C   UNL A   1      44.337  27.581  30.243  1.00  0.00     0.049 A 
ATOM     56  H   UNL A   1      46.182  27.320  29.232  1.00  0.00     0.167 HD
ATOM     57  C   UNL A   1      43.889  34.219  29.563  1.00  0.00     0.031 A 
ATOM     58  C   UNL A   1      44.360  27.047  31.497  1.00  0.00     0.031 A 
ATOM     59  C   UNL A   1      43.099  33.479  30.585  1.00  0.00     0.049 A 
ATOM     60  C   UNL A   1      43.905  28.011  32.590  1.00  0.00     0.074 A 
ATOM     61  C   UNL A   1      41.746  33.239  30.778  1.00  0.00     0.029 A 
ATOM     62  N   UNL A   1      43.739  32.722  31.572  1.00  0.00    -0.354 N 
ATOM     63  N   UNL A   1      43.458  29.226  32.365  1.00  0.00    -0.248 NA
ATOM     64  C   UNL A   1      43.969  27.738  34.024  1.00  0.00     0.031 C 
ATOM     65  C   UNL A   1      41.588  32.291  31.830  1.00  0.00     0.029 A 
ATOM     66  C   UNL A   1      42.841  31.993  32.334  1.00  0.00     0.049 A 
ATOM     67  H   UNL A   1      44.713  32.711  31.711  1.00  0.00     0.167 HD
ATOM     68  C   UNL A   1      43.401  29.944  33.525  1.00  0.00     0.074 A 
ATOM     69  C   UNL A   1      43.625  28.932  34.544  1.00  0.00     0.031 C 
ATOM     70  C   UNL A   1      43.282  31.310  33.551  1.00  0.00     0.031 A 
BRANCH  57  71
ATOM     71  C   UNL A   1      43.406  35.582  28.999  1.00  0.00    -0.014 A 
ATOM     72  C   UNL A   1      42.546  35.637  27.875  1.00  0.00     0.010 A 
ATOM     73  C   UNL A   1      43.781  36.849  29.494  1.00  0.00     0.010 A 
ATOM     74  C   UNL A   1      42.130  36.847  27.273  1.00  0.00     0.020 A 
ATOM     75  C   UNL A   1      43.353  38.069  28.927  1.00  0.00     0.020 A 
ATOM     76  C   UNL A   1      42.538  38.064  27.806  1.00  0.00     0.054 A 
BRANCH  76  77
ATOM     77  S   UNL A   1      41.975  39.619  27.056  1.00  0.00     0.124 S 
ATOM     78  O   UNL A   1      43.210  40.169  26.502  1.00  0.00    -0.237 OA
ATOM     79  O   UNL A   1      40.991  39.167  26.077  1.00  0.00    -0.237 OA
ATOM     80  O   UNL A   1      41.421  40.367  28.184  1.00  0.00    -0.744 OA
ENDBRANCH  76  77
ENDBRANCH  57  71
BRANCH  58  81
ATOM     81  C   UNL A   1      44.991  25.694  31.517  1.00  0.00    -0.014 A 
ATOM     82  C   UNL A   1      46.192  25.680  32.270  1.00  0.00     0.010 A 
ATOM     83  C   UNL A   1      44.147  24.571  31.600  1.00  0.00     0.010 A 
ATOM     84  C   UNL A   1      46.334  24.806  33.350  1.00  0.00     0.020 A 
ATOM     85  C   UNL A   1      44.291  23.685  32.680  1.00  0.00     0.020 A 
ATOM     86  C   UNL A   1      45.327  23.879  33.603  1.00  0.00     0.054 A 
BRANCH  86  87
ATOM     87  S   UNL A   1      45.144  23.229  35.300  1.00  0.00     0.124 S 
ATOM     88  O   UNL A   1      46.528  23.121  35.743  1.00  0.00    -0.237 OA
ATOM     89  O   UNL A   1      44.340  24.253  35.968  1.00  0.00    -0.237 OA
ATOM     90  O   UNL A   1      44.442  21.966  35.078  1.00  0.00    -0.744 OA
ENDBRANCH  86  87
ENDBRANCH  58  81
BRANCH  70  91
ATOM     91  C   UNL A   1      43.579  32.195  34.752  1.00  0.00    -0.014 A 
ATOM     92  C   UNL A   1      44.383  31.811  35.833  1.00  0.00     0.010 A 
ATOM     93  C   UNL A   1      43.152  33.551  34.737  1.00  0.00     0.010 A 
ATOM     94  C   UNL A   1      44.690  32.700  36.873  1.00  0.00     0.020 A 
ATOM     95  C   UNL A   1      43.494  34.462  35.743  1.00  0.00     0.020 A 
ATOM     96  C   UNL A   1      44.243  34.019  36.823  1.00  0.00     0.054 A 
BRANCH  96  97
ATOM     97  S   UNL A   1      44.708  35.153  38.153  1.00  0.00     0.124 S 
ATOM     98  O   UNL A   1      46.039  35.582  37.728  1.00  0.00    -0.237 OA
ATOM     99  O   UNL A   1      43.669  36.177  38.080  1.00  0.00    -0.237 OA
ATOM    100  O   UNL A   1      44.670  34.321  39.352  1.00  0.00    -0.744 OA
ENDBRANCH  96  97
ENDBRANCH  70  91
ENDBRANCH  44  45
ENDBRANCH  37  39
ENDBRANCH  36  37
ENDBRANCH  35  36
ENDBRANCH  34  35
ENDBRANCH  33  34
ENDBRANCH  32  33
ENDBRANCH   1  32
TORSDOF 26
ENDMDL
