MODEL 1
REMARK VINA RESULT:     -10.1      0.000      0.000
REMARK SMILES Cc1cc([N+](=O)[O-])ccc1-c1ccc(/C=C/C(=O)Nc2ccc(O)c(C(=O)OCCOCCOCCOCCOC(=O)c3ccc(-c4c5nc(c(-c6ccc(S(=O)(=O)[O-])cc6)c6ccc([nH]6)c(-c6ccc(S(=O)(=O)[O-])cc6)c6nc(c(-c7ccc(S(=O)(=O)[O-])cc7)c7ccc4[nH]7)C=C6)C=C5)cc3)c2)o1
REMARK SMILES IDX 33 1 32 2 31 3 30 4 29 5 28 6 26 7 27 8 25 9 20 10 21 11
REMARK SMILES IDX 103 12 22 13 23 14 19 15 17 16 18 17 16 19 15 20 14 21 11 22
REMARK SMILES IDX 12 23 104 24 13 25 10 26 1 27 2 28 3 29 4 30 9 31 8 32 5 33
REMARK SMILES IDX 6 34 7 35 24 36 34 38 35 39 36 40 37 41 38 42 39 43 40 44
REMARK SMILES IDX 41 45 42 46 43 47 44 48 102 49 45 50 101 51 46 52 47 53
REMARK SMILES IDX 48 54 95 55 49 56 100 57 94 58 96 59 50 60 99 61 93 62 92 63
REMARK SMILES IDX 51 65 81 66 62 67 80 68 63 69 66 70 79 71 97 72 64 73 65 74
REMARK SMILES IDX 78 76 98 77 67 78 52 79 53 80 61 81 54 82 60 83 55 84 56 85
REMARK SMILES IDX 57 86 58 87 59 88 82 89 83 90 91 91 84 92 90 93 85 94 86 95
REMARK SMILES IDX 87 96 88 97 89 98 68 99 69 100 77 101 70 102 76 103 71 104
REMARK SMILES IDX 72 105 73 106 74 107 75 108
REMARK H PARENT 19 18 24 37 96 64 66 75
REMARK Flexibility Score: inf
ROOT
ATOM      1  C   UNL A   1      34.996  34.196  28.016  1.00  0.00     0.188 C 
ENDROOT
BRANCH   1   2
ATOM      2  C   UNL A   1      34.142  33.008  28.515  1.00  0.00     0.188 C 
BRANCH   2   3
ATOM      3  O   UNL A   1      34.655  31.684  28.396  1.00  0.00    -0.376 OA
BRANCH   3   4
ATOM      4  C   UNL A   1      34.266  30.932  27.249  1.00  0.00     0.202 C 
BRANCH   4   5
ATOM      5  C   UNL A   1      32.781  30.723  26.967  1.00  0.00     0.261 C 
BRANCH   5   6
ATOM      6  O   UNL A   1      32.570  29.698  25.993  1.00  0.00    -0.460 OA
BRANCH   6   7
ATOM      7  C   UNL A   1      32.515  28.445  26.470  1.00  0.00     0.342 C 
ATOM      8  O   UNL A   1      32.819  28.034  27.572  1.00  0.00    -0.246 OA
BRANCH   7   9
ATOM      9  C   UNL A   1      31.603  27.702  25.599  1.00  0.00     0.103 A 
ATOM     10  C   UNL A   1      30.003  25.905  25.593  1.00  0.00     0.042 A 
ATOM     11  C   UNL A   1      29.927  25.975  24.201  1.00  0.00     0.030 A 
ATOM     12  C   UNL A   1      30.801  26.793  26.293  1.00  0.00     0.045 A 
ATOM     13  C   UNL A   1      30.665  26.951  23.515  1.00  0.00     0.049 A 
ATOM     14  C   UNL A   1      31.507  27.820  24.215  1.00  0.00     0.130 A 
BRANCH  10  15
ATOM     15  N   UNL A   1      29.485  24.832  26.329  1.00  0.00    -0.322 N 
ATOM     16  C   UNL A   1      30.241  23.751  26.730  1.00  0.00     0.248 C 
ATOM     17  O   UNL A   1      29.822  22.963  27.573  1.00  0.00    -0.270 OA
ATOM     18  H   UNL A   1      28.531  24.850  26.570  1.00  0.00     0.170 HD
BRANCH  16  19
ATOM     19  C   UNL A   1      31.541  23.515  26.061  1.00  0.00     0.075 C 
ATOM     20  C   UNL A   1      32.711  23.692  26.693  1.00  0.00     0.053 C 
BRANCH  20  21
ATOM     21  C   UNL A   1      33.906  23.723  25.939  1.00  0.00     0.127 A 
ATOM     22  C   UNL A   1      36.040  23.442  25.455  1.00  0.00     0.135 A 
ATOM     23  C   UNL A   1      35.476  23.989  24.328  1.00  0.00     0.051 A 
ATOM     24  O   UNL A   1      35.093  23.218  26.397  1.00  0.00    -0.457 OA
ATOM     25  C   UNL A   1      34.116  24.206  24.652  1.00  0.00     0.051 A 
BRANCH  22  26
ATOM     26  C   UNL A   1      37.387  23.128  25.883  1.00  0.00     0.021 A 
ATOM     27  C   UNL A   1      37.232  20.753  24.926  1.00  0.00     0.045 C 
ATOM     28  C   UNL A   1      37.966  21.869  25.627  1.00  0.00    -0.033 A 
ATOM     29  C   UNL A   1      39.292  21.636  26.030  1.00  0.00     0.089 A 
ATOM     30  C   UNL A   1      40.033  22.656  26.645  1.00  0.00     0.269 A 
ATOM     31  C   UNL A   1      38.146  24.141  26.494  1.00  0.00     0.019 A 
ATOM     32  C   UNL A   1      39.467  23.912  26.875  1.00  0.00     0.086 A 
BRANCH  30  33
ATOM     33  N   UNL A   1      41.423  22.403  27.044  1.00  0.00     0.062 N 
ATOM     34  O   UNL A   1      42.167  21.838  26.230  1.00  0.00    -0.258 OA
ATOM     35  O   UNL A   1      41.772  22.763  28.179  1.00  0.00    -0.258 OA
ENDBRANCH  30  33
ENDBRANCH  22  26
ENDBRANCH  20  21
ENDBRANCH  16  19
ENDBRANCH  10  15
BRANCH  14  36
ATOM     36  O   UNL A   1      32.207  28.736  23.489  1.00  0.00    -0.507 OA
ATOM     37  H   UNL A   1      31.810  29.147  22.746  1.00  0.00     0.293 HD
ENDBRANCH  14  36
ENDBRANCH   7   9
ENDBRANCH   6   7
ENDBRANCH   5   6
ENDBRANCH   4   5
ENDBRANCH   3   4
ENDBRANCH   2   3
ENDBRANCH   1   2
BRANCH   1  38
ATOM     38  O   UNL A   1      34.254  35.398  27.900  1.00  0.00    -0.377 OA
BRANCH  38  39
ATOM     39  C   UNL A   1      33.271  35.677  28.900  1.00  0.00     0.188 C 
BRANCH  39  40
ATOM     40  C   UNL A   1      33.351  37.058  29.573  1.00  0.00     0.188 C 
BRANCH  40  41
ATOM     41  O   UNL A   1      32.647  37.079  30.812  1.00  0.00    -0.376 OA
BRANCH  41  42
ATOM     42  C   UNL A   1      33.428  36.814  31.973  1.00  0.00     0.202 C 
BRANCH  42  43
ATOM     43  C   UNL A   1      33.183  35.420  32.549  1.00  0.00     0.261 C 
BRANCH  43  44
ATOM     44  O   UNL A   1      34.422  34.888  33.047  1.00  0.00    -0.460 OA
BRANCH  44  45
ATOM     45  C   UNL A   1      34.808  33.741  32.421  1.00  0.00     0.338 C 
ATOM     46  O   UNL A   1      34.048  33.020  31.798  1.00  0.00    -0.246 OA
BRANCH  45  47
ATOM     47  C   UNL A   1      36.245  33.468  32.709  1.00  0.00     0.060 A 
ATOM     48  C   UNL A   1      37.030  34.423  33.367  1.00  0.00     0.016 A 
ATOM     49  C   UNL A   1      36.863  32.358  32.143  1.00  0.00     0.016 A 
ATOM     50  C   UNL A   1      38.437  34.327  33.353  1.00  0.00     0.010 A 
ATOM     51  C   UNL A   1      38.248  32.311  32.073  1.00  0.00     0.010 A 
ATOM     52  C   UNL A   1      39.071  33.300  32.645  1.00  0.00    -0.014 A 
BRANCH  52  53
ATOM     53  C   UNL A   1      40.511  33.255  32.260  1.00  0.00     0.031 A 
ATOM     54  C   UNL A   1      40.988  33.892  30.962  1.00  0.00     0.074 A 
ATOM     55  C   UNL A   1      41.454  33.037  33.223  1.00  0.00     0.049 A 
ATOM     56  N   UNL A   1      42.236  34.035  30.641  1.00  0.00    -0.248 NA
ATOM     57  C   UNL A   1      40.125  34.444  29.908  1.00  0.00     0.031 C 
ATOM     58  C   UNL A   1      42.785  33.657  33.248  1.00  0.00     0.029 A 
ATOM     59  N   UNL A   1      41.479  32.287  34.402  1.00  0.00    -0.354 N 
ATOM     60  C   UNL A   1      42.332  35.032  29.698  1.00  0.00     0.074 A 
ATOM     61  C   UNL A   1      40.996  35.147  29.167  1.00  0.00     0.031 C 
ATOM     62  C   UNL A   1      43.483  33.253  34.308  1.00  0.00     0.029 A 
ATOM     63  C   UNL A   1      42.824  32.066  34.761  1.00  0.00     0.049 A 
ATOM     64  H   UNL A   1      40.691  31.966  34.897  1.00  0.00     0.167 HD
ATOM     65  C   UNL A   1      43.494  35.740  29.570  1.00  0.00     0.031 A 
ATOM     66  C   UNL A   1      43.464  30.858  34.821  1.00  0.00     0.031 A 
ATOM     67  C   UNL A   1      44.605  35.209  30.379  1.00  0.00     0.049 A 
ATOM     68  C   UNL A   1      44.659  30.749  33.870  1.00  0.00     0.074 A 
ATOM     69  C   UNL A   1      45.537  35.761  31.240  1.00  0.00     0.029 A 
ATOM     70  N   UNL A   1      44.828  33.839  30.429  1.00  0.00    -0.354 N 
ATOM     71  N   UNL A   1      45.035  31.727  33.090  1.00  0.00    -0.248 NA
ATOM     72  C   UNL A   1      45.486  29.565  33.643  1.00  0.00     0.031 C 
ATOM     73  C   UNL A   1      46.341  34.711  31.773  1.00  0.00     0.029 A 
ATOM     74  C   UNL A   1      45.918  33.523  31.212  1.00  0.00     0.049 A 
ATOM     75  H   UNL A   1      44.274  33.172  29.961  1.00  0.00     0.167 HD
ATOM     76  C   UNL A   1      45.998  31.329  32.215  1.00  0.00     0.074 A 
ATOM     77  C   UNL A   1      46.270  29.960  32.615  1.00  0.00     0.031 C 
ATOM     78  C   UNL A   1      46.425  32.156  31.214  1.00  0.00     0.031 A 
BRANCH  65  79
ATOM     79  C   UNL A   1      43.657  37.035  28.780  1.00  0.00    -0.014 A 
ATOM     80  C   UNL A   1      43.122  38.237  29.303  1.00  0.00     0.010 A 
ATOM     81  C   UNL A   1      44.241  37.134  27.501  1.00  0.00     0.010 A 
ATOM     82  C   UNL A   1      43.156  39.453  28.599  1.00  0.00     0.020 A 
ATOM     83  C   UNL A   1      44.323  38.355  26.804  1.00  0.00     0.020 A 
ATOM     84  C   UNL A   1      43.765  39.508  27.352  1.00  0.00     0.054 A 
BRANCH  84  85
ATOM     85  S   UNL A   1      43.831  41.090  26.465  1.00  0.00     0.124 S 
ATOM     86  O   UNL A   1      42.429  41.316  26.124  1.00  0.00    -0.237 OA
ATOM     87  O   UNL A   1      44.392  41.997  27.462  1.00  0.00    -0.237 OA
ATOM     88  O   UNL A   1      44.706  40.811  25.328  1.00  0.00    -0.744 OA
ENDBRANCH  84  85
ENDBRANCH  65  79
BRANCH  66  89
ATOM     89  C   UNL A   1      42.613  29.784  35.402  1.00  0.00    -0.014 A 
ATOM     90  C   UNL A   1      41.901  29.042  34.433  1.00  0.00     0.010 A 
ATOM     91  C   UNL A   1      43.036  29.142  36.581  1.00  0.00     0.010 A 
ATOM     92  C   UNL A   1      41.905  27.648  34.481  1.00  0.00     0.020 A 
ATOM     93  C   UNL A   1      43.028  27.740  36.638  1.00  0.00     0.020 A 
ATOM     94  C   UNL A   1      42.556  27.012  35.538  1.00  0.00     0.054 A 
BRANCH  94  95
ATOM     95  S   UNL A   1      43.085  25.288  35.277  1.00  0.00     0.124 S 
ATOM     96  O   UNL A   1      44.074  25.098  36.331  1.00  0.00    -0.237 OA
ATOM     97  O   UNL A   1      41.827  24.563  35.449  1.00  0.00    -0.237 OA
ATOM     98  O   UNL A   1      43.603  25.300  33.912  1.00  0.00    -0.744 OA
ENDBRANCH  94  95
ENDBRANCH  66  89
BRANCH  78  99
ATOM     99  C   UNL A   1      47.326  31.768  30.070  1.00  0.00    -0.014 A 
ATOM    100  C   UNL A   1      47.300  32.368  28.808  1.00  0.00     0.010 A 
ATOM    101  C   UNL A   1      48.209  30.671  30.249  1.00  0.00     0.010 A 
ATOM    102  C   UNL A   1      48.182  31.946  27.798  1.00  0.00     0.020 A 
ATOM    103  C   UNL A   1      49.075  30.231  29.249  1.00  0.00     0.020 A 
ATOM    104  C   UNL A   1      49.079  30.898  28.036  1.00  0.00     0.054 A 
BRANCH 104 105
ATOM    105  S   UNL A   1      50.253  30.415  26.747  1.00  0.00     0.124 S 
ATOM    106  O   UNL A   1      50.303  31.604  25.898  1.00  0.00    -0.237 OA
ATOM    107  O   UNL A   1      51.459  30.150  27.527  1.00  0.00    -0.237 OA
ATOM    108  O   UNL A   1      49.640  29.240  26.132  1.00  0.00    -0.744 OA
ENDBRANCH 104 105
ENDBRANCH  78  99
ENDBRANCH  52  53
ENDBRANCH  45  47
ENDBRANCH  44  45
ENDBRANCH  43  44
ENDBRANCH  42  43
ENDBRANCH  41  42
ENDBRANCH  40  41
ENDBRANCH  39  40
ENDBRANCH  38  39
ENDBRANCH   1  38
TORSDOF 29
ENDMDL
MODEL 2
REMARK VINA RESULT:     -10.1      3.329      7.189
REMARK SMILES Cc1cc([N+](=O)[O-])ccc1-c1ccc(/C=C/C(=O)Nc2ccc(O)c(C(=O)OCCOCCOCCOCCOC(=O)c3ccc(-c4c5nc(c(-c6ccc(S(=O)(=O)[O-])cc6)c6ccc([nH]6)c(-c6ccc(S(=O)(=O)[O-])cc6)c6nc(c(-c7ccc(S(=O)(=O)[O-])cc7)c7ccc4[nH]7)C=C6)C=C5)cc3)c2)o1
REMARK SMILES IDX 33 1 32 2 31 3 30 4 29 5 28 6 26 7 27 8 25 9 20 10 21 11
REMARK SMILES IDX 103 12 22 13 23 14 19 15 17 16 18 17 16 19 15 20 14 21 11 22
REMARK SMILES IDX 12 23 104 24 13 25 10 26 1 27 2 28 3 29 4 30 9 31 8 32 5 33
REMARK SMILES IDX 6 34 7 35 24 36 34 38 35 39 36 40 37 41 38 42 39 43 40 44
REMARK SMILES IDX 41 45 42 46 43 47 44 48 102 49 45 50 101 51 46 52 47 53
REMARK SMILES IDX 48 54 95 55 49 56 100 57 94 58 96 59 50 60 99 61 93 62 92 63
REMARK SMILES IDX 51 65 81 66 62 67 80 68 63 69 66 70 79 71 97 72 64 73 65 74
REMARK SMILES IDX 78 76 98 77 67 78 52 79 53 80 61 81 54 82 60 83 55 84 56 85
REMARK SMILES IDX 57 86 58 87 59 88 82 89 83 90 91 91 84 92 90 93 85 94 86 95
REMARK SMILES IDX 87 96 88 97 89 98 68 99 69 100 77 101 70 102 76 103 71 104
REMARK SMILES IDX 72 105 73 106 74 107 75 108
REMARK H PARENT 19 18 24 37 96 64 66 75
REMARK Flexibility Score: inf
ROOT
ATOM      1  C   UNL A   1      34.240  35.155  28.227  1.00  0.00     0.188 C 
ENDROOT
BRANCH   1   2
ATOM      2  C   UNL A   1      33.821  33.838  28.918  1.00  0.00     0.188 C 
BRANCH   2   3
ATOM      3  O   UNL A   1      34.373  32.606  28.463  1.00  0.00    -0.376 OA
BRANCH   3   4
ATOM      4  C   UNL A   1      33.627  31.872  27.495  1.00  0.00     0.202 C 
BRANCH   4   5
ATOM      5  C   UNL A   1      33.773  30.354  27.440  1.00  0.00     0.261 C 
BRANCH   5   6
ATOM      6  O   UNL A   1      33.146  29.807  26.278  1.00  0.00    -0.460 OA
BRANCH   6   7
ATOM      7  C   UNL A   1      33.303  28.487  26.099  1.00  0.00     0.342 C 
ATOM      8  O   UNL A   1      34.039  27.720  26.686  1.00  0.00    -0.246 OA
BRANCH   7   9
ATOM      9  C   UNL A   1      32.118  28.014  25.380  1.00  0.00     0.103 A 
ATOM     10  C   UNL A   1      30.298  26.447  25.516  1.00  0.00     0.042 A 
ATOM     11  C   UNL A   1      29.930  26.759  24.206  1.00  0.00     0.030 A 
ATOM     12  C   UNL A   1      31.357  27.103  26.117  1.00  0.00     0.045 A 
ATOM     13  C   UNL A   1      30.641  27.742  23.501  1.00  0.00     0.049 A 
ATOM     14  C   UNL A   1      31.740  28.374  24.090  1.00  0.00     0.130 A 
BRANCH  10  15
ATOM     15  N   UNL A   1      29.795  25.335  26.201  1.00  0.00    -0.322 N 
ATOM     16  C   UNL A   1      30.547  24.216  26.491  1.00  0.00     0.248 C 
ATOM     17  O   UNL A   1      30.154  23.379  27.298  1.00  0.00    -0.270 OA
ATOM     18  H   UNL A   1      28.854  25.352  26.490  1.00  0.00     0.170 HD
BRANCH  16  19
ATOM     19  C   UNL A   1      31.809  24.005  25.743  1.00  0.00     0.075 C 
ATOM     20  C   UNL A   1      32.896  23.469  26.317  1.00  0.00     0.053 C 
BRANCH  20  21
ATOM     21  C   UNL A   1      34.140  23.547  25.648  1.00  0.00     0.127 A 
ATOM     22  C   UNL A   1      36.228  23.062  25.126  1.00  0.00     0.135 A 
ATOM     23  C   UNL A   1      35.864  24.080  24.279  1.00  0.00     0.051 A 
ATOM     24  O   UNL A   1      35.179  22.692  25.901  1.00  0.00    -0.457 OA
ATOM     25  C   UNL A   1      34.538  24.419  24.641  1.00  0.00     0.051 A 
BRANCH  22  26
ATOM     26  C   UNL A   1      37.459  22.362  25.426  1.00  0.00     0.021 A 
ATOM     27  C   UNL A   1      38.383  24.368  26.731  1.00  0.00     0.045 C 
ATOM     28  C   UNL A   1      38.477  22.962  26.194  1.00  0.00    -0.033 A 
ATOM     29  C   UNL A   1      39.634  22.219  26.488  1.00  0.00     0.089 A 
ATOM     30  C   UNL A   1      39.751  20.892  26.051  1.00  0.00     0.269 A 
ATOM     31  C   UNL A   1      37.589  21.029  25.002  1.00  0.00     0.019 A 
ATOM     32  C   UNL A   1      38.730  20.289  25.311  1.00  0.00     0.086 A 
BRANCH  30  33
ATOM     33  N   UNL A   1      40.957  20.123  26.381  1.00  0.00     0.062 N 
ATOM     34  O   UNL A   1      41.135  19.045  25.796  1.00  0.00    -0.258 OA
ATOM     35  O   UNL A   1      41.725  20.591  27.234  1.00  0.00    -0.258 OA
ENDBRANCH  30  33
ENDBRANCH  22  26
ENDBRANCH  20  21
ENDBRANCH  16  19
ENDBRANCH  10  15
BRANCH  14  36
ATOM     36  O   UNL A   1      32.396  29.309  23.348  1.00  0.00    -0.507 OA
ATOM     37  H   UNL A   1      32.018  29.626  22.551  1.00  0.00     0.293 HD
ENDBRANCH  14  36
ENDBRANCH   7   9
ENDBRANCH   6   7
ENDBRANCH   5   6
ENDBRANCH   4   5
ENDBRANCH   3   4
ENDBRANCH   2   3
ENDBRANCH   1   2
BRANCH   1  38
ATOM     38  O   UNL A   1      33.448  36.261  28.623  1.00  0.00    -0.377 OA
BRANCH  38  39
ATOM     39  C   UNL A   1      32.736  36.167  29.859  1.00  0.00     0.188 C 
BRANCH  39  40
ATOM     40  C   UNL A   1      33.338  36.921  31.056  1.00  0.00     0.188 C 
BRANCH  40  41
ATOM     41  O   UNL A   1      32.927  36.350  32.296  1.00  0.00    -0.376 OA
BRANCH  41  42
ATOM     42  C   UNL A   1      33.968  36.080  33.230  1.00  0.00     0.202 C 
BRANCH  42  43
ATOM     43  C   UNL A   1      34.481  34.644  33.148  1.00  0.00     0.261 C 
BRANCH  43  44
ATOM     44  O   UNL A   1      35.910  34.659  32.997  1.00  0.00    -0.460 OA
BRANCH  44  45
ATOM     45  C   UNL A   1      36.368  33.749  32.091  1.00  0.00     0.338 C 
ATOM     46  O   UNL A   1      35.869  32.650  31.923  1.00  0.00    -0.246 OA
BRANCH  45  47
ATOM     47  C   UNL A   1      37.606  34.264  31.440  1.00  0.00     0.060 A 
ATOM     48  C   UNL A   1      37.705  34.315  30.044  1.00  0.00     0.016 A 
ATOM     49  C   UNL A   1      38.742  34.498  32.207  1.00  0.00     0.016 A 
ATOM     50  C   UNL A   1      38.959  34.481  29.419  1.00  0.00     0.010 A 
ATOM     51  C   UNL A   1      39.979  34.587  31.584  1.00  0.00     0.010 A 
ATOM     52  C   UNL A   1      40.127  34.552  30.185  1.00  0.00    -0.014 A 
BRANCH  52  53
ATOM     53  C   UNL A   1      41.522  34.389  29.679  1.00  0.00     0.031 A 
ATOM     54  C   UNL A   1      42.189  33.021  29.669  1.00  0.00     0.074 A 
ATOM     55  C   UNL A   1      42.047  35.338  28.850  1.00  0.00     0.049 A 
ATOM     56  N   UNL A   1      43.327  32.775  29.100  1.00  0.00    -0.248 NA
ATOM     57  C   UNL A   1      41.647  31.796  30.275  1.00  0.00     0.031 C 
ATOM     58  C   UNL A   1      42.957  35.061  27.732  1.00  0.00     0.029 A 
ATOM     59  N   UNL A   1      41.894  36.723  28.743  1.00  0.00    -0.354 N 
ATOM     60  C   UNL A   1      43.407  31.423  28.853  1.00  0.00     0.074 A 
ATOM     61  C   UNL A   1      42.420  30.844  29.730  1.00  0.00     0.031 C 
ATOM     62  C   UNL A   1      43.304  36.185  27.105  1.00  0.00     0.029 A 
ATOM     63  C   UNL A   1      42.991  37.238  28.023  1.00  0.00     0.049 A 
ATOM     64  H   UNL A   1      41.148  37.250  29.110  1.00  0.00     0.167 HD
ATOM     65  C   UNL A   1      44.198  30.961  27.839  1.00  0.00     0.031 A 
ATOM     66  C   UNL A   1      43.946  38.097  28.495  1.00  0.00     0.031 A 
ATOM     67  C   UNL A   1      45.037  32.002  27.219  1.00  0.00     0.049 A 
ATOM     68  C   UNL A   1      45.365  37.521  28.452  1.00  0.00     0.074 A 
ATOM     69  C   UNL A   1      45.318  32.383  25.918  1.00  0.00     0.029 A 
ATOM     70  N   UNL A   1      45.697  32.924  28.021  1.00  0.00    -0.354 N 
ATOM     71  N   UNL A   1      45.630  36.327  27.991  1.00  0.00    -0.248 NA
ATOM     72  C   UNL A   1      46.579  38.156  28.960  1.00  0.00     0.031 C 
ATOM     73  C   UNL A   1      46.181  33.518  25.954  1.00  0.00     0.029 A 
ATOM     74  C   UNL A   1      46.450  33.807  27.277  1.00  0.00     0.049 A 
ATOM     75  H   UNL A   1      45.634  32.946  29.004  1.00  0.00     0.167 HD
ATOM     76  C   UNL A   1      46.924  35.975  28.225  1.00  0.00     0.074 A 
ATOM     77  C   UNL A   1      47.494  37.171  28.821  1.00  0.00     0.031 C 
ATOM     78  C   UNL A   1      47.370  34.712  27.956  1.00  0.00     0.031 A 
BRANCH  65  79
ATOM     79  C   UNL A   1      44.173  29.544  27.274  1.00  0.00    -0.014 A 
ATOM     80  C   UNL A   1      42.929  28.940  26.975  1.00  0.00     0.010 A 
ATOM     81  C   UNL A   1      45.307  28.726  27.091  1.00  0.00     0.010 A 
ATOM     82  C   UNL A   1      42.816  27.611  26.533  1.00  0.00     0.020 A 
ATOM     83  C   UNL A   1      45.212  27.408  26.605  1.00  0.00     0.020 A 
ATOM     84  C   UNL A   1      43.963  26.851  26.342  1.00  0.00     0.054 A 
BRANCH  84  85
ATOM     85  S   UNL A   1      43.808  25.146  25.740  1.00  0.00     0.124 S 
ATOM     86  O   UNL A   1      44.786  25.106  24.656  1.00  0.00    -0.237 OA
ATOM     87  O   UNL A   1      44.142  24.354  26.920  1.00  0.00    -0.237 OA
ATOM     88  O   UNL A   1      42.412  25.056  25.316  1.00  0.00    -0.744 OA
ENDBRANCH  84  85
ENDBRANCH  65  79
BRANCH  66  89
ATOM     89  C   UNL A   1      43.382  39.162  29.367  1.00  0.00    -0.014 A 
ATOM     90  C   UNL A   1      43.712  39.008  30.733  1.00  0.00     0.010 A 
ATOM     91  C   UNL A   1      43.225  40.459  28.844  1.00  0.00     0.010 A 
ATOM     92  C   UNL A   1      44.194  40.095  31.461  1.00  0.00     0.020 A 
ATOM     93  C   UNL A   1      43.696  41.556  29.580  1.00  0.00     0.020 A 
ATOM     94  C   UNL A   1      44.271  41.342  30.839  1.00  0.00     0.054 A 
BRANCH  94  95
ATOM     95  S   UNL A   1      45.435  42.555  31.542  1.00  0.00     0.124 S 
ATOM     96  O   UNL A   1      44.853  43.826  31.128  1.00  0.00    -0.237 OA
ATOM     97  O   UNL A   1      45.350  42.253  32.971  1.00  0.00    -0.237 OA
ATOM     98  O   UNL A   1      46.705  42.202  30.915  1.00  0.00    -0.744 OA
ENDBRANCH  94  95
ENDBRANCH  66  89
BRANCH  78  99
ATOM     99  C   UNL A   1      48.707  34.143  28.354  1.00  0.00    -0.014 A 
ATOM    100  C   UNL A   1      48.897  33.228  29.394  1.00  0.00     0.010 A 
ATOM    101  C   UNL A   1      49.868  34.618  27.689  1.00  0.00     0.010 A 
ATOM    102  C   UNL A   1      50.181  32.744  29.694  1.00  0.00     0.020 A 
ATOM    103  C   UNL A   1      51.149  34.160  27.990  1.00  0.00     0.020 A 
ATOM    104  C   UNL A   1      51.293  33.195  28.973  1.00  0.00     0.054 A 
BRANCH 104 105
ATOM    105  S   UNL A   1      52.929  32.510  29.328  1.00  0.00     0.124 S 
ATOM    106  O   UNL A   1      52.661  31.607  30.446  1.00  0.00    -0.237 OA
ATOM    107  O   UNL A   1      53.261  31.859  28.063  1.00  0.00    -0.237 OA
ATOM    108  O   UNL A   1      53.740  33.679  29.657  1.00  0.00    -0.744 OA
ENDBRANCH 104 105
ENDBRANCH  78  99
ENDBRANCH  52  53
ENDBRANCH  45  47
ENDBRANCH  44  45
ENDBRANCH  43  44
ENDBRANCH  42  43
ENDBRANCH  41  42
ENDBRANCH  40  41
ENDBRANCH  39  40
ENDBRANCH  38  39
ENDBRANCH   1  38
TORSDOF 29
ENDMDL
MODEL 3
REMARK VINA RESULT:      -9.9      4.579      7.748
REMARK SMILES Cc1cc([N+](=O)[O-])ccc1-c1ccc(/C=C/C(=O)Nc2ccc(O)c(C(=O)OCCOCCOCCOCCOC(=O)c3ccc(-c4c5nc(c(-c6ccc(S(=O)(=O)[O-])cc6)c6ccc([nH]6)c(-c6ccc(S(=O)(=O)[O-])cc6)c6nc(c(-c7ccc(S(=O)(=O)[O-])cc7)c7ccc4[nH]7)C=C6)C=C5)cc3)c2)o1
REMARK SMILES IDX 33 1 32 2 31 3 30 4 29 5 28 6 26 7 27 8 25 9 20 10 21 11
REMARK SMILES IDX 103 12 22 13 23 14 19 15 17 16 18 17 16 19 15 20 14 21 11 22
REMARK SMILES IDX 12 23 104 24 13 25 10 26 1 27 2 28 3 29 4 30 9 31 8 32 5 33
REMARK SMILES IDX 6 34 7 35 24 36 34 38 35 39 36 40 37 41 38 42 39 43 40 44
REMARK SMILES IDX 41 45 42 46 43 47 44 48 102 49 45 50 101 51 46 52 47 53
REMARK SMILES IDX 48 54 95 55 49 56 100 57 94 58 96 59 50 60 99 61 93 62 92 63
REMARK SMILES IDX 51 65 81 66 62 67 80 68 63 69 66 70 79 71 97 72 64 73 65 74
REMARK SMILES IDX 78 76 98 77 67 78 52 79 53 80 61 81 54 82 60 83 55 84 56 85
REMARK SMILES IDX 57 86 58 87 59 88 82 89 83 90 91 91 84 92 90 93 85 94 86 95
REMARK SMILES IDX 87 96 88 97 89 98 68 99 69 100 77 101 70 102 76 103 71 104
REMARK SMILES IDX 72 105 73 106 74 107 75 108
REMARK H PARENT 19 18 24 37 96 64 66 75
REMARK Flexibility Score: inf
ROOT
ATOM      1  C   UNL A   1      34.254  30.765  27.001  1.00  0.00     0.188 C 
ENDROOT
BRANCH   1   2
ATOM      2  C   UNL A   1      32.740  30.635  27.284  1.00  0.00     0.188 C 
BRANCH   2   3
ATOM      3  O   UNL A   1      31.865  30.250  26.228  1.00  0.00    -0.376 OA
BRANCH   3   4
ATOM      4  C   UNL A   1      31.455  28.885  26.183  1.00  0.00     0.202 C 
BRANCH   4   5
ATOM      5  C   UNL A   1      31.548  28.040  27.449  1.00  0.00     0.261 C 
BRANCH   5   6
ATOM      6  O   UNL A   1      31.379  26.648  27.167  1.00  0.00    -0.460 OA
BRANCH   6   7
ATOM      7  C   UNL A   1      32.359  26.077  26.450  1.00  0.00     0.342 C 
ATOM      8  O   UNL A   1      33.467  26.504  26.196  1.00  0.00    -0.246 OA
BRANCH   7   9
ATOM      9  C   UNL A   1      32.055  24.646  26.384  1.00  0.00     0.103 A 
ATOM     10  C   UNL A   1      33.063  22.491  26.028  1.00  0.00     0.042 A 
ATOM     11  C   UNL A   1      31.798  21.901  26.006  1.00  0.00     0.030 A 
ATOM     12  C   UNL A   1      33.195  23.848  26.262  1.00  0.00     0.045 A 
ATOM     13  C   UNL A   1      30.660  22.693  26.221  1.00  0.00     0.049 A 
ATOM     14  C   UNL A   1      30.787  24.072  26.411  1.00  0.00     0.130 A 
BRANCH  10  15
ATOM     15  N   UNL A   1      34.218  21.825  25.603  1.00  0.00    -0.322 N 
ATOM     16  C   UNL A   1      34.882  22.126  24.431  1.00  0.00     0.248 C 
ATOM     17  O   UNL A   1      36.013  21.700  24.216  1.00  0.00    -0.270 OA
ATOM     18  H   UNL A   1      34.576  21.104  26.169  1.00  0.00     0.170 HD
BRANCH  16  19
ATOM     19  C   UNL A   1      34.164  22.910  23.399  1.00  0.00     0.075 C 
ATOM     20  C   UNL A   1      34.286  24.242  23.304  1.00  0.00     0.053 C 
BRANCH  20  21
ATOM     21  C   UNL A   1      33.379  24.963  22.494  1.00  0.00     0.127 A 
ATOM     22  C   UNL A   1      31.903  26.502  21.928  1.00  0.00     0.135 A 
ATOM     23  C   UNL A   1      32.093  25.742  20.799  1.00  0.00     0.051 A 
ATOM     24  O   UNL A   1      32.720  26.083  22.924  1.00  0.00    -0.457 OA
ATOM     25  C   UNL A   1      33.009  24.730  21.174  1.00  0.00     0.051 A 
BRANCH  22  26
ATOM     26  C   UNL A   1      31.003  27.569  22.310  1.00  0.00     0.021 A 
ATOM     27  C   UNL A   1      29.484  25.947  23.593  1.00  0.00     0.045 C 
ATOM     28  C   UNL A   1      29.867  27.323  23.108  1.00  0.00    -0.033 A 
ATOM     29  C   UNL A   1      29.052  28.405  23.483  1.00  0.00     0.089 A 
ATOM     30  C   UNL A   1      29.388  29.710  23.095  1.00  0.00     0.269 A 
ATOM     31  C   UNL A   1      31.329  28.884  21.937  1.00  0.00     0.019 A 
ATOM     32  C   UNL A   1      30.529  29.956  22.326  1.00  0.00     0.086 A 
BRANCH  30  33
ATOM     33  N   UNL A   1      28.538  30.832  23.509  1.00  0.00     0.062 N 
ATOM     34  O   UNL A   1      27.367  30.853  23.103  1.00  0.00    -0.258 OA
ATOM     35  O   UNL A   1      29.043  31.702  24.235  1.00  0.00    -0.258 OA
ENDBRANCH  30  33
ENDBRANCH  22  26
ENDBRANCH  20  21
ENDBRANCH  16  19
ENDBRANCH  10  15
BRANCH  14  36
ATOM     36  O   UNL A   1      29.642  24.786  26.601  1.00  0.00    -0.507 OA
ATOM     37  H   UNL A   1      29.450  25.148  27.444  1.00  0.00     0.293 HD
ENDBRANCH  14  36
ENDBRANCH   7   9
ENDBRANCH   6   7
ENDBRANCH   5   6
ENDBRANCH   4   5
ENDBRANCH   3   4
ENDBRANCH   2   3
ENDBRANCH   1   2
BRANCH   1  38
ATOM     38  O   UNL A   1      35.051  30.506  28.144  1.00  0.00    -0.377 OA
BRANCH  38  39
ATOM     39  C   UNL A   1      36.325  31.147  28.231  1.00  0.00     0.188 C 
BRANCH  39  40
ATOM     40  C   UNL A   1      36.518  32.134  29.396  1.00  0.00     0.188 C 
BRANCH  40  41
ATOM     41  O   UNL A   1      35.710  33.297  29.236  1.00  0.00    -0.376 OA
BRANCH  41  42
ATOM     42  C   UNL A   1      34.481  33.302  29.958  1.00  0.00     0.202 C 
BRANCH  42  43
ATOM     43  C   UNL A   1      33.938  34.710  30.194  1.00  0.00     0.261 C 
BRANCH  43  44
ATOM     44  O   UNL A   1      34.480  35.229  31.420  1.00  0.00    -0.460 OA
BRANCH  44  45
ATOM     45  C   UNL A   1      34.410  34.347  32.457  1.00  0.00     0.338 C 
ATOM     46  O   UNL A   1      33.365  33.917  32.911  1.00  0.00    -0.246 OA
BRANCH  45  47
ATOM     47  C   UNL A   1      35.777  34.093  32.996  1.00  0.00     0.060 A 
ATOM     48  C   UNL A   1      36.903  34.623  32.353  1.00  0.00     0.016 A 
ATOM     49  C   UNL A   1      35.955  33.160  34.012  1.00  0.00     0.016 A 
ATOM     50  C   UNL A   1      38.193  34.132  32.645  1.00  0.00     0.010 A 
ATOM     51  C   UNL A   1      37.218  32.633  34.240  1.00  0.00     0.010 A 
ATOM     52  C   UNL A   1      38.361  33.078  33.548  1.00  0.00    -0.014 A 
BRANCH  52  53
ATOM     53  C   UNL A   1      39.587  32.240  33.705  1.00  0.00     0.031 A 
ATOM     54  C   UNL A   1      39.772  30.973  32.882  1.00  0.00     0.074 A 
ATOM     55  C   UNL A   1      40.711  32.797  34.243  1.00  0.00     0.049 A 
ATOM     56  N   UNL A   1      40.872  30.289  32.845  1.00  0.00    -0.248 NA
ATOM     57  C   UNL A   1      38.759  30.358  32.012  1.00  0.00     0.031 C 
ATOM     58  C   UNL A   1      42.084  32.481  33.825  1.00  0.00     0.029 A 
ATOM     59  N   UNL A   1      40.939  33.772  35.218  1.00  0.00    -0.354 N 
ATOM     60  C   UNL A   1      40.875  29.532  31.695  1.00  0.00     0.074 A 
ATOM     61  C   UNL A   1      39.490  29.491  31.294  1.00  0.00     0.031 C 
ATOM     62  C   UNL A   1      42.972  33.179  34.532  1.00  0.00     0.029 A 
ATOM     63  C   UNL A   1      42.261  33.633  35.687  1.00  0.00     0.049 A 
ATOM     64  H   UNL A   1      40.286  34.442  35.526  1.00  0.00     0.167 HD
ATOM     65  C   UNL A   1      42.061  29.144  31.138  1.00  0.00     0.031 A 
ATOM     66  C   UNL A   1      42.644  33.293  36.956  1.00  0.00     0.031 A 
ATOM     67  C   UNL A   1      43.237  29.452  31.970  1.00  0.00     0.049 A 
ATOM     68  C   UNL A   1      43.460  31.999  37.025  1.00  0.00     0.074 A 
ATOM     69  C   UNL A   1      44.471  30.036  31.739  1.00  0.00     0.029 A 
ATOM     70  N   UNL A   1      43.196  29.214  33.337  1.00  0.00    -0.354 N 
ATOM     71  N   UNL A   1      43.769  31.300  35.964  1.00  0.00    -0.248 NA
ATOM     72  C   UNL A   1      43.939  31.334  38.235  1.00  0.00     0.031 C 
ATOM     73  C   UNL A   1      45.178  30.108  32.975  1.00  0.00     0.029 A 
ATOM     74  C   UNL A   1      44.386  29.539  33.953  1.00  0.00     0.049 A 
ATOM     75  H   UNL A   1      42.411  28.855  33.812  1.00  0.00     0.167 HD
ATOM     76  C   UNL A   1      44.335  30.108  36.297  1.00  0.00     0.074 A 
ATOM     77  C   UNL A   1      44.443  30.180  37.744  1.00  0.00     0.031 C 
ATOM     78  C   UNL A   1      44.598  29.164  35.346  1.00  0.00     0.031 A 
BRANCH  65  79
ATOM     79  C   UNL A   1      42.230  28.554  29.741  1.00  0.00    -0.014 A 
ATOM     80  C   UNL A   1      41.889  29.338  28.613  1.00  0.00     0.010 A 
ATOM     81  C   UNL A   1      42.632  27.231  29.465  1.00  0.00     0.010 A 
ATOM     82  C   UNL A   1      41.936  28.841  27.300  1.00  0.00     0.020 A 
ATOM     83  C   UNL A   1      42.727  26.734  28.150  1.00  0.00     0.020 A 
ATOM     84  C   UNL A   1      42.364  27.538  27.073  1.00  0.00     0.054 A 
BRANCH  84  85
ATOM     85  S   UNL A   1      42.450  26.916  25.371  1.00  0.00     0.124 S 
ATOM     86  O   UNL A   1      41.245  26.096  25.276  1.00  0.00    -0.237 OA
ATOM     87  O   UNL A   1      42.443  28.141  24.577  1.00  0.00    -0.237 OA
ATOM     88  O   UNL A   1      43.707  26.171  25.340  1.00  0.00    -0.744 OA
ENDBRANCH  84  85
ENDBRANCH  65  79
BRANCH  66  89
ATOM     89  C   UNL A   1      41.813  33.946  38.003  1.00  0.00    -0.014 A 
ATOM     90  C   UNL A   1      40.849  33.086  38.577  1.00  0.00     0.010 A 
ATOM     91  C   UNL A   1      42.387  34.957  38.797  1.00  0.00     0.010 A 
ATOM     92  C   UNL A   1      40.712  33.019  39.963  1.00  0.00     0.020 A 
ATOM     93  C   UNL A   1      42.239  34.899  40.191  1.00  0.00     0.020 A 
ATOM     94  C   UNL A   1      41.485  33.864  40.759  1.00  0.00     0.054 A 
BRANCH  94  95
ATOM     95  S   UNL A   1      41.763  33.360  42.488  1.00  0.00     0.124 S 
ATOM     96  O   UNL A   1      40.702  34.066  43.197  1.00  0.00    -0.237 OA
ATOM     97  O   UNL A   1      41.611  31.908  42.400  1.00  0.00    -0.237 OA
ATOM     98  O   UNL A   1      43.123  33.819  42.755  1.00  0.00    -0.744 OA
ENDBRANCH  94  95
ENDBRANCH  66  89
BRANCH  78  99
ATOM     99  C   UNL A   1      45.028  27.743  35.604  1.00  0.00    -0.014 A 
ATOM    100  C   UNL A   1      44.223  26.773  36.208  1.00  0.00     0.010 A 
ATOM    101  C   UNL A   1      46.363  27.374  35.292  1.00  0.00     0.010 A 
ATOM    102  C   UNL A   1      44.704  25.468  36.407  1.00  0.00     0.020 A 
ATOM    103  C   UNL A   1      46.858  26.088  35.502  1.00  0.00     0.020 A 
ATOM    104  C   UNL A   1      46.009  25.130  36.029  1.00  0.00     0.054 A 
BRANCH 104 105
ATOM    105  S   UNL A   1      46.587  23.427  36.230  1.00  0.00     0.124 S 
ATOM    106  O   UNL A   1      45.380  22.730  36.669  1.00  0.00    -0.237 OA
ATOM    107  O   UNL A   1      47.041  23.106  34.880  1.00  0.00    -0.237 OA
ATOM    108  O   UNL A   1      47.643  23.529  37.234  1.00  0.00    -0.744 OA
ENDBRANCH 104 105
ENDBRANCH  78  99
ENDBRANCH  52  53
ENDBRANCH  45  47
ENDBRANCH  44  45
ENDBRANCH  43  44
ENDBRANCH  42  43
ENDBRANCH  41  42
ENDBRANCH  40  41
ENDBRANCH  39  40
ENDBRANCH  38  39
ENDBRANCH   1  38
TORSDOF 29
ENDMDL
