MODEL 1
REMARK VINA RESULT:     -10.5      0.000      0.000
REMARK SMILES O=C(OCCOCCOCCOCCOC(=O)c1ccc(-c2c3nc(c(-c4ccc(S(=O)(=O)[O-])cc4)c4ccc([nH]4)c(-c4ccc(S(=O)(=O)[O-])cc4)c4nc(c(-c5ccc(S(=O)(=O)[O-])cc5)c5ccc2[nH]5)C=C4)C=C3)cc1)C1=Cc2cc(C(F)(F)F)ccc2O[C@@H]1C(F)(F)F
REMARK SMILES IDX 10 1 9 2 8 3 7 4 6 5 5 6 4 7 3 8 2 9 1 10 78 11 79 12 91 13
REMARK SMILES IDX 80 14 90 15 81 16 89 17 82 18 88 19 87 20 92 21 93 22 94 23
REMARK SMILES IDX 95 24 83 25 84 26 85 27 86 28 11 29 12 30 13 31 14 32 15 33
REMARK SMILES IDX 16 34 17 35 18 36 19 37 77 38 20 39 76 40 21 41 22 42 23 43
REMARK SMILES IDX 70 44 24 45 75 46 69 47 71 48 25 49 74 50 68 51 67 52 26 54
REMARK SMILES IDX 56 55 37 56 55 57 38 58 41 59 54 60 72 61 39 62 40 63 53 65
REMARK SMILES IDX 73 66 42 67 27 68 28 69 36 70 29 71 35 72 30 73 31 74 32 75
REMARK SMILES IDX 33 76 34 77 57 78 58 79 66 80 59 81 65 82 60 83 61 84 62 85
REMARK SMILES IDX 63 86 64 87 43 88 44 89 52 90 45 91 51 92 46 93 47 94 48 95
REMARK SMILES IDX 49 96 50 97
REMARK H PARENT 71 53 41 64
REMARK Flexibility Score: inf
ROOT
ATOM      1  C   UNL A   1      38.792  21.944  26.170  1.00  0.00     0.188 C 
ENDROOT
BRANCH   1   2
ATOM      2  O   UNL A   1      38.136  21.792  24.934  1.00  0.00    -0.377 OA
BRANCH   2   3
ATOM      3  C   UNL A   1      37.050  20.898  25.020  1.00  0.00     0.188 C 
BRANCH   3   4
ATOM      4  C   UNL A   1      35.811  21.441  25.753  1.00  0.00     0.188 C 
BRANCH   4   5
ATOM      5  O   UNL A   1      34.775  22.287  25.136  1.00  0.00    -0.376 OA
BRANCH   5   6
ATOM      6  C   UNL A   1      34.835  23.541  24.039  1.00  0.00     0.202 C 
BRANCH   6   7
ATOM      7  C   UNL A   1      33.340  24.032  22.525  1.00  0.00     0.261 C 
BRANCH   7   8
ATOM      8  O   UNL A   1      32.138  24.937  22.708  1.00  0.00    -0.460 OA
BRANCH   8   9
ATOM      9  C   UNL A   1      32.493  26.201  22.960  1.00  0.00     0.338 C 
ATOM     10  O   UNL A   1      33.284  26.891  22.366  1.00  0.00    -0.246 OA
BRANCH   9  11
ATOM     11  C   UNL A   1      32.035  26.251  24.340  1.00  0.00     0.087 C 
ATOM     12  C   UNL A   1      33.096  26.562  25.306  1.00  0.00     0.027 C 
ATOM     13  C   UNL A   1      30.564  27.417  23.921  1.00  0.00     0.316 C 
ATOM     14  C   UNL A   1      33.326  28.167  26.080  1.00  0.00     0.018 A 
ATOM     15  O   UNL A   1      30.852  29.205  24.642  1.00  0.00    -0.475 OA
ATOM     16  C   UNL A   1      34.408  28.364  26.893  1.00  0.00     0.025 A 
ATOM     17  C   UNL A   1      32.312  29.518  25.718  1.00  0.00     0.128 A 
ATOM     18  C   UNL A   1      34.590  29.681  27.384  1.00  0.00     0.056 A 
ATOM     19  C   UNL A   1      32.538  30.767  26.232  1.00  0.00     0.048 A 
ATOM     20  C   UNL A   1      33.688  30.806  27.074  1.00  0.00     0.017 A 
BRANCH  13  21
ATOM     21  C   UNL A   1      29.423  26.251  24.254  1.00  0.00     0.430 C 
ATOM     22  F   UNL A   1      29.357  25.765  25.507  1.00  0.00    -0.167 F 
ATOM     23  F   UNL A   1      28.200  26.841  24.068  1.00  0.00    -0.167 F 
ATOM     24  F   UNL A   1      29.407  25.195  23.402  1.00  0.00    -0.167 F 
ENDBRANCH  13  21
BRANCH  18  25
ATOM     25  C   UNL A   1      35.831  29.889  28.252  1.00  0.00     0.416 C 
ATOM     26  F   UNL A   1      35.547  29.786  29.583  1.00  0.00    -0.166 F 
ATOM     27  F   UNL A   1      36.782  28.941  28.013  1.00  0.00    -0.166 F 
ATOM     28  F   UNL A   1      36.440  31.091  28.087  1.00  0.00    -0.166 F 
ENDBRANCH  18  25
ENDBRANCH   9  11
ENDBRANCH   8   9
ENDBRANCH   7   8
ENDBRANCH   6   7
ENDBRANCH   5   6
ENDBRANCH   4   5
ENDBRANCH   3   4
ENDBRANCH   2   3
ENDBRANCH   1   2
BRANCH   1  29
ATOM     29  C   UNL A   1      40.086  21.143  26.352  1.00  0.00     0.188 C 
BRANCH  29  30
ATOM     30  O   UNL A   1      41.323  21.741  26.704  1.00  0.00    -0.376 OA
BRANCH  30  31
ATOM     31  C   UNL A   1      41.567  23.119  26.494  1.00  0.00     0.202 C 
BRANCH  31  32
ATOM     32  C   UNL A   1      41.389  24.165  27.606  1.00  0.00     0.261 C 
BRANCH  32  33
ATOM     33  O   UNL A   1      40.242  25.015  27.506  1.00  0.00    -0.460 OA
BRANCH  33  34
ATOM     34  C   UNL A   1      40.496  26.310  27.217  1.00  0.00     0.338 C 
ATOM     35  O   UNL A   1      40.768  26.778  26.126  1.00  0.00    -0.246 OA
BRANCH  34  36
ATOM     36  C   UNL A   1      40.207  27.136  28.412  1.00  0.00     0.060 A 
ATOM     37  C   UNL A   1      40.900  28.347  28.581  1.00  0.00     0.016 A 
ATOM     38  C   UNL A   1      39.276  26.719  29.362  1.00  0.00     0.016 A 
ATOM     39  C   UNL A   1      40.688  29.131  29.712  1.00  0.00     0.010 A 
ATOM     40  C   UNL A   1      39.102  27.476  30.519  1.00  0.00     0.010 A 
ATOM     41  C   UNL A   1      39.838  28.660  30.715  1.00  0.00    -0.014 A 
BRANCH  41  42
ATOM     42  C   UNL A   1      39.911  29.233  32.077  1.00  0.00     0.031 A 
ATOM     43  C   UNL A   1      38.887  30.269  32.445  1.00  0.00     0.074 A 
ATOM     44  C   UNL A   1      40.881  28.890  32.937  1.00  0.00     0.049 A 
ATOM     45  N   UNL A   1      38.843  31.062  33.481  1.00  0.00    -0.248 NA
ATOM     46  C   UNL A   1      37.774  30.446  31.497  1.00  0.00     0.031 C 
ATOM     47  C   UNL A   1      41.888  27.857  32.711  1.00  0.00     0.029 A 
ATOM     48  N   UNL A   1      41.196  29.414  34.166  1.00  0.00    -0.354 N 
ATOM     49  C   UNL A   1      37.725  31.864  33.287  1.00  0.00     0.074 A 
ATOM     50  C   UNL A   1      37.130  31.473  32.029  1.00  0.00     0.031 C 
ATOM     51  C   UNL A   1      42.740  27.851  33.750  1.00  0.00     0.029 A 
ATOM     52  C   UNL A   1      42.368  28.917  34.682  1.00  0.00     0.049 A 
ATOM     53  H   UNL A   1      40.639  30.080  34.631  1.00  0.00     0.167 HD
ATOM     54  C   UNL A   1      37.249  32.851  34.082  1.00  0.00     0.031 A 
ATOM     55  C   UNL A   1      43.087  29.315  35.751  1.00  0.00     0.031 A 
ATOM     56  C   UNL A   1      37.876  33.247  35.314  1.00  0.00     0.049 A 
ATOM     57  C   UNL A   1      42.588  30.462  36.590  1.00  0.00     0.074 A 
ATOM     58  C   UNL A   1      37.466  34.212  36.216  1.00  0.00     0.029 A 
ATOM     59  N   UNL A   1      39.060  32.716  35.805  1.00  0.00    -0.354 N 
ATOM     60  N   UNL A   1      41.516  31.202  36.418  1.00  0.00    -0.248 NA
ATOM     61  C   UNL A   1      43.386  30.825  37.769  1.00  0.00     0.031 C 
ATOM     62  C   UNL A   1      38.448  34.325  37.204  1.00  0.00     0.029 A 
ATOM     63  C   UNL A   1      39.418  33.361  36.977  1.00  0.00     0.049 A 
ATOM     64  H   UNL A   1      39.571  31.987  35.384  1.00  0.00     0.167 HD
ATOM     65  C   UNL A   1      41.493  32.093  37.487  1.00  0.00     0.074 A 
ATOM     66  C   UNL A   1      42.658  31.800  38.298  1.00  0.00     0.031 C 
ATOM     67  C   UNL A   1      40.582  33.056  37.776  1.00  0.00     0.031 A 
BRANCH  54  68
ATOM     68  C   UNL A   1      36.043  33.614  33.594  1.00  0.00    -0.014 A 
ATOM     69  C   UNL A   1      34.739  33.096  33.701  1.00  0.00     0.010 A 
ATOM     70  C   UNL A   1      36.226  34.878  33.002  1.00  0.00     0.010 A 
ATOM     71  C   UNL A   1      33.654  33.793  33.162  1.00  0.00     0.020 A 
ATOM     72  C   UNL A   1      35.138  35.599  32.502  1.00  0.00     0.020 A 
ATOM     73  C   UNL A   1      33.862  35.038  32.561  1.00  0.00     0.054 A 
BRANCH  73  74
ATOM     74  S   UNL A   1      32.438  35.913  31.858  1.00  0.00     0.124 S 
ATOM     75  O   UNL A   1      32.527  35.549  30.446  1.00  0.00    -0.237 OA
ATOM     76  O   UNL A   1      31.316  35.329  32.587  1.00  0.00    -0.237 OA
ATOM     77  O   UNL A   1      32.711  37.317  32.156  1.00  0.00    -0.744 OA
ENDBRANCH  73  74
ENDBRANCH  54  68
BRANCH  55  78
ATOM     78  C   UNL A   1      44.379  28.637  36.048  1.00  0.00    -0.014 A 
ATOM     79  C   UNL A   1      45.591  29.148  35.557  1.00  0.00     0.010 A 
ATOM     80  C   UNL A   1      44.402  27.505  36.886  1.00  0.00     0.010 A 
ATOM     81  C   UNL A   1      46.804  28.550  35.913  1.00  0.00     0.020 A 
ATOM     82  C   UNL A   1      45.613  26.925  37.269  1.00  0.00     0.020 A 
ATOM     83  C   UNL A   1      46.808  27.453  36.781  1.00  0.00     0.054 A 
BRANCH  83  84
ATOM     84  S   UNL A   1      48.402  26.773  37.319  1.00  0.00     0.124 S 
ATOM     85  O   UNL A   1      48.625  25.710  36.346  1.00  0.00    -0.237 OA
ATOM     86  O   UNL A   1      49.285  27.931  37.211  1.00  0.00    -0.237 OA
ATOM     87  O   UNL A   1      48.138  26.327  38.686  1.00  0.00    -0.744 OA
ENDBRANCH  83  84
ENDBRANCH  55  78
BRANCH  67  88
ATOM     88  C   UNL A   1      40.756  33.838  39.054  1.00  0.00    -0.014 A 
ATOM     89  C   UNL A   1      41.445  35.062  39.091  1.00  0.00     0.010 A 
ATOM     90  C   UNL A   1      40.115  33.380  40.222  1.00  0.00     0.010 A 
ATOM     91  C   UNL A   1      41.498  35.807  40.273  1.00  0.00     0.020 A 
ATOM     92  C   UNL A   1      40.135  34.136  41.395  1.00  0.00     0.020 A 
ATOM     93  C   UNL A   1      40.833  35.344  41.415  1.00  0.00     0.054 A 
BRANCH  93  94
ATOM     94  S   UNL A   1      40.848  36.370  42.910  1.00  0.00     0.124 S 
ATOM     95  O   UNL A   1      41.063  37.706  42.362  1.00  0.00    -0.237 OA
ATOM     96  O   UNL A   1      39.523  36.128  43.476  1.00  0.00    -0.237 OA
ATOM     97  O   UNL A   1      41.961  35.833  43.690  1.00  0.00    -0.744 OA
ENDBRANCH  93  94
ENDBRANCH  67  88
ENDBRANCH  41  42
ENDBRANCH  34  36
ENDBRANCH  33  34
ENDBRANCH  32  33
ENDBRANCH  31  32
ENDBRANCH  30  31
ENDBRANCH  29  30
ENDBRANCH   1  29
TORSDOF 25
ENDMDL
MODEL 2
REMARK VINA RESULT:     -10.1      2.609      8.397
REMARK SMILES O=C(OCCOCCOCCOCCOC(=O)c1ccc(-c2c3nc(c(-c4ccc(S(=O)(=O)[O-])cc4)c4ccc([nH]4)c(-c4ccc(S(=O)(=O)[O-])cc4)c4nc(c(-c5ccc(S(=O)(=O)[O-])cc5)c5ccc2[nH]5)C=C4)C=C3)cc1)C1=Cc2cc(C(F)(F)F)ccc2O[C@@H]1C(F)(F)F
REMARK SMILES IDX 10 1 9 2 8 3 7 4 6 5 5 6 4 7 3 8 2 9 1 10 78 11 79 12 91 13
REMARK SMILES IDX 80 14 90 15 81 16 89 17 82 18 88 19 87 20 92 21 93 22 94 23
REMARK SMILES IDX 95 24 83 25 84 26 85 27 86 28 11 29 12 30 13 31 14 32 15 33
REMARK SMILES IDX 16 34 17 35 18 36 19 37 77 38 20 39 76 40 21 41 22 42 23 43
REMARK SMILES IDX 70 44 24 45 75 46 69 47 71 48 25 49 74 50 68 51 67 52 26 54
REMARK SMILES IDX 56 55 37 56 55 57 38 58 41 59 54 60 72 61 39 62 40 63 53 65
REMARK SMILES IDX 73 66 42 67 27 68 28 69 36 70 29 71 35 72 30 73 31 74 32 75
REMARK SMILES IDX 33 76 34 77 57 78 58 79 66 80 59 81 65 82 60 83 61 84 62 85
REMARK SMILES IDX 63 86 64 87 43 88 44 89 52 90 45 91 51 92 46 93 47 94 48 95
REMARK SMILES IDX 49 96 50 97
REMARK H PARENT 71 53 41 64
REMARK Flexibility Score: inf
ROOT
ATOM      1  C   UNL A   1      35.398  30.627  28.200  1.00  0.00     0.188 C 
ENDROOT
BRANCH   1   2
ATOM      2  O   UNL A   1      35.250  29.620  27.227  1.00  0.00    -0.377 OA
BRANCH   2   3
ATOM      3  C   UNL A   1      33.938  29.106  27.196  1.00  0.00     0.188 C 
BRANCH   3   4
ATOM      4  C   UNL A   1      33.277  29.078  25.808  1.00  0.00     0.188 C 
BRANCH   4   5
ATOM      5  O   UNL A   1      32.681  27.882  25.186  1.00  0.00    -0.376 OA
BRANCH   5   6
ATOM      6  C   UNL A   1      31.212  27.117  25.374  1.00  0.00     0.202 C 
BRANCH   6   7
ATOM      7  C   UNL A   1      30.878  25.076  26.075  1.00  0.00     0.261 C 
BRANCH   7   8
ATOM      8  O   UNL A   1      31.146  23.803  25.297  1.00  0.00    -0.460 OA
BRANCH   8   9
ATOM      9  C   UNL A   1      32.191  23.125  25.784  1.00  0.00     0.338 C 
ATOM     10  O   UNL A   1      32.374  22.738  26.912  1.00  0.00    -0.246 OA
BRANCH   9  11
ATOM     11  C   UNL A   1      33.133  23.448  24.724  1.00  0.00     0.087 C 
ATOM     12  C   UNL A   1      34.324  24.169  25.190  1.00  0.00     0.027 C 
ATOM     13  C   UNL A   1      33.142  21.651  24.040  1.00  0.00     0.316 C 
ATOM     14  C   UNL A   1      35.942  23.419  25.415  1.00  0.00     0.018 A 
ATOM     15  O   UNL A   1      34.847  20.771  24.388  1.00  0.00    -0.475 OA
ATOM     16  C   UNL A   1      36.955  24.169  25.945  1.00  0.00     0.025 A 
ATOM     17  C   UNL A   1      36.226  21.739  25.126  1.00  0.00     0.128 A 
ATOM     18  C   UNL A   1      38.172  23.488  26.197  1.00  0.00     0.056 A 
ATOM     19  C   UNL A   1      37.431  21.141  25.384  1.00  0.00     0.048 A 
ATOM     20  C   UNL A   1      38.388  22.058  25.913  1.00  0.00     0.017 A 
BRANCH  13  21
ATOM     21  C   UNL A   1      32.381  22.087  22.624  1.00  0.00     0.430 C 
ATOM     22  F   UNL A   1      33.045  22.882  21.764  1.00  0.00    -0.167 F 
ATOM     23  F   UNL A   1      32.188  20.930  21.916  1.00  0.00    -0.167 F 
ATOM     24  F   UNL A   1      31.131  22.592  22.770  1.00  0.00    -0.167 F 
ENDBRANCH  13  21
BRANCH  18  25
ATOM     25  C   UNL A   1      39.275  24.334  26.832  1.00  0.00     0.416 C 
ATOM     26  F   UNL A   1      40.306  23.567  27.292  1.00  0.00    -0.166 F 
ATOM     27  F   UNL A   1      39.838  25.192  25.934  1.00  0.00    -0.166 F 
ATOM     28  F   UNL A   1      38.871  25.093  27.882  1.00  0.00    -0.166 F 
ENDBRANCH  18  25
ENDBRANCH   9  11
ENDBRANCH   8   9
ENDBRANCH   7   8
ENDBRANCH   6   7
ENDBRANCH   5   6
ENDBRANCH   4   5
ENDBRANCH   3   4
ENDBRANCH   2   3
ENDBRANCH   1   2
BRANCH   1  29
ATOM     29  C   UNL A   1      35.031  32.050  27.764  1.00  0.00     0.188 C 
BRANCH  29  30
ATOM     30  O   UNL A   1      34.046  32.830  28.421  1.00  0.00    -0.376 OA
BRANCH  30  31
ATOM     31  C   UNL A   1      33.733  34.143  27.994  1.00  0.00     0.202 C 
BRANCH  31  32
ATOM     32  C   UNL A   1      33.060  35.169  28.918  1.00  0.00     0.261 C 
BRANCH  32  33
ATOM     33  O   UNL A   1      32.715  34.717  30.232  1.00  0.00    -0.460 OA
BRANCH  33  34
ATOM     34  C   UNL A   1      33.499  35.173  31.232  1.00  0.00     0.338 C 
ATOM     35  O   UNL A   1      33.243  36.073  32.012  1.00  0.00    -0.246 OA
BRANCH  34  36
ATOM     36  C   UNL A   1      34.669  34.276  31.373  1.00  0.00     0.060 A 
ATOM     37  C   UNL A   1      34.482  33.002  31.936  1.00  0.00     0.016 A 
ATOM     38  C   UNL A   1      35.939  34.688  30.970  1.00  0.00     0.016 A 
ATOM     39  C   UNL A   1      35.564  32.146  32.125  1.00  0.00     0.010 A 
ATOM     40  C   UNL A   1      37.029  33.854  31.208  1.00  0.00     0.010 A 
ATOM     41  C   UNL A   1      36.850  32.601  31.823  1.00  0.00    -0.014 A 
BRANCH  41  42
ATOM     42  C   UNL A   1      38.029  31.911  32.388  1.00  0.00     0.031 A 
ATOM     43  C   UNL A   1      38.408  32.241  33.805  1.00  0.00     0.074 A 
ATOM     44  C   UNL A   1      38.773  31.067  31.657  1.00  0.00     0.049 A 
ATOM     45  N   UNL A   1      39.491  31.937  34.466  1.00  0.00    -0.248 NA
ATOM     46  C   UNL A   1      37.435  33.042  34.566  1.00  0.00     0.031 C 
ATOM     47  C   UNL A   1      38.467  30.629  30.298  1.00  0.00     0.029 A 
ATOM     48  N   UNL A   1      39.967  30.459  31.954  1.00  0.00    -0.354 N 
ATOM     49  C   UNL A   1      39.352  32.550  35.706  1.00  0.00     0.074 A 
ATOM     50  C   UNL A   1      38.090  33.253  35.696  1.00  0.00     0.031 C 
ATOM     51  C   UNL A   1      39.474  29.855  29.858  1.00  0.00     0.029 A 
ATOM     52  C   UNL A   1      40.514  29.791  30.886  1.00  0.00     0.049 A 
ATOM     53  H   UNL A   1      40.388  30.497  32.843  1.00  0.00     0.167 HD
ATOM     54  C   UNL A   1      40.212  32.538  36.752  1.00  0.00     0.031 A 
ATOM     55  C   UNL A   1      41.738  29.244  30.736  1.00  0.00     0.031 A 
ATOM     56  C   UNL A   1      41.480  31.859  36.727  1.00  0.00     0.049 A 
ATOM     57  C   UNL A   1      42.716  29.299  31.880  1.00  0.00     0.074 A 
ATOM     58  C   UNL A   1      42.418  31.754  37.738  1.00  0.00     0.029 A 
ATOM     59  N   UNL A   1      41.997  31.190  35.627  1.00  0.00    -0.354 N 
ATOM     60  N   UNL A   1      42.572  29.856  33.060  1.00  0.00    -0.248 NA
ATOM     61  C   UNL A   1      44.017  28.646  31.678  1.00  0.00     0.031 C 
ATOM     62  C   UNL A   1      43.539  31.100  37.220  1.00  0.00     0.029 A 
ATOM     63  C   UNL A   1      43.260  30.704  35.921  1.00  0.00     0.049 A 
ATOM     64  H   UNL A   1      41.535  31.076  34.765  1.00  0.00     0.167 HD
ATOM     65  C   UNL A   1      43.749  29.591  33.754  1.00  0.00     0.074 A 
ATOM     66  C   UNL A   1      44.593  28.824  32.861  1.00  0.00     0.031 C 
ATOM     67  C   UNL A   1      44.091  29.939  35.019  1.00  0.00     0.031 A 
BRANCH  54  68
ATOM     68  C   UNL A   1      39.838  33.351  37.966  1.00  0.00    -0.014 A 
ATOM     69  C   UNL A   1      40.277  34.677  38.139  1.00  0.00     0.010 A 
ATOM     70  C   UNL A   1      39.035  32.765  38.962  1.00  0.00     0.010 A 
ATOM     71  C   UNL A   1      39.982  35.372  39.316  1.00  0.00     0.020 A 
ATOM     72  C   UNL A   1      38.700  33.472  40.120  1.00  0.00     0.020 A 
ATOM     73  C   UNL A   1      39.199  34.762  40.301  1.00  0.00     0.054 A 
BRANCH  73  74
ATOM     74  S   UNL A   1      38.844  35.682  41.822  1.00  0.00     0.124 S 
ATOM     75  O   UNL A   1      39.031  37.064  41.389  1.00  0.00    -0.237 OA
ATOM     76  O   UNL A   1      37.466  35.296  42.112  1.00  0.00    -0.237 OA
ATOM     77  O   UNL A   1      39.841  35.187  42.769  1.00  0.00    -0.744 OA
ENDBRANCH  73  74
ENDBRANCH  54  68
BRANCH  55  78
ATOM     78  C   UNL A   1      42.103  28.636  29.427  1.00  0.00    -0.014 A 
ATOM     79  C   UNL A   1      42.696  29.407  28.414  1.00  0.00     0.010 A 
ATOM     80  C   UNL A   1      41.916  27.257  29.215  1.00  0.00     0.010 A 
ATOM     81  C   UNL A   1      43.112  28.807  27.221  1.00  0.00     0.020 A 
ATOM     82  C   UNL A   1      42.357  26.647  28.038  1.00  0.00     0.020 A 
ATOM     83  C   UNL A   1      42.956  27.428  27.049  1.00  0.00     0.054 A 
BRANCH  83  84
ATOM     84  S   UNL A   1      43.610  26.658  25.542  1.00  0.00     0.124 S 
ATOM     85  O   UNL A   1      42.400  26.445  24.756  1.00  0.00    -0.237 OA
ATOM     86  O   UNL A   1      44.521  27.684  25.041  1.00  0.00    -0.237 OA
ATOM     87  O   UNL A   1      44.262  25.445  26.033  1.00  0.00    -0.744 OA
ENDBRANCH  83  84
ENDBRANCH  55  78
BRANCH  67  88
ATOM     88  C   UNL A   1      45.412  29.450  35.559  1.00  0.00    -0.014 A 
ATOM     89  C   UNL A   1      46.554  30.268  35.584  1.00  0.00     0.010 A 
ATOM     90  C   UNL A   1      45.471  28.174  36.153  1.00  0.00     0.010 A 
ATOM     91  C   UNL A   1      47.733  29.814  36.184  1.00  0.00     0.020 A 
ATOM     92  C   UNL A   1      46.635  27.730  36.783  1.00  0.00     0.020 A 
ATOM     93  C   UNL A   1      47.762  28.552  36.789  1.00  0.00     0.054 A 
BRANCH  93  94
ATOM     94  S   UNL A   1      49.278  28.023  37.633  1.00  0.00     0.124 S 
ATOM     95  O   UNL A   1      49.477  26.681  37.091  1.00  0.00    -0.237 OA
ATOM     96  O   UNL A   1      50.249  29.026  37.201  1.00  0.00    -0.237 OA
ATOM     97  O   UNL A   1      48.924  28.074  39.050  1.00  0.00    -0.744 OA
ENDBRANCH  93  94
ENDBRANCH  67  88
ENDBRANCH  41  42
ENDBRANCH  34  36
ENDBRANCH  33  34
ENDBRANCH  32  33
ENDBRANCH  31  32
ENDBRANCH  30  31
ENDBRANCH  29  30
ENDBRANCH   1  29
TORSDOF 25
ENDMDL
MODEL 3
REMARK VINA RESULT:      -9.9      0.886      7.822
REMARK SMILES O=C(OCCOCCOCCOCCOC(=O)c1ccc(-c2c3nc(c(-c4ccc(S(=O)(=O)[O-])cc4)c4ccc([nH]4)c(-c4ccc(S(=O)(=O)[O-])cc4)c4nc(c(-c5ccc(S(=O)(=O)[O-])cc5)c5ccc2[nH]5)C=C4)C=C3)cc1)C1=Cc2cc(C(F)(F)F)ccc2O[C@@H]1C(F)(F)F
REMARK SMILES IDX 10 1 9 2 8 3 7 4 6 5 5 6 4 7 3 8 2 9 1 10 78 11 79 12 91 13
REMARK SMILES IDX 80 14 90 15 81 16 89 17 82 18 88 19 87 20 92 21 93 22 94 23
REMARK SMILES IDX 95 24 83 25 84 26 85 27 86 28 11 29 12 30 13 31 14 32 15 33
REMARK SMILES IDX 16 34 17 35 18 36 19 37 77 38 20 39 76 40 21 41 22 42 23 43
REMARK SMILES IDX 70 44 24 45 75 46 69 47 71 48 25 49 74 50 68 51 67 52 26 54
REMARK SMILES IDX 56 55 37 56 55 57 38 58 41 59 54 60 72 61 39 62 40 63 53 65
REMARK SMILES IDX 73 66 42 67 27 68 28 69 36 70 29 71 35 72 30 73 31 74 32 75
REMARK SMILES IDX 33 76 34 77 57 78 58 79 66 80 59 81 65 82 60 83 61 84 62 85
REMARK SMILES IDX 63 86 64 87 43 88 44 89 52 90 45 91 51 92 46 93 47 94 48 95
REMARK SMILES IDX 49 96 50 97
REMARK H PARENT 71 53 41 64
REMARK Flexibility Score: inf
ROOT
ATOM      1  C   UNL A   1      39.141  21.884  26.505  1.00  0.00     0.188 C 
ENDROOT
BRANCH   1   2
ATOM      2  O   UNL A   1      38.488  22.190  25.296  1.00  0.00    -0.377 OA
BRANCH   2   3
ATOM      3  C   UNL A   1      37.108  21.908  25.356  1.00  0.00     0.188 C 
BRANCH   3   4
ATOM      4  C   UNL A   1      36.218  23.084  25.791  1.00  0.00     0.188 C 
BRANCH   4   5
ATOM      5  O   UNL A   1      35.277  23.796  24.908  1.00  0.00    -0.376 OA
BRANCH   5   6
ATOM      6  C   UNL A   1      34.998  23.743  23.265  1.00  0.00     0.202 C 
BRANCH   6   7
ATOM      7  C   UNL A   1      33.122  24.186  22.239  1.00  0.00     0.261 C 
BRANCH   7   8
ATOM      8  O   UNL A   1      32.001  25.065  22.755  1.00  0.00    -0.460 OA
BRANCH   8   9
ATOM      9  C   UNL A   1      32.420  26.302  23.041  1.00  0.00     0.338 C 
ATOM     10  O   UNL A   1      33.240  26.969  22.459  1.00  0.00    -0.246 OA
BRANCH   9  11
ATOM     11  C   UNL A   1      31.975  26.334  24.426  1.00  0.00     0.087 C 
ATOM     12  C   UNL A   1      33.023  26.731  25.375  1.00  0.00     0.027 C 
ATOM     13  C   UNL A   1      30.421  27.388  24.013  1.00  0.00     0.316 C 
ATOM     14  C   UNL A   1      33.148  28.357  26.130  1.00  0.00     0.018 A 
ATOM     15  O   UNL A   1      30.589  29.201  24.712  1.00  0.00    -0.475 OA
ATOM     16  C   UNL A   1      34.222  28.640  26.926  1.00  0.00     0.025 A 
ATOM     17  C   UNL A   1      32.036  29.629  25.766  1.00  0.00     0.128 A 
ATOM     18  C   UNL A   1      34.316  29.972  27.402  1.00  0.00     0.056 A 
ATOM     19  C   UNL A   1      32.178  30.896  26.265  1.00  0.00     0.048 A 
ATOM     20  C   UNL A   1      33.332  31.026  27.092  1.00  0.00     0.017 A 
BRANCH  13  21
ATOM     21  C   UNL A   1      29.369  26.148  24.372  1.00  0.00     0.430 C 
ATOM     22  F   UNL A   1      29.348  25.678  25.633  1.00  0.00    -0.167 F 
ATOM     23  F   UNL A   1      28.105  26.645  24.188  1.00  0.00    -0.167 F 
ATOM     24  F   UNL A   1      29.424  25.081  23.536  1.00  0.00    -0.167 F 
ENDBRANCH  13  21
BRANCH  18  25
ATOM     25  C   UNL A   1      35.549  30.277  28.252  1.00  0.00     0.416 C 
ATOM     26  F   UNL A   1      35.346  31.342  29.081  1.00  0.00    -0.166 F 
ATOM     27  F   UNL A   1      35.869  29.237  29.074  1.00  0.00    -0.166 F 
ATOM     28  F   UNL A   1      36.669  30.560  27.540  1.00  0.00    -0.166 F 
ENDBRANCH  18  25
ENDBRANCH   9  11
ENDBRANCH   8   9
ENDBRANCH   7   8
ENDBRANCH   6   7
ENDBRANCH   5   6
ENDBRANCH   4   5
ENDBRANCH   3   4
ENDBRANCH   2   3
ENDBRANCH   1   2
BRANCH   1  29
ATOM     29  C   UNL A   1      40.427  21.059  26.390  1.00  0.00     0.188 C 
BRANCH  29  30
ATOM     30  O   UNL A   1      41.721  21.641  26.389  1.00  0.00    -0.376 OA
BRANCH  30  31
ATOM     31  C   UNL A   1      41.911  23.027  26.173  1.00  0.00     0.202 C 
BRANCH  31  32
ATOM     32  C   UNL A   1      41.831  24.054  27.313  1.00  0.00     0.261 C 
BRANCH  32  33
ATOM     33  O   UNL A   1      40.611  24.794  27.424  1.00  0.00    -0.460 OA
BRANCH  33  34
ATOM     34  C   UNL A   1      40.618  26.023  26.864  1.00  0.00     0.338 C 
ATOM     35  O   UNL A   1      40.664  26.287  25.676  1.00  0.00    -0.246 OA
BRANCH  34  36
ATOM     36  C   UNL A   1      40.366  27.034  27.917  1.00  0.00     0.060 A 
ATOM     37  C   UNL A   1      40.827  28.347  27.718  1.00  0.00     0.016 A 
ATOM     38  C   UNL A   1      39.698  26.692  29.092  1.00  0.00     0.016 A 
ATOM     39  C   UNL A   1      40.649  29.316  28.702  1.00  0.00     0.010 A 
ATOM     40  C   UNL A   1      39.566  27.647  30.099  1.00  0.00     0.010 A 
ATOM     41  C   UNL A   1      40.077  28.947  29.922  1.00  0.00    -0.014 A 
BRANCH  41  42
ATOM     42  C   UNL A   1      40.252  29.808  31.112  1.00  0.00     0.031 A 
ATOM     43  C   UNL A   1      41.405  29.498  32.024  1.00  0.00     0.074 A 
ATOM     44  C   UNL A   1      39.390  30.794  31.404  1.00  0.00     0.049 A 
ATOM     45  N   UNL A   1      41.666  29.959  33.217  1.00  0.00    -0.248 NA
ATOM     46  C   UNL A   1      42.380  28.514  31.526  1.00  0.00     0.031 C 
ATOM     47  C   UNL A   1      38.276  31.221  30.563  1.00  0.00     0.029 A 
ATOM     48  N   UNL A   1      39.303  31.587  32.520  1.00  0.00    -0.354 N 
ATOM     49  C   UNL A   1      42.810  29.288  33.632  1.00  0.00     0.074 A 
ATOM     50  C   UNL A   1      43.180  28.378  32.571  1.00  0.00     0.031 C 
ATOM     51  C   UNL A   1      37.585  32.173  31.214  1.00  0.00     0.029 A 
ATOM     52  C   UNL A   1      38.180  32.378  32.536  1.00  0.00     0.049 A 
ATOM     53  H   UNL A   1      39.978  31.590  33.237  1.00  0.00     0.167 HD
ATOM     54  C   UNL A   1      43.480  29.409  34.801  1.00  0.00     0.031 A 
ATOM     55  C   UNL A   1      37.660  33.133  33.525  1.00  0.00     0.031 A 
ATOM     56  C   UNL A   1      43.075  30.297  35.858  1.00  0.00     0.049 A 
ATOM     57  C   UNL A   1      38.373  33.206  34.849  1.00  0.00     0.074 A 
ATOM     58  C   UNL A   1      43.693  30.526  37.073  1.00  0.00     0.029 A 
ATOM     59  N   UNL A   1      41.932  31.085  35.834  1.00  0.00    -0.354 N 
ATOM     60  N   UNL A   1      39.469  32.590  35.229  1.00  0.00    -0.248 NA
ATOM     61  C   UNL A   1      37.789  34.080  35.876  1.00  0.00     0.031 C 
ATOM     62  C   UNL A   1      42.878  31.382  37.819  1.00  0.00     0.029 A 
ATOM     63  C   UNL A   1      41.806  31.770  37.030  1.00  0.00     0.049 A 
ATOM     64  H   UNL A   1      41.305  31.149  35.078  1.00  0.00     0.167 HD
ATOM     65  C   UNL A   1      39.724  33.029  36.525  1.00  0.00     0.074 A 
ATOM     66  C   UNL A   1      38.668  33.961  36.863  1.00  0.00     0.031 C 
ATOM     67  C   UNL A   1      40.747  32.699  37.353  1.00  0.00     0.031 A 
BRANCH  54  68
ATOM     68  C   UNL A   1      44.664  28.501  35.020  1.00  0.00    -0.014 A 
ATOM     69  C   UNL A   1      44.746  27.637  36.128  1.00  0.00     0.010 A 
ATOM     70  C   UNL A   1      45.726  28.524  34.096  1.00  0.00     0.010 A 
ATOM     71  C   UNL A   1      45.895  26.871  36.345  1.00  0.00     0.020 A 
ATOM     72  C   UNL A   1      46.857  27.726  34.285  1.00  0.00     0.020 A 
ATOM     73  C   UNL A   1      46.946  26.925  35.424  1.00  0.00     0.054 A 
BRANCH  73  74
ATOM     74  S   UNL A   1      48.429  25.932  35.739  1.00  0.00     0.124 S 
ATOM     75  O   UNL A   1      48.238  24.807  34.826  1.00  0.00    -0.237 OA
ATOM     76  O   UNL A   1      49.507  26.851  35.385  1.00  0.00    -0.237 OA
ATOM     77  O   UNL A   1      48.333  25.603  37.159  1.00  0.00    -0.744 OA
ENDBRANCH  73  74
ENDBRANCH  54  68
BRANCH  55  78
ATOM     78  C   UNL A   1      36.371  33.841  33.294  1.00  0.00    -0.014 A 
ATOM     79  C   UNL A   1      36.348  35.147  32.777  1.00  0.00     0.010 A 
ATOM     80  C   UNL A   1      35.152  33.178  33.532  1.00  0.00     0.010 A 
ATOM     81  C   UNL A   1      35.130  35.769  32.485  1.00  0.00     0.020 A 
ATOM     82  C   UNL A   1      33.934  33.783  33.213  1.00  0.00     0.020 A 
ATOM     83  C   UNL A   1      33.932  35.076  32.689  1.00  0.00     0.054 A 
BRANCH  83  84
ATOM     84  S   UNL A   1      32.375  35.863  32.191  1.00  0.00     0.124 S 
ATOM     85  O   UNL A   1      32.438  37.139  32.894  1.00  0.00    -0.237 OA
ATOM     86  O   UNL A   1      32.512  35.929  30.739  1.00  0.00    -0.237 OA
ATOM     87  O   UNL A   1      31.354  34.933  32.670  1.00  0.00    -0.744 OA
ENDBRANCH  83  84
ENDBRANCH  55  78
BRANCH  67  88
ATOM     88  C   UNL A   1      40.829  33.389  38.692  1.00  0.00    -0.014 A 
ATOM     89  C   UNL A   1      40.123  32.922  39.814  1.00  0.00     0.010 A 
ATOM     90  C   UNL A   1      41.723  34.466  38.846  1.00  0.00     0.010 A 
ATOM     91  C   UNL A   1      40.303  33.527  41.062  1.00  0.00     0.020 A 
ATOM     92  C   UNL A   1      41.932  35.051  40.096  1.00  0.00     0.020 A 
ATOM     93  C   UNL A   1      41.215  34.581  41.196  1.00  0.00     0.054 A 
BRANCH  93  94
ATOM     94  S   UNL A   1      41.490  35.292  42.842  1.00  0.00     0.124 S 
ATOM     95  O   UNL A   1      40.126  35.462  43.334  1.00  0.00    -0.237 OA
ATOM     96  O   UNL A   1      42.274  34.255  43.509  1.00  0.00    -0.237 OA
ATOM     97  O   UNL A   1      42.212  36.533  42.569  1.00  0.00    -0.744 OA
ENDBRANCH  93  94
ENDBRANCH  67  88
ENDBRANCH  41  42
ENDBRANCH  34  36
ENDBRANCH  33  34
ENDBRANCH  32  33
ENDBRANCH  31  32
ENDBRANCH  30  31
ENDBRANCH  29  30
ENDBRANCH   1  29
TORSDOF 25
ENDMDL
