MODEL 1
REMARK VINA RESULT:      -9.6      0.000      0.000
REMARK SMILES Cc1ccc(F)cc1S(=O)(=O)Nc1cc(C(=O)OCCOCCOCCOCCOC(=O)c2ccc(-c3c4nc(c(-c5ccc(S(=O)(=O)[O-])cc5)c5ccc([nH]5)c(-c5ccc(S(=O)(=O)[O-])cc5)c5nc(c(-c6ccc(S(=O)(=O)[O-])cc6)c6ccc3[nH]6)C=C5)C=C4)cc2)ccc1N(C)Cc1ccccc1
REMARK SMILES IDX 24 1 23 2 22 3 21 4 20 5 19 6 18 7 16 8 17 9 15 10 13 11
REMARK SMILES IDX 14 12 95 13 94 14 93 15 12 16 9 18 10 19 11 20 8 21 1 22
REMARK SMILES IDX 2 23 3 24 4 25 7 26 5 27 6 28 96 29 97 30 98 31 99 32 100 33
REMARK SMILES IDX 104 34 101 35 103 36 102 37 25 38 26 39 27 40 28 41 29 42
REMARK SMILES IDX 30 43 31 44 32 45 33 46 34 47 92 48 35 49 91 50 36 51 37 52
REMARK SMILES IDX 38 53 85 54 39 55 90 56 84 57 86 58 40 59 89 60 83 61 82 62
REMARK SMILES IDX 41 64 71 65 52 66 70 67 53 68 56 69 69 70 87 71 54 72 55 73
REMARK SMILES IDX 68 75 88 76 57 77 42 78 43 79 51 80 44 81 50 82 45 83 46 84
REMARK SMILES IDX 47 85 48 86 49 87 72 88 73 89 81 90 74 91 80 92 75 93 76 94
REMARK SMILES IDX 77 95 78 96 79 97 58 98 59 99 67 100 60 101 66 102 61 103
REMARK SMILES IDX 62 104 63 105 64 106 65 107
REMARK H PARENT 12 17 86 63 56 74
REMARK Flexibility Score: inf
ROOT
ATOM      1  O   UNL A   1      35.376  22.967  22.790  1.00  0.00    -0.377 OA
ENDROOT
BRANCH   1   2
ATOM      2  C   UNL A   1      34.339  23.922  22.827  1.00  0.00     0.188 C 
BRANCH   2   3
ATOM      3  C   UNL A   1      33.309  23.945  21.679  1.00  0.00     0.188 C 
BRANCH   3   4
ATOM      4  O   UNL A   1      33.322  25.063  20.819  1.00  0.00    -0.376 OA
BRANCH   4   5
ATOM      5  C   UNL A   1      32.678  26.272  21.190  1.00  0.00     0.202 C 
BRANCH   5   6
ATOM      6  C   UNL A   1      31.149  26.474  21.318  1.00  0.00     0.261 C 
BRANCH   6   7
ATOM      7  O   UNL A   1      30.677  27.654  22.010  1.00  0.00    -0.460 OA
BRANCH   7   8
ATOM      8  C   UNL A   1      29.776  27.395  22.985  1.00  0.00     0.338 C 
ATOM      9  O   UNL A   1      28.706  27.982  23.070  1.00  0.00    -0.246 OA
BRANCH   8  10
ATOM     10  C   UNL A   1      30.017  26.147  23.796  1.00  0.00     0.062 A 
ATOM     11  C   UNL A   1      31.190  25.358  25.812  1.00  0.00     0.073 A 
ATOM     12  C   UNL A   1      30.488  26.360  25.092  1.00  0.00     0.044 A 
ATOM     13  C   UNL A   1      31.280  24.021  25.405  1.00  0.00     0.061 A 
ATOM     14  C   UNL A   1      30.611  23.799  24.153  1.00  0.00     0.029 A 
ATOM     15  C   UNL A   1      30.032  24.839  23.338  1.00  0.00     0.018 A 
BRANCH  11  16
ATOM     16  N   UNL A   1      32.213  25.853  26.676  1.00  0.00    -0.277 N 
ATOM     17  H   UNL A   1      32.206  25.779  27.658  1.00  0.00     0.180 HD
BRANCH  16  18
ATOM     18  S   UNL A   1      33.472  26.604  25.741  1.00  0.00     0.262 S 
ATOM     19  O   UNL A   1      33.037  26.667  24.376  1.00  0.00    -0.201 OA
ATOM     20  O   UNL A   1      34.642  25.778  25.994  1.00  0.00    -0.201 OA
BRANCH  18  21
ATOM     21  C   UNL A   1      33.753  28.313  26.363  1.00  0.00     0.093 A 
ATOM     22  C   UNL A   1      31.726  29.388  25.272  1.00  0.00     0.046 C 
ATOM     23  C   UNL A   1      32.878  29.384  26.207  1.00  0.00    -0.030 A 
ATOM     24  C   UNL A   1      33.093  30.595  26.922  1.00  0.00     0.008 A 
ATOM     25  C   UNL A   1      34.193  30.787  27.749  1.00  0.00     0.039 A 
ATOM     26  C   UNL A   1      34.898  28.607  27.098  1.00  0.00     0.061 A 
ATOM     27  C   UNL A   1      35.125  29.789  27.796  1.00  0.00     0.124 A 
ATOM     28  F   UNL A   1      36.262  29.948  28.488  1.00  0.00    -0.207 F 
ENDBRANCH  18  21
ENDBRANCH  16  18
ENDBRANCH  11  16
BRANCH  13  29
ATOM     29  N   UNL A   1      32.108  23.060  26.066  1.00  0.00    -0.369 N 
ATOM     30  C   UNL A   1      32.142  23.192  27.532  1.00  0.00     0.144 C 
BRANCH  29  31
ATOM     31  C   UNL A   1      33.295  22.220  25.498  1.00  0.00     0.151 C 
BRANCH  31  32
ATOM     32  C   UNL A   1      33.258  20.819  24.752  1.00  0.00    -0.029 A 
ATOM     33  C   UNL A   1      33.987  19.625  24.972  1.00  0.00     0.005 A 
ATOM     34  C   UNL A   1      32.475  20.763  23.578  1.00  0.00     0.005 A 
ATOM     35  C   UNL A   1      33.644  18.392  24.360  1.00  0.00     0.000 A 
ATOM     36  C   UNL A   1      32.215  19.563  22.878  1.00  0.00     0.000 A 
ATOM     37  C   UNL A   1      32.717  18.356  23.335  1.00  0.00     0.000 A 
ENDBRANCH  31  32
ENDBRANCH  29  31
ENDBRANCH  13  29
ENDBRANCH   8  10
ENDBRANCH   7   8
ENDBRANCH   6   7
ENDBRANCH   5   6
ENDBRANCH   4   5
ENDBRANCH   3   4
ENDBRANCH   2   3
ENDBRANCH   1   2
BRANCH   1  38
ATOM     38  C   UNL A   1      36.665  23.314  23.271  1.00  0.00     0.188 C 
BRANCH  38  39
ATOM     39  C   UNL A   1      37.013  23.265  24.776  1.00  0.00     0.188 C 
BRANCH  39  40
ATOM     40  O   UNL A   1      36.791  22.025  25.429  1.00  0.00    -0.376 OA
BRANCH  40  41
ATOM     41  C   UNL A   1      37.483  20.876  24.964  1.00  0.00     0.202 C 
BRANCH  41  42
ATOM     42  C   UNL A   1      38.920  20.630  25.460  1.00  0.00     0.261 C 
BRANCH  42  43
ATOM     43  O   UNL A   1      39.378  21.475  26.520  1.00  0.00    -0.460 OA
BRANCH  43  44
ATOM     44  C   UNL A   1      40.700  21.760  26.537  1.00  0.00     0.338 C 
ATOM     45  O   UNL A   1      41.590  21.129  26.006  1.00  0.00    -0.246 OA
BRANCH  44  46
ATOM     46  C   UNL A   1      40.863  23.098  27.144  1.00  0.00     0.060 A 
ATOM     47  C   UNL A   1      40.265  24.197  26.512  1.00  0.00     0.016 A 
ATOM     48  C   UNL A   1      41.590  23.264  28.325  1.00  0.00     0.016 A 
ATOM     49  C   UNL A   1      40.444  25.478  27.028  1.00  0.00     0.010 A 
ATOM     50  C   UNL A   1      41.792  24.551  28.826  1.00  0.00     0.010 A 
ATOM     51  C   UNL A   1      41.265  25.665  28.147  1.00  0.00    -0.014 A 
BRANCH  51  52
ATOM     52  C   UNL A   1      41.799  27.019  28.421  1.00  0.00     0.031 A 
ATOM     53  C   UNL A   1      43.264  27.255  28.163  1.00  0.00     0.074 A 
ATOM     54  C   UNL A   1      41.008  28.026  28.829  1.00  0.00     0.049 A 
ATOM     55  N   UNL A   1      43.973  28.340  28.322  1.00  0.00    -0.248 NA
ATOM     56  C   UNL A   1      44.030  26.102  27.659  1.00  0.00     0.031 C 
ATOM     57  C   UNL A   1      39.566  27.940  29.046  1.00  0.00     0.029 A 
ATOM     58  N   UNL A   1      41.320  29.328  29.126  1.00  0.00    -0.354 N 
ATOM     59  C   UNL A   1      45.267  28.001  27.945  1.00  0.00     0.074 A 
ATOM     60  C   UNL A   1      45.255  26.599  27.595  1.00  0.00     0.031 C 
ATOM     61  C   UNL A   1      39.116  29.145  29.438  1.00  0.00     0.029 A 
ATOM     62  C   UNL A   1      40.241  30.074  29.533  1.00  0.00     0.049 A 
ATOM     63  H   UNL A   1      42.231  29.695  29.053  1.00  0.00     0.167 HD
ATOM     64  C   UNL A   1      46.369  28.785  27.885  1.00  0.00     0.031 A 
ATOM     65  C   UNL A   1      40.176  31.356  29.945  1.00  0.00     0.031 A 
ATOM     66  C   UNL A   1      46.383  30.173  28.261  1.00  0.00     0.049 A 
ATOM     67  C   UNL A   1      41.433  32.188  29.967  1.00  0.00     0.074 A 
ATOM     68  C   UNL A   1      47.445  31.058  28.248  1.00  0.00     0.029 A 
ATOM     69  N   UNL A   1      45.281  30.873  28.731  1.00  0.00    -0.354 N 
ATOM     70  N   UNL A   1      42.651  31.857  29.606  1.00  0.00    -0.248 NA
ATOM     71  C   UNL A   1      41.301  33.573  30.441  1.00  0.00     0.031 C 
ATOM     72  C   UNL A   1      47.000  32.277  28.772  1.00  0.00     0.029 A 
ATOM     73  C   UNL A   1      45.643  32.174  29.035  1.00  0.00     0.049 A 
ATOM     74  H   UNL A   1      44.376  30.500  28.833  1.00  0.00     0.167 HD
ATOM     75  C   UNL A   1      43.421  33.005  29.769  1.00  0.00     0.074 A 
ATOM     76  C   UNL A   1      42.530  34.038  30.257  1.00  0.00     0.031 C 
ATOM     77  C   UNL A   1      44.743  33.192  29.524  1.00  0.00     0.031 A 
BRANCH  64  78
ATOM     78  C   UNL A   1      47.654  28.131  27.443  1.00  0.00    -0.014 A 
ATOM     79  C   UNL A   1      48.552  27.574  28.374  1.00  0.00     0.010 A 
ATOM     80  C   UNL A   1      47.976  28.087  26.075  1.00  0.00     0.010 A 
ATOM     81  C   UNL A   1      49.777  27.050  27.950  1.00  0.00     0.020 A 
ATOM     82  C   UNL A   1      49.182  27.529  25.644  1.00  0.00     0.020 A 
ATOM     83  C   UNL A   1      50.087  27.038  26.587  1.00  0.00     0.054 A 
BRANCH  83  84
ATOM     84  S   UNL A   1      51.689  26.368  26.065  1.00  0.00     0.124 S 
ATOM     85  O   UNL A   1      51.598  24.984  26.522  1.00  0.00    -0.237 OA
ATOM     86  O   UNL A   1      51.655  26.554  24.616  1.00  0.00    -0.237 OA
ATOM     87  O   UNL A   1      52.660  27.196  26.775  1.00  0.00    -0.744 OA
ENDBRANCH  83  84
ENDBRANCH  64  78
BRANCH  65  88
ATOM     88  C   UNL A   1      38.868  31.936  30.357  1.00  0.00    -0.014 A 
ATOM     89  C   UNL A   1      38.046  32.585  29.419  1.00  0.00     0.010 A 
ATOM     90  C   UNL A   1      38.427  31.825  31.689  1.00  0.00     0.010 A 
ATOM     91  C   UNL A   1      36.811  33.116  29.805  1.00  0.00     0.020 A 
ATOM     92  C   UNL A   1      37.180  32.329  32.072  1.00  0.00     0.020 A 
ATOM     93  C   UNL A   1      36.382  32.976  31.128  1.00  0.00     0.054 A 
BRANCH  93  94
ATOM     94  S   UNL A   1      34.742  33.604  31.584  1.00  0.00     0.124 S 
ATOM     95  O   UNL A   1      34.148  32.452  32.254  1.00  0.00    -0.237 OA
ATOM     96  O   UNL A   1      35.071  34.739  32.445  1.00  0.00    -0.237 OA
ATOM     97  O   UNL A   1      34.143  33.960  30.300  1.00  0.00    -0.744 OA
ENDBRANCH  93  94
ENDBRANCH  65  88
BRANCH  77  98
ATOM     98  C   UNL A   1      45.303  34.579  29.723  1.00  0.00    -0.014 A 
ATOM     99  C   UNL A   1      45.300  35.535  28.693  1.00  0.00     0.010 A 
ATOM    100  C   UNL A   1      45.796  34.943  30.991  1.00  0.00     0.010 A 
ATOM    101  C   UNL A   1      45.816  36.816  28.916  1.00  0.00     0.020 A 
ATOM    102  C   UNL A   1      46.281  36.231  31.228  1.00  0.00     0.020 A 
ATOM    103  C   UNL A   1      46.304  37.155  30.182  1.00  0.00     0.054 A 
BRANCH 103 104
ATOM    104  S   UNL A   1      46.938  38.832  30.454  1.00  0.00     0.124 S 
ATOM    105  O   UNL A   1      46.899  38.939  31.909  1.00  0.00    -0.237 OA
ATOM    106  O   UNL A   1      48.274  38.768  29.864  1.00  0.00    -0.237 OA
ATOM    107  O   UNL A   1      45.989  39.683  29.740  1.00  0.00    -0.744 OA
ENDBRANCH 103 104
ENDBRANCH  77  98
ENDBRANCH  51  52
ENDBRANCH  44  46
ENDBRANCH  43  44
ENDBRANCH  42  43
ENDBRANCH  41  42
ENDBRANCH  40  41
ENDBRANCH  39  40
ENDBRANCH  38  39
ENDBRANCH   1  38
TORSDOF 29
ENDMDL
MODEL 2
REMARK VINA RESULT:      -9.5      4.860      5.968
REMARK SMILES Cc1ccc(F)cc1S(=O)(=O)Nc1cc(C(=O)OCCOCCOCCOCCOC(=O)c2ccc(-c3c4nc(c(-c5ccc(S(=O)(=O)[O-])cc5)c5ccc([nH]5)c(-c5ccc(S(=O)(=O)[O-])cc5)c5nc(c(-c6ccc(S(=O)(=O)[O-])cc6)c6ccc3[nH]6)C=C5)C=C4)cc2)ccc1N(C)Cc1ccccc1
REMARK SMILES IDX 24 1 23 2 22 3 21 4 20 5 19 6 18 7 16 8 17 9 15 10 13 11
REMARK SMILES IDX 14 12 95 13 94 14 93 15 12 16 9 18 10 19 11 20 8 21 1 22
REMARK SMILES IDX 2 23 3 24 4 25 7 26 5 27 6 28 96 29 97 30 98 31 99 32 100 33
REMARK SMILES IDX 104 34 101 35 103 36 102 37 25 38 26 39 27 40 28 41 29 42
REMARK SMILES IDX 30 43 31 44 32 45 33 46 34 47 92 48 35 49 91 50 36 51 37 52
REMARK SMILES IDX 38 53 85 54 39 55 90 56 84 57 86 58 40 59 89 60 83 61 82 62
REMARK SMILES IDX 41 64 71 65 52 66 70 67 53 68 56 69 69 70 87 71 54 72 55 73
REMARK SMILES IDX 68 75 88 76 57 77 42 78 43 79 51 80 44 81 50 82 45 83 46 84
REMARK SMILES IDX 47 85 48 86 49 87 72 88 73 89 81 90 74 91 80 92 75 93 76 94
REMARK SMILES IDX 77 95 78 96 79 97 58 98 59 99 67 100 60 101 66 102 61 103
REMARK SMILES IDX 62 104 63 105 64 106 65 107
REMARK H PARENT 12 17 86 63 56 74
REMARK Flexibility Score: inf
ROOT
ATOM      1  O   UNL A   1      34.694  23.806  22.617  1.00  0.00    -0.377 OA
ENDROOT
BRANCH   1   2
ATOM      2  C   UNL A   1      33.488  24.538  22.577  1.00  0.00     0.188 C 
BRANCH   2   3
ATOM      3  C   UNL A   1      33.062  25.196  21.248  1.00  0.00     0.188 C 
BRANCH   3   4
ATOM      4  O   UNL A   1      32.448  26.463  21.320  1.00  0.00    -0.376 OA
BRANCH   4   5
ATOM      5  C   UNL A   1      33.151  27.583  21.835  1.00  0.00     0.202 C 
BRANCH   5   6
ATOM      6  C   UNL A   1      32.553  28.993  22.060  1.00  0.00     0.261 C 
BRANCH   6   7
ATOM      7  O   UNL A   1      31.600  29.161  23.135  1.00  0.00    -0.460 OA
BRANCH   7   8
ATOM      8  C   UNL A   1      30.407  28.565  22.909  1.00  0.00     0.338 C 
ATOM      9  O   UNL A   1      29.672  28.887  21.985  1.00  0.00    -0.246 OA
BRANCH   8  10
ATOM     10  C   UNL A   1      30.148  27.288  23.668  1.00  0.00     0.062 A 
ATOM     11  C   UNL A   1      30.759  26.129  25.752  1.00  0.00     0.073 A 
ATOM     12  C   UNL A   1      30.496  27.315  25.019  1.00  0.00     0.044 A 
ATOM     13  C   UNL A   1      30.483  24.840  25.280  1.00  0.00     0.061 A 
ATOM     14  C   UNL A   1      29.940  24.865  23.950  1.00  0.00     0.029 A 
ATOM     15  C   UNL A   1      29.816  26.051  23.137  1.00  0.00     0.018 A 
BRANCH  11  16
ATOM     16  N   UNL A   1      31.769  26.261  26.754  1.00  0.00    -0.277 N 
ATOM     17  H   UNL A   1      31.619  26.158  27.722  1.00  0.00     0.180 HD
BRANCH  16  18
ATOM     18  S   UNL A   1      33.298  26.631  26.014  1.00  0.00     0.262 S 
ATOM     19  O   UNL A   1      33.096  26.732  24.598  1.00  0.00    -0.201 OA
ATOM     20  O   UNL A   1      34.172  25.554  26.452  1.00  0.00    -0.201 OA
BRANCH  18  21
ATOM     21  C   UNL A   1      33.907  28.246  26.653  1.00  0.00     0.093 A 
ATOM     22  C   UNL A   1      31.674  29.458  26.638  1.00  0.00     0.046 C 
ATOM     23  C   UNL A   1      33.108  29.331  27.000  1.00  0.00    -0.030 A 
ATOM     24  C   UNL A   1      33.667  30.440  27.693  1.00  0.00     0.008 A 
ATOM     25  C   UNL A   1      35.019  30.521  28.001  1.00  0.00     0.039 A 
ATOM     26  C   UNL A   1      35.268  28.440  26.871  1.00  0.00     0.061 A 
ATOM     27  C   UNL A   1      35.829  29.522  27.541  1.00  0.00     0.124 A 
ATOM     28  F   UNL A   1      37.158  29.588  27.709  1.00  0.00    -0.207 F 
ENDBRANCH  18  21
ENDBRANCH  16  18
ENDBRANCH  11  16
BRANCH  13  29
ATOM     29  N   UNL A   1      30.885  23.655  25.972  1.00  0.00    -0.369 N 
ATOM     30  C   UNL A   1      30.098  23.361  27.182  1.00  0.00     0.144 C 
BRANCH  29  31
ATOM     31  C   UNL A   1      32.251  22.899  25.931  1.00  0.00     0.151 C 
BRANCH  31  32
ATOM     32  C   UNL A   1      32.592  21.495  25.275  1.00  0.00    -0.029 A 
ATOM     33  C   UNL A   1      33.308  20.380  25.776  1.00  0.00     0.005 A 
ATOM     34  C   UNL A   1      32.258  21.350  23.909  1.00  0.00     0.005 A 
ATOM     35  C   UNL A   1      33.304  19.114  25.137  1.00  0.00     0.000 A 
ATOM     36  C   UNL A   1      32.358  20.124  23.215  1.00  0.00     0.000 A 
ATOM     37  C   UNL A   1      32.783  18.976  23.864  1.00  0.00     0.000 A 
ENDBRANCH  31  32
ENDBRANCH  29  31
ENDBRANCH  13  29
ENDBRANCH   8  10
ENDBRANCH   7   8
ENDBRANCH   6   7
ENDBRANCH   5   6
ENDBRANCH   4   5
ENDBRANCH   3   4
ENDBRANCH   2   3
ENDBRANCH   1   2
BRANCH   1  38
ATOM     38  C   UNL A   1      35.367  23.634  23.853  1.00  0.00     0.188 C 
BRANCH  38  39
ATOM     39  C   UNL A   1      36.698  22.854  23.954  1.00  0.00     0.188 C 
BRANCH  39  40
ATOM     40  O   UNL A   1      37.164  22.580  25.265  1.00  0.00    -0.376 OA
BRANCH  40  41
ATOM     41  C   UNL A   1      37.832  23.608  25.981  1.00  0.00     0.202 C 
BRANCH  41  42
ATOM     42  C   UNL A   1      39.259  23.342  26.496  1.00  0.00     0.261 C 
BRANCH  42  43
ATOM     43  O   UNL A   1      39.742  24.228  27.511  1.00  0.00    -0.460 OA
BRANCH  43  44
ATOM     44  C   UNL A   1      40.266  25.401  27.088  1.00  0.00     0.338 C 
ATOM     45  O   UNL A   1      40.750  25.636  26.000  1.00  0.00    -0.246 OA
BRANCH  44  46
ATOM     46  C   UNL A   1      39.962  26.423  28.112  1.00  0.00     0.060 A 
ATOM     47  C   UNL A   1      40.552  27.688  27.991  1.00  0.00     0.016 A 
ATOM     48  C   UNL A   1      39.098  26.139  29.172  1.00  0.00     0.016 A 
ATOM     49  C   UNL A   1      40.329  28.657  28.966  1.00  0.00     0.010 A 
ATOM     50  C   UNL A   1      38.896  27.100  30.164  1.00  0.00     0.010 A 
ATOM     51  C   UNL A   1      39.555  28.341  30.090  1.00  0.00    -0.014 A 
BRANCH  51  52
ATOM     52  C   UNL A   1      39.678  29.186  31.300  1.00  0.00     0.031 A 
ATOM     53  C   UNL A   1      40.871  28.958  32.191  1.00  0.00     0.074 A 
ATOM     54  C   UNL A   1      38.798  30.163  31.578  1.00  0.00     0.049 A 
ATOM     55  N   UNL A   1      41.208  29.558  33.301  1.00  0.00    -0.248 NA
ATOM     56  C   UNL A   1      41.809  27.904  31.766  1.00  0.00     0.031 C 
ATOM     57  C   UNL A   1      37.644  30.526  30.758  1.00  0.00     0.029 A 
ATOM     58  N   UNL A   1      38.752  31.036  32.635  1.00  0.00    -0.354 N 
ATOM     59  C   UNL A   1      42.390  28.952  33.710  1.00  0.00     0.074 A 
ATOM     60  C   UNL A   1      42.686  27.908  32.756  1.00  0.00     0.031 C 
ATOM     61  C   UNL A   1      37.004  31.553  31.344  1.00  0.00     0.029 A 
ATOM     62  C   UNL A   1      37.682  31.896  32.594  1.00  0.00     0.049 A 
ATOM     63  H   UNL A   1      39.422  31.046  33.356  1.00  0.00     0.167 HD
ATOM     64  C   UNL A   1      43.169  29.242  34.780  1.00  0.00     0.031 A 
ATOM     65  C   UNL A   1      37.292  32.842  33.471  1.00  0.00     0.031 A 
ATOM     66  C   UNL A   1      42.855  30.262  35.742  1.00  0.00     0.049 A 
ATOM     67  C   UNL A   1      38.118  33.083  34.709  1.00  0.00     0.074 A 
ATOM     68  C   UNL A   1      43.568  30.633  36.868  1.00  0.00     0.029 A 
ATOM     69  N   UNL A   1      41.726  31.068  35.698  1.00  0.00    -0.354 N 
ATOM     70  N   UNL A   1      39.235  32.506  35.085  1.00  0.00    -0.248 NA
ATOM     71  C   UNL A   1      37.633  34.116  35.636  1.00  0.00     0.031 C 
ATOM     72  C   UNL A   1      42.837  31.619  37.539  1.00  0.00     0.029 A 
ATOM     73  C   UNL A   1      41.710  31.918  36.790  1.00  0.00     0.049 A 
ATOM     74  H   UNL A   1      41.039  31.039  34.994  1.00  0.00     0.167 HD
ATOM     75  C   UNL A   1      39.609  33.135  36.269  1.00  0.00     0.074 A 
ATOM     76  C   UNL A   1      38.600  34.138  36.543  1.00  0.00     0.031 C 
ATOM     77  C   UNL A   1      40.696  32.912  37.051  1.00  0.00     0.031 A 
BRANCH  64  78
ATOM     78  C   UNL A   1      44.402  28.397  34.978  1.00  0.00    -0.014 A 
ATOM     79  C   UNL A   1      44.356  27.186  35.694  1.00  0.00     0.010 A 
ATOM     80  C   UNL A   1      45.633  28.833  34.455  1.00  0.00     0.010 A 
ATOM     81  C   UNL A   1      45.527  26.463  35.940  1.00  0.00     0.020 A 
ATOM     82  C   UNL A   1      46.800  28.094  34.666  1.00  0.00     0.020 A 
ATOM     83  C   UNL A   1      46.743  26.926  35.431  1.00  0.00     0.054 A 
BRANCH  83  84
ATOM     84  S   UNL A   1      48.250  25.980  35.779  1.00  0.00     0.124 S 
ATOM     85  O   UNL A   1      47.783  24.605  35.622  1.00  0.00    -0.237 OA
ATOM     86  O   UNL A   1      49.169  26.452  34.746  1.00  0.00    -0.237 OA
ATOM     87  O   UNL A   1      48.597  26.368  37.143  1.00  0.00    -0.744 OA
ENDBRANCH  83  84
ENDBRANCH  64  78
BRANCH  65  88
ATOM     88  C   UNL A   1      36.066  33.643  33.201  1.00  0.00    -0.014 A 
ATOM     89  C   UNL A   1      36.162  34.939  32.664  1.00  0.00     0.010 A 
ATOM     90  C   UNL A   1      34.792  33.106  33.462  1.00  0.00     0.010 A 
ATOM     91  C   UNL A   1      35.009  35.683  32.398  1.00  0.00     0.020 A 
ATOM     92  C   UNL A   1      33.636  33.835  33.170  1.00  0.00     0.020 A 
ATOM     93  C   UNL A   1      33.752  35.122  32.644  1.00  0.00     0.054 A 
BRANCH  93  94
ATOM     94  S   UNL A   1      32.272  36.079  32.216  1.00  0.00     0.124 S 
ATOM     95  O   UNL A   1      32.439  36.275  30.780  1.00  0.00    -0.237 OA
ATOM     96  O   UNL A   1      31.192  35.178  32.612  1.00  0.00    -0.237 OA
ATOM     97  O   UNL A   1      32.396  37.285  33.032  1.00  0.00    -0.744 OA
ENDBRANCH  93  94
ENDBRANCH  65  88
BRANCH  77  98
ATOM     98  C   UNL A   1      40.889  33.805  38.252  1.00  0.00    -0.014 A 
ATOM     99  C   UNL A   1      40.758  33.321  39.565  1.00  0.00     0.010 A 
ATOM    100  C   UNL A   1      41.261  35.149  38.054  1.00  0.00     0.010 A 
ATOM    101  C   UNL A   1      40.955  34.174  40.656  1.00  0.00     0.020 A 
ATOM    102  C   UNL A   1      41.492  35.995  39.140  1.00  0.00     0.020 A 
ATOM    103  C   UNL A   1      41.321  35.506  40.436  1.00  0.00     0.054 A 
BRANCH 103 104
ATOM    104  S   UNL A   1      41.603  36.583  41.868  1.00  0.00     0.124 S 
ATOM    105  O   UNL A   1      40.243  36.975  42.225  1.00  0.00    -0.237 OA
ATOM    106  O   UNL A   1      42.268  35.689  42.814  1.00  0.00    -0.237 OA
ATOM    107  O   UNL A   1      42.441  37.655  41.337  1.00  0.00    -0.744 OA
ENDBRANCH 103 104
ENDBRANCH  77  98
ENDBRANCH  51  52
ENDBRANCH  44  46
ENDBRANCH  43  44
ENDBRANCH  42  43
ENDBRANCH  41  42
ENDBRANCH  40  41
ENDBRANCH  39  40
ENDBRANCH  38  39
ENDBRANCH   1  38
TORSDOF 29
ENDMDL
MODEL 3
REMARK VINA RESULT:      -8.4      5.330      9.430
REMARK SMILES Cc1ccc(F)cc1S(=O)(=O)Nc1cc(C(=O)OCCOCCOCCOCCOC(=O)c2ccc(-c3c4nc(c(-c5ccc(S(=O)(=O)[O-])cc5)c5ccc([nH]5)c(-c5ccc(S(=O)(=O)[O-])cc5)c5nc(c(-c6ccc(S(=O)(=O)[O-])cc6)c6ccc3[nH]6)C=C5)C=C4)cc2)ccc1N(C)Cc1ccccc1
REMARK SMILES IDX 24 1 23 2 22 3 21 4 20 5 19 6 18 7 16 8 17 9 15 10 13 11
REMARK SMILES IDX 14 12 95 13 94 14 93 15 12 16 9 18 10 19 11 20 8 21 1 22
REMARK SMILES IDX 2 23 3 24 4 25 7 26 5 27 6 28 96 29 97 30 98 31 99 32 100 33
REMARK SMILES IDX 104 34 101 35 103 36 102 37 25 38 26 39 27 40 28 41 29 42
REMARK SMILES IDX 30 43 31 44 32 45 33 46 34 47 92 48 35 49 91 50 36 51 37 52
REMARK SMILES IDX 38 53 85 54 39 55 90 56 84 57 86 58 40 59 89 60 83 61 82 62
REMARK SMILES IDX 41 64 71 65 52 66 70 67 53 68 56 69 69 70 87 71 54 72 55 73
REMARK SMILES IDX 68 75 88 76 57 77 42 78 43 79 51 80 44 81 50 82 45 83 46 84
REMARK SMILES IDX 47 85 48 86 49 87 72 88 73 89 81 90 74 91 80 92 75 93 76 94
REMARK SMILES IDX 77 95 78 96 79 97 58 98 59 99 67 100 60 101 66 102 61 103
REMARK SMILES IDX 62 104 63 105 64 106 65 107
REMARK H PARENT 12 17 86 63 56 74
REMARK Flexibility Score: inf
ROOT
ATOM      1  O   UNL A   1      32.962  24.154  26.212  1.00  0.00    -0.377 OA
ENDROOT
BRANCH   1   2
ATOM      2  C   UNL A   1      32.953  25.327  25.427  1.00  0.00     0.188 C 
BRANCH   2   3
ATOM      3  C   UNL A   1      31.702  26.229  25.454  1.00  0.00     0.188 C 
BRANCH   3   4
ATOM      4  O   UNL A   1      31.904  27.611  25.647  1.00  0.00    -0.376 OA
BRANCH   4   5
ATOM      5  C   UNL A   1      33.094  28.241  25.200  1.00  0.00     0.202 C 
BRANCH   5   6
ATOM      6  C   UNL A   1      34.369  28.458  26.050  1.00  0.00     0.261 C 
BRANCH   6   7
ATOM      7  O   UNL A   1      34.784  29.819  26.312  1.00  0.00    -0.460 OA
BRANCH   7   8
ATOM      8  C   UNL A   1      34.448  30.268  27.543  1.00  0.00     0.338 C 
ATOM      9  O   UNL A   1      33.288  30.465  27.882  1.00  0.00    -0.246 OA
BRANCH   8  10
ATOM     10  C   UNL A   1      35.541  30.239  28.582  1.00  0.00     0.062 A 
ATOM     11  C   UNL A   1      36.813  31.723  30.078  1.00  0.00     0.073 A 
ATOM     12  C   UNL A   1      35.620  31.370  29.395  1.00  0.00     0.044 A 
ATOM     13  C   UNL A   1      37.927  30.882  30.192  1.00  0.00     0.061 A 
ATOM     14  C   UNL A   1      37.730  29.639  29.499  1.00  0.00     0.029 A 
ATOM     15  C   UNL A   1      36.587  29.335  28.672  1.00  0.00     0.018 A 
BRANCH  11  16
ATOM     16  N   UNL A   1      37.034  33.128  30.203  1.00  0.00    -0.277 N 
ATOM     17  H   UNL A   1      37.394  33.707  29.492  1.00  0.00     0.180 HD
BRANCH  16  18
ATOM     18  S   UNL A   1      36.572  33.666  31.790  1.00  0.00     0.262 S 
ATOM     19  O   UNL A   1      37.597  34.541  32.280  1.00  0.00    -0.201 OA
ATOM     20  O   UNL A   1      36.382  32.434  32.540  1.00  0.00    -0.201 OA
BRANCH  18  21
ATOM     21  C   UNL A   1      34.987  34.595  31.680  1.00  0.00     0.093 A 
ATOM     22  C   UNL A   1      34.791  35.183  34.144  1.00  0.00     0.046 C 
ATOM     23  C   UNL A   1      34.393  35.304  32.720  1.00  0.00    -0.030 A 
ATOM     24  C   UNL A   1      33.292  36.167  32.460  1.00  0.00     0.008 A 
ATOM     25  C   UNL A   1      32.730  36.300  31.196  1.00  0.00     0.039 A 
ATOM     26  C   UNL A   1      34.305  34.668  30.469  1.00  0.00     0.061 A 
ATOM     27  C   UNL A   1      33.224  35.501  30.203  1.00  0.00     0.124 A 
ATOM     28  F   UNL A   1      32.661  35.498  28.987  1.00  0.00    -0.207 F 
ENDBRANCH  18  21
ENDBRANCH  16  18
ENDBRANCH  11  16
BRANCH  13  29
ATOM     29  N   UNL A   1      39.169  31.307  30.760  1.00  0.00    -0.369 N 
ATOM     30  C   UNL A   1      40.165  31.760  29.774  1.00  0.00     0.144 C 
BRANCH  29  31
ATOM     31  C   UNL A   1      39.794  30.958  32.147  1.00  0.00     0.151 C 
BRANCH  31  32
ATOM     32  C   UNL A   1      41.172  30.236  32.465  1.00  0.00    -0.029 A 
ATOM     33  C   UNL A   1      42.450  30.761  32.780  1.00  0.00     0.005 A 
ATOM     34  C   UNL A   1      41.197  28.836  32.277  1.00  0.00     0.005 A 
ATOM     35  C   UNL A   1      43.509  29.959  33.275  1.00  0.00     0.000 A 
ATOM     36  C   UNL A   1      42.291  28.025  32.652  1.00  0.00     0.000 A 
ATOM     37  C   UNL A   1      43.410  28.580  33.252  1.00  0.00     0.000 A 
ENDBRANCH  31  32
ENDBRANCH  29  31
ENDBRANCH  13  29
ENDBRANCH   8  10
ENDBRANCH   7   8
ENDBRANCH   6   7
ENDBRANCH   5   6
ENDBRANCH   4   5
ENDBRANCH   3   4
ENDBRANCH   2   3
ENDBRANCH   1   2
BRANCH   1  38
ATOM     38  C   UNL A   1      34.197  23.622  26.662  1.00  0.00     0.188 C 
BRANCH  38  39
ATOM     39  C   UNL A   1      35.101  22.770  25.740  1.00  0.00     0.188 C 
BRANCH  39  40
ATOM     40  O   UNL A   1      36.238  23.425  25.202  1.00  0.00    -0.376 OA
BRANCH  40  41
ATOM     41  C   UNL A   1      37.267  22.638  24.621  1.00  0.00     0.202 C 
BRANCH  41  42
ATOM     42  C   UNL A   1      38.179  21.816  25.550  1.00  0.00     0.261 C 
BRANCH  42  43
ATOM     43  O   UNL A   1      39.049  22.563  26.407  1.00  0.00    -0.460 OA
BRANCH  43  44
ATOM     44  C   UNL A   1      40.160  21.927  26.842  1.00  0.00     0.338 C 
ATOM     45  O   UNL A   1      40.463  20.768  26.646  1.00  0.00    -0.246 OA
BRANCH  44  46
ATOM     46  C   UNL A   1      41.059  22.944  27.429  1.00  0.00     0.060 A 
ATOM     47  C   UNL A   1      42.444  22.743  27.342  1.00  0.00     0.016 A 
ATOM     48  C   UNL A   1      40.542  24.083  28.048  1.00  0.00     0.016 A 
ATOM     49  C   UNL A   1      43.317  23.654  27.930  1.00  0.00     0.010 A 
ATOM     50  C   UNL A   1      41.416  24.982  28.662  1.00  0.00     0.010 A 
ATOM     51  C   UNL A   1      42.802  24.740  28.651  1.00  0.00    -0.014 A 
BRANCH  51  52
ATOM     52  C   UNL A   1      43.682  25.434  29.618  1.00  0.00     0.031 A 
ATOM     53  C   UNL A   1      44.047  26.866  29.325  1.00  0.00     0.074 A 
ATOM     54  C   UNL A   1      44.102  24.843  30.749  1.00  0.00     0.049 A 
ATOM     55  N   UNL A   1      44.798  27.690  30.005  1.00  0.00    -0.248 NA
ATOM     56  C   UNL A   1      43.486  27.441  28.090  1.00  0.00     0.031 C 
ATOM     57  C   UNL A   1      43.761  23.488  31.178  1.00  0.00     0.029 A 
ATOM     58  N   UNL A   1      44.909  25.323  31.750  1.00  0.00    -0.354 N 
ATOM     59  C   UNL A   1      44.806  28.876  29.279  1.00  0.00     0.074 A 
ATOM     60  C   UNL A   1      44.024  28.650  28.086  1.00  0.00     0.031 C 
ATOM     61  C   UNL A   1      44.352  23.247  32.361  1.00  0.00     0.029 A 
ATOM     62  C   UNL A   1      45.140  24.415  32.755  1.00  0.00     0.049 A 
ATOM     63  H   UNL A   1      45.286  26.232  31.749  1.00  0.00     0.167 HD
ATOM     64  C   UNL A   1      45.401  30.054  29.582  1.00  0.00     0.031 A 
ATOM     65  C   UNL A   1      45.908  24.516  33.857  1.00  0.00     0.031 A 
ATOM     66  C   UNL A   1      46.201  30.266  30.756  1.00  0.00     0.049 A 
ATOM     67  C   UNL A   1      46.645  25.803  34.127  1.00  0.00     0.074 A 
ATOM     68  C   UNL A   1      46.858  31.415  31.156  1.00  0.00     0.029 A 
ATOM     69  N   UNL A   1      46.464  29.299  31.717  1.00  0.00    -0.354 N 
ATOM     70  N   UNL A   1      46.643  26.919  33.435  1.00  0.00    -0.248 NA
ATOM     71  C   UNL A   1      47.480  25.847  35.336  1.00  0.00     0.031 C 
ATOM     72  C   UNL A   1      47.571  31.125  32.324  1.00  0.00     0.029 A 
ATOM     73  C   UNL A   1      47.293  29.819  32.696  1.00  0.00     0.049 A 
ATOM     74  H   UNL A   1      46.112  28.380  31.704  1.00  0.00     0.167 HD
ATOM     75  C   UNL A   1      47.440  27.810  34.148  1.00  0.00     0.074 A 
ATOM     76  C   UNL A   1      47.904  27.103  35.325  1.00  0.00     0.031 C 
ATOM     77  C   UNL A   1      47.750  29.100  33.862  1.00  0.00     0.031 A 
BRANCH  64  78
ATOM     78  C   UNL A   1      45.242  31.177  28.587  1.00  0.00    -0.014 A 
ATOM     79  C   UNL A   1      46.089  31.292  27.468  1.00  0.00     0.010 A 
ATOM     80  C   UNL A   1      44.241  32.143  28.786  1.00  0.00     0.010 A 
ATOM     81  C   UNL A   1      45.980  32.388  26.607  1.00  0.00     0.020 A 
ATOM     82  C   UNL A   1      44.104  33.221  27.907  1.00  0.00     0.020 A 
ATOM     83  C   UNL A   1      44.992  33.350  26.837  1.00  0.00     0.054 A 
BRANCH  83  84
ATOM     84  S   UNL A   1      44.883  34.770  25.716  1.00  0.00     0.124 S 
ATOM     85  O   UNL A   1      43.514  35.227  25.943  1.00  0.00    -0.237 OA
ATOM     86  O   UNL A   1      45.931  35.655  26.220  1.00  0.00    -0.237 OA
ATOM     87  O   UNL A   1      45.137  34.194  24.399  1.00  0.00    -0.744 OA
ENDBRANCH  83  84
ENDBRANCH  64  78
BRANCH  65  88
ATOM     88  C   UNL A   1      46.007  23.366  34.798  1.00  0.00    -0.014 A 
ATOM     89  C   UNL A   1      46.506  22.126  34.363  1.00  0.00     0.010 A 
ATOM     90  C   UNL A   1      45.619  23.511  36.144  1.00  0.00     0.010 A 
ATOM     91  C   UNL A   1      46.612  21.052  35.252  1.00  0.00     0.020 A 
ATOM     92  C   UNL A   1      45.750  22.448  37.042  1.00  0.00     0.020 A 
ATOM     93  C   UNL A   1      46.242  21.224  36.589  1.00  0.00     0.054 A 
BRANCH  93  94
ATOM     94  S   UNL A   1      46.462  19.837  37.739  1.00  0.00     0.124 S 
ATOM     95  O   UNL A   1      47.916  19.730  37.813  1.00  0.00    -0.237 OA
ATOM     96  O   UNL A   1      45.800  20.325  38.947  1.00  0.00    -0.237 OA
ATOM     97  O   UNL A   1      45.785  18.728  37.072  1.00  0.00    -0.744 OA
ENDBRANCH  93  94
ENDBRANCH  65  88
BRANCH  77  98
ATOM     98  C   UNL A   1      48.585  29.858  34.864  1.00  0.00    -0.014 A 
ATOM     99  C   UNL A   1      48.003  30.623  35.888  1.00  0.00     0.010 A 
ATOM    100  C   UNL A   1      49.989  29.756  34.803  1.00  0.00     0.010 A 
ATOM    101  C   UNL A   1      48.807  31.305  36.808  1.00  0.00     0.020 A 
ATOM    102  C   UNL A   1      50.795  30.406  35.739  1.00  0.00     0.020 A 
ATOM    103  C   UNL A   1      50.199  31.192  36.726  1.00  0.00     0.054 A 
BRANCH 103 104
ATOM    104  S   UNL A   1      51.220  32.058  37.950  1.00  0.00     0.124 S 
ATOM    105  O   UNL A   1      52.532  32.050  37.311  1.00  0.00    -0.237 OA
ATOM    106  O   UNL A   1      50.571  33.366  38.038  1.00  0.00    -0.237 OA
ATOM    107  O   UNL A   1      51.104  31.231  39.148  1.00  0.00    -0.744 OA
ENDBRANCH 103 104
ENDBRANCH  77  98
ENDBRANCH  51  52
ENDBRANCH  44  46
ENDBRANCH  43  44
ENDBRANCH  42  43
ENDBRANCH  41  42
ENDBRANCH  40  41
ENDBRANCH  39  40
ENDBRANCH  38  39
ENDBRANCH   1  38
TORSDOF 29
ENDMDL
