MODEL 1
REMARK VINA RESULT:      -9.4      0.000      0.000
REMARK SMILES O=C(CC1(NC(=O)c2ccccc2[N+](=O)[O-])CCC1)OCCOCCOCCOCCOC(=O)c1ccc(-c2c3nc(c(-c4ccc(S(=O)(=O)[O-])cc4)c4ccc([nH]4)c(-c4ccc(S(=O)(=O)[O-])cc4)c4nc(c(-c5ccc(S(=O)(=O)[O-])cc5)c5ccc2[nH]5)C=C4)C=C3)cc1
REMARK SMILES IDX 25 1 24 2 23 3 22 4 21 5 20 6 2 7 1 8 3 9 4 10 17 11 19 12
REMARK SMILES IDX 18 13 5 14 6 15 7 17 8 18 9 19 13 20 10 21 12 22 11 23 14 24
REMARK SMILES IDX 15 25 16 26 26 27 27 28 28 29 29 30 30 31 31 32 32 33 33 34
REMARK SMILES IDX 34 35 35 36 36 37 94 38 37 39 93 40 38 41 39 42 40 43 87 44
REMARK SMILES IDX 41 45 92 46 86 47 88 48 42 49 91 50 85 51 84 52 43 54 73 55
REMARK SMILES IDX 54 56 72 57 55 58 58 59 71 60 89 61 56 62 57 63 70 65 90 66
REMARK SMILES IDX 59 67 44 68 45 69 53 70 46 71 52 72 47 73 48 74 49 75 50 76
REMARK SMILES IDX 51 77 74 78 75 79 83 80 76 81 82 82 77 83 78 84 79 85 80 86
REMARK SMILES IDX 81 87 60 88 61 89 69 90 62 91 68 92 63 93 64 94 65 95 66 96
REMARK SMILES IDX 67 97
REMARK H PARENT 5 16 88 53 58 64
REMARK Flexibility Score: inf
ROOT
ATOM      1  C   UNL A   1      31.441  32.873  26.527  1.00  0.00     0.188 C 
ENDROOT
BRANCH   1   2
ATOM      2  C   UNL A   1      31.778  31.428  26.900  1.00  0.00     0.188 C 
BRANCH   2   3
ATOM      3  O   UNL A   1      32.097  30.575  25.804  1.00  0.00    -0.376 OA
BRANCH   3   4
ATOM      4  C   UNL A   1      31.664  29.223  25.834  1.00  0.00     0.202 C 
BRANCH   4   5
ATOM      5  C   UNL A   1      31.527  28.522  24.485  1.00  0.00     0.261 C 
BRANCH   5   6
ATOM      6  O   UNL A   1      32.761  28.250  23.806  1.00  0.00    -0.463 OA
BRANCH   6   7
ATOM      7  C   UNL A   1      33.162  26.982  23.599  1.00  0.00     0.308 C 
ATOM      8  O   UNL A   1      33.689  26.611  22.555  1.00  0.00    -0.252 OA
BRANCH   7   9
ATOM      9  C   UNL A   1      32.924  26.049  24.762  1.00  0.00     0.151 C 
BRANCH   9  10
ATOM     10  C   UNL A   1      32.234  24.693  24.548  1.00  0.00     0.051 C 
ATOM     11  C   UNL A   1      32.486  23.650  25.688  1.00  0.00     0.029 C 
ATOM     12  C   UNL A   1      30.709  24.598  24.938  1.00  0.00     0.029 C 
ATOM     13  C   UNL A   1      30.984  23.383  25.805  1.00  0.00     0.005 C 
BRANCH  10  14
ATOM     14  N   UNL A   1      32.490  24.044  23.216  1.00  0.00    -0.346 N 
ATOM     15  C   UNL A   1      33.001  22.834  22.788  1.00  0.00     0.258 C 
ATOM     16  H   UNL A   1      32.232  24.625  22.463  1.00  0.00     0.164 HD
ATOM     17  O   UNL A   1      32.970  22.575  21.585  1.00  0.00    -0.269 OA
BRANCH  15  18
ATOM     18  C   UNL A   1      33.703  21.894  23.677  1.00  0.00     0.117 A 
ATOM     19  C   UNL A   1      32.938  20.826  24.147  1.00  0.00     0.021 A 
ATOM     20  C   UNL A   1      35.034  21.959  24.071  1.00  0.00     0.282 A 
ATOM     21  C   UNL A   1      33.517  19.799  24.900  1.00  0.00     0.001 A 
ATOM     22  C   UNL A   1      35.630  20.922  24.818  1.00  0.00     0.086 A 
ATOM     23  C   UNL A   1      34.867  19.829  25.214  1.00  0.00     0.007 A 
BRANCH  20  24
ATOM     24  N   UNL A   1      35.841  23.114  23.758  1.00  0.00     0.063 N 
ATOM     25  O   UNL A   1      35.786  24.068  24.547  1.00  0.00    -0.258 OA
ATOM     26  O   UNL A   1      36.498  23.095  22.711  1.00  0.00    -0.258 OA
ENDBRANCH  20  24
ENDBRANCH  15  18
ENDBRANCH  10  14
ENDBRANCH   9  10
ENDBRANCH   7   9
ENDBRANCH   6   7
ENDBRANCH   5   6
ENDBRANCH   4   5
ENDBRANCH   3   4
ENDBRANCH   2   3
ENDBRANCH   1   2
BRANCH   1  27
ATOM     27  O   UNL A   1      32.138  33.840  27.299  1.00  0.00    -0.377 OA
BRANCH  27  28
ATOM     28  C   UNL A   1      33.364  33.348  27.831  1.00  0.00     0.188 C 
BRANCH  28  29
ATOM     29  C   UNL A   1      33.999  34.319  28.841  1.00  0.00     0.188 C 
BRANCH  29  30
ATOM     30  O   UNL A   1      35.088  33.774  29.573  1.00  0.00    -0.376 OA
BRANCH  30  31
ATOM     31  C   UNL A   1      34.970  32.414  29.975  1.00  0.00     0.202 C 
BRANCH  31  32
ATOM     32  C   UNL A   1      36.204  31.811  30.661  1.00  0.00     0.261 C 
BRANCH  32  33
ATOM     33  O   UNL A   1      36.289  30.377  30.611  1.00  0.00    -0.460 OA
BRANCH  33  34
ATOM     34  C   UNL A   1      36.418  29.796  29.397  1.00  0.00     0.338 C 
ATOM     35  O   UNL A   1      35.572  29.690  28.528  1.00  0.00    -0.246 OA
BRANCH  34  36
ATOM     36  C   UNL A   1      37.859  29.540  29.215  1.00  0.00     0.060 A 
ATOM     37  C   UNL A   1      38.383  29.554  27.914  1.00  0.00     0.016 A 
ATOM     38  C   UNL A   1      38.697  29.397  30.322  1.00  0.00     0.016 A 
ATOM     39  C   UNL A   1      39.757  29.439  27.717  1.00  0.00     0.010 A 
ATOM     40  C   UNL A   1      40.066  29.225  30.121  1.00  0.00     0.010 A 
ATOM     41  C   UNL A   1      40.595  29.228  28.819  1.00  0.00    -0.014 A 
BRANCH  41  42
ATOM     42  C   UNL A   1      41.972  28.741  28.598  1.00  0.00     0.031 A 
ATOM     43  C   UNL A   1      43.067  29.769  28.591  1.00  0.00     0.074 A 
ATOM     44  C   UNL A   1      42.238  27.439  28.389  1.00  0.00     0.049 A 
ATOM     45  N   UNL A   1      44.334  29.626  28.315  1.00  0.00    -0.248 NA
ATOM     46  C   UNL A   1      42.677  31.149  28.941  1.00  0.00     0.031 C 
ATOM     47  C   UNL A   1      41.261  26.352  28.434  1.00  0.00     0.029 A 
ATOM     48  N   UNL A   1      43.421  26.818  28.078  1.00  0.00    -0.354 N 
ATOM     49  C   UNL A   1      44.888  30.893  28.443  1.00  0.00     0.074 A 
ATOM     50  C   UNL A   1      43.825  31.795  28.818  1.00  0.00     0.031 C 
ATOM     51  C   UNL A   1      41.882  25.197  28.128  1.00  0.00     0.029 A 
ATOM     52  C   UNL A   1      43.287  25.473  27.827  1.00  0.00     0.049 A 
ATOM     53  H   UNL A   1      44.284  27.290  28.040  1.00  0.00     0.167 HD
ATOM     54  C   UNL A   1      46.171  31.271  28.253  1.00  0.00     0.031 A 
ATOM     55  C   UNL A   1      44.189  24.584  27.363  1.00  0.00     0.031 A 
ATOM     56  C   UNL A   1      47.215  30.372  27.855  1.00  0.00     0.049 A 
ATOM     57  C   UNL A   1      45.593  25.055  27.066  1.00  0.00     0.074 A 
ATOM     58  C   UNL A   1      48.554  30.650  27.652  1.00  0.00     0.029 A 
ATOM     59  N   UNL A   1      47.035  29.026  27.580  1.00  0.00    -0.354 N 
ATOM     60  N   UNL A   1      46.117  26.246  27.236  1.00  0.00    -0.248 NA
ATOM     61  C   UNL A   1      46.524  24.063  26.510  1.00  0.00     0.031 C 
ATOM     62  C   UNL A   1      49.171  29.487  27.185  1.00  0.00     0.029 A 
ATOM     63  C   UNL A   1      48.230  28.468  27.164  1.00  0.00     0.049 A 
ATOM     64  H   UNL A   1      46.183  28.539  27.667  1.00  0.00     0.167 HD
ATOM     65  C   UNL A   1      47.443  26.140  26.826  1.00  0.00     0.074 A 
ATOM     66  C   UNL A   1      47.647  24.763  26.426  1.00  0.00     0.031 C 
ATOM     67  C   UNL A   1      48.406  27.093  26.776  1.00  0.00     0.031 A 
BRANCH  54  68
ATOM     68  C   UNL A   1      46.506  32.726  28.421  1.00  0.00    -0.014 A 
ATOM     69  C   UNL A   1      46.383  33.632  27.354  1.00  0.00     0.010 A 
ATOM     70  C   UNL A   1      46.885  33.202  29.689  1.00  0.00     0.010 A 
ATOM     71  C   UNL A   1      46.635  34.991  27.553  1.00  0.00     0.020 A 
ATOM     72  C   UNL A   1      47.113  34.563  29.898  1.00  0.00     0.020 A 
ATOM     73  C   UNL A   1      46.988  35.450  28.827  1.00  0.00     0.054 A 
BRANCH  73  74
ATOM     74  S   UNL A   1      47.229  37.231  29.073  1.00  0.00     0.124 S 
ATOM     75  O   UNL A   1      48.672  37.367  28.895  1.00  0.00    -0.237 OA
ATOM     76  O   UNL A   1      46.407  37.810  28.014  1.00  0.00    -0.237 OA
ATOM     77  O   UNL A   1      46.745  37.461  30.432  1.00  0.00    -0.744 OA
ENDBRANCH  73  74
ENDBRANCH  54  68
BRANCH  55  78
ATOM     78  C   UNL A   1      43.790  23.175  27.079  1.00  0.00    -0.014 A 
ATOM     79  C   UNL A   1      44.067  22.580  25.836  1.00  0.00     0.010 A 
ATOM     80  C   UNL A   1      43.075  22.436  28.042  1.00  0.00     0.010 A 
ATOM     81  C   UNL A   1      43.609  21.291  25.548  1.00  0.00     0.020 A 
ATOM     82  C   UNL A   1      42.644  21.135  27.770  1.00  0.00     0.020 A 
ATOM     83  C   UNL A   1      42.898  20.577  26.517  1.00  0.00     0.054 A 
BRANCH  83  84
ATOM     84  S   UNL A   1      42.327  18.899  26.128  1.00  0.00     0.124 S 
ATOM     85  O   UNL A   1      40.931  19.129  25.772  1.00  0.00    -0.237 OA
ATOM     86  O   UNL A   1      43.209  18.516  25.027  1.00  0.00    -0.237 OA
ATOM     87  O   UNL A   1      42.547  18.168  27.374  1.00  0.00    -0.744 OA
ENDBRANCH  83  84
ENDBRANCH  55  78
BRANCH  67  88
ATOM     88  C   UNL A   1      49.773  26.682  26.294  1.00  0.00    -0.014 A 
ATOM     89  C   UNL A   1      50.125  26.783  24.937  1.00  0.00     0.010 A 
ATOM     90  C   UNL A   1      50.741  26.265  27.226  1.00  0.00     0.010 A 
ATOM     91  C   UNL A   1      51.414  26.450  24.517  1.00  0.00     0.020 A 
ATOM     92  C   UNL A   1      52.041  25.962  26.814  1.00  0.00     0.020 A 
ATOM     93  C   UNL A   1      52.366  26.045  25.459  1.00  0.00     0.054 A 
BRANCH  93  94
ATOM     94  S   UNL A   1      54.047  25.673  24.892  1.00  0.00     0.124 S 
ATOM     95  O   UNL A   1      54.093  24.219  25.013  1.00  0.00    -0.237 OA
ATOM     96  O   UNL A   1      54.046  26.191  23.526  1.00  0.00    -0.237 OA
ATOM     97  O   UNL A   1      54.898  26.403  25.829  1.00  0.00    -0.744 OA
ENDBRANCH  93  94
ENDBRANCH  67  88
ENDBRANCH  41  42
ENDBRANCH  34  36
ENDBRANCH  33  34
ENDBRANCH  32  33
ENDBRANCH  31  32
ENDBRANCH  30  31
ENDBRANCH  29  30
ENDBRANCH  28  29
ENDBRANCH  27  28
ENDBRANCH   1  27
TORSDOF 27
ENDMDL
MODEL 2
REMARK VINA RESULT:      -9.3      1.653      8.102
REMARK SMILES O=C(CC1(NC(=O)c2ccccc2[N+](=O)[O-])CCC1)OCCOCCOCCOCCOC(=O)c1ccc(-c2c3nc(c(-c4ccc(S(=O)(=O)[O-])cc4)c4ccc([nH]4)c(-c4ccc(S(=O)(=O)[O-])cc4)c4nc(c(-c5ccc(S(=O)(=O)[O-])cc5)c5ccc2[nH]5)C=C4)C=C3)cc1
REMARK SMILES IDX 25 1 24 2 23 3 22 4 21 5 20 6 2 7 1 8 3 9 4 10 17 11 19 12
REMARK SMILES IDX 18 13 5 14 6 15 7 17 8 18 9 19 13 20 10 21 12 22 11 23 14 24
REMARK SMILES IDX 15 25 16 26 26 27 27 28 28 29 29 30 30 31 31 32 32 33 33 34
REMARK SMILES IDX 34 35 35 36 36 37 94 38 37 39 93 40 38 41 39 42 40 43 87 44
REMARK SMILES IDX 41 45 92 46 86 47 88 48 42 49 91 50 85 51 84 52 43 54 73 55
REMARK SMILES IDX 54 56 72 57 55 58 58 59 71 60 89 61 56 62 57 63 70 65 90 66
REMARK SMILES IDX 59 67 44 68 45 69 53 70 46 71 52 72 47 73 48 74 49 75 50 76
REMARK SMILES IDX 51 77 74 78 75 79 83 80 76 81 82 82 77 83 78 84 79 85 80 86
REMARK SMILES IDX 81 87 60 88 61 89 69 90 62 91 68 92 63 93 64 94 65 95 66 96
REMARK SMILES IDX 67 97
REMARK H PARENT 5 16 88 53 58 64
REMARK Flexibility Score: inf
ROOT
ATOM      1  C   UNL A   1      33.856  29.715  26.225  1.00  0.00     0.188 C 
ENDROOT
BRANCH   1   2
ATOM      2  C   UNL A   1      33.844  28.526  25.262  1.00  0.00     0.188 C 
BRANCH   2   3
ATOM      3  O   UNL A   1      33.213  28.765  24.007  1.00  0.00    -0.376 OA
BRANCH   3   4
ATOM      4  C   UNL A   1      31.848  29.154  23.985  1.00  0.00     0.202 C 
BRANCH   4   5
ATOM      5  C   UNL A   1      30.874  28.268  24.758  1.00  0.00     0.261 C 
BRANCH   5   6
ATOM      6  O   UNL A   1      31.171  26.865  24.738  1.00  0.00    -0.463 OA
BRANCH   6   7
ATOM      7  C   UNL A   1      31.220  26.162  25.885  1.00  0.00     0.308 C 
ATOM      8  O   UNL A   1      30.397  26.294  26.785  1.00  0.00    -0.252 OA
BRANCH   7   9
ATOM      9  C   UNL A   1      32.364  25.180  25.972  1.00  0.00     0.151 C 
BRANCH   9  10
ATOM     10  C   UNL A   1      32.197  23.739  25.469  1.00  0.00     0.051 C 
ATOM     11  C   UNL A   1      30.768  23.403  24.926  1.00  0.00     0.029 C 
ATOM     12  C   UNL A   1      32.713  23.427  24.011  1.00  0.00     0.029 C 
ATOM     13  C   UNL A   1      31.367  22.830  23.640  1.00  0.00     0.005 C 
BRANCH  10  14
ATOM     14  N   UNL A   1      32.627  22.668  26.432  1.00  0.00    -0.346 N 
ATOM     15  C   UNL A   1      33.825  22.079  26.786  1.00  0.00     0.258 C 
ATOM     16  H   UNL A   1      31.867  22.292  26.934  1.00  0.00     0.164 HD
ATOM     17  O   UNL A   1      33.834  21.278  27.721  1.00  0.00    -0.269 OA
BRANCH  15  18
ATOM     18  C   UNL A   1      35.070  22.255  26.018  1.00  0.00     0.117 A 
ATOM     19  C   UNL A   1      35.733  23.466  26.217  1.00  0.00     0.021 A 
ATOM     20  C   UNL A   1      35.643  21.339  25.143  1.00  0.00     0.282 A 
ATOM     21  C   UNL A   1      36.984  23.707  25.642  1.00  0.00     0.001 A 
ATOM     22  C   UNL A   1      36.910  21.567  24.570  1.00  0.00     0.086 A 
ATOM     23  C   UNL A   1      37.589  22.751  24.840  1.00  0.00     0.007 A 
BRANCH  20  24
ATOM     24  N   UNL A   1      34.937  20.138  24.765  1.00  0.00     0.063 N 
ATOM     25  O   UNL A   1      35.594  19.088  24.733  1.00  0.00    -0.258 OA
ATOM     26  O   UNL A   1      33.743  20.239  24.463  1.00  0.00    -0.258 OA
ENDBRANCH  20  24
ENDBRANCH  15  18
ENDBRANCH  10  14
ENDBRANCH   9  10
ENDBRANCH   7   9
ENDBRANCH   6   7
ENDBRANCH   5   6
ENDBRANCH   4   5
ENDBRANCH   3   4
ENDBRANCH   2   3
ENDBRANCH   1   2
BRANCH   1  27
ATOM     27  O   UNL A   1      34.801  29.588  27.277  1.00  0.00    -0.377 OA
BRANCH  27  28
ATOM     28  C   UNL A   1      35.258  30.844  27.768  1.00  0.00     0.188 C 
BRANCH  28  29
ATOM     29  C   UNL A   1      34.102  31.777  28.168  1.00  0.00     0.188 C 
BRANCH  29  30
ATOM     30  O   UNL A   1      34.510  32.963  28.835  1.00  0.00    -0.376 OA
BRANCH  30  31
ATOM     31  C   UNL A   1      35.716  32.889  29.588  1.00  0.00     0.202 C 
BRANCH  31  32
ATOM     32  C   UNL A   1      35.597  32.249  30.978  1.00  0.00     0.261 C 
BRANCH  32  33
ATOM     33  O   UNL A   1      36.445  31.109  31.198  1.00  0.00    -0.460 OA
BRANCH  33  34
ATOM     34  C   UNL A   1      37.506  31.263  32.021  1.00  0.00     0.338 C 
ATOM     35  O   UNL A   1      37.494  31.539  33.208  1.00  0.00    -0.246 OA
BRANCH  34  36
ATOM     36  C   UNL A   1      38.681  30.781  31.273  1.00  0.00     0.060 A 
ATOM     37  C   UNL A   1      39.714  30.150  31.982  1.00  0.00     0.016 A 
ATOM     38  C   UNL A   1      38.712  30.855  29.880  1.00  0.00     0.016 A 
ATOM     39  C   UNL A   1      40.779  29.575  31.292  1.00  0.00     0.010 A 
ATOM     40  C   UNL A   1      39.805  30.329  29.194  1.00  0.00     0.010 A 
ATOM     41  C   UNL A   1      40.848  29.704  29.900  1.00  0.00    -0.014 A 
BRANCH  41  42
ATOM     42  C   UNL A   1      42.126  29.435  29.210  1.00  0.00     0.031 A 
ATOM     43  C   UNL A   1      42.334  28.045  28.677  1.00  0.00     0.074 A 
ATOM     44  C   UNL A   1      43.075  30.378  29.082  1.00  0.00     0.049 A 
ATOM     45  N   UNL A   1      43.396  27.519  28.133  1.00  0.00    -0.248 NA
ATOM     46  C   UNL A   1      41.185  27.124  28.773  1.00  0.00     0.031 C 
ATOM     47  C   UNL A   1      42.954  31.772  29.509  1.00  0.00     0.029 A 
ATOM     48  N   UNL A   1      44.342  30.293  28.565  1.00  0.00    -0.354 N 
ATOM     49  C   UNL A   1      43.051  26.207  27.837  1.00  0.00     0.074 A 
ATOM     50  C   UNL A   1      41.685  26.011  28.261  1.00  0.00     0.031 C 
ATOM     51  C   UNL A   1      44.118  32.404  29.264  1.00  0.00     0.029 A 
ATOM     52  C   UNL A   1      45.073  31.449  28.703  1.00  0.00     0.049 A 
ATOM     53  H   UNL A   1      44.695  29.480  28.136  1.00  0.00     0.167 HD
ATOM     54  C   UNL A   1      43.813  25.246  27.270  1.00  0.00     0.031 A 
ATOM     55  C   UNL A   1      46.376  31.688  28.446  1.00  0.00     0.031 A 
ATOM     56  C   UNL A   1      45.178  25.443  26.875  1.00  0.00     0.049 A 
ATOM     57  C   UNL A   1      47.230  30.567  27.903  1.00  0.00     0.074 A 
ATOM     58  C   UNL A   1      46.035  24.538  26.274  1.00  0.00     0.029 A 
ATOM     59  N   UNL A   1      45.891  26.616  27.059  1.00  0.00    -0.354 N 
ATOM     60  N   UNL A   1      46.880  29.343  27.583  1.00  0.00    -0.248 NA
ATOM     61  C   UNL A   1      48.656  30.859  27.692  1.00  0.00     0.031 C 
ATOM     62  C   UNL A   1      47.289  25.143  26.160  1.00  0.00     0.029 A 
ATOM     63  C   UNL A   1      47.193  26.446  26.625  1.00  0.00     0.049 A 
ATOM     64  H   UNL A   1      45.526  27.447  27.442  1.00  0.00     0.167 HD
ATOM     65  C   UNL A   1      48.038  28.727  27.115  1.00  0.00     0.074 A 
ATOM     66  C   UNL A   1      49.090  29.720  27.169  1.00  0.00     0.031 C 
ATOM     67  C   UNL A   1      48.220  27.454  26.686  1.00  0.00     0.031 A 
BRANCH  54  68
ATOM     68  C   UNL A   1      43.207  23.884  27.091  1.00  0.00    -0.014 A 
ATOM     69  C   UNL A   1      43.215  22.938  28.130  1.00  0.00     0.010 A 
ATOM     70  C   UNL A   1      42.558  23.573  25.882  1.00  0.00     0.010 A 
ATOM     71  C   UNL A   1      42.584  21.703  27.963  1.00  0.00     0.020 A 
ATOM     72  C   UNL A   1      41.905  22.351  25.719  1.00  0.00     0.020 A 
ATOM     73  C   UNL A   1      41.924  21.421  26.762  1.00  0.00     0.054 A 
BRANCH  73  74
ATOM     74  S   UNL A   1      41.045  19.843  26.604  1.00  0.00     0.124 S 
ATOM     75  O   UNL A   1      39.793  20.257  25.976  1.00  0.00    -0.237 OA
ATOM     76  O   UNL A   1      41.945  19.062  25.758  1.00  0.00    -0.237 OA
ATOM     77  O   UNL A   1      40.924  19.373  27.982  1.00  0.00    -0.744 OA
ENDBRANCH  73  74
ENDBRANCH  54  68
BRANCH  55  78
ATOM     78  C   UNL A   1      46.981  33.014  28.760  1.00  0.00    -0.014 A 
ATOM     79  C   UNL A   1      47.033  34.034  27.795  1.00  0.00     0.010 A 
ATOM     80  C   UNL A   1      47.566  33.242  30.021  1.00  0.00     0.010 A 
ATOM     81  C   UNL A   1      47.684  35.241  28.070  1.00  0.00     0.020 A 
ATOM     82  C   UNL A   1      48.188  34.459  30.312  1.00  0.00     0.020 A 
ATOM     83  C   UNL A   1      48.259  35.444  29.327  1.00  0.00     0.054 A 
BRANCH  83  84
ATOM     84  S   UNL A   1      49.085  37.024  29.669  1.00  0.00     0.124 S 
ATOM     85  O   UNL A   1      48.863  37.756  28.427  1.00  0.00    -0.237 OA
ATOM     86  O   UNL A   1      48.351  37.513  30.835  1.00  0.00    -0.237 OA
ATOM     87  O   UNL A   1      50.468  36.635  29.931  1.00  0.00    -0.744 OA
ENDBRANCH  83  84
ENDBRANCH  55  78
BRANCH  67  88
ATOM     88  C   UNL A   1      49.598  27.064  26.219  1.00  0.00    -0.014 A 
ATOM     89  C   UNL A   1      50.008  27.293  24.894  1.00  0.00     0.010 A 
ATOM     90  C   UNL A   1      50.520  26.537  27.142  1.00  0.00     0.010 A 
ATOM     91  C   UNL A   1      51.307  26.975  24.494  1.00  0.00     0.020 A 
ATOM     92  C   UNL A   1      51.830  26.249  26.753  1.00  0.00     0.020 A 
ATOM     93  C   UNL A   1      52.212  26.459  25.427  1.00  0.00     0.054 A 
BRANCH  93  94
ATOM     94  S   UNL A   1      53.909  26.110  24.892  1.00  0.00     0.124 S 
ATOM     95  O   UNL A   1      53.845  24.682  24.594  1.00  0.00    -0.237 OA
ATOM     96  O   UNL A   1      54.067  26.989  23.736  1.00  0.00    -0.237 OA
ATOM     97  O   UNL A   1      54.719  26.468  26.054  1.00  0.00    -0.744 OA
ENDBRANCH  93  94
ENDBRANCH  67  88
ENDBRANCH  41  42
ENDBRANCH  34  36
ENDBRANCH  33  34
ENDBRANCH  32  33
ENDBRANCH  31  32
ENDBRANCH  30  31
ENDBRANCH  29  30
ENDBRANCH  28  29
ENDBRANCH  27  28
ENDBRANCH   1  27
TORSDOF 27
ENDMDL
MODEL 3
REMARK VINA RESULT:      -8.6      1.395      2.339
REMARK SMILES O=C(CC1(NC(=O)c2ccccc2[N+](=O)[O-])CCC1)OCCOCCOCCOCCOC(=O)c1ccc(-c2c3nc(c(-c4ccc(S(=O)(=O)[O-])cc4)c4ccc([nH]4)c(-c4ccc(S(=O)(=O)[O-])cc4)c4nc(c(-c5ccc(S(=O)(=O)[O-])cc5)c5ccc2[nH]5)C=C4)C=C3)cc1
REMARK SMILES IDX 25 1 24 2 23 3 22 4 21 5 20 6 2 7 1 8 3 9 4 10 17 11 19 12
REMARK SMILES IDX 18 13 5 14 6 15 7 17 8 18 9 19 13 20 10 21 12 22 11 23 14 24
REMARK SMILES IDX 15 25 16 26 26 27 27 28 28 29 29 30 30 31 31 32 32 33 33 34
REMARK SMILES IDX 34 35 35 36 36 37 94 38 37 39 93 40 38 41 39 42 40 43 87 44
REMARK SMILES IDX 41 45 92 46 86 47 88 48 42 49 91 50 85 51 84 52 43 54 73 55
REMARK SMILES IDX 54 56 72 57 55 58 58 59 71 60 89 61 56 62 57 63 70 65 90 66
REMARK SMILES IDX 59 67 44 68 45 69 53 70 46 71 52 72 47 73 48 74 49 75 50 76
REMARK SMILES IDX 51 77 74 78 75 79 83 80 76 81 82 82 77 83 78 84 79 85 80 86
REMARK SMILES IDX 81 87 60 88 61 89 69 90 62 91 68 92 63 93 64 94 65 95 66 96
REMARK SMILES IDX 67 97
REMARK H PARENT 5 16 88 53 58 64
REMARK Flexibility Score: inf
ROOT
ATOM      1  C   UNL A   1      31.557  29.481  24.858  1.00  0.00     0.188 C 
ENDROOT
BRANCH   1   2
ATOM      2  C   UNL A   1      32.895  29.275  24.143  1.00  0.00     0.188 C 
BRANCH   2   3
ATOM      3  O   UNL A   1      33.467  27.979  24.285  1.00  0.00    -0.376 OA
BRANCH   3   4
ATOM      4  C   UNL A   1      33.762  27.494  25.586  1.00  0.00     0.202 C 
BRANCH   4   5
ATOM      5  C   UNL A   1      32.948  26.295  26.067  1.00  0.00     0.261 C 
BRANCH   5   6
ATOM      6  O   UNL A   1      31.572  26.568  26.365  1.00  0.00    -0.463 OA
BRANCH   6   7
ATOM      7  C   UNL A   1      30.607  25.710  25.982  1.00  0.00     0.308 C 
ATOM      8  O   UNL A   1      29.539  25.600  26.574  1.00  0.00    -0.252 OA
BRANCH   7   9
ATOM      9  C   UNL A   1      30.938  24.900  24.752  1.00  0.00     0.151 C 
BRANCH   9  10
ATOM     10  C   UNL A   1      31.347  23.424  24.874  1.00  0.00     0.051 C 
ATOM     11  C   UNL A   1      32.646  23.178  25.713  1.00  0.00     0.029 C 
ATOM     12  C   UNL A   1      30.601  22.565  25.967  1.00  0.00     0.029 C 
ATOM     13  C   UNL A   1      31.929  22.120  26.553  1.00  0.00     0.005 C 
BRANCH  10  14
ATOM     14  N   UNL A   1      31.446  22.674  23.575  1.00  0.00    -0.346 N 
ATOM     15  C   UNL A   1      32.266  21.688  23.063  1.00  0.00     0.258 C 
ATOM     16  H   UNL A   1      30.758  22.956  22.929  1.00  0.00     0.164 HD
ATOM     17  O   UNL A   1      31.993  21.207  21.963  1.00  0.00    -0.269 OA
BRANCH  15  18
ATOM     18  C   UNL A   1      33.526  21.273  23.702  1.00  0.00     0.117 A 
ATOM     19  C   UNL A   1      34.582  22.178  23.595  1.00  0.00     0.021 A 
ATOM     20  C   UNL A   1      33.754  20.093  24.402  1.00  0.00     0.282 A 
ATOM     21  C   UNL A   1      35.792  21.958  24.260  1.00  0.00     0.001 A 
ATOM     22  C   UNL A   1      34.965  19.869  25.086  1.00  0.00     0.086 A 
ATOM     23  C   UNL A   1      35.979  20.819  25.028  1.00  0.00     0.007 A 
BRANCH  20  24
ATOM     24  N   UNL A   1      32.765  19.042  24.418  1.00  0.00     0.063 N 
ATOM     25  O   UNL A   1      32.436  18.564  23.323  1.00  0.00    -0.258 OA
ATOM     26  O   UNL A   1      32.284  18.715  25.509  1.00  0.00    -0.258 OA
ENDBRANCH  20  24
ENDBRANCH  15  18
ENDBRANCH  10  14
ENDBRANCH   9  10
ENDBRANCH   7   9
ENDBRANCH   6   7
ENDBRANCH   5   6
ENDBRANCH   4   5
ENDBRANCH   3   4
ENDBRANCH   2   3
ENDBRANCH   1   2
BRANCH   1  27
ATOM     27  O   UNL A   1      31.449  30.734  25.518  1.00  0.00    -0.377 OA
BRANCH  27  28
ATOM     28  C   UNL A   1      31.807  30.669  26.895  1.00  0.00     0.188 C 
BRANCH  28  29
ATOM     29  C   UNL A   1      33.057  31.506  27.218  1.00  0.00     0.188 C 
BRANCH  29  30
ATOM     30  O   UNL A   1      34.287  30.826  27.009  1.00  0.00    -0.376 OA
BRANCH  30  31
ATOM     31  C   UNL A   1      34.579  29.749  27.893  1.00  0.00     0.202 C 
BRANCH  31  32
ATOM     32  C   UNL A   1      35.727  29.992  28.883  1.00  0.00     0.261 C 
BRANCH  32  33
ATOM     33  O   UNL A   1      36.073  31.372  29.088  1.00  0.00    -0.460 OA
BRANCH  33  34
ATOM     34  C   UNL A   1      36.944  31.662  30.079  1.00  0.00     0.338 C 
ATOM     35  O   UNL A   1      36.712  32.225  31.134  1.00  0.00    -0.246 OA
BRANCH  34  36
ATOM     36  C   UNL A   1      38.188  30.937  29.760  1.00  0.00     0.060 A 
ATOM     37  C   UNL A   1      39.088  30.658  30.799  1.00  0.00     0.016 A 
ATOM     38  C   UNL A   1      38.410  30.447  28.472  1.00  0.00     0.016 A 
ATOM     39  C   UNL A   1      40.209  29.870  30.554  1.00  0.00     0.010 A 
ATOM     40  C   UNL A   1      39.562  29.706  28.214  1.00  0.00     0.010 A 
ATOM     41  C   UNL A   1      40.471  29.431  29.251  1.00  0.00    -0.014 A 
BRANCH  41  42
ATOM     42  C   UNL A   1      41.818  28.927  28.914  1.00  0.00     0.031 A 
ATOM     43  C   UNL A   1      42.933  29.932  28.874  1.00  0.00     0.074 A 
ATOM     44  C   UNL A   1      42.039  27.631  28.632  1.00  0.00     0.049 A 
ATOM     45  N   UNL A   1      44.175  29.776  28.505  1.00  0.00    -0.248 NA
ATOM     46  C   UNL A   1      42.601  31.302  29.310  1.00  0.00     0.031 C 
ATOM     47  C   UNL A   1      41.043  26.562  28.698  1.00  0.00     0.029 A 
ATOM     48  N   UNL A   1      43.183  27.000  28.213  1.00  0.00    -0.354 N 
ATOM     49  C   UNL A   1      44.766  31.025  28.648  1.00  0.00     0.074 A 
ATOM     50  C   UNL A   1      43.752  31.931  29.134  1.00  0.00     0.031 C 
ATOM     51  C   UNL A   1      41.615  25.410  28.300  1.00  0.00     0.029 A 
ATOM     52  C   UNL A   1      43.001  25.671  27.914  1.00  0.00     0.049 A 
ATOM     53  H   UNL A   1      44.052  27.456  28.134  1.00  0.00     0.167 HD
ATOM     54  C   UNL A   1      46.040  31.385  28.385  1.00  0.00     0.031 A 
ATOM     55  C   UNL A   1      43.848  24.785  27.351  1.00  0.00     0.031 A 
ATOM     56  C   UNL A   1      47.034  30.483  27.877  1.00  0.00     0.049 A 
ATOM     57  C   UNL A   1      45.239  25.240  26.977  1.00  0.00     0.074 A 
ATOM     58  C   UNL A   1      48.362  30.744  27.594  1.00  0.00     0.029 A 
ATOM     59  N   UNL A   1      46.804  29.156  27.558  1.00  0.00    -0.354 N 
ATOM     60  N   UNL A   1      45.801  26.412  27.161  1.00  0.00    -0.248 NA
ATOM     61  C   UNL A   1      46.107  24.255  26.315  1.00  0.00     0.031 C 
ATOM     62  C   UNL A   1      48.918  29.590  27.035  1.00  0.00     0.029 A 
ATOM     63  C   UNL A   1      47.954  28.592  27.037  1.00  0.00     0.049 A 
ATOM     64  H   UNL A   1      45.950  28.682  27.684  1.00  0.00     0.167 HD
ATOM     65  C   UNL A   1      47.093  26.297  26.655  1.00  0.00     0.074 A 
ATOM     66  C   UNL A   1      47.237  24.936  26.183  1.00  0.00     0.031 C 
ATOM     67  C   UNL A   1      48.072  27.232  26.579  1.00  0.00     0.031 A 
BRANCH  54  68
ATOM     68  C   UNL A   1      46.420  32.824  28.591  1.00  0.00    -0.014 A 
ATOM     69  C   UNL A   1      46.847  33.295  29.844  1.00  0.00     0.010 A 
ATOM     70  C   UNL A   1      46.415  33.700  27.491  1.00  0.00     0.010 A 
ATOM     71  C   UNL A   1      47.261  34.620  29.994  1.00  0.00     0.020 A 
ATOM     72  C   UNL A   1      46.852  35.019  27.630  1.00  0.00     0.020 A 
ATOM     73  C   UNL A   1      47.271  35.472  28.883  1.00  0.00     0.054 A 
BRANCH  73  74
ATOM     74  S   UNL A   1      47.891  37.163  29.090  1.00  0.00     0.124 S 
ATOM     75  O   UNL A   1      47.081  37.901  28.124  1.00  0.00    -0.237 OA
ATOM     76  O   UNL A   1      47.599  37.437  30.495  1.00  0.00    -0.237 OA
ATOM     77  O   UNL A   1      49.310  37.055  28.760  1.00  0.00    -0.744 OA
ENDBRANCH  73  74
ENDBRANCH  54  68
BRANCH  55  78
ATOM     78  C   UNL A   1      43.399  23.398  27.036  1.00  0.00    -0.014 A 
ATOM     79  C   UNL A   1      43.266  22.431  28.048  1.00  0.00     0.010 A 
ATOM     80  C   UNL A   1      43.154  23.022  25.701  1.00  0.00     0.010 A 
ATOM     81  C   UNL A   1      42.933  21.111  27.730  1.00  0.00     0.020 A 
ATOM     82  C   UNL A   1      42.787  21.712  25.382  1.00  0.00     0.020 A 
ATOM     83  C   UNL A   1      42.697  20.760  26.397  1.00  0.00     0.054 A 
BRANCH  83  84
ATOM     84  S   UNL A   1      42.248  19.045  26.008  1.00  0.00     0.124 S 
ATOM     85  O   UNL A   1      43.100  18.763  24.858  1.00  0.00    -0.237 OA
ATOM     86  O   UNL A   1      42.596  18.343  27.242  1.00  0.00    -0.237 OA
ATOM     87  O   UNL A   1      40.817  19.123  25.727  1.00  0.00    -0.744 OA
ENDBRANCH  83  84
ENDBRANCH  55  78
BRANCH  67  88
ATOM     88  C   UNL A   1      49.392  26.815  25.986  1.00  0.00    -0.014 A 
ATOM     89  C   UNL A   1      49.750  27.187  24.678  1.00  0.00     0.010 A 
ATOM     90  C   UNL A   1      50.318  26.112  26.778  1.00  0.00     0.010 A 
ATOM     91  C   UNL A   1      51.001  26.839  24.164  1.00  0.00     0.020 A 
ATOM     92  C   UNL A   1      51.582  25.790  26.278  1.00  0.00     0.020 A 
ATOM     93  C   UNL A   1      51.911  26.146  24.969  1.00  0.00     0.054 A 
BRANCH  93  94
ATOM     94  S   UNL A   1      53.549  25.757  24.295  1.00  0.00     0.124 S 
ATOM     95  O   UNL A   1      54.371  26.821  24.864  1.00  0.00    -0.237 OA
ATOM     96  O   UNL A   1      53.801  24.418  24.821  1.00  0.00    -0.237 OA
ATOM     97  O   UNL A   1      53.354  25.826  22.849  1.00  0.00    -0.744 OA
ENDBRANCH  93  94
ENDBRANCH  67  88
ENDBRANCH  41  42
ENDBRANCH  34  36
ENDBRANCH  33  34
ENDBRANCH  32  33
ENDBRANCH  31  32
ENDBRANCH  30  31
ENDBRANCH  29  30
ENDBRANCH  28  29
ENDBRANCH  27  28
ENDBRANCH   1  27
TORSDOF 27
ENDMDL
