MODEL 1
REMARK VINA RESULT:      -8.0      0.000      0.000
REMARK SMILES CCCCc1cc(S(F)(F)(F)(F)F)cc2c1O[C@@H](C(F)(F)F)C(C(=O)OCCOCCOCCOCCOC(=O)c1ccc(-c3c4nc(c(-c5ccc(S(=O)(=O)[O-])cc5)c5ccc([nH]5)c(-c5ccc(S(=O)(=O)[O-])cc5)c5nc(c(-c6ccc(S(=O)(=O)[O-])cc6)c6ccc3[nH]6)C=C5)C=C4)cc1)=C2
REMARK SMILES IDX 32 1 31 2 30 3 29 4 28 5 27 6 26 7 24 8 25 9 23 10 5 11 6 12
REMARK SMILES IDX 16 13 7 14 15 15 17 16 14 17 101 18 18 19 4 20 3 21 2 22
REMARK SMILES IDX 1 23 8 24 9 25 10 26 11 27 12 28 13 29 19 30 20 31 21 32
REMARK SMILES IDX 22 33 33 34 34 35 35 36 36 37 37 38 38 39 39 40 40 41 41 42
REMARK SMILES IDX 42 43 100 44 43 45 99 46 44 47 45 48 46 49 93 50 47 51 98 52
REMARK SMILES IDX 92 53 94 54 48 55 97 56 91 57 90 58 49 60 79 61 60 62 78 63
REMARK SMILES IDX 61 64 64 65 77 66 95 67 62 68 63 69 76 71 96 72 65 73 50 74
REMARK SMILES IDX 51 75 59 76 52 77 58 78 53 79 54 80 55 81 56 82 57 83 80 84
REMARK SMILES IDX 81 85 89 86 82 87 88 88 83 89 84 90 85 91 86 92 87 93 66 94
REMARK SMILES IDX 67 95 75 96 68 97 74 98 69 99 70 100 71 101 72 102 73 103
REMARK H PARENT 94 59 64 70
REMARK Flexibility Score: inf
ROOT
ATOM      1  O   UNL A   1      35.036  35.817  32.094  1.00  0.00    -0.377 OA
ENDROOT
BRANCH   1   2
ATOM      2  C   UNL A   1      35.731  34.829  32.842  1.00  0.00     0.188 C 
BRANCH   2   3
ATOM      3  C   UNL A   1      36.905  34.311  32.029  1.00  0.00     0.188 C 
BRANCH   3   4
ATOM      4  O   UNL A   1      37.549  33.265  32.741  1.00  0.00    -0.376 OA
BRANCH   4   5
ATOM      5  C   UNL A   1      37.767  33.671  34.084  1.00  0.00     0.202 C 
BRANCH   5   6
ATOM      6  C   UNL A   1      36.967  32.780  35.020  1.00  0.00     0.261 C 
BRANCH   6   7
ATOM      7  O   UNL A   1      37.625  31.529  35.158  1.00  0.00    -0.460 OA
BRANCH   7   8
ATOM      8  C   UNL A   1      38.304  31.213  36.364  1.00  0.00     0.338 C 
ATOM      9  O   UNL A   1      39.110  30.230  36.403  1.00  0.00    -0.246 OA
BRANCH   8  10
ATOM     10  C   UNL A   1      38.068  32.051  37.611  1.00  0.00     0.087 C 
ATOM     11  C   UNL A   1      37.840  34.129  41.227  1.00  0.00    -0.004 A 
ATOM     12  C   UNL A   1      36.796  33.881  42.101  1.00  0.00     0.032 A 
ATOM     13  C   UNL A   1      37.920  33.394  40.070  1.00  0.00     0.131 A 
ATOM     14  C   UNL A   1      35.861  32.919  41.825  1.00  0.00     0.108 A 
ATOM     15  C   UNL A   1      36.984  32.427  39.749  1.00  0.00     0.019 A 
ATOM     16  O   UNL A   1      39.021  33.572  39.268  1.00  0.00    -0.475 OA
ATOM     17  C   UNL A   1      35.950  32.199  40.652  1.00  0.00     0.036 A 
ATOM     18  C   UNL A   1      37.178  31.676  38.521  1.00  0.00     0.027 C 
ATOM     19  C   UNL A   1      38.849  33.338  37.842  1.00  0.00     0.316 C 
BRANCH  11  20
ATOM     20  C   UNL A   1      38.877  35.194  41.542  1.00  0.00     0.039 C 
BRANCH  20  21
ATOM     21  C   UNL A   1      39.510  34.902  42.893  1.00  0.00     0.005 C 
BRANCH  21  22
ATOM     22  C   UNL A   1      40.835  35.640  43.001  1.00  0.00    -0.003 C 
ATOM     23  C   UNL A   1      41.441  35.799  41.615  1.00  0.00     0.004 C 
ENDBRANCH  21  22
ENDBRANCH  20  21
ENDBRANCH  11  20
BRANCH  14  24
ATOM     24  S   UNL A   1      34.517  32.594  42.994  1.00  0.00     0.310 S 
ATOM     25  F   UNL A   1      35.148  33.557  44.084  1.00  0.00    -0.094 F 
ATOM     26  F   UNL A   1      35.381  31.433  43.618  1.00  0.00    -0.094 F 
ATOM     27  F   UNL A   1      33.364  32.314  43.997  1.00  0.00    -0.094 F 
ATOM     28  F   UNL A   1      33.728  33.848  42.449  1.00  0.00    -0.094 F 
ATOM     29  F   UNL A   1      35.727  32.962  42.045  1.00  0.00    -0.094 F 
ENDBRANCH  14  24
BRANCH  19  30
ATOM     30  C   UNL A   1      40.217  33.213  37.190  1.00  0.00     0.430 C 
ATOM     31  F   UNL A   1      40.823  32.118  37.640  1.00  0.00    -0.167 F 
ATOM     32  F   UNL A   1      40.073  33.132  35.871  1.00  0.00    -0.167 F 
ATOM     33  F   UNL A   1      40.950  34.281  37.491  1.00  0.00    -0.167 F 
ENDBRANCH  19  30
ENDBRANCH   8  10
ENDBRANCH   7   8
ENDBRANCH   6   7
ENDBRANCH   5   6
ENDBRANCH   4   5
ENDBRANCH   3   4
ENDBRANCH   2   3
ENDBRANCH   1   2
BRANCH   1  34
ATOM     34  C   UNL A   1      33.783  35.299  31.674  1.00  0.00     0.188 C 
BRANCH  34  35
ATOM     35  C   UNL A   1      33.578  35.603  30.199  1.00  0.00     0.188 C 
BRANCH  35  36
ATOM     36  O   UNL A   1      33.180  34.418  29.522  1.00  0.00    -0.376 OA
BRANCH  36  37
ATOM     37  C   UNL A   1      34.000  34.230  28.378  1.00  0.00     0.202 C 
BRANCH  37  38
ATOM     38  C   UNL A   1      34.864  32.994  28.572  1.00  0.00     0.261 C 
BRANCH  38  39
ATOM     39  O   UNL A   1      34.053  31.832  28.490  1.00  0.00    -0.460 OA
BRANCH  39  40
ATOM     40  C   UNL A   1      34.613  30.606  28.039  1.00  0.00     0.338 C 
ATOM     41  O   UNL A   1      33.931  29.829  27.301  1.00  0.00    -0.246 OA
BRANCH  40  42
ATOM     42  C   UNL A   1      36.029  30.226  28.441  1.00  0.00     0.060 A 
ATOM     43  C   UNL A   1      37.060  30.386  27.528  1.00  0.00     0.016 A 
ATOM     44  C   UNL A   1      36.255  29.743  29.658  1.00  0.00     0.016 A 
ATOM     45  C   UNL A   1      38.259  29.734  27.900  1.00  0.00     0.010 A 
ATOM     46  C   UNL A   1      37.491  29.247  29.995  1.00  0.00     0.010 A 
ATOM     47  C   UNL A   1      38.540  29.318  29.121  1.00  0.00    -0.014 A 
BRANCH  47  48
ATOM     48  C   UNL A   1      39.954  28.941  29.534  1.00  0.00     0.031 A 
ATOM     49  C   UNL A   1      40.439  27.690  29.147  1.00  0.00     0.074 A 
ATOM     50  C   UNL A   1      40.682  29.860  30.269  1.00  0.00     0.049 A 
ATOM     51  N   UNL A   1      41.651  27.184  29.371  1.00  0.00    -0.248 NA
ATOM     52  C   UNL A   1      39.655  26.699  28.395  1.00  0.00     0.031 C 
ATOM     53  C   UNL A   1      40.202  31.128  30.656  1.00  0.00     0.029 A 
ATOM     54  N   UNL A   1      41.965  29.730  30.751  1.00  0.00    -0.354 N 
ATOM     55  C   UNL A   1      41.750  25.967  28.831  1.00  0.00     0.074 A 
ATOM     56  C   UNL A   1      40.465  25.636  28.200  1.00  0.00     0.031 C 
ATOM     57  C   UNL A   1      41.177  31.747  31.371  1.00  0.00     0.029 A 
ATOM     58  C   UNL A   1      42.283  30.878  31.442  1.00  0.00     0.049 A 
ATOM     59  H   UNL A   1      42.553  28.951  30.624  1.00  0.00     0.167 HD
ATOM     60  C   UNL A   1      42.861  25.123  28.838  1.00  0.00     0.031 A 
ATOM     61  C   UNL A   1      43.465  31.170  32.106  1.00  0.00     0.031 A 
ATOM     62  C   UNL A   1      44.058  25.432  29.464  1.00  0.00     0.049 A 
ATOM     63  C   UNL A   1      44.557  30.301  32.162  1.00  0.00     0.074 A 
ATOM     64  C   UNL A   1      45.191  24.596  29.474  1.00  0.00     0.029 A 
ATOM     65  N   UNL A   1      44.368  26.570  30.176  1.00  0.00    -0.354 N 
ATOM     66  N   UNL A   1      44.670  29.102  31.588  1.00  0.00    -0.248 NA
ATOM     67  C   UNL A   1      45.802  30.585  32.888  1.00  0.00     0.031 C 
ATOM     68  C   UNL A   1      46.167  25.215  30.190  1.00  0.00     0.029 A 
ATOM     69  C   UNL A   1      45.660  26.449  30.640  1.00  0.00     0.049 A 
ATOM     70  H   UNL A   1      43.770  27.337  30.328  1.00  0.00     0.167 HD
ATOM     71  C   UNL A   1      45.868  28.577  31.849  1.00  0.00     0.074 A 
ATOM     72  C   UNL A   1      46.612  29.520  32.696  1.00  0.00     0.031 C 
ATOM     73  C   UNL A   1      46.374  27.352  31.413  1.00  0.00     0.031 A 
BRANCH  60  74
ATOM     74  C   UNL A   1      42.752  23.788  28.118  1.00  0.00    -0.014 A 
ATOM     75  C   UNL A   1      41.973  22.776  28.655  1.00  0.00     0.010 A 
ATOM     76  C   UNL A   1      43.366  23.640  26.950  1.00  0.00     0.010 A 
ATOM     77  C   UNL A   1      42.139  21.525  28.015  1.00  0.00     0.020 A 
ATOM     78  C   UNL A   1      43.372  22.422  26.313  1.00  0.00     0.020 A 
ATOM     79  C   UNL A   1      42.674  21.361  26.819  1.00  0.00     0.054 A 
BRANCH  79  80
ATOM     80  S   UNL A   1      42.490  19.814  25.896  1.00  0.00     0.124 S 
ATOM     81  O   UNL A   1      42.832  18.633  26.807  1.00  0.00    -0.237 OA
ATOM     82  O   UNL A   1      41.046  19.680  25.406  1.00  0.00    -0.237 OA
ATOM     83  O   UNL A   1      43.549  19.822  24.553  1.00  0.00    -0.744 OA
ENDBRANCH  79  80
ENDBRANCH  60  74
BRANCH  61  84
ATOM     84  C   UNL A   1      43.580  32.511  32.811  1.00  0.00    -0.014 A 
ATOM     85  C   UNL A   1      43.126  32.642  34.113  1.00  0.00     0.010 A 
ATOM     86  C   UNL A   1      44.067  33.550  32.145  1.00  0.00     0.010 A 
ATOM     87  C   UNL A   1      42.960  33.983  34.531  1.00  0.00     0.020 A 
ATOM     88  C   UNL A   1      43.994  34.817  32.673  1.00  0.00     0.020 A 
ATOM     89  C   UNL A   1      43.502  35.026  33.931  1.00  0.00     0.054 A 
BRANCH  89  90
ATOM     90  S   UNL A   1      43.589  36.648  34.732  1.00  0.00     0.124 S 
ATOM     91  O   UNL A   1      44.964  37.270  34.476  1.00  0.00    -0.237 OA
ATOM     92  O   UNL A   1      42.502  37.559  34.158  1.00  0.00    -0.237 OA
ATOM     93  O   UNL A   1      43.351  36.466  36.415  1.00  0.00    -0.744 OA
ENDBRANCH  89  90
ENDBRANCH  61  84
BRANCH  73  94
ATOM     94  C   UNL A   1      47.794  26.983  31.809  1.00  0.00    -0.014 A 
ATOM     95  C   UNL A   1      48.025  26.406  33.047  1.00  0.00     0.010 A 
ATOM     96  C   UNL A   1      48.790  27.222  30.964  1.00  0.00     0.010 A 
ATOM     97  C   UNL A   1      49.389  26.381  33.422  1.00  0.00     0.020 A 
ATOM     98  C   UNL A   1      50.096  27.046  31.355  1.00  0.00     0.020 A 
ATOM     99  C   UNL A   1      50.399  26.535  32.586  1.00  0.00     0.054 A 
BRANCH  99 100
ATOM    100  S   UNL A   1      52.093  26.093  33.045  1.00  0.00     0.124 S 
ATOM    101  O   UNL A   1      52.946  27.361  33.131  1.00  0.00    -0.237 OA
ATOM    102  O   UNL A   1      52.087  25.390  34.404  1.00  0.00    -0.237 OA
ATOM    103  O   UNL A   1      52.749  25.045  31.863  1.00  0.00    -0.744 OA
ENDBRANCH  99 100
ENDBRANCH  73  94
ENDBRANCH  47  48
ENDBRANCH  40  42
ENDBRANCH  39  40
ENDBRANCH  38  39
ENDBRANCH  37  38
ENDBRANCH  36  37
ENDBRANCH  35  36
ENDBRANCH  34  35
ENDBRANCH   1  34
TORSDOF 28
ENDMDL
MODEL 2
REMARK VINA RESULT:      -7.7      4.747     11.947
REMARK SMILES CCCCc1cc(S(F)(F)(F)(F)F)cc2c1O[C@@H](C(F)(F)F)C(C(=O)OCCOCCOCCOCCOC(=O)c1ccc(-c3c4nc(c(-c5ccc(S(=O)(=O)[O-])cc5)c5ccc([nH]5)c(-c5ccc(S(=O)(=O)[O-])cc5)c5nc(c(-c6ccc(S(=O)(=O)[O-])cc6)c6ccc3[nH]6)C=C5)C=C4)cc1)=C2
REMARK SMILES IDX 32 1 31 2 30 3 29 4 28 5 27 6 26 7 24 8 25 9 23 10 5 11 6 12
REMARK SMILES IDX 16 13 7 14 15 15 17 16 14 17 101 18 18 19 4 20 3 21 2 22
REMARK SMILES IDX 1 23 8 24 9 25 10 26 11 27 12 28 13 29 19 30 20 31 21 32
REMARK SMILES IDX 22 33 33 34 34 35 35 36 36 37 37 38 38 39 39 40 40 41 41 42
REMARK SMILES IDX 42 43 100 44 43 45 99 46 44 47 45 48 46 49 93 50 47 51 98 52
REMARK SMILES IDX 92 53 94 54 48 55 97 56 91 57 90 58 49 60 79 61 60 62 78 63
REMARK SMILES IDX 61 64 64 65 77 66 95 67 62 68 63 69 76 71 96 72 65 73 50 74
REMARK SMILES IDX 51 75 59 76 52 77 58 78 53 79 54 80 55 81 56 82 57 83 80 84
REMARK SMILES IDX 81 85 89 86 82 87 88 88 83 89 84 90 85 91 86 92 87 93 66 94
REMARK SMILES IDX 67 95 75 96 68 97 74 98 69 99 70 100 71 101 72 102 73 103
REMARK H PARENT 94 59 64 70
REMARK Flexibility Score: inf
ROOT
ATOM      1  O   UNL A   1      47.629  29.780  27.581  1.00  0.00    -0.377 OA
ENDROOT
BRANCH   1   2
ATOM      2  C   UNL A   1      46.833  30.145  28.700  1.00  0.00     0.188 C 
BRANCH   2   3
ATOM      3  C   UNL A   1      47.491  29.644  29.974  1.00  0.00     0.188 C 
BRANCH   3   4
ATOM      4  O   UNL A   1      48.646  30.423  30.248  1.00  0.00    -0.376 OA
BRANCH   4   5
ATOM      5  C   UNL A   1      49.674  29.582  30.752  1.00  0.00     0.202 C 
BRANCH   5   6
ATOM      6  C   UNL A   1      49.300  28.128  30.517  1.00  0.00     0.261 C 
BRANCH   6   7
ATOM      7  O   UNL A   1      49.417  27.407  31.735  1.00  0.00    -0.460 OA
BRANCH   7   8
ATOM      8  C   UNL A   1      48.921  26.079  31.825  1.00  0.00     0.338 C 
ATOM      9  O   UNL A   1      49.142  25.253  30.884  1.00  0.00    -0.246 OA
BRANCH   8  10
ATOM     10  C   UNL A   1      48.126  25.646  33.045  1.00  0.00     0.087 C 
ATOM     11  C   UNL A   1      46.025  23.973  36.245  1.00  0.00    -0.004 A 
ATOM     12  C   UNL A   1      44.657  24.149  36.339  1.00  0.00     0.032 A 
ATOM     13  C   UNL A   1      46.683  24.488  35.155  1.00  0.00     0.131 A 
ATOM     14  C   UNL A   1      43.963  24.817  35.365  1.00  0.00     0.108 A 
ATOM     15  C   UNL A   1      46.020  25.185  34.161  1.00  0.00     0.019 A 
ATOM     16  O   UNL A   1      48.021  24.211  35.019  1.00  0.00    -0.475 OA
ATOM     17  C   UNL A   1      44.643  25.339  34.283  1.00  0.00     0.036 A 
ATOM     18  C   UNL A   1      46.799  25.657  33.029  1.00  0.00     0.027 C 
ATOM     19  C   UNL A   1      48.835  25.190  34.314  1.00  0.00     0.316 C 
BRANCH  11  20
ATOM     20  C   UNL A   1      46.787  23.226  37.328  1.00  0.00     0.039 C 
BRANCH  20  21
ATOM     21  C   UNL A   1      45.941  22.069  37.836  1.00  0.00     0.005 C 
BRANCH  21  22
ATOM     22  C   UNL A   1      46.068  21.975  39.348  1.00  0.00    -0.003 C 
ATOM     23  C   UNL A   1      47.093  20.910  39.705  1.00  0.00     0.004 C 
ENDBRANCH  21  22
ENDBRANCH  20  21
ENDBRANCH  11  20
BRANCH  14  24
ATOM     24  S   UNL A   1      42.169  25.014  35.495  1.00  0.00     0.310 S 
ATOM     25  F   UNL A   1      42.177  24.643  37.037  1.00  0.00    -0.094 F 
ATOM     26  F   UNL A   1      42.008  23.475  35.196  1.00  0.00    -0.094 F 
ATOM     27  F   UNL A   1      40.628  25.181  35.607  1.00  0.00    -0.094 F 
ATOM     28  F   UNL A   1      42.357  26.519  35.931  1.00  0.00    -0.094 F 
ATOM     29  F   UNL A   1      43.740  24.833  35.497  1.00  0.00    -0.094 F 
ENDBRANCH  14  24
BRANCH  19  30
ATOM     30  C   UNL A   1      50.163  24.553  33.938  1.00  0.00     0.430 C 
ATOM     31  F   UNL A   1      50.965  25.476  33.414  1.00  0.00    -0.167 F 
ATOM     32  F   UNL A   1      50.731  24.037  35.025  1.00  0.00    -0.167 F 
ATOM     33  F   UNL A   1      49.957  23.589  33.046  1.00  0.00    -0.167 F 
ENDBRANCH  19  30
ENDBRANCH   8  10
ENDBRANCH   7   8
ENDBRANCH   6   7
ENDBRANCH   5   6
ENDBRANCH   4   5
ENDBRANCH   3   4
ENDBRANCH   2   3
ENDBRANCH   1   2
BRANCH   1  34
ATOM     34  C   UNL A   1      46.885  29.978  26.387  1.00  0.00     0.188 C 
BRANCH  34  35
ATOM     35  C   UNL A   1      46.145  28.698  26.033  1.00  0.00     0.188 C 
BRANCH  35  36
ATOM     36  O   UNL A   1      46.881  27.579  26.506  1.00  0.00    -0.376 OA
BRANCH  36  37
ATOM     37  C   UNL A   1      46.450  26.408  25.828  1.00  0.00     0.202 C 
BRANCH  37  38
ATOM     38  C   UNL A   1      45.435  25.671  26.687  1.00  0.00     0.261 C 
BRANCH  38  39
ATOM     39  O   UNL A   1      44.400  25.157  25.861  1.00  0.00    -0.460 OA
BRANCH  39  40
ATOM     40  C   UNL A   1      43.056  25.563  26.074  1.00  0.00     0.338 C 
ATOM     41  O   UNL A   1      42.137  25.148  25.300  1.00  0.00    -0.246 OA
BRANCH  40  42
ATOM     42  C   UNL A   1      42.716  26.494  27.226  1.00  0.00     0.060 A 
ATOM     43  C   UNL A   1      43.015  27.843  27.119  1.00  0.00     0.016 A 
ATOM     44  C   UNL A   1      42.142  26.000  28.317  1.00  0.00     0.016 A 
ATOM     45  C   UNL A   1      42.930  28.547  28.343  1.00  0.00     0.010 A 
ATOM     46  C   UNL A   1      41.967  26.784  29.431  1.00  0.00     0.010 A 
ATOM     47  C   UNL A   1      42.294  28.111  29.416  1.00  0.00    -0.014 A 
BRANCH  47  48
ATOM     48  C   UNL A   1      41.945  29.036  30.571  1.00  0.00     0.031 A 
ATOM     49  C   UNL A   1      40.820  29.853  30.440  1.00  0.00     0.074 A 
ATOM     50  C   UNL A   1      42.761  29.015  31.689  1.00  0.00     0.049 A 
ATOM     51  N   UNL A   1      40.323  30.702  31.341  1.00  0.00    -0.248 NA
ATOM     52  C   UNL A   1      39.973  29.903  29.240  1.00  0.00     0.031 C 
ATOM     53  C   UNL A   1      43.892  28.187  31.832  1.00  0.00     0.029 A 
ATOM     54  N   UNL A   1      42.639  29.764  32.838  1.00  0.00    -0.354 N 
ATOM     55  C   UNL A   1      39.226  31.292  30.861  1.00  0.00     0.074 A 
ATOM     56  C   UNL A   1      38.989  30.791  29.501  1.00  0.00     0.031 C 
ATOM     57  C   UNL A   1      44.450  28.442  33.043  1.00  0.00     0.029 A 
ATOM     58  C   UNL A   1      43.678  29.432  33.679  1.00  0.00     0.049 A 
ATOM     59  H   UNL A   1      41.932  30.423  33.025  1.00  0.00     0.167 HD
ATOM     60  C   UNL A   1      38.415  32.227  31.505  1.00  0.00     0.031 A 
ATOM     61  C   UNL A   1      43.955  29.954  34.933  1.00  0.00     0.031 A 
ATOM     62  C   UNL A   1      38.667  32.717  32.777  1.00  0.00     0.049 A 
ATOM     63  C   UNL A   1      43.174  30.932  35.555  1.00  0.00     0.074 A 
ATOM     64  C   UNL A   1      37.854  33.653  33.444  1.00  0.00     0.029 A 
ATOM     65  N   UNL A   1      39.719  32.404  33.608  1.00  0.00    -0.354 N 
ATOM     66  N   UNL A   1      42.056  31.493  35.092  1.00  0.00    -0.248 NA
ATOM     67  C   UNL A   1      43.475  31.516  36.869  1.00  0.00     0.031 C 
ATOM     68  C   UNL A   1      38.413  33.909  34.657  1.00  0.00     0.029 A 
ATOM     69  C   UNL A   1      39.585  33.137  34.767  1.00  0.00     0.049 A 
ATOM     70  H   UNL A   1      40.442  31.766  33.409  1.00  0.00     0.167 HD
ATOM     71  C   UNL A   1      41.582  32.373  35.975  1.00  0.00     0.074 A 
ATOM     72  C   UNL A   1      42.492  32.407  37.129  1.00  0.00     0.031 C 
ATOM     73  C   UNL A   1      40.426  33.147  35.869  1.00  0.00     0.031 A 
BRANCH  60  74
ATOM     74  C   UNL A   1      37.184  32.736  30.771  1.00  0.00    -0.014 A 
ATOM     75  C   UNL A   1      35.948  32.160  31.015  1.00  0.00     0.010 A 
ATOM     76  C   UNL A   1      37.313  33.769  29.947  1.00  0.00     0.010 A 
ATOM     77  C   UNL A   1      34.938  32.565  30.110  1.00  0.00     0.020 A 
ATOM     78  C   UNL A   1      36.248  34.198  29.192  1.00  0.00     0.020 A 
ATOM     79  C   UNL A   1      35.011  33.634  29.338  1.00  0.00     0.054 A 
BRANCH  79  80
ATOM     80  S   UNL A   1      33.549  34.318  28.517  1.00  0.00     0.124 S 
ATOM     81  O   UNL A   1      33.969  35.474  27.607  1.00  0.00    -0.237 OA
ATOM     82  O   UNL A   1      32.875  33.228  27.681  1.00  0.00    -0.237 OA
ATOM     83  O   UNL A   1      32.451  34.892  29.696  1.00  0.00    -0.744 OA
ENDBRANCH  79  80
ENDBRANCH  60  74
BRANCH  61  84
ATOM     84  C   UNL A   1      45.175  29.433  35.674  1.00  0.00    -0.014 A 
ATOM     85  C   UNL A   1      46.387  30.091  35.546  1.00  0.00     0.010 A 
ATOM     86  C   UNL A   1      45.067  28.322  36.393  1.00  0.00     0.010 A 
ATOM     87  C   UNL A   1      47.500  29.333  35.981  1.00  0.00     0.020 A 
ATOM     88  C   UNL A   1      46.185  27.708  36.904  1.00  0.00     0.020 A 
ATOM     89  C   UNL A   1      47.423  28.272  36.762  1.00  0.00     0.054 A 
BRANCH  89  90
ATOM     90  S   UNL A   1      48.879  27.598  37.602  1.00  0.00     0.124 S 
ATOM     91  O   UNL A   1      50.060  27.567  36.630  1.00  0.00    -0.237 OA
ATOM     92  O   UNL A   1      49.229  28.481  38.802  1.00  0.00    -0.237 OA
ATOM     93  O   UNL A   1      48.542  26.011  38.141  1.00  0.00    -0.744 OA
ENDBRANCH  89  90
ENDBRANCH  61  84
BRANCH  73  94
ATOM     94  C   UNL A   1      40.066  34.057  37.032  1.00  0.00    -0.014 A 
ATOM     95  C   UNL A   1      40.468  35.382  37.007  1.00  0.00     0.010 A 
ATOM     96  C   UNL A   1      39.374  33.567  38.054  1.00  0.00     0.010 A 
ATOM     97  C   UNL A   1      40.340  36.045  38.250  1.00  0.00     0.020 A 
ATOM     98  C   UNL A   1      39.171  34.319  39.186  1.00  0.00     0.020 A 
ATOM     99  C   UNL A   1      39.593  35.618  39.252  1.00  0.00     0.054 A 
BRANCH  99 100
ATOM    100  S   UNL A   1      39.153  36.695  40.639  1.00  0.00     0.124 S 
ATOM    101  O   UNL A   1      38.281  37.847  40.135  1.00  0.00    -0.237 OA
ATOM    102  O   UNL A   1      38.379  35.890  41.685  1.00  0.00    -0.237 OA
ATOM    103  O   UNL A   1      40.578  37.325  41.345  1.00  0.00    -0.744 OA
ENDBRANCH  99 100
ENDBRANCH  73  94
ENDBRANCH  47  48
ENDBRANCH  40  42
ENDBRANCH  39  40
ENDBRANCH  38  39
ENDBRANCH  37  38
ENDBRANCH  36  37
ENDBRANCH  35  36
ENDBRANCH  34  35
ENDBRANCH   1  34
TORSDOF 28
ENDMDL
MODEL 3
REMARK VINA RESULT:      -7.7      1.921      3.066
REMARK SMILES CCCCc1cc(S(F)(F)(F)(F)F)cc2c1O[C@@H](C(F)(F)F)C(C(=O)OCCOCCOCCOCCOC(=O)c1ccc(-c3c4nc(c(-c5ccc(S(=O)(=O)[O-])cc5)c5ccc([nH]5)c(-c5ccc(S(=O)(=O)[O-])cc5)c5nc(c(-c6ccc(S(=O)(=O)[O-])cc6)c6ccc3[nH]6)C=C5)C=C4)cc1)=C2
REMARK SMILES IDX 32 1 31 2 30 3 29 4 28 5 27 6 26 7 24 8 25 9 23 10 5 11 6 12
REMARK SMILES IDX 16 13 7 14 15 15 17 16 14 17 101 18 18 19 4 20 3 21 2 22
REMARK SMILES IDX 1 23 8 24 9 25 10 26 11 27 12 28 13 29 19 30 20 31 21 32
REMARK SMILES IDX 22 33 33 34 34 35 35 36 36 37 37 38 38 39 39 40 40 41 41 42
REMARK SMILES IDX 42 43 100 44 43 45 99 46 44 47 45 48 46 49 93 50 47 51 98 52
REMARK SMILES IDX 92 53 94 54 48 55 97 56 91 57 90 58 49 60 79 61 60 62 78 63
REMARK SMILES IDX 61 64 64 65 77 66 95 67 62 68 63 69 76 71 96 72 65 73 50 74
REMARK SMILES IDX 51 75 59 76 52 77 58 78 53 79 54 80 55 81 56 82 57 83 80 84
REMARK SMILES IDX 81 85 89 86 82 87 88 88 83 89 84 90 85 91 86 92 87 93 66 94
REMARK SMILES IDX 67 95 75 96 68 97 74 98 69 99 70 100 71 101 72 102 73 103
REMARK H PARENT 94 59 64 70
REMARK Flexibility Score: inf
ROOT
ATOM      1  O   UNL A   1      34.285  35.739  32.831  1.00  0.00    -0.377 OA
ENDROOT
BRANCH   1   2
ATOM      2  C   UNL A   1      35.200  35.010  33.637  1.00  0.00     0.188 C 
BRANCH   2   3
ATOM      3  C   UNL A   1      34.963  33.521  33.451  1.00  0.00     0.188 C 
BRANCH   3   4
ATOM      4  O   UNL A   1      35.771  32.795  34.365  1.00  0.00    -0.376 OA
BRANCH   4   5
ATOM      5  C   UNL A   1      36.844  33.615  34.803  1.00  0.00     0.202 C 
BRANCH   5   6
ATOM      6  C   UNL A   1      36.630  33.998  36.258  1.00  0.00     0.261 C 
BRANCH   6   7
ATOM      7  O   UNL A   1      36.575  32.823  37.053  1.00  0.00    -0.460 OA
BRANCH   7   8
ATOM      8  C   UNL A   1      37.742  32.357  37.714  1.00  0.00     0.338 C 
ATOM      9  O   UNL A   1      38.444  31.435  37.191  1.00  0.00    -0.246 OA
BRANCH   8  10
ATOM     10  C   UNL A   1      38.153  32.961  39.047  1.00  0.00     0.087 C 
ATOM     11  C   UNL A   1      38.786  34.734  42.776  1.00  0.00    -0.004 A 
ATOM     12  C   UNL A   1      39.504  35.913  42.867  1.00  0.00     0.032 A 
ATOM     13  C   UNL A   1      38.547  34.201  41.533  1.00  0.00     0.131 A 
ATOM     14  C   UNL A   1      39.965  36.545  41.742  1.00  0.00     0.108 A 
ATOM     15  C   UNL A   1      39.013  34.801  40.377  1.00  0.00     0.019 A 
ATOM     16  O   UNL A   1      37.740  33.093  41.451  1.00  0.00    -0.475 OA
ATOM     17  C   UNL A   1      39.726  35.987  40.503  1.00  0.00     0.036 A 
ATOM     18  C   UNL A   1      38.675  34.180  39.107  1.00  0.00     0.027 C 
ATOM     19  C   UNL A   1      37.975  32.180  40.343  1.00  0.00     0.316 C 
BRANCH  11  20
ATOM     20  C   UNL A   1      38.273  34.041  44.028  1.00  0.00     0.039 C 
BRANCH  20  21
ATOM     21  C   UNL A   1      36.998  34.724  44.498  1.00  0.00     0.005 C 
BRANCH  21  22
ATOM     22  C   UNL A   1      35.819  33.786  44.300  1.00  0.00    -0.003 C 
ATOM     23  C   UNL A   1      36.241  32.363  44.630  1.00  0.00     0.004 C 
ENDBRANCH  21  22
ENDBRANCH  20  21
ENDBRANCH  11  20
BRANCH  14  24
ATOM     24  S   UNL A   1      40.881  38.099  41.881  1.00  0.00     0.310 S 
ATOM     25  F   UNL A   1      40.965  38.264  40.306  1.00  0.00    -0.094 F 
ATOM     26  F   UNL A   1      42.225  37.281  41.799  1.00  0.00    -0.094 F 
ATOM     27  F   UNL A   1      41.669  39.434  42.001  1.00  0.00    -0.094 F 
ATOM     28  F   UNL A   1      39.529  38.912  41.820  1.00  0.00    -0.094 F 
ATOM     29  F   UNL A   1      40.071  36.762  41.646  1.00  0.00    -0.094 F 
ENDBRANCH  14  24
BRANCH  19  30
ATOM     30  C   UNL A   1      36.779  31.251  40.202  1.00  0.00     0.430 C 
ATOM     31  F   UNL A   1      36.286  30.977  41.406  1.00  0.00    -0.167 F 
ATOM     32  F   UNL A   1      35.844  31.842  39.462  1.00  0.00    -0.167 F 
ATOM     33  F   UNL A   1      37.162  30.122  39.613  1.00  0.00    -0.167 F 
ENDBRANCH  19  30
ENDBRANCH   8  10
ENDBRANCH   7   8
ENDBRANCH   6   7
ENDBRANCH   5   6
ENDBRANCH   4   5
ENDBRANCH   3   4
ENDBRANCH   2   3
ENDBRANCH   1   2
BRANCH   1  34
ATOM     34  C   UNL A   1      33.466  34.833  32.107  1.00  0.00     0.188 C 
BRANCH  34  35
ATOM     35  C   UNL A   1      33.200  35.390  30.718  1.00  0.00     0.188 C 
BRANCH  35  36
ATOM     36  O   UNL A   1      33.050  34.318  29.797  1.00  0.00    -0.376 OA
BRANCH  36  37
ATOM     37  C   UNL A   1      34.107  34.358  28.849  1.00  0.00     0.202 C 
BRANCH  37  38
ATOM     38  C   UNL A   1      34.919  33.077  28.941  1.00  0.00     0.261 C 
BRANCH  38  39
ATOM     39  O   UNL A   1      34.060  31.959  28.776  1.00  0.00    -0.460 OA
BRANCH  39  40
ATOM     40  C   UNL A   1      34.576  30.735  28.273  1.00  0.00     0.338 C 
ATOM     41  O   UNL A   1      33.828  29.956  27.605  1.00  0.00    -0.246 OA
BRANCH  40  42
ATOM     42  C   UNL A   1      36.025  30.357  28.536  1.00  0.00     0.060 A 
ATOM     43  C   UNL A   1      36.975  30.586  27.552  1.00  0.00     0.016 A 
ATOM     44  C   UNL A   1      36.357  29.813  29.701  1.00  0.00     0.016 A 
ATOM     45  C   UNL A   1      38.209  29.936  27.787  1.00  0.00     0.010 A 
ATOM     46  C   UNL A   1      37.623  29.321  29.907  1.00  0.00     0.010 A 
ATOM     47  C   UNL A   1      38.595  29.459  28.956  1.00  0.00    -0.014 A 
BRANCH  47  48
ATOM     48  C   UNL A   1      40.043  29.084  29.230  1.00  0.00     0.031 A 
ATOM     49  C   UNL A   1      40.468  27.803  28.873  1.00  0.00     0.074 A 
ATOM     50  C   UNL A   1      40.860  30.036  29.816  1.00  0.00     0.049 A 
ATOM     51  N   UNL A   1      41.694  27.291  28.992  1.00  0.00    -0.248 NA
ATOM     52  C   UNL A   1      39.594  26.779  28.282  1.00  0.00     0.031 C 
ATOM     53  C   UNL A   1      40.440  31.334  30.170  1.00  0.00     0.029 A 
ATOM     54  N   UNL A   1      42.188  29.915  30.157  1.00  0.00    -0.354 N 
ATOM     55  C   UNL A   1      41.718  26.041  28.525  1.00  0.00     0.074 A 
ATOM     56  C   UNL A   1      40.367  25.692  28.067  1.00  0.00     0.031 C 
ATOM     57  C   UNL A   1      41.497  31.980  30.728  1.00  0.00     0.029 A 
ATOM     58  C   UNL A   1      42.595  31.099  30.731  1.00  0.00     0.049 A 
ATOM     59  H   UNL A   1      42.750  29.119  30.016  1.00  0.00     0.167 HD
ATOM     60  C   UNL A   1      42.814  25.179  28.462  1.00  0.00     0.031 A 
ATOM     61  C   UNL A   1      43.847  31.412  31.235  1.00  0.00     0.031 A 
ATOM     62  C   UNL A   1      44.078  25.508  28.927  1.00  0.00     0.049 A 
ATOM     63  C   UNL A   1      44.930  30.530  31.224  1.00  0.00     0.074 A 
ATOM     64  C   UNL A   1      45.196  24.654  28.862  1.00  0.00     0.029 A 
ATOM     65  N   UNL A   1      44.478  26.683  29.523  1.00  0.00    -0.354 N 
ATOM     66  N   UNL A   1      44.964  29.295  30.721  1.00  0.00    -0.248 NA
ATOM     67  C   UNL A   1      46.253  30.838  31.784  1.00  0.00     0.031 C 
ATOM     68  C   UNL A   1      46.253  25.301  29.421  1.00  0.00     0.029 A 
ATOM     69  C   UNL A   1      45.813  26.570  29.843  1.00  0.00     0.049 A 
ATOM     70  H   UNL A   1      43.909  27.469  29.690  1.00  0.00     0.167 HD
ATOM     71  C   UNL A   1      46.179  28.767  30.878  1.00  0.00     0.074 A 
ATOM     72  C   UNL A   1      47.024  29.749  31.572  1.00  0.00     0.031 C 
ATOM     73  C   UNL A   1      46.620  27.508  30.469  1.00  0.00     0.031 A 
BRANCH  60  74
ATOM     74  C   UNL A   1      42.611  23.803  27.848  1.00  0.00    -0.014 A 
ATOM     75  C   UNL A   1      42.704  23.640  26.475  1.00  0.00     0.010 A 
ATOM     76  C   UNL A   1      42.403  22.768  28.653  1.00  0.00     0.010 A 
ATOM     77  C   UNL A   1      42.272  22.372  26.019  1.00  0.00     0.020 A 
ATOM     78  C   UNL A   1      42.120  21.526  28.136  1.00  0.00     0.020 A 
ATOM     79  C   UNL A   1      42.135  21.306  26.787  1.00  0.00     0.054 A 
BRANCH  79  80
ATOM     80  S   UNL A   1      41.977  19.643  26.090  1.00  0.00     0.124 S 
ATOM     81  O   UNL A   1      40.510  19.367  25.754  1.00  0.00    -0.237 OA
ATOM     82  O   UNL A   1      42.821  19.540  24.818  1.00  0.00    -0.237 OA
ATOM     83  O   UNL A   1      42.525  18.493  27.231  1.00  0.00    -0.744 OA
ENDBRANCH  79  80
ENDBRANCH  60  74
BRANCH  61  84
ATOM     84  C   UNL A   1      44.055  32.794  31.833  1.00  0.00    -0.014 A 
ATOM     85  C   UNL A   1      43.869  32.987  33.192  1.00  0.00     0.010 A 
ATOM     86  C   UNL A   1      44.362  33.805  31.030  1.00  0.00     0.010 A 
ATOM     87  C   UNL A   1      43.744  34.346  33.566  1.00  0.00     0.020 A 
ATOM     88  C   UNL A   1      44.353  35.098  31.496  1.00  0.00     0.020 A 
ATOM     89  C   UNL A   1      44.117  35.366  32.816  1.00  0.00     0.054 A 
BRANCH  89  90
ATOM     90  S   UNL A   1      44.308  37.032  33.499  1.00  0.00     0.124 S 
ATOM     91  O   UNL A   1      43.765  38.058  32.501  1.00  0.00    -0.237 OA
ATOM     92  O   UNL A   1      43.530  37.137  34.813  1.00  0.00    -0.237 OA
ATOM     93  O   UNL A   1      45.964  37.342  33.791  1.00  0.00    -0.744 OA
ENDBRANCH  89  90
ENDBRANCH  61  84
BRANCH  73  94
ATOM     94  C   UNL A   1      48.072  27.140  30.726  1.00  0.00    -0.014 A 
ATOM     95  C   UNL A   1      48.393  26.371  31.832  1.00  0.00     0.010 A 
ATOM     96  C   UNL A   1      49.011  27.566  29.887  1.00  0.00     0.010 A 
ATOM     97  C   UNL A   1      49.776  26.343  32.130  1.00  0.00     0.020 A 
ATOM     98  C   UNL A   1      50.341  27.384  30.177  1.00  0.00     0.020 A 
ATOM     99  C   UNL A   1      50.731  26.683  31.284  1.00  0.00     0.054 A 
BRANCH  99 100
ATOM    100  S   UNL A   1      52.463  26.246  31.576  1.00  0.00     0.124 S 
ATOM    101  O   UNL A   1      52.547  24.808  32.092  1.00  0.00    -0.237 OA
ATOM    102  O   UNL A   1      53.248  26.366  30.268  1.00  0.00    -0.237 OA
ATOM    103  O   UNL A   1      53.130  27.308  32.740  1.00  0.00    -0.744 OA
ENDBRANCH  99 100
ENDBRANCH  73  94
ENDBRANCH  47  48
ENDBRANCH  40  42
ENDBRANCH  39  40
ENDBRANCH  38  39
ENDBRANCH  37  38
ENDBRANCH  36  37
ENDBRANCH  35  36
ENDBRANCH  34  35
ENDBRANCH   1  34
TORSDOF 28
ENDMDL
