MODEL 1
REMARK VINA RESULT:      -9.2      0.000      0.000
REMARK SMILES O=C(OCCOCCOCCOCCOC(=O)c1cccc(CS(=O)(=O)NCc2ccccc2)c1)c1ccc(-c2c3nc(c(-c4ccc(S(=O)(=O)[O-])cc4)c4ccc([nH]4)c(-c4ccc(S(=O)(=O)[O-])cc4)c4nc(c(-c5ccc(S(=O)(=O)[O-])cc5)c5ccc2[nH]5)C=C4)C=C3)cc1
REMARK SMILES IDX 10 1 9 2 8 3 7 4 6 5 5 6 4 7 3 8 2 9 1 10 36 11 37 12 95 13
REMARK SMILES IDX 38 14 94 15 39 16 40 17 41 18 88 19 42 20 93 21 87 22 89 23
REMARK SMILES IDX 43 24 92 25 86 26 85 27 44 29 74 30 55 31 73 32 56 33 59 34
REMARK SMILES IDX 72 35 90 36 57 37 58 38 71 40 91 41 60 42 45 43 46 44 54 45
REMARK SMILES IDX 47 46 53 47 48 48 49 49 50 50 51 51 52 52 75 53 76 54 84 55
REMARK SMILES IDX 77 56 83 57 78 58 79 59 80 60 81 61 82 62 61 63 62 64 70 65
REMARK SMILES IDX 63 66 69 67 64 68 65 69 66 70 67 71 68 72 11 73 12 74 13 75
REMARK SMILES IDX 14 76 15 77 16 78 17 79 18 80 19 81 35 82 20 83 22 84 21 85
REMARK SMILES IDX 23 86 24 87 25 88 26 89 27 90 28 92 29 93 30 94 34 95 31 96
REMARK SMILES IDX 33 97 32 98
REMARK H PARENT 89 28 59 39 27 91
REMARK Flexibility Score: inf
ROOT
ATOM      1  C   UNL A   1      33.294  35.645  30.184  1.00  0.00     0.188 C 
ENDROOT
BRANCH   1   2
ATOM      2  O   UNL A   1      32.681  35.049  31.321  1.00  0.00    -0.377 OA
BRANCH   2   3
ATOM      3  C   UNL A   1      33.230  35.440  32.574  1.00  0.00     0.188 C 
BRANCH   3   4
ATOM      4  C   UNL A   1      34.627  36.061  32.493  1.00  0.00     0.188 C 
BRANCH   4   5
ATOM      5  O   UNL A   1      35.563  35.287  33.228  1.00  0.00    -0.376 OA
BRANCH   5   6
ATOM      6  C   UNL A   1      35.670  33.881  33.075  1.00  0.00     0.202 C 
BRANCH   6   7
ATOM      7  C   UNL A   1      36.865  33.339  32.301  1.00  0.00     0.261 C 
BRANCH   7   8
ATOM      8  O   UNL A   1      36.672  32.065  31.655  1.00  0.00    -0.460 OA
BRANCH   8   9
ATOM      9  C   UNL A   1      37.228  30.855  31.910  1.00  0.00     0.338 C 
ATOM     10  O   UNL A   1      36.717  30.129  32.759  1.00  0.00    -0.246 OA
BRANCH   9  11
ATOM     11  C   UNL A   1      38.432  30.360  31.197  1.00  0.00     0.060 A 
ATOM     12  C   UNL A   1      39.360  29.506  31.767  1.00  0.00     0.016 A 
ATOM     13  C   UNL A   1      38.601  30.680  29.847  1.00  0.00     0.016 A 
ATOM     14  C   UNL A   1      40.554  29.204  31.169  1.00  0.00     0.010 A 
ATOM     15  C   UNL A   1      39.734  30.233  29.157  1.00  0.00     0.010 A 
ATOM     16  C   UNL A   1      40.745  29.547  29.845  1.00  0.00    -0.014 A 
BRANCH  16  17
ATOM     17  C   UNL A   1      42.088  29.293  29.312  1.00  0.00     0.031 A 
ATOM     18  C   UNL A   1      42.341  27.946  28.716  1.00  0.00     0.074 A 
ATOM     19  C   UNL A   1      42.947  30.322  29.161  1.00  0.00     0.049 A 
ATOM     20  N   UNL A   1      43.441  27.465  28.214  1.00  0.00    -0.248 NA
ATOM     21  C   UNL A   1      41.194  27.017  28.662  1.00  0.00     0.031 C 
ATOM     22  C   UNL A   1      42.683  31.718  29.545  1.00  0.00     0.029 A 
ATOM     23  N   UNL A   1      44.185  30.374  28.585  1.00  0.00    -0.354 N 
ATOM     24  C   UNL A   1      43.132  26.167  27.829  1.00  0.00     0.074 A 
ATOM     25  C   UNL A   1      41.749  25.926  28.161  1.00  0.00     0.031 C 
ATOM     26  C   UNL A   1      43.712  32.487  29.158  1.00  0.00     0.029 A 
ATOM     27  C   UNL A   1      44.748  31.629  28.605  1.00  0.00     0.049 A 
ATOM     28  H   UNL A   1      44.632  29.588  28.194  1.00  0.00     0.167 HD
ATOM     29  C   UNL A   1      43.946  25.262  27.247  1.00  0.00     0.031 A 
ATOM     30  C   UNL A   1      45.989  32.020  28.266  1.00  0.00     0.031 A 
ATOM     31  C   UNL A   1      45.316  25.550  26.933  1.00  0.00     0.049 A 
ATOM     32  C   UNL A   1      46.920  30.955  27.756  1.00  0.00     0.074 A 
ATOM     33  C   UNL A   1      46.289  24.703  26.443  1.00  0.00     0.029 A 
ATOM     34  N   UNL A   1      45.901  26.803  27.076  1.00  0.00    -0.354 N 
ATOM     35  N   UNL A   1      46.665  29.690  27.510  1.00  0.00    -0.248 NA
ATOM     36  C   UNL A   1      48.304  31.358  27.492  1.00  0.00     0.031 C 
ATOM     37  C   UNL A   1      47.478  25.433  26.342  1.00  0.00     0.029 A 
ATOM     38  C   UNL A   1      47.227  26.750  26.698  1.00  0.00     0.049 A 
ATOM     39  H   UNL A   1      45.437  27.608  27.400  1.00  0.00     0.167 HD
ATOM     40  C   UNL A   1      47.854  29.145  27.046  1.00  0.00     0.074 A 
ATOM     41  C   UNL A   1      48.817  30.232  27.014  1.00  0.00     0.031 C 
ATOM     42  C   UNL A   1      48.139  27.868  26.689  1.00  0.00     0.031 A 
BRANCH  29  43
ATOM     43  C   UNL A   1      43.386  23.890  27.008  1.00  0.00    -0.014 A 
ATOM     44  C   UNL A   1      42.874  23.510  25.755  1.00  0.00     0.010 A 
ATOM     45  C   UNL A   1      43.340  22.974  28.075  1.00  0.00     0.010 A 
ATOM     46  C   UNL A   1      42.303  22.247  25.580  1.00  0.00     0.020 A 
ATOM     47  C   UNL A   1      42.795  21.701  27.896  1.00  0.00     0.020 A 
ATOM     48  C   UNL A   1      42.270  21.349  26.652  1.00  0.00     0.054 A 
BRANCH  48  49
ATOM     49  S   UNL A   1      41.558  19.703  26.384  1.00  0.00     0.124 S 
ATOM     50  O   UNL A   1      40.162  20.021  26.094  1.00  0.00    -0.237 OA
ATOM     51  O   UNL A   1      42.335  19.202  25.255  1.00  0.00    -0.237 OA
ATOM     52  O   UNL A   1      41.790  19.014  27.652  1.00  0.00    -0.744 OA
ENDBRANCH  48  49
ENDBRANCH  29  43
BRANCH  30  53
ATOM     53  C   UNL A   1      46.444  33.419  28.511  1.00  0.00    -0.014 A 
ATOM     54  C   UNL A   1      46.979  33.816  29.748  1.00  0.00     0.010 A 
ATOM     55  C   UNL A   1      46.305  34.387  27.495  1.00  0.00     0.010 A 
ATOM     56  C   UNL A   1      47.329  35.153  29.975  1.00  0.00     0.020 A 
ATOM     57  C   UNL A   1      46.689  35.714  27.704  1.00  0.00     0.020 A 
ATOM     58  C   UNL A   1      47.177  36.094  28.953  1.00  0.00     0.054 A 
BRANCH  58  59
ATOM     59  S   UNL A   1      47.631  37.822  29.268  1.00  0.00     0.124 S 
ATOM     60  O   UNL A   1      48.122  37.759  30.641  1.00  0.00    -0.237 OA
ATOM     61  O   UNL A   1      48.642  38.073  28.243  1.00  0.00    -0.237 OA
ATOM     62  O   UNL A   1      46.375  38.545  29.084  1.00  0.00    -0.744 OA
ENDBRANCH  58  59
ENDBRANCH  30  53
BRANCH  42  63
ATOM     63  C   UNL A   1      49.532  27.606  26.196  1.00  0.00    -0.014 A 
ATOM     64  C   UNL A   1      49.805  27.464  24.825  1.00  0.00     0.010 A 
ATOM     65  C   UNL A   1      50.586  27.541  27.125  1.00  0.00     0.010 A 
ATOM     66  C   UNL A   1      51.108  27.213  24.395  1.00  0.00     0.020 A 
ATOM     67  C   UNL A   1      51.894  27.330  26.695  1.00  0.00     0.020 A 
ATOM     68  C   UNL A   1      52.143  27.147  25.334  1.00  0.00     0.054 A 
BRANCH  68  69
ATOM     69  S   UNL A   1      53.830  26.846  24.747  1.00  0.00     0.124 S 
ATOM     70  O   UNL A   1      53.719  25.504  24.183  1.00  0.00    -0.237 OA
ATOM     71  O   UNL A   1      54.027  27.924  23.779  1.00  0.00    -0.237 OA
ATOM     72  O   UNL A   1      54.641  26.949  25.958  1.00  0.00    -0.744 OA
ENDBRANCH  68  69
ENDBRANCH  42  63
ENDBRANCH  16  17
ENDBRANCH   9  11
ENDBRANCH   8   9
ENDBRANCH   7   8
ENDBRANCH   6   7
ENDBRANCH   5   6
ENDBRANCH   4   5
ENDBRANCH   3   4
ENDBRANCH   2   3
ENDBRANCH   1   2
BRANCH   1  73
ATOM     73  C   UNL A   1      33.725  34.738  28.995  1.00  0.00     0.188 C 
BRANCH  73  74
ATOM     74  O   UNL A   1      34.779  33.846  29.318  1.00  0.00    -0.376 OA
BRANCH  74  75
ATOM     75  C   UNL A   1      34.561  32.464  29.069  1.00  0.00     0.202 C 
BRANCH  75  76
ATOM     76  C   UNL A   1      35.083  31.819  27.768  1.00  0.00     0.261 C 
BRANCH  76  77
ATOM     77  O   UNL A   1      34.289  30.770  27.196  1.00  0.00    -0.460 OA
BRANCH  77  78
ATOM     78  C   UNL A   1      34.746  29.505  27.262  1.00  0.00     0.338 C 
ATOM     79  O   UNL A   1      35.736  29.087  27.845  1.00  0.00    -0.246 OA
BRANCH  78  80
ATOM     80  C   UNL A   1      33.717  28.645  26.654  1.00  0.00     0.060 A 
ATOM     81  C   UNL A   1      32.364  28.800  27.003  1.00  0.00     0.016 A 
ATOM     82  C   UNL A   1      34.094  27.667  25.743  1.00  0.00     0.020 A 
ATOM     83  C   UNL A   1      31.377  28.090  26.318  1.00  0.00     0.001 A 
ATOM     84  C   UNL A   1      33.112  26.805  25.241  1.00  0.00    -0.031 A 
ATOM     85  C   UNL A   1      31.751  27.083  25.441  1.00  0.00     0.005 A 
BRANCH  84  86
ATOM     86  C   UNL A   1      33.536  25.487  24.677  1.00  0.00     0.189 C 
BRANCH  86  87
ATOM     87  S   UNL A   1      33.048  24.168  25.836  1.00  0.00     0.216 S 
ATOM     88  O   UNL A   1      34.239  23.507  26.317  1.00  0.00    -0.212 OA
ATOM     89  O   UNL A   1      32.157  24.798  26.795  1.00  0.00    -0.212 OA
BRANCH  87  90
ATOM     90  N   UNL A   1      32.057  23.084  25.057  1.00  0.00    -0.211 NA
ATOM     91  H   UNL A   1      31.257  23.642  24.763  1.00  0.00     0.141 HD
BRANCH  90  92
ATOM     92  C   UNL A   1      32.340  22.217  23.899  1.00  0.00     0.134 C 
BRANCH  92  93
ATOM     93  C   UNL A   1      32.443  20.725  24.080  1.00  0.00    -0.033 A 
ATOM     94  C   UNL A   1      32.218  19.855  22.997  1.00  0.00     0.005 A 
ATOM     95  C   UNL A   1      32.699  20.156  25.328  1.00  0.00     0.005 A 
ATOM     96  C   UNL A   1      32.421  18.479  23.117  1.00  0.00     0.000 A 
ATOM     97  C   UNL A   1      32.880  18.778  25.459  1.00  0.00     0.000 A 
ATOM     98  C   UNL A   1      32.773  17.943  24.349  1.00  0.00     0.000 A 
ENDBRANCH  92  93
ENDBRANCH  90  92
ENDBRANCH  87  90
ENDBRANCH  86  87
ENDBRANCH  84  86
ENDBRANCH  78  80
ENDBRANCH  77  78
ENDBRANCH  76  77
ENDBRANCH  75  76
ENDBRANCH  74  75
ENDBRANCH  73  74
ENDBRANCH   1  73
TORSDOF 28
ENDMDL
MODEL 2
REMARK VINA RESULT:      -9.0      4.947     11.094
REMARK SMILES O=C(OCCOCCOCCOCCOC(=O)c1cccc(CS(=O)(=O)NCc2ccccc2)c1)c1ccc(-c2c3nc(c(-c4ccc(S(=O)(=O)[O-])cc4)c4ccc([nH]4)c(-c4ccc(S(=O)(=O)[O-])cc4)c4nc(c(-c5ccc(S(=O)(=O)[O-])cc5)c5ccc2[nH]5)C=C4)C=C3)cc1
REMARK SMILES IDX 10 1 9 2 8 3 7 4 6 5 5 6 4 7 3 8 2 9 1 10 36 11 37 12 95 13
REMARK SMILES IDX 38 14 94 15 39 16 40 17 41 18 88 19 42 20 93 21 87 22 89 23
REMARK SMILES IDX 43 24 92 25 86 26 85 27 44 29 74 30 55 31 73 32 56 33 59 34
REMARK SMILES IDX 72 35 90 36 57 37 58 38 71 40 91 41 60 42 45 43 46 44 54 45
REMARK SMILES IDX 47 46 53 47 48 48 49 49 50 50 51 51 52 52 75 53 76 54 84 55
REMARK SMILES IDX 77 56 83 57 78 58 79 59 80 60 81 61 82 62 61 63 62 64 70 65
REMARK SMILES IDX 63 66 69 67 64 68 65 69 66 70 67 71 68 72 11 73 12 74 13 75
REMARK SMILES IDX 14 76 15 77 16 78 17 79 18 80 19 81 35 82 20 83 22 84 21 85
REMARK SMILES IDX 23 86 24 87 25 88 26 89 27 90 28 92 29 93 30 94 34 95 31 96
REMARK SMILES IDX 33 97 32 98
REMARK H PARENT 89 28 59 39 27 91
REMARK Flexibility Score: inf
ROOT
ATOM      1  C   UNL A   1      43.241  23.865  27.798  1.00  0.00     0.188 C 
ENDROOT
BRANCH   1   2
ATOM      2  O   UNL A   1      43.317  22.559  27.241  1.00  0.00    -0.377 OA
BRANCH   2   3
ATOM      3  C   UNL A   1      43.051  22.483  25.846  1.00  0.00     0.188 C 
BRANCH   3   4
ATOM      4  C   UNL A   1      44.219  21.971  24.999  1.00  0.00     0.188 C 
BRANCH   4   5
ATOM      5  O   UNL A   1      45.414  22.665  25.321  1.00  0.00    -0.376 OA
BRANCH   5   6
ATOM      6  C   UNL A   1      45.611  24.030  24.988  1.00  0.00     0.202 C 
BRANCH   6   7
ATOM      7  C   UNL A   1      46.960  24.655  25.320  1.00  0.00     0.261 C 
BRANCH   7   8
ATOM      8  O   UNL A   1      47.432  25.660  24.400  1.00  0.00    -0.460 OA
BRANCH   8   9
ATOM      9  C   UNL A   1      47.024  26.939  24.207  1.00  0.00     0.338 C 
ATOM     10  O   UNL A   1      47.195  27.462  23.109  1.00  0.00    -0.246 OA
BRANCH   9  11
ATOM     11  C   UNL A   1      46.365  27.738  25.271  1.00  0.00     0.060 A 
ATOM     12  C   UNL A   1      47.029  28.678  26.040  1.00  0.00     0.016 A 
ATOM     13  C   UNL A   1      44.984  27.625  25.448  1.00  0.00     0.016 A 
ATOM     14  C   UNL A   1      46.460  29.274  27.134  1.00  0.00     0.010 A 
ATOM     15  C   UNL A   1      44.343  28.362  26.452  1.00  0.00     0.010 A 
ATOM     16  C   UNL A   1      45.102  29.138  27.339  1.00  0.00    -0.014 A 
BRANCH  16  17
ATOM     17  C   UNL A   1      44.590  29.708  28.591  1.00  0.00     0.031 A 
ATOM     18  C   UNL A   1      44.689  28.857  29.816  1.00  0.00     0.074 A 
ATOM     19  C   UNL A   1      44.282  31.019  28.647  1.00  0.00     0.049 A 
ATOM     20  N   UNL A   1      44.281  29.110  31.026  1.00  0.00    -0.248 NA
ATOM     21  C   UNL A   1      45.351  27.545  29.664  1.00  0.00     0.031 C 
ATOM     22  C   UNL A   1      44.355  31.962  27.518  1.00  0.00     0.029 A 
ATOM     23  N   UNL A   1      43.912  31.805  29.701  1.00  0.00    -0.354 N 
ATOM     24  C   UNL A   1      44.595  27.978  31.765  1.00  0.00     0.074 A 
ATOM     25  C   UNL A   1      45.215  27.028  30.873  1.00  0.00     0.031 C 
ATOM     26  C   UNL A   1      44.078  33.199  27.955  1.00  0.00     0.029 A 
ATOM     27  C   UNL A   1      43.700  33.120  29.357  1.00  0.00     0.049 A 
ATOM     28  H   UNL A   1      43.807  31.464  30.618  1.00  0.00     0.167 HD
ATOM     29  C   UNL A   1      44.377  27.762  33.078  1.00  0.00     0.031 A 
ATOM     30  C   UNL A   1      43.197  34.130  30.090  1.00  0.00     0.031 A 
ATOM     31  C   UNL A   1      43.757  28.739  33.926  1.00  0.00     0.049 A 
ATOM     32  C   UNL A   1      42.827  33.816  31.513  1.00  0.00     0.074 A 
ATOM     33  C   UNL A   1      43.375  28.622  35.247  1.00  0.00     0.029 A 
ATOM     34  N   UNL A   1      43.438  30.030  33.521  1.00  0.00    -0.354 N 
ATOM     35  N   UNL A   1      43.007  32.699  32.182  1.00  0.00    -0.248 NA
ATOM     36  C   UNL A   1      42.177  34.884  32.279  1.00  0.00     0.031 C 
ATOM     37  C   UNL A   1      42.774  29.828  35.624  1.00  0.00     0.029 A 
ATOM     38  C   UNL A   1      42.849  30.718  34.562  1.00  0.00     0.049 A 
ATOM     39  H   UNL A   1      43.608  30.398  32.624  1.00  0.00     0.167 HD
ATOM     40  C   UNL A   1      42.504  32.932  33.454  1.00  0.00     0.074 A 
ATOM     41  C   UNL A   1      42.047  34.311  33.467  1.00  0.00     0.031 C 
ATOM     42  C   UNL A   1      42.413  32.092  34.515  1.00  0.00     0.031 A 
BRANCH  29  43
ATOM     43  C   UNL A   1      44.735  26.407  33.619  1.00  0.00    -0.014 A 
ATOM     44  C   UNL A   1      43.757  25.420  33.841  1.00  0.00     0.010 A 
ATOM     45  C   UNL A   1      46.075  26.131  33.944  1.00  0.00     0.010 A 
ATOM     46  C   UNL A   1      44.111  24.191  34.403  1.00  0.00     0.020 A 
ATOM     47  C   UNL A   1      46.436  24.893  34.479  1.00  0.00     0.020 A 
ATOM     48  C   UNL A   1      45.451  23.935  34.715  1.00  0.00     0.054 A 
BRANCH  48  49
ATOM     49  S   UNL A   1      45.886  22.315  35.406  1.00  0.00     0.124 S 
ATOM     50  O   UNL A   1      45.360  22.415  36.765  1.00  0.00    -0.237 OA
ATOM     51  O   UNL A   1      45.176  21.394  34.524  1.00  0.00    -0.237 OA
ATOM     52  O   UNL A   1      47.343  22.275  35.304  1.00  0.00    -0.744 OA
ENDBRANCH  48  49
ENDBRANCH  29  43
BRANCH  30  53
ATOM     53  C   UNL A   1      42.907  35.454  29.469  1.00  0.00    -0.014 A 
ATOM     54  C   UNL A   1      41.769  35.663  28.672  1.00  0.00     0.010 A 
ATOM     55  C   UNL A   1      43.808  36.524  29.650  1.00  0.00     0.010 A 
ATOM     56  C   UNL A   1      41.560  36.895  28.040  1.00  0.00     0.020 A 
ATOM     57  C   UNL A   1      43.583  37.767  29.054  1.00  0.00     0.020 A 
ATOM     58  C   UNL A   1      42.471  37.938  28.232  1.00  0.00     0.054 A 
BRANCH  58  59
ATOM     59  S   UNL A   1      42.185  39.525  27.402  1.00  0.00     0.124 S 
ATOM     60  O   UNL A   1      41.446  40.268  28.417  1.00  0.00    -0.237 OA
ATOM     61  O   UNL A   1      43.543  39.992  27.137  1.00  0.00    -0.237 OA
ATOM     62  O   UNL A   1      41.418  39.157  26.213  1.00  0.00    -0.744 OA
ENDBRANCH  58  59
ENDBRANCH  30  53
BRANCH  42  63
ATOM     63  C   UNL A   1      41.837  32.667  35.777  1.00  0.00    -0.014 A 
ATOM     64  C   UNL A   1      40.452  32.652  36.018  1.00  0.00     0.010 A 
ATOM     65  C   UNL A   1      42.706  33.194  36.748  1.00  0.00     0.010 A 
ATOM     66  C   UNL A   1      39.943  33.200  37.195  1.00  0.00     0.020 A 
ATOM     67  C   UNL A   1      42.203  33.706  37.942  1.00  0.00     0.020 A 
ATOM     68  C   UNL A   1      40.822  33.725  38.148  1.00  0.00     0.054 A 
BRANCH  68  69
ATOM     69  S   UNL A   1      40.136  34.406  39.679  1.00  0.00     0.124 S 
ATOM     70  O   UNL A   1      41.253  35.200  40.183  1.00  0.00    -0.237 OA
ATOM     71  O   UNL A   1      38.985  35.169  39.201  1.00  0.00    -0.237 OA
ATOM     72  O   UNL A   1      39.807  33.222  40.468  1.00  0.00    -0.744 OA
ENDBRANCH  68  69
ENDBRANCH  42  63
ENDBRANCH  16  17
ENDBRANCH   9  11
ENDBRANCH   8   9
ENDBRANCH   7   8
ENDBRANCH   6   7
ENDBRANCH   5   6
ENDBRANCH   4   5
ENDBRANCH   3   4
ENDBRANCH   2   3
ENDBRANCH   1   2
BRANCH   1  73
ATOM     73  C   UNL A   1      42.513  24.986  26.998  1.00  0.00     0.188 C 
BRANCH  73  74
ATOM     74  O   UNL A   1      41.513  25.656  27.747  1.00  0.00    -0.376 OA
BRANCH  74  75
ATOM     75  C   UNL A   1      41.880  26.877  28.375  1.00  0.00     0.202 C 
BRANCH  75  76
ATOM     76  C   UNL A   1      40.850  27.650  29.227  1.00  0.00     0.261 C 
BRANCH  76  77
ATOM     77  O   UNL A   1      40.554  28.996  28.829  1.00  0.00    -0.460 OA
BRANCH  77  78
ATOM     78  C   UNL A   1      40.387  29.930  29.785  1.00  0.00     0.338 C 
ATOM     79  O   UNL A   1      41.204  30.737  30.207  1.00  0.00    -0.246 OA
BRANCH  78  80
ATOM     80  C   UNL A   1      38.953  29.950  30.120  1.00  0.00     0.060 A 
ATOM     81  C   UNL A   1      38.530  29.730  31.443  1.00  0.00     0.016 A 
ATOM     82  C   UNL A   1      38.019  30.171  29.119  1.00  0.00     0.020 A 
ATOM     83  C   UNL A   1      37.189  29.897  31.788  1.00  0.00     0.001 A 
ATOM     84  C   UNL A   1      36.659  30.102  29.443  1.00  0.00    -0.031 A 
ATOM     85  C   UNL A   1      36.248  30.074  30.784  1.00  0.00     0.005 A 
BRANCH  84  86
ATOM     86  C   UNL A   1      35.673  29.847  28.348  1.00  0.00     0.189 C 
BRANCH  86  87
ATOM     87  S   UNL A   1      34.733  31.378  28.037  1.00  0.00     0.216 S 
ATOM     88  O   UNL A   1      33.832  31.153  26.930  1.00  0.00    -0.212 OA
ATOM     89  O   UNL A   1      34.184  31.769  29.323  1.00  0.00    -0.212 OA
BRANCH  87  90
ATOM     90  N   UNL A   1      35.788  32.613  27.686  1.00  0.00    -0.211 NA
ATOM     91  H   UNL A   1      35.463  32.974  26.791  1.00  0.00     0.141 HD
BRANCH  90  92
ATOM     92  C   UNL A   1      36.115  33.819  28.467  1.00  0.00     0.134 C 
BRANCH  92  93
ATOM     93  C   UNL A   1      37.097  33.739  29.608  1.00  0.00    -0.033 A 
ATOM     94  C   UNL A   1      36.647  33.726  30.940  1.00  0.00     0.005 A 
ATOM     95  C   UNL A   1      38.474  33.738  29.387  1.00  0.00     0.005 A 
ATOM     96  C   UNL A   1      37.531  33.537  32.004  1.00  0.00     0.000 A 
ATOM     97  C   UNL A   1      39.366  33.572  30.448  1.00  0.00     0.000 A 
ATOM     98  C   UNL A   1      38.895  33.439  31.752  1.00  0.00     0.000 A 
ENDBRANCH  92  93
ENDBRANCH  90  92
ENDBRANCH  87  90
ENDBRANCH  86  87
ENDBRANCH  84  86
ENDBRANCH  78  80
ENDBRANCH  77  78
ENDBRANCH  76  77
ENDBRANCH  75  76
ENDBRANCH  74  75
ENDBRANCH  73  74
ENDBRANCH   1  73
TORSDOF 28
ENDMDL
MODEL 3
REMARK VINA RESULT:      -8.4      2.895      5.540
REMARK SMILES O=C(OCCOCCOCCOCCOC(=O)c1cccc(CS(=O)(=O)NCc2ccccc2)c1)c1ccc(-c2c3nc(c(-c4ccc(S(=O)(=O)[O-])cc4)c4ccc([nH]4)c(-c4ccc(S(=O)(=O)[O-])cc4)c4nc(c(-c5ccc(S(=O)(=O)[O-])cc5)c5ccc2[nH]5)C=C4)C=C3)cc1
REMARK SMILES IDX 10 1 9 2 8 3 7 4 6 5 5 6 4 7 3 8 2 9 1 10 36 11 37 12 95 13
REMARK SMILES IDX 38 14 94 15 39 16 40 17 41 18 88 19 42 20 93 21 87 22 89 23
REMARK SMILES IDX 43 24 92 25 86 26 85 27 44 29 74 30 55 31 73 32 56 33 59 34
REMARK SMILES IDX 72 35 90 36 57 37 58 38 71 40 91 41 60 42 45 43 46 44 54 45
REMARK SMILES IDX 47 46 53 47 48 48 49 49 50 50 51 51 52 52 75 53 76 54 84 55
REMARK SMILES IDX 77 56 83 57 78 58 79 59 80 60 81 61 82 62 61 63 62 64 70 65
REMARK SMILES IDX 63 66 69 67 64 68 65 69 66 70 67 71 68 72 11 73 12 74 13 75
REMARK SMILES IDX 14 76 15 77 16 78 17 79 18 80 19 81 35 82 20 83 22 84 21 85
REMARK SMILES IDX 23 86 24 87 25 88 26 89 27 90 28 92 29 93 30 94 34 95 31 96
REMARK SMILES IDX 33 97 32 98
REMARK H PARENT 89 28 59 39 27 91
REMARK Flexibility Score: inf
ROOT
ATOM      1  C   UNL A   1      30.526  25.978  26.263  1.00  0.00     0.188 C 
ENDROOT
BRANCH   1   2
ATOM      2  O   UNL A   1      31.557  26.508  27.088  1.00  0.00    -0.377 OA
BRANCH   2   3
ATOM      3  C   UNL A   1      31.301  27.806  27.610  1.00  0.00     0.188 C 
BRANCH   3   4
ATOM      4  C   UNL A   1      32.361  28.856  27.263  1.00  0.00     0.188 C 
BRANCH   4   5
ATOM      5  O   UNL A   1      33.611  28.518  27.844  1.00  0.00    -0.376 OA
BRANCH   5   6
ATOM      6  C   UNL A   1      34.694  29.433  27.897  1.00  0.00     0.202 C 
BRANCH   6   7
ATOM      7  C   UNL A   1      35.474  29.538  29.201  1.00  0.00     0.261 C 
BRANCH   7   8
ATOM      8  O   UNL A   1      36.910  29.527  29.079  1.00  0.00    -0.460 OA
BRANCH   8   9
ATOM      9  C   UNL A   1      37.721  30.109  28.161  1.00  0.00     0.338 C 
ATOM     10  O   UNL A   1      37.282  31.026  27.472  1.00  0.00    -0.246 OA
BRANCH   9  11
ATOM     11  C   UNL A   1      39.130  29.690  27.957  1.00  0.00     0.060 A 
ATOM     12  C   UNL A   1      40.021  29.479  28.994  1.00  0.00     0.016 A 
ATOM     13  C   UNL A   1      39.568  29.388  26.665  1.00  0.00     0.016 A 
ATOM     14  C   UNL A   1      41.359  29.272  28.790  1.00  0.00     0.010 A 
ATOM     15  C   UNL A   1      40.895  28.999  26.447  1.00  0.00     0.010 A 
ATOM     16  C   UNL A   1      41.807  29.008  27.511  1.00  0.00    -0.014 A 
BRANCH  16  17
ATOM     17  C   UNL A   1      43.264  28.912  27.358  1.00  0.00     0.031 A 
ATOM     18  C   UNL A   1      43.812  27.614  26.858  1.00  0.00     0.074 A 
ATOM     19  C   UNL A   1      44.014  30.030  27.435  1.00  0.00     0.049 A 
ATOM     20  N   UNL A   1      45.052  27.266  26.671  1.00  0.00    -0.248 NA
ATOM     21  C   UNL A   1      42.830  26.569  26.505  1.00  0.00     0.031 C 
ATOM     22  C   UNL A   1      43.506  31.380  27.727  1.00  0.00     0.029 A 
ATOM     23  N   UNL A   1      45.347  30.228  27.210  1.00  0.00    -0.354 N 
ATOM     24  C   UNL A   1      45.001  25.952  26.224  1.00  0.00     0.074 A 
ATOM     25  C   UNL A   1      43.615  25.556  26.177  1.00  0.00     0.031 C 
ATOM     26  C   UNL A   1      44.510  32.264  27.625  1.00  0.00     0.029 A 
ATOM     27  C   UNL A   1      45.743  31.535  27.373  1.00  0.00     0.049 A 
ATOM     28  H   UNL A   1      45.965  29.504  26.958  1.00  0.00     0.167 HD
ATOM     29  C   UNL A   1      46.034  25.154  25.886  1.00  0.00     0.031 A 
ATOM     30  C   UNL A   1      46.979  32.065  27.376  1.00  0.00     0.031 A 
ATOM     31  C   UNL A   1      47.398  25.594  25.948  1.00  0.00     0.049 A 
ATOM     32  C   UNL A   1      48.124  31.118  27.139  1.00  0.00     0.074 A 
ATOM     33  C   UNL A   1      48.553  24.867  25.740  1.00  0.00     0.029 A 
ATOM     34  N   UNL A   1      47.783  26.898  26.235  1.00  0.00    -0.354 N 
ATOM     35  N   UNL A   1      48.083  29.839  26.840  1.00  0.00    -0.248 NA
ATOM     36  C   UNL A   1      49.475  31.673  27.251  1.00  0.00     0.031 C 
ATOM     37  C   UNL A   1      49.639  25.723  25.955  1.00  0.00     0.029 A 
ATOM     38  C   UNL A   1      49.159  26.997  26.225  1.00  0.00     0.049 A 
ATOM     39  H   UNL A   1      47.164  27.641  26.418  1.00  0.00     0.167 HD
ATOM     40  C   UNL A   1      49.405  29.436  26.714  1.00  0.00     0.074 A 
ATOM     41  C   UNL A   1      50.216  30.621  26.934  1.00  0.00     0.031 C 
ATOM     42  C   UNL A   1      49.913  28.206  26.453  1.00  0.00     0.031 A 
BRANCH  29  43
ATOM     43  C   UNL A   1      45.712  23.735  25.514  1.00  0.00    -0.014 A 
ATOM     44  C   UNL A   1      45.621  22.721  26.484  1.00  0.00     0.010 A 
ATOM     45  C   UNL A   1      45.531  23.406  24.159  1.00  0.00     0.010 A 
ATOM     46  C   UNL A   1      45.380  21.399  26.103  1.00  0.00     0.020 A 
ATOM     47  C   UNL A   1      45.262  22.090  23.776  1.00  0.00     0.020 A 
ATOM     48  C   UNL A   1      45.199  21.093  24.750  1.00  0.00     0.054 A 
BRANCH  48  49
ATOM     49  S   UNL A   1      44.849  19.374  24.288  1.00  0.00     0.124 S 
ATOM     50  O   UNL A   1      44.479  19.509  22.881  1.00  0.00    -0.237 OA
ATOM     51  O   UNL A   1      46.125  18.713  24.540  1.00  0.00    -0.237 OA
ATOM     52  O   UNL A   1      43.761  18.989  25.184  1.00  0.00    -0.744 OA
ENDBRANCH  48  49
ENDBRANCH  29  43
BRANCH  30  53
ATOM     53  C   UNL A   1      47.196  33.498  27.725  1.00  0.00    -0.014 A 
ATOM     54  C   UNL A   1      47.304  33.925  29.060  1.00  0.00     0.010 A 
ATOM     55  C   UNL A   1      47.261  34.466  26.701  1.00  0.00     0.010 A 
ATOM     56  C   UNL A   1      47.433  35.287  29.362  1.00  0.00     0.020 A 
ATOM     57  C   UNL A   1      47.429  35.820  26.996  1.00  0.00     0.020 A 
ATOM     58  C   UNL A   1      47.489  36.226  28.328  1.00  0.00     0.054 A 
BRANCH  58  59
ATOM     59  S   UNL A   1      47.652  37.985  28.741  1.00  0.00     0.124 S 
ATOM     60  O   UNL A   1      48.201  37.929  30.092  1.00  0.00    -0.237 OA
ATOM     61  O   UNL A   1      48.562  38.468  27.706  1.00  0.00    -0.237 OA
ATOM     62  O   UNL A   1      46.284  38.488  28.641  1.00  0.00    -0.744 OA
ENDBRANCH  58  59
ENDBRANCH  30  53
BRANCH  42  63
ATOM     63  C   UNL A   1      51.407  28.106  26.352  1.00  0.00    -0.014 A 
ATOM     64  C   UNL A   1      52.085  28.496  25.184  1.00  0.00     0.010 A 
ATOM     65  C   UNL A   1      52.140  27.652  27.462  1.00  0.00     0.010 A 
ATOM     66  C   UNL A   1      53.474  28.385  25.114  1.00  0.00     0.020 A 
ATOM     67  C   UNL A   1      53.530  27.578  27.409  1.00  0.00     0.020 A 
ATOM     68  C   UNL A   1      54.186  27.926  26.227  1.00  0.00     0.054 A 
BRANCH  68  69
ATOM     69  S   UNL A   1      55.991  27.818  26.119  1.00  0.00     0.124 S 
ATOM     70  O   UNL A   1      56.245  26.482  26.650  1.00  0.00    -0.237 OA
ATOM     71  O   UNL A   1      56.235  27.985  24.688  1.00  0.00    -0.237 OA
ATOM     72  O   UNL A   1      56.454  28.921  26.957  1.00  0.00    -0.744 OA
ENDBRANCH  68  69
ENDBRANCH  42  63
ENDBRANCH  16  17
ENDBRANCH   9  11
ENDBRANCH   8   9
ENDBRANCH   7   8
ENDBRANCH   6   7
ENDBRANCH   5   6
ENDBRANCH   4   5
ENDBRANCH   3   4
ENDBRANCH   2   3
ENDBRANCH   1   2
BRANCH   1  73
ATOM     73  C   UNL A   1      30.386  24.434  26.128  1.00  0.00     0.188 C 
BRANCH  73  74
ATOM     74  O   UNL A   1      31.628  23.763  25.996  1.00  0.00    -0.376 OA
BRANCH  74  75
ATOM     75  C   UNL A   1      31.593  22.407  25.570  1.00  0.00     0.202 C 
BRANCH  75  76
ATOM     76  C   UNL A   1      32.909  21.633  25.338  1.00  0.00     0.261 C 
BRANCH  76  77
ATOM     77  O   UNL A   1      33.644  21.940  24.145  1.00  0.00    -0.460 OA
BRANCH  77  78
ATOM     78  C   UNL A   1      34.511  22.969  24.168  1.00  0.00     0.338 C 
ATOM     79  O   UNL A   1      35.625  23.010  24.670  1.00  0.00    -0.246 OA
BRANCH  78  80
ATOM     80  C   UNL A   1      33.958  24.016  23.292  1.00  0.00     0.060 A 
ATOM     81  C   UNL A   1      33.470  23.689  22.015  1.00  0.00     0.016 A 
ATOM     82  C   UNL A   1      33.934  25.333  23.730  1.00  0.00     0.020 A 
ATOM     83  C   UNL A   1      32.810  24.650  21.248  1.00  0.00     0.001 A 
ATOM     84  C   UNL A   1      33.483  26.324  22.850  1.00  0.00    -0.031 A 
ATOM     85  C   UNL A   1      32.825  25.974  21.661  1.00  0.00     0.005 A 
BRANCH  84  86
ATOM     86  C   UNL A   1      33.896  27.740  23.093  1.00  0.00     0.189 C 
BRANCH  86  87
ATOM     87  S   UNL A   1      32.421  28.713  23.543  1.00  0.00     0.216 S 
ATOM     88  O   UNL A   1      31.403  27.813  24.036  1.00  0.00    -0.212 OA
ATOM     89  O   UNL A   1      32.900  29.775  24.409  1.00  0.00    -0.212 OA
BRANCH  87  90
ATOM     90  N   UNL A   1      31.872  29.535  22.206  1.00  0.00    -0.211 NA
ATOM     91  H   UNL A   1      32.506  29.254  21.461  1.00  0.00     0.141 HD
BRANCH  90  92
ATOM     92  C   UNL A   1      30.540  29.519  21.576  1.00  0.00     0.134 C 
BRANCH  92  93
ATOM     93  C   UNL A   1      29.351  30.089  22.305  1.00  0.00    -0.033 A 
ATOM     94  C   UNL A   1      28.287  29.258  22.700  1.00  0.00     0.005 A 
ATOM     95  C   UNL A   1      29.235  31.457  22.556  1.00  0.00     0.005 A 
ATOM     96  C   UNL A   1      27.233  29.746  23.475  1.00  0.00     0.000 A 
ATOM     97  C   UNL A   1      28.171  31.955  23.311  1.00  0.00     0.000 A 
ATOM     98  C   UNL A   1      27.188  31.097  23.798  1.00  0.00     0.000 A 
ENDBRANCH  92  93
ENDBRANCH  90  92
ENDBRANCH  87  90
ENDBRANCH  86  87
ENDBRANCH  84  86
ENDBRANCH  78  80
ENDBRANCH  77  78
ENDBRANCH  76  77
ENDBRANCH  75  76
ENDBRANCH  74  75
ENDBRANCH  73  74
ENDBRANCH   1  73
TORSDOF 28
ENDMDL
