MODEL 1
REMARK VINA RESULT:      -8.0      0.000      0.000
REMARK SMILES COc1ccc(-c2cc(Cl)cc3c2O[C@@H](C(F)(F)F)C(C(=O)OCCOCCOCCOCCOC(=O)c2ccc(-c4c5nc(c(-c6ccc(S(=O)(=O)[O-])cc6)c6ccc([nH]6)c(-c6ccc(S(=O)(=O)[O-])cc6)c6nc(c(-c7ccc(S(=O)(=O)[O-])cc7)c7ccc4[nH]7)C=C6)C=C5)cc2)=C3)cc1C
REMARK SMILES IDX 30 1 29 2 28 3 27 4 26 5 25 6 24 7 23 8 21 9 22 10 20 11
REMARK SMILES IDX 7 12 8 13 13 14 9 15 12 16 14 17 10 18 11 19 98 20 15 21
REMARK SMILES IDX 6 22 3 23 4 24 100 25 5 26 99 27 101 28 2 29 1 30 16 31
REMARK SMILES IDX 17 32 18 33 19 34 31 35 32 36 33 37 34 38 35 39 36 40 37 41
REMARK SMILES IDX 38 42 39 43 97 44 40 45 96 46 41 47 42 48 43 49 90 50 44 51
REMARK SMILES IDX 95 52 89 53 91 54 45 55 94 56 88 57 87 58 46 60 76 61 57 62
REMARK SMILES IDX 75 63 58 64 61 65 74 66 92 67 59 68 60 69 73 71 93 72 62 73
REMARK SMILES IDX 47 74 48 75 56 76 49 77 55 78 50 79 51 80 52 81 53 82 54 83
REMARK SMILES IDX 77 84 78 85 86 86 79 87 85 88 80 89 81 90 82 91 83 92 84 93
REMARK SMILES IDX 63 94 64 95 72 96 65 97 71 98 66 99 67 100 68 101 69 102
REMARK SMILES IDX 70 103
REMARK H PARENT 91 59 61 70
REMARK Flexibility Score: inf
ROOT
ATOM      1  C   UNL A   1      47.270  30.062  36.267  1.00  0.00     0.188 C 
ENDROOT
BRANCH   1   2
ATOM      2  O   UNL A   1      48.522  29.589  35.812  1.00  0.00    -0.377 OA
BRANCH   2   3
ATOM      3  C   UNL A   1      48.594  29.765  34.408  1.00  0.00     0.188 C 
BRANCH   3   4
ATOM      4  C   UNL A   1      47.232  29.810  33.620  1.00  0.00     0.188 C 
BRANCH   4   5
ATOM      5  O   UNL A   1      46.719  28.977  32.174  1.00  0.00    -0.376 OA
BRANCH   5   6
ATOM      6  C   UNL A   1      47.104  29.308  30.430  1.00  0.00     0.202 C 
BRANCH   6   7
ATOM      7  C   UNL A   1      46.595  30.582  29.142  1.00  0.00     0.261 C 
BRANCH   7   8
ATOM      8  O   UNL A   1      46.348  32.286  29.158  1.00  0.00    -0.460 OA
BRANCH   8   9
ATOM      9  C   UNL A   1      45.659  33.227  29.956  1.00  0.00     0.338 C 
ATOM     10  O   UNL A   1      46.235  34.271  30.136  1.00  0.00    -0.246 OA
BRANCH   9  11
ATOM     11  C   UNL A   1      44.149  33.382  30.473  1.00  0.00     0.087 C 
ATOM     12  C   UNL A   1      44.244  35.067  26.922  1.00  0.00     0.026 A 
ATOM     13  C   UNL A   1      43.555  36.236  26.579  1.00  0.00     0.033 A 
ATOM     14  C   UNL A   1      43.639  34.361  28.010  1.00  0.00     0.135 A 
ATOM     15  C   UNL A   1      42.510  36.691  27.391  1.00  0.00     0.042 A 
ATOM     16  C   UNL A   1      43.135  35.107  29.058  1.00  0.00     0.019 A 
ATOM     17  O   UNL A   1      43.419  32.966  28.174  1.00  0.00    -0.475 OA
ATOM     18  Cl  UNL A   1      41.603  38.063  26.897  1.00  0.00    -0.084 Cl
ATOM     19  C   UNL A   1      42.322  36.151  28.671  1.00  0.00     0.032 A 
ATOM     20  C   UNL A   1      43.447  34.576  30.444  1.00  0.00     0.027 C 
ATOM     21  C   UNL A   1      43.165  32.585  29.627  1.00  0.00     0.316 C 
BRANCH  12  22
ATOM     22  C   UNL A   1      45.762  35.278  26.784  1.00  0.00    -0.014 A 
ATOM     23  C   UNL A   1      49.456  35.778  26.505  1.00  0.00     0.121 A 
ATOM     24  C   UNL A   1      48.492  34.877  25.529  1.00  0.00     0.047 A 
ATOM     25  C   UNL A   1      48.616  36.712  27.661  1.00  0.00    -0.008 A 
ATOM     26  C   UNL A   1      46.755  34.633  25.663  1.00  0.00     0.013 A 
ATOM     27  C   UNL A   1      46.559  36.433  27.790  1.00  0.00     0.016 A 
ATOM     28  C   UNL A   1      49.674  37.818  28.196  1.00  0.00     0.048 C 
BRANCH  23  29
ATOM     29  O   UNL A   1      50.771  35.820  26.136  1.00  0.00    -0.496 OA
ATOM     30  C   UNL A   1      51.132  35.997  24.768  1.00  0.00     0.278 C 
ENDBRANCH  23  29
ENDBRANCH  12  22
BRANCH  21  31
ATOM     31  C   UNL A   1      42.834  31.286  30.420  1.00  0.00     0.430 C 
ATOM     32  F   UNL A   1      41.481  31.264  30.657  1.00  0.00    -0.167 F 
ATOM     33  F   UNL A   1      43.088  30.137  29.756  1.00  0.00    -0.167 F 
ATOM     34  F   UNL A   1      43.365  31.204  31.658  1.00  0.00    -0.167 F 
ENDBRANCH  21  31
ENDBRANCH   9  11
ENDBRANCH   8   9
ENDBRANCH   7   8
ENDBRANCH   6   7
ENDBRANCH   5   6
ENDBRANCH   4   5
ENDBRANCH   3   4
ENDBRANCH   2   3
ENDBRANCH   1   2
BRANCH   1  35
ATOM     35  C   UNL A   1      47.357  31.465  36.859  1.00  0.00     0.188 C 
BRANCH  35  36
ATOM     36  O   UNL A   1      46.291  32.323  36.540  1.00  0.00    -0.376 OA
BRANCH  36  37
ATOM     37  C   UNL A   1      44.969  31.943  36.333  1.00  0.00     0.202 C 
BRANCH  37  38
ATOM     38  C   UNL A   1      44.257  33.253  36.088  1.00  0.00     0.261 C 
BRANCH  38  39
ATOM     39  O   UNL A   1      42.974  33.356  36.812  1.00  0.00    -0.460 OA
BRANCH  39  40
ATOM     40  C   UNL A   1      41.867  33.972  36.242  1.00  0.00     0.338 C 
ATOM     41  O   UNL A   1      41.765  35.182  36.140  1.00  0.00    -0.246 OA
BRANCH  40  42
ATOM     42  C   UNL A   1      40.898  32.961  35.650  1.00  0.00     0.060 A 
ATOM     43  C   UNL A   1      40.164  31.976  36.324  1.00  0.00     0.016 A 
ATOM     44  C   UNL A   1      40.979  32.814  34.298  1.00  0.00     0.016 A 
ATOM     45  C   UNL A   1      39.695  30.789  35.625  1.00  0.00     0.010 A 
ATOM     46  C   UNL A   1      40.914  31.513  33.816  1.00  0.00     0.010 A 
ATOM     47  C   UNL A   1      40.240  30.415  34.363  1.00  0.00    -0.014 A 
BRANCH  47  48
ATOM     48  C   UNL A   1      40.522  28.939  33.440  1.00  0.00     0.031 A 
ATOM     49  C   UNL A   1      42.096  28.295  34.167  1.00  0.00     0.074 A 
ATOM     50  C   UNL A   1      39.606  28.443  32.174  1.00  0.00     0.049 A 
ATOM     51  N   UNL A   1      43.187  27.851  32.939  1.00  0.00    -0.248 NA
ATOM     52  C   UNL A   1      42.984  27.439  35.982  1.00  0.00     0.031 C 
ATOM     53  C   UNL A   1      38.968  27.232  31.562  1.00  0.00     0.029 A 
ATOM     54  N   UNL A   1      38.698  29.156  31.082  1.00  0.00    -0.354 N 
ATOM     55  C   UNL A   1      44.474  26.739  33.568  1.00  0.00     0.074 A 
ATOM     56  C   UNL A   1      44.326  26.612  35.488  1.00  0.00     0.031 C 
ATOM     57  C   UNL A   1      38.631  27.326  30.232  1.00  0.00     0.029 A 
ATOM     58  C   UNL A   1      38.724  28.664  29.825  1.00  0.00     0.049 A 
ATOM     59  H   UNL A   1      38.135  29.930  31.313  1.00  0.00     0.167 HD
ATOM     60  C   UNL A   1      45.008  25.716  32.816  1.00  0.00     0.031 A 
ATOM     61  C   UNL A   1      38.772  29.249  28.601  1.00  0.00     0.031 A 
ATOM     62  C   UNL A   1      44.439  25.549  31.447  1.00  0.00     0.049 A 
ATOM     63  C   UNL A   1      40.077  28.723  27.911  1.00  0.00     0.074 A 
ATOM     64  C   UNL A   1      44.028  24.434  30.728  1.00  0.00     0.029 A 
ATOM     65  N   UNL A   1      44.030  26.630  30.626  1.00  0.00    -0.354 N 
ATOM     66  N   UNL A   1      40.811  27.711  28.348  1.00  0.00    -0.248 NA
ATOM     67  C   UNL A   1      40.717  29.339  26.745  1.00  0.00     0.031 C 
ATOM     68  C   UNL A   1      43.403  24.828  29.504  1.00  0.00     0.029 A 
ATOM     69  C   UNL A   1      43.412  26.209  29.413  1.00  0.00     0.049 A 
ATOM     70  H   UNL A   1      44.160  27.575  30.869  1.00  0.00     0.167 HD
ATOM     71  C   UNL A   1      42.084  27.733  27.790  1.00  0.00     0.074 A 
ATOM     72  C   UNL A   1      41.908  28.704  26.703  1.00  0.00     0.031 C 
ATOM     73  C   UNL A   1      43.244  27.092  28.223  1.00  0.00     0.031 A 
BRANCH  60  74
ATOM     74  C   UNL A   1      45.745  24.658  33.676  1.00  0.00    -0.014 A 
ATOM     75  C   UNL A   1      47.134  24.670  33.885  1.00  0.00     0.010 A 
ATOM     76  C   UNL A   1      45.080  23.499  34.164  1.00  0.00     0.010 A 
ATOM     77  C   UNL A   1      47.830  23.568  34.433  1.00  0.00     0.020 A 
ATOM     78  C   UNL A   1      45.770  22.352  34.613  1.00  0.00     0.020 A 
ATOM     79  C   UNL A   1      47.148  22.399  34.760  1.00  0.00     0.054 A 
BRANCH  79  80
ATOM     80  S   UNL A   1      48.062  20.948  35.365  1.00  0.00     0.124 S 
ATOM     81  O   UNL A   1      49.154  21.536  36.136  1.00  0.00    -0.237 OA
ATOM     82  O   UNL A   1      47.043  20.255  36.147  1.00  0.00    -0.237 OA
ATOM     83  O   UNL A   1      48.477  20.267  34.138  1.00  0.00    -0.744 OA
ENDBRANCH  79  80
ENDBRANCH  60  74
BRANCH  61  84
ATOM     84  C   UNL A   1      38.052  30.611  28.603  1.00  0.00    -0.014 A 
ATOM     85  C   UNL A   1      36.689  30.572  28.175  1.00  0.00     0.010 A 
ATOM     86  C   UNL A   1      38.404  31.732  29.376  1.00  0.00     0.010 A 
ATOM     87  C   UNL A   1      35.695  31.443  28.683  1.00  0.00     0.020 A 
ATOM     88  C   UNL A   1      37.404  32.584  29.930  1.00  0.00     0.020 A 
ATOM     89  C   UNL A   1      36.051  32.406  29.620  1.00  0.00     0.054 A 
BRANCH  89  90
ATOM     90  S   UNL A   1      34.773  33.278  30.616  1.00  0.00     0.124 S 
ATOM     91  O   UNL A   1      35.518  34.386  31.198  1.00  0.00    -0.237 OA
ATOM     92  O   UNL A   1      33.766  33.666  29.629  1.00  0.00    -0.237 OA
ATOM     93  O   UNL A   1      34.344  32.246  31.554  1.00  0.00    -0.744 OA
ENDBRANCH  89  90
ENDBRANCH  61  84
BRANCH  73  94
ATOM     94  C   UNL A   1      44.517  27.115  27.403  1.00  0.00    -0.014 A 
ATOM     95  C   UNL A   1      45.454  26.076  27.436  1.00  0.00     0.010 A 
ATOM     96  C   UNL A   1      44.909  28.326  26.780  1.00  0.00     0.010 A 
ATOM     97  C   UNL A   1      46.677  26.204  26.773  1.00  0.00     0.020 A 
ATOM     98  C   UNL A   1      46.152  28.492  26.188  1.00  0.00     0.020 A 
ATOM     99  C   UNL A   1      47.011  27.408  26.145  1.00  0.00     0.054 A 
BRANCH  99 100
ATOM    100  S   UNL A   1      48.581  27.554  25.273  1.00  0.00     0.124 S 
ATOM    101  O   UNL A   1      49.172  28.746  25.875  1.00  0.00    -0.237 OA
ATOM    102  O   UNL A   1      49.224  26.288  25.620  1.00  0.00    -0.237 OA
ATOM    103  O   UNL A   1      48.193  27.694  23.872  1.00  0.00    -0.744 OA
ENDBRANCH  99 100
ENDBRANCH  73  94
ENDBRANCH  47  48
ENDBRANCH  40  42
ENDBRANCH  39  40
ENDBRANCH  38  39
ENDBRANCH  37  38
ENDBRANCH  36  37
ENDBRANCH  35  36
ENDBRANCH   1  35
TORSDOF 26
ENDMDL
MODEL 2
REMARK VINA RESULT:      -8.0      5.157      7.118
REMARK SMILES COc1ccc(-c2cc(Cl)cc3c2O[C@@H](C(F)(F)F)C(C(=O)OCCOCCOCCOCCOC(=O)c2ccc(-c4c5nc(c(-c6ccc(S(=O)(=O)[O-])cc6)c6ccc([nH]6)c(-c6ccc(S(=O)(=O)[O-])cc6)c6nc(c(-c7ccc(S(=O)(=O)[O-])cc7)c7ccc4[nH]7)C=C6)C=C5)cc2)=C3)cc1C
REMARK SMILES IDX 30 1 29 2 28 3 27 4 26 5 25 6 24 7 23 8 21 9 22 10 20 11
REMARK SMILES IDX 7 12 8 13 13 14 9 15 12 16 14 17 10 18 11 19 98 20 15 21
REMARK SMILES IDX 6 22 3 23 4 24 100 25 5 26 99 27 101 28 2 29 1 30 16 31
REMARK SMILES IDX 17 32 18 33 19 34 31 35 32 36 33 37 34 38 35 39 36 40 37 41
REMARK SMILES IDX 38 42 39 43 97 44 40 45 96 46 41 47 42 48 43 49 90 50 44 51
REMARK SMILES IDX 95 52 89 53 91 54 45 55 94 56 88 57 87 58 46 60 76 61 57 62
REMARK SMILES IDX 75 63 58 64 61 65 74 66 92 67 59 68 60 69 73 71 93 72 62 73
REMARK SMILES IDX 47 74 48 75 56 76 49 77 55 78 50 79 51 80 52 81 53 82 54 83
REMARK SMILES IDX 77 84 78 85 86 86 79 87 85 88 80 89 81 90 82 91 83 92 84 93
REMARK SMILES IDX 63 94 64 95 72 96 65 97 71 98 66 99 67 100 68 101 69 102
REMARK SMILES IDX 70 103
REMARK H PARENT 91 59 61 70
REMARK Flexibility Score: inf
ROOT
ATOM      1  C   UNL A   1      43.814  37.133  29.786  1.00  0.00     0.188 C 
ENDROOT
BRANCH   1   2
ATOM      2  O   UNL A   1      42.968  38.060  29.136  1.00  0.00    -0.377 OA
BRANCH   2   3
ATOM      3  C   UNL A   1      43.551  39.348  29.223  1.00  0.00     0.188 C 
BRANCH   3   4
ATOM      4  C   UNL A   1      42.641  40.513  29.766  1.00  0.00     0.188 C 
BRANCH   4   5
ATOM      5  O   UNL A   1      42.994  41.822  30.865  1.00  0.00    -0.376 OA
BRANCH   5   6
ATOM      6  C   UNL A   1      44.480  42.854  31.023  1.00  0.00     0.202 C 
BRANCH   6   7
ATOM      7  C   UNL A   1      46.243  42.811  30.363  1.00  0.00     0.261 C 
BRANCH   7   8
ATOM      8  O   UNL A   1      46.952  42.954  28.801  1.00  0.00    -0.460 OA
BRANCH   8   9
ATOM      9  C   UNL A   1      46.606  43.513  27.551  1.00  0.00     0.338 C 
ATOM     10  O   UNL A   1      46.833  42.817  26.593  1.00  0.00    -0.246 OA
BRANCH   9  11
ATOM     11  C   UNL A   1      45.712  44.756  27.077  1.00  0.00     0.087 C 
ATOM     12  C   UNL A   1      49.271  46.233  27.860  1.00  0.00     0.026 A 
ATOM     13  C   UNL A   1      49.500  47.470  28.473  1.00  0.00     0.033 A 
ATOM     14  C   UNL A   1      48.010  46.168  27.186  1.00  0.00     0.135 A 
ATOM     15  C   UNL A   1      48.471  48.417  28.535  1.00  0.00     0.042 A 
ATOM     16  C   UNL A   1      46.922  46.761  27.800  1.00  0.00     0.019 A 
ATOM     17  O   UNL A   1      47.687  45.616  25.916  1.00  0.00    -0.475 OA
ATOM     18  Cl  UNL A   1      48.802  49.969  29.190  1.00  0.00    -0.084 Cl
ATOM     19  C   UNL A   1      47.152  48.048  28.239  1.00  0.00     0.032 A 
ATOM     20  C   UNL A   1      45.638  45.956  27.768  1.00  0.00     0.027 C 
ATOM     21  C   UNL A   1      46.196  45.348  25.760  1.00  0.00     0.316 C 
BRANCH  12  22
ATOM     22  C   UNL A   1      49.831  45.092  28.728  1.00  0.00    -0.014 A 
ATOM     23  C   UNL A   1      51.240  42.320  30.802  1.00  0.00     0.121 A 
ATOM     24  C   UNL A   1      50.645  43.757  31.325  1.00  0.00     0.047 A 
ATOM     25  C   UNL A   1      51.016  42.026  29.135  1.00  0.00    -0.008 A 
ATOM     26  C   UNL A   1      49.989  45.066  30.351  1.00  0.00     0.013 A 
ATOM     27  C   UNL A   1      50.216  43.574  28.000  1.00  0.00     0.016 A 
ATOM     28  C   UNL A   1      51.259  40.437  28.926  1.00  0.00     0.048 C 
BRANCH  23  29
ATOM     29  O   UNL A   1      51.647  41.470  31.792  1.00  0.00    -0.496 OA
ATOM     30  C   UNL A   1      52.870  41.703  32.486  1.00  0.00     0.278 C 
ENDBRANCH  23  29
ENDBRANCH  12  22
BRANCH  21  31
ATOM     31  C   UNL A   1      45.249  44.812  24.647  1.00  0.00     0.430 C 
ATOM     32  F   UNL A   1      44.228  44.120  25.251  1.00  0.00    -0.167 F 
ATOM     33  F   UNL A   1      44.634  45.769  23.917  1.00  0.00    -0.167 F 
ATOM     34  F   UNL A   1      45.786  43.899  23.810  1.00  0.00    -0.167 F 
ENDBRANCH  21  31
ENDBRANCH   9  11
ENDBRANCH   8   9
ENDBRANCH   7   8
ENDBRANCH   6   7
ENDBRANCH   5   6
ENDBRANCH   4   5
ENDBRANCH   3   4
ENDBRANCH   2   3
ENDBRANCH   1   2
BRANCH   1  35
ATOM     35  C   UNL A   1      44.083  37.509  31.240  1.00  0.00     0.188 C 
BRANCH  35  36
ATOM     36  O   UNL A   1      44.182  36.430  32.135  1.00  0.00    -0.376 OA
BRANCH  36  37
ATOM     37  C   UNL A   1      43.141  35.597  32.530  1.00  0.00     0.202 C 
BRANCH  37  38
ATOM     38  C   UNL A   1      43.480  35.259  33.963  1.00  0.00     0.261 C 
BRANCH  38  39
ATOM     39  O   UNL A   1      42.696  34.124  34.489  1.00  0.00    -0.460 OA
BRANCH  39  40
ATOM     40  C   UNL A   1      41.421  34.301  35.011  1.00  0.00     0.338 C 
ATOM     41  O   UNL A   1      41.018  35.379  35.414  1.00  0.00    -0.246 OA
BRANCH  40  42
ATOM     42  C   UNL A   1      40.575  33.046  34.879  1.00  0.00     0.060 A 
ATOM     43  C   UNL A   1      40.382  32.035  35.829  1.00  0.00     0.016 A 
ATOM     44  C   UNL A   1      40.204  32.735  33.605  1.00  0.00     0.016 A 
ATOM     45  C   UNL A   1      39.991  30.694  35.420  1.00  0.00     0.010 A 
ATOM     46  C   UNL A   1      40.283  31.396  33.251  1.00  0.00     0.010 A 
ATOM     47  C   UNL A   1      40.127  30.269  34.066  1.00  0.00    -0.014 A 
BRANCH  47  48
ATOM     48  C   UNL A   1      40.404  28.768  33.184  1.00  0.00     0.031 A 
ATOM     49  C   UNL A   1      41.961  28.125  33.949  1.00  0.00     0.074 A 
ATOM     50  C   UNL A   1      39.502  28.251  31.917  1.00  0.00     0.049 A 
ATOM     51  N   UNL A   1      43.065  27.640  32.747  1.00  0.00    -0.248 NA
ATOM     52  C   UNL A   1      42.814  27.304  35.796  1.00  0.00     0.031 C 
ATOM     53  C   UNL A   1      38.859  27.033  31.325  1.00  0.00     0.029 A 
ATOM     54  N   UNL A   1      38.617  28.947  30.795  1.00  0.00    -0.354 N 
ATOM     55  C   UNL A   1      44.330  26.529  33.421  1.00  0.00     0.074 A 
ATOM     56  C   UNL A   1      44.154  26.450  35.341  1.00  0.00     0.031 C 
ATOM     57  C   UNL A   1      38.541  27.098  29.989  1.00  0.00     0.029 A 
ATOM     58  C   UNL A   1      38.655  28.424  29.551  1.00  0.00     0.049 A 
ATOM     59  H   UNL A   1      38.059  29.733  31.000  1.00  0.00     0.167 HD
ATOM     60  C   UNL A   1      44.863  25.483  32.702  1.00  0.00     0.031 A 
ATOM     61  C   UNL A   1      38.726  28.980  28.315  1.00  0.00     0.031 A 
ATOM     62  C   UNL A   1      44.312  25.289  31.329  1.00  0.00     0.049 A 
ATOM     63  C   UNL A   1      40.035  28.423  27.656  1.00  0.00     0.074 A 
ATOM     64  C   UNL A   1      43.898  24.161  30.632  1.00  0.00     0.029 A 
ATOM     65  N   UNL A   1      43.926  26.354  30.476  1.00  0.00    -0.354 N 
ATOM     66  N   UNL A   1      40.751  27.414  28.127  1.00  0.00    -0.248 NA
ATOM     67  C   UNL A   1      40.698  29.003  26.485  1.00  0.00     0.031 C 
ATOM     68  C   UNL A   1      43.295  24.532  29.390  1.00  0.00     0.029 A 
ATOM     69  C   UNL A   1      43.321  25.910  29.265  1.00  0.00     0.049 A 
ATOM     70  H   UNL A   1      44.063  27.303  30.698  1.00  0.00     0.167 HD
ATOM     71  C   UNL A   1      42.033  27.409  27.588  1.00  0.00     0.074 A 
ATOM     72  C   UNL A   1      41.882  28.354  26.474  1.00  0.00     0.031 C 
ATOM     73  C   UNL A   1      43.179  26.766  28.052  1.00  0.00     0.031 A 
BRANCH  60  74
ATOM     74  C   UNL A   1      45.576  24.438  33.597  1.00  0.00    -0.014 A 
ATOM     75  C   UNL A   1      46.949  24.488  33.892  1.00  0.00     0.010 A 
ATOM     76  C   UNL A   1      44.916  23.256  34.034  1.00  0.00     0.010 A 
ATOM     77  C   UNL A   1      47.641  23.400  34.473  1.00  0.00     0.020 A 
ATOM     78  C   UNL A   1      45.610  22.125  34.517  1.00  0.00     0.020 A 
ATOM     79  C   UNL A   1      46.975  22.209  34.749  1.00  0.00     0.054 A 
BRANCH  79  80
ATOM     80  S   UNL A   1      47.892  20.779  35.398  1.00  0.00     0.124 S 
ATOM     81  O   UNL A   1      46.860  19.755  35.536  1.00  0.00    -0.237 OA
ATOM     82  O   UNL A   1      48.871  20.546  34.341  1.00  0.00    -0.237 OA
ATOM     83  O   UNL A   1      48.442  21.268  36.662  1.00  0.00    -0.744 OA
ENDBRANCH  79  80
ENDBRANCH  60  74
BRANCH  61  84
ATOM     84  C   UNL A   1      38.022  30.348  28.273  1.00  0.00    -0.014 A 
ATOM     85  C   UNL A   1      36.675  30.318  27.794  1.00  0.00     0.010 A 
ATOM     86  C   UNL A   1      38.357  31.475  29.045  1.00  0.00     0.010 A 
ATOM     87  C   UNL A   1      35.673  31.205  28.255  1.00  0.00     0.020 A 
ATOM     88  C   UNL A   1      37.346  32.344  29.551  1.00  0.00     0.020 A 
ATOM     89  C   UNL A   1      36.003  32.177  29.193  1.00  0.00     0.054 A 
BRANCH  89  90
ATOM     90  S   UNL A   1      34.699  33.074  30.129  1.00  0.00     0.124 S 
ATOM     91  O   UNL A   1      33.583  33.090  29.193  1.00  0.00    -0.237 OA
ATOM     92  O   UNL A   1      34.491  32.247  31.317  1.00  0.00    -0.237 OA
ATOM     93  O   UNL A   1      35.325  34.367  30.385  1.00  0.00    -0.744 OA
ENDBRANCH  89  90
ENDBRANCH  61  84
BRANCH  73  94
ATOM     94  C   UNL A   1      44.464  26.755  27.250  1.00  0.00    -0.014 A 
ATOM     95  C   UNL A   1      45.451  27.735  27.396  1.00  0.00     0.010 A 
ATOM     96  C   UNL A   1      44.569  25.883  26.137  1.00  0.00     0.010 A 
ATOM     97  C   UNL A   1      46.554  27.763  26.537  1.00  0.00     0.020 A 
ATOM     98  C   UNL A   1      45.617  25.953  25.231  1.00  0.00     0.020 A 
ATOM     99  C   UNL A   1      46.632  26.864  25.468  1.00  0.00     0.054 A 
BRANCH  99 100
ATOM    100  S   UNL A   1      48.069  26.894  24.381  1.00  0.00     0.124 S 
ATOM    101  O   UNL A   1      47.999  25.592  23.722  1.00  0.00    -0.237 OA
ATOM    102  O   UNL A   1      47.768  28.046  23.535  1.00  0.00    -0.237 OA
ATOM    103  O   UNL A   1      49.196  27.066  25.293  1.00  0.00    -0.744 OA
ENDBRANCH  99 100
ENDBRANCH  73  94
ENDBRANCH  47  48
ENDBRANCH  40  42
ENDBRANCH  39  40
ENDBRANCH  38  39
ENDBRANCH  37  38
ENDBRANCH  36  37
ENDBRANCH  35  36
ENDBRANCH   1  35
TORSDOF 26
ENDMDL
MODEL 3
REMARK VINA RESULT:      -7.6      3.305      5.756
REMARK SMILES COc1ccc(-c2cc(Cl)cc3c2O[C@@H](C(F)(F)F)C(C(=O)OCCOCCOCCOCCOC(=O)c2ccc(-c4c5nc(c(-c6ccc(S(=O)(=O)[O-])cc6)c6ccc([nH]6)c(-c6ccc(S(=O)(=O)[O-])cc6)c6nc(c(-c7ccc(S(=O)(=O)[O-])cc7)c7ccc4[nH]7)C=C6)C=C5)cc2)=C3)cc1C
REMARK SMILES IDX 30 1 29 2 28 3 27 4 26 5 25 6 24 7 23 8 21 9 22 10 20 11
REMARK SMILES IDX 7 12 8 13 13 14 9 15 12 16 14 17 10 18 11 19 98 20 15 21
REMARK SMILES IDX 6 22 3 23 4 24 100 25 5 26 99 27 101 28 2 29 1 30 16 31
REMARK SMILES IDX 17 32 18 33 19 34 31 35 32 36 33 37 34 38 35 39 36 40 37 41
REMARK SMILES IDX 38 42 39 43 97 44 40 45 96 46 41 47 42 48 43 49 90 50 44 51
REMARK SMILES IDX 95 52 89 53 91 54 45 55 94 56 88 57 87 58 46 60 76 61 57 62
REMARK SMILES IDX 75 63 58 64 61 65 74 66 92 67 59 68 60 69 73 71 93 72 62 73
REMARK SMILES IDX 47 74 48 75 56 76 49 77 55 78 50 79 51 80 52 81 53 82 54 83
REMARK SMILES IDX 77 84 78 85 86 86 79 87 85 88 80 89 81 90 82 91 83 92 84 93
REMARK SMILES IDX 63 94 64 95 72 96 65 97 71 98 66 99 67 100 68 101 69 102
REMARK SMILES IDX 70 103
REMARK H PARENT 91 59 61 70
REMARK Flexibility Score: inf
ROOT
ATOM      1  C   UNL A   1      44.073  36.794  29.732  1.00  0.00     0.188 C 
ENDROOT
BRANCH   1   2
ATOM      2  O   UNL A   1      43.564  37.625  28.709  1.00  0.00    -0.377 OA
BRANCH   2   3
ATOM      3  C   UNL A   1      44.363  37.463  27.550  1.00  0.00     0.188 C 
BRANCH   3   4
ATOM      4  C   UNL A   1      45.317  38.655  27.165  1.00  0.00     0.188 C 
BRANCH   4   5
ATOM      5  O   UNL A   1      46.978  38.663  26.628  1.00  0.00    -0.376 OA
BRANCH   5   6
ATOM      6  C   UNL A   1      47.876  37.489  25.572  1.00  0.00     0.202 C 
BRANCH   6   7
ATOM      7  C   UNL A   1      48.239  35.642  25.593  1.00  0.00     0.261 C 
BRANCH   7   8
ATOM      8  O   UNL A   1      49.445  34.638  24.884  1.00  0.00    -0.460 OA
BRANCH   8   9
ATOM      9  C   UNL A   1      50.843  34.678  24.687  1.00  0.00     0.338 C 
ATOM     10  O   UNL A   1      51.368  33.609  24.494  1.00  0.00    -0.246 OA
BRANCH   9  11
ATOM     11  C   UNL A   1      51.908  35.833  24.370  1.00  0.00     0.087 C 
ATOM     12  C   UNL A   1      51.744  35.572  28.290  1.00  0.00     0.026 A 
ATOM     13  C   UNL A   1      51.795  36.666  29.162  1.00  0.00     0.033 A 
ATOM     14  C   UNL A   1      52.370  35.832  27.029  1.00  0.00     0.135 A 
ATOM     15  C   UNL A   1      52.256  37.903  28.698  1.00  0.00     0.042 A 
ATOM     16  C   UNL A   1      52.181  37.078  26.463  1.00  0.00     0.019 A 
ATOM     17  O   UNL A   1      53.229  35.004  26.256  1.00  0.00    -0.475 OA
ATOM     18  Cl  UNL A   1      52.419  39.204  29.807  1.00  0.00    -0.084 Cl
ATOM     19  C   UNL A   1      52.409  38.131  27.323  1.00  0.00     0.032 A 
ATOM     20  C   UNL A   1      51.890  37.080  24.975  1.00  0.00     0.027 C 
ATOM     21  C   UNL A   1      53.318  35.455  24.804  1.00  0.00     0.316 C 
BRANCH  12  22
ATOM     22  C   UNL A   1      50.403  34.832  28.437  1.00  0.00    -0.014 A 
ATOM     23  C   UNL A   1      47.172  32.992  28.826  1.00  0.00     0.121 A 
ATOM     24  C   UNL A   1      47.458  34.583  29.112  1.00  0.00     0.047 A 
ATOM     25  C   UNL A   1      48.477  32.157  28.109  1.00  0.00    -0.008 A 
ATOM     26  C   UNL A   1      48.979  35.449  28.938  1.00  0.00     0.013 A 
ATOM     27  C   UNL A   1      50.261  33.201  27.885  1.00  0.00     0.016 A 
ATOM     28  C   UNL A   1      47.857  30.778  27.524  1.00  0.00     0.048 C 
BRANCH  23  29
ATOM     29  O   UNL A   1      45.876  32.598  29.006  1.00  0.00    -0.496 OA
ATOM     30  C   UNL A   1      44.801  33.478  28.681  1.00  0.00     0.278 C 
ENDBRANCH  23  29
ENDBRANCH  12  22
BRANCH  21  31
ATOM     31  C   UNL A   1      54.083  35.011  23.521  1.00  0.00     0.430 C 
ATOM     32  F   UNL A   1      53.250  35.193  22.444  1.00  0.00    -0.167 F 
ATOM     33  F   UNL A   1      55.182  35.742  23.237  1.00  0.00    -0.167 F 
ATOM     34  F   UNL A   1      54.396  33.700  23.450  1.00  0.00    -0.167 F 
ENDBRANCH  21  31
ENDBRANCH   9  11
ENDBRANCH   8   9
ENDBRANCH   7   8
ENDBRANCH   6   7
ENDBRANCH   5   6
ENDBRANCH   4   5
ENDBRANCH   3   4
ENDBRANCH   2   3
ENDBRANCH   1   2
BRANCH   1  35
ATOM     35  C   UNL A   1      43.952  37.428  31.114  1.00  0.00     0.188 C 
BRANCH  35  36
ATOM     36  O   UNL A   1      44.147  36.556  32.199  1.00  0.00    -0.376 OA
BRANCH  36  37
ATOM     37  C   UNL A   1      43.354  35.460  32.520  1.00  0.00     0.202 C 
BRANCH  37  38
ATOM     38  C   UNL A   1      43.784  35.109  33.924  1.00  0.00     0.261 C 
BRANCH  38  39
ATOM     39  O   UNL A   1      43.048  33.956  34.482  1.00  0.00    -0.460 OA
BRANCH  39  40
ATOM     40  C   UNL A   1      41.850  34.121  35.164  1.00  0.00     0.338 C 
ATOM     41  O   UNL A   1      41.530  35.172  35.692  1.00  0.00    -0.246 OA
BRANCH  40  42
ATOM     42  C   UNL A   1      40.955  32.898  35.041  1.00  0.00     0.060 A 
ATOM     43  C   UNL A   1      40.779  31.864  35.969  1.00  0.00     0.016 A 
ATOM     44  C   UNL A   1      40.506  32.641  33.780  1.00  0.00     0.016 A 
ATOM     45  C   UNL A   1      40.322  30.550  35.542  1.00  0.00     0.010 A 
ATOM     46  C   UNL A   1      40.521  31.311  33.382  1.00  0.00     0.010 A 
ATOM     47  C   UNL A   1      40.370  30.164  34.170  1.00  0.00    -0.014 A 
BRANCH  47  48
ATOM     48  C   UNL A   1      40.549  28.684  33.229  1.00  0.00     0.031 A 
ATOM     49  C   UNL A   1      42.116  27.962  33.895  1.00  0.00     0.074 A 
ATOM     50  C   UNL A   1      39.567  28.242  31.994  1.00  0.00     0.049 A 
ATOM     51  N   UNL A   1      43.141  27.478  32.626  1.00  0.00    -0.248 NA
ATOM     52  C   UNL A   1      43.026  27.051  35.671  1.00  0.00     0.031 C 
ATOM     53  C   UNL A   1      38.851  27.067  31.397  1.00  0.00     0.029 A 
ATOM     54  N   UNL A   1      38.654  29.005  30.939  1.00  0.00    -0.354 N 
ATOM     55  C   UNL A   1      44.395  26.301  33.201  1.00  0.00     0.074 A 
ATOM     56  C   UNL A   1      44.310  26.165  35.124  1.00  0.00     0.031 C 
ATOM     57  C   UNL A   1      38.471  27.188  30.081  1.00  0.00     0.029 A 
ATOM     58  C   UNL A   1      38.613  28.523  29.679  1.00  0.00     0.049 A 
ATOM     59  H   UNL A   1      38.137  29.803  31.196  1.00  0.00     0.167 HD
ATOM     60  C   UNL A   1      44.854  25.261  32.424  1.00  0.00     0.031 A 
ATOM     61  C   UNL A   1      38.644  29.115  28.458  1.00  0.00     0.031 A 
ATOM     62  C   UNL A   1      44.229  25.131  31.075  1.00  0.00     0.049 A 
ATOM     63  C   UNL A   1      39.898  28.534  27.719  1.00  0.00     0.074 A 
ATOM     64  C   UNL A   1      43.741  24.043  30.365  1.00  0.00     0.029 A 
ATOM     65  N   UNL A   1      43.843  26.237  30.276  1.00  0.00    -0.354 N 
ATOM     66  N   UNL A   1      40.598  27.486  28.122  1.00  0.00    -0.248 NA
ATOM     67  C   UNL A   1      40.525  29.129  26.534  1.00  0.00     0.031 C 
ATOM     68  C   UNL A   1      43.092  24.475  29.167  1.00  0.00     0.029 A 
ATOM     69  C   UNL A   1      43.163  25.855  29.083  1.00  0.00     0.049 A 
ATOM     70  H   UNL A   1      44.025  27.173  30.520  1.00  0.00     0.167 HD
ATOM     71  C   UNL A   1      41.851  27.452  27.519  1.00  0.00     0.074 A 
ATOM     72  C   UNL A   1      41.681  28.439  26.445  1.00  0.00     0.031 C 
ATOM     73  C   UNL A   1      42.993  26.754  27.906  1.00  0.00     0.031 A 
BRANCH  60  74
ATOM     74  C   UNL A   1      45.570  24.163  33.250  1.00  0.00    -0.014 A 
ATOM     75  C   UNL A   1      44.939  22.976  33.661  1.00  0.00     0.010 A 
ATOM     76  C   UNL A   1      46.866  24.368  33.798  1.00  0.00     0.010 A 
ATOM     77  C   UNL A   1      45.501  22.114  34.631  1.00  0.00     0.020 A 
ATOM     78  C   UNL A   1      47.391  23.575  34.842  1.00  0.00     0.020 A 
ATOM     79  C   UNL A   1      46.708  22.437  35.245  1.00  0.00     0.054 A 
BRANCH  79  80
ATOM     80  S   UNL A   1      47.372  21.380  36.566  1.00  0.00     0.124 S 
ATOM     81  O   UNL A   1      48.213  20.429  35.844  1.00  0.00    -0.237 OA
ATOM     82  O   UNL A   1      48.087  22.347  37.394  1.00  0.00    -0.237 OA
ATOM     83  O   UNL A   1      46.176  20.800  37.176  1.00  0.00    -0.744 OA
ENDBRANCH  79  80
ENDBRANCH  60  74
BRANCH  61  84
ATOM     84  C   UNL A   1      37.990  30.509  28.494  1.00  0.00    -0.014 A 
ATOM     85  C   UNL A   1      36.639  30.552  28.028  1.00  0.00     0.010 A 
ATOM     86  C   UNL A   1      38.372  31.581  29.320  1.00  0.00     0.010 A 
ATOM     87  C   UNL A   1      35.673  31.449  28.543  1.00  0.00     0.020 A 
ATOM     88  C   UNL A   1      37.397  32.458  29.880  1.00  0.00     0.020 A 
ATOM     89  C   UNL A   1      36.046  32.358  29.527  1.00  0.00     0.054 A 
BRANCH  89  90
ATOM     90  S   UNL A   1      34.783  33.252  30.521  1.00  0.00     0.124 S 
ATOM     91  O   UNL A   1      35.534  34.377  31.062  1.00  0.00    -0.237 OA
ATOM     92  O   UNL A   1      33.759  33.612  29.542  1.00  0.00    -0.237 OA
ATOM     93  O   UNL A   1      34.373  32.243  31.493  1.00  0.00    -0.744 OA
ENDBRANCH  89  90
ENDBRANCH  61  84
BRANCH  73  94
ATOM     94  C   UNL A   1      44.237  26.724  27.041  1.00  0.00    -0.014 A 
ATOM     95  C   UNL A   1      44.373  25.861  25.948  1.00  0.00     0.010 A 
ATOM     96  C   UNL A   1      45.401  27.396  27.491  1.00  0.00     0.010 A 
ATOM     97  C   UNL A   1      45.590  25.770  25.266  1.00  0.00     0.020 A 
ATOM     98  C   UNL A   1      46.633  27.250  26.871  1.00  0.00     0.020 A 
ATOM     99  C   UNL A   1      46.707  26.474  25.728  1.00  0.00     0.054 A 
BRANCH  99 100
ATOM    100  S   UNL A   1      48.264  26.366  24.828  1.00  0.00     0.124 S 
ATOM    101  O   UNL A   1      47.918  25.518  23.689  1.00  0.00    -0.237 OA
ATOM    102  O   UNL A   1      48.516  27.770  24.514  1.00  0.00    -0.237 OA
ATOM    103  O   UNL A   1      49.184  25.766  25.790  1.00  0.00    -0.744 OA
ENDBRANCH  99 100
ENDBRANCH  73  94
ENDBRANCH  47  48
ENDBRANCH  40  42
ENDBRANCH  39  40
ENDBRANCH  38  39
ENDBRANCH  37  38
ENDBRANCH  36  37
ENDBRANCH  35  36
ENDBRANCH   1  35
TORSDOF 26
ENDMDL
