MODEL 1
REMARK VINA RESULT:     -10.6      0.000      0.000
REMARK SMILES CC1=Nc2ncnn2[C@H](c2ccc(F)cc2)[C@@H]1C(=O)OCCOCCOCCOCCOC(=O)c1ccc(-c2c3nc(c(-c4ccc(S(=O)(=O)[O-])cc4)c4ccc([nH]4)c(-c4ccc(S(=O)(=O)[O-])cc4)c4nc(c(-c5ccc(S(=O)(=O)[O-])cc5)c5ccc2[nH]5)C=C4)C=C3)cc1
REMARK SMILES IDX 27 1 26 2 25 3 24 4 23 5 22 6 21 7 20 8 18 9 19 10 17 11
REMARK SMILES IDX 1 12 2 13 3 14 4 15 9 16 5 17 8 18 6 19 7 20 10 21 11 22
REMARK SMILES IDX 16 23 12 24 15 25 13 26 14 27 28 28 29 29 30 30 31 31 32 32
REMARK SMILES IDX 33 33 34 34 35 35 36 36 94 37 37 38 93 39 38 40 39 41 40 42
REMARK SMILES IDX 87 43 41 44 92 45 86 46 88 47 42 48 91 49 85 50 84 51 43 53
REMARK SMILES IDX 73 54 54 55 72 56 55 57 58 58 71 59 89 60 56 61 57 62 70 64
REMARK SMILES IDX 90 65 59 66 44 67 45 68 53 69 46 70 52 71 47 72 48 73 49 74
REMARK SMILES IDX 50 75 51 76 74 77 75 78 83 79 76 80 82 81 77 82 78 83 79 84
REMARK SMILES IDX 80 85 81 86 60 87 61 88 69 89 62 90 68 91 63 92 64 93 65 94
REMARK SMILES IDX 66 95 67 96
REMARK H PARENT 88 52 58 63
REMARK Flexibility Score: inf
ROOT
ATOM      1  C   UNL A   1      40.527  20.672  26.176  1.00  0.00     0.188 C 
ENDROOT
BRANCH   1   2
ATOM      2  O   UNL A   1      39.498  19.833  25.672  1.00  0.00    -0.377 OA
BRANCH   2   3
ATOM      3  C   UNL A   1      38.246  20.393  25.318  1.00  0.00     0.188 C 
BRANCH   3   4
ATOM      4  C   UNL A   1      38.046  21.912  25.260  1.00  0.00     0.188 C 
BRANCH   4   5
ATOM      5  O   UNL A   1      36.748  22.268  24.828  1.00  0.00    -0.376 OA
BRANCH   5   6
ATOM      6  C   UNL A   1      36.561  22.792  23.537  1.00  0.00     0.202 C 
BRANCH   6   7
ATOM      7  C   UNL A   1      35.140  23.158  23.091  1.00  0.00     0.261 C 
BRANCH   7   8
ATOM      8  O   UNL A   1      34.797  24.549  22.981  1.00  0.00    -0.463 OA
BRANCH   8   9
ATOM      9  C   UNL A   1      33.575  24.843  22.503  1.00  0.00     0.317 C 
ATOM     10  O   UNL A   1      33.172  24.393  21.433  1.00  0.00    -0.251 OA
BRANCH   9  11
ATOM     11  C   UNL A   1      32.723  25.783  23.358  1.00  0.00     0.173 C 
ATOM     12  C   UNL A   1      33.899  27.754  22.083  1.00  0.00     0.063 C 
ATOM     13  C   UNL A   1      33.314  27.200  23.368  1.00  0.00     0.036 C 
ATOM     14  N   UNL A   1      33.282  28.028  24.362  1.00  0.00    -0.220 NA
ATOM     15  C   UNL A   1      32.576  27.700  25.461  1.00  0.00     0.248 A 
ATOM     16  C   UNL A   1      32.077  25.358  24.716  1.00  0.00     0.161 C 
ATOM     17  N   UNL A   1      32.315  28.433  26.522  1.00  0.00    -0.198 NA
ATOM     18  N   UNL A   1      31.911  26.516  25.593  1.00  0.00    -0.221 N 
ATOM     19  C   UNL A   1      31.427  27.678  27.231  1.00  0.00     0.248 A 
ATOM     20  N   UNL A   1      31.087  26.521  26.661  1.00  0.00    -0.157 NA
BRANCH  16  21
ATOM     21  C   UNL A   1      32.546  24.201  25.598  1.00  0.00    -0.022 A 
ATOM     22  C   UNL A   1      33.825  24.312  26.199  1.00  0.00     0.009 A 
ATOM     23  C   UNL A   1      31.870  22.982  25.732  1.00  0.00     0.009 A 
ATOM     24  C   UNL A   1      34.381  23.267  26.932  1.00  0.00     0.039 A 
ATOM     25  C   UNL A   1      32.399  21.960  26.532  1.00  0.00     0.039 A 
ATOM     26  C   UNL A   1      33.648  22.110  27.121  1.00  0.00     0.123 A 
ATOM     27  F   UNL A   1      34.152  21.124  27.873  1.00  0.00    -0.207 F 
ENDBRANCH  16  21
ENDBRANCH   9  11
ENDBRANCH   8   9
ENDBRANCH   7   8
ENDBRANCH   6   7
ENDBRANCH   5   6
ENDBRANCH   4   5
ENDBRANCH   3   4
ENDBRANCH   2   3
ENDBRANCH   1   2
BRANCH   1  28
ATOM     28  C   UNL A   1      41.276  20.115  27.408  1.00  0.00     0.188 C 
BRANCH  28  29
ATOM     29  O   UNL A   1      42.207  19.035  27.314  1.00  0.00    -0.376 OA
BRANCH  29  30
ATOM     30  C   UNL A   1      42.642  18.538  26.063  1.00  0.00     0.202 C 
BRANCH  30  31
ATOM     31  C   UNL A   1      43.946  19.055  25.472  1.00  0.00     0.261 C 
BRANCH  31  32
ATOM     32  O   UNL A   1      43.846  20.240  24.707  1.00  0.00    -0.460 OA
BRANCH  32  33
ATOM     33  C   UNL A   1      44.685  21.219  25.095  1.00  0.00     0.338 C 
ATOM     34  O   UNL A   1      45.908  21.234  25.007  1.00  0.00    -0.246 OA
BRANCH  33  35
ATOM     35  C   UNL A   1      43.913  22.189  25.870  1.00  0.00     0.060 A 
ATOM     36  C   UNL A   1      43.098  23.073  25.164  1.00  0.00     0.016 A 
ATOM     37  C   UNL A   1      44.248  22.400  27.219  1.00  0.00     0.016 A 
ATOM     38  C   UNL A   1      42.763  24.265  25.766  1.00  0.00     0.010 A 
ATOM     39  C   UNL A   1      43.905  23.582  27.821  1.00  0.00     0.010 A 
ATOM     40  C   UNL A   1      43.243  24.532  27.055  1.00  0.00    -0.014 A 
BRANCH  40  41
ATOM     41  C   UNL A   1      43.033  25.852  27.595  1.00  0.00     0.031 A 
ATOM     42  C   UNL A   1      44.107  26.806  27.271  1.00  0.00     0.074 A 
ATOM     43  C   UNL A   1      41.917  26.193  28.261  1.00  0.00     0.049 A 
ATOM     44  N   UNL A   1      45.012  27.262  28.068  1.00  0.00    -0.248 NA
ATOM     45  C   UNL A   1      44.297  27.159  25.859  1.00  0.00     0.031 C 
ATOM     46  C   UNL A   1      40.667  25.437  28.384  1.00  0.00     0.029 A 
ATOM     47  N   UNL A   1      41.638  27.362  28.891  1.00  0.00    -0.354 N 
ATOM     48  C   UNL A   1      45.764  28.143  27.303  1.00  0.00     0.074 A 
ATOM     49  C   UNL A   1      45.412  27.886  25.930  1.00  0.00     0.031 C 
ATOM     50  C   UNL A   1      39.700  26.259  28.854  1.00  0.00     0.029 A 
ATOM     51  C   UNL A   1      40.298  27.539  29.196  1.00  0.00     0.049 A 
ATOM     52  H   UNL A   1      42.330  28.028  29.113  1.00  0.00     0.167 HD
ATOM     53  C   UNL A   1      46.414  29.193  27.875  1.00  0.00     0.031 A 
ATOM     54  C   UNL A   1      39.724  28.685  29.633  1.00  0.00     0.031 A 
ATOM     55  C   UNL A   1      46.513  29.042  29.305  1.00  0.00     0.049 A 
ATOM     56  C   UNL A   1      40.804  29.530  30.204  1.00  0.00     0.074 A 
ATOM     57  C   UNL A   1      47.084  28.108  30.148  1.00  0.00     0.029 A 
ATOM     58  N   UNL A   1      45.614  29.752  30.070  1.00  0.00    -0.354 N 
ATOM     59  N   UNL A   1      41.460  29.225  31.289  1.00  0.00    -0.248 NA
ATOM     60  C   UNL A   1      41.454  30.508  29.344  1.00  0.00     0.031 C 
ATOM     61  C   UNL A   1      46.197  28.015  31.260  1.00  0.00     0.029 A 
ATOM     62  C   UNL A   1      45.160  28.931  31.069  1.00  0.00     0.049 A 
ATOM     63  H   UNL A   1      45.344  30.687  29.922  1.00  0.00     0.167 HD
ATOM     64  C   UNL A   1      42.765  29.630  31.046  1.00  0.00     0.074 A 
ATOM     65  C   UNL A   1      42.674  30.517  29.890  1.00  0.00     0.031 C 
ATOM     66  C   UNL A   1      43.823  28.989  31.630  1.00  0.00     0.031 A 
BRANCH  53  67
ATOM     67  C   UNL A   1      46.571  30.531  27.195  1.00  0.00    -0.014 A 
ATOM     68  C   UNL A   1      47.852  31.116  27.145  1.00  0.00     0.010 A 
ATOM     69  C   UNL A   1      45.479  31.357  26.854  1.00  0.00     0.010 A 
ATOM     70  C   UNL A   1      48.017  32.477  26.857  1.00  0.00     0.020 A 
ATOM     71  C   UNL A   1      45.637  32.701  26.519  1.00  0.00     0.020 A 
ATOM     72  C   UNL A   1      46.902  33.263  26.564  1.00  0.00     0.054 A 
BRANCH  72  73
ATOM     73  S   UNL A   1      47.107  35.042  26.316  1.00  0.00     0.124 S 
ATOM     74  O   UNL A   1      47.157  35.529  27.691  1.00  0.00    -0.237 OA
ATOM     75  O   UNL A   1      48.360  35.109  25.571  1.00  0.00    -0.237 OA
ATOM     76  O   UNL A   1      45.915  35.420  25.559  1.00  0.00    -0.744 OA
ENDBRANCH  72  73
ENDBRANCH  53  67
BRANCH  54  77
ATOM     77  C   UNL A   1      38.372  29.205  29.316  1.00  0.00    -0.014 A 
ATOM     78  C   UNL A   1      37.482  29.568  30.341  1.00  0.00     0.010 A 
ATOM     79  C   UNL A   1      38.060  29.610  28.001  1.00  0.00     0.010 A 
ATOM     80  C   UNL A   1      36.358  30.366  30.073  1.00  0.00     0.020 A 
ATOM     81  C   UNL A   1      36.936  30.396  27.724  1.00  0.00     0.020 A 
ATOM     82  C   UNL A   1      36.105  30.794  28.766  1.00  0.00     0.054 A 
BRANCH  82  83
ATOM     83  S   UNL A   1      34.766  31.983  28.459  1.00  0.00     0.124 S 
ATOM     84  O   UNL A   1      33.742  31.145  27.842  1.00  0.00    -0.237 OA
ATOM     85  O   UNL A   1      34.461  32.472  29.800  1.00  0.00    -0.237 OA
ATOM     86  O   UNL A   1      35.379  32.968  27.569  1.00  0.00    -0.744 OA
ENDBRANCH  82  83
ENDBRANCH  54  77
BRANCH  66  87
ATOM     87  C   UNL A   1      43.552  28.079  32.807  1.00  0.00    -0.014 A 
ATOM     88  C   UNL A   1      43.714  26.681  32.772  1.00  0.00     0.010 A 
ATOM     89  C   UNL A   1      43.263  28.689  34.042  1.00  0.00     0.010 A 
ATOM     90  C   UNL A   1      43.569  25.913  33.938  1.00  0.00     0.020 A 
ATOM     91  C   UNL A   1      43.137  27.932  35.210  1.00  0.00     0.020 A 
ATOM     92  C   UNL A   1      43.281  26.547  35.151  1.00  0.00     0.054 A 
BRANCH  92  93
ATOM     93  S   UNL A   1      43.152  25.557  36.668  1.00  0.00     0.124 S 
ATOM     94  O   UNL A   1      43.057  26.580  37.707  1.00  0.00    -0.237 OA
ATOM     95  O   UNL A   1      41.938  24.774  36.444  1.00  0.00    -0.237 OA
ATOM     96  O   UNL A   1      44.388  24.776  36.681  1.00  0.00    -0.744 OA
ENDBRANCH  92  93
ENDBRANCH  66  87
ENDBRANCH  40  41
ENDBRANCH  33  35
ENDBRANCH  32  33
ENDBRANCH  31  32
ENDBRANCH  30  31
ENDBRANCH  29  30
ENDBRANCH  28  29
ENDBRANCH   1  28
TORSDOF 24
ENDMDL
MODEL 2
REMARK VINA RESULT:     -10.4      1.645      2.372
REMARK SMILES CC1=Nc2ncnn2[C@H](c2ccc(F)cc2)[C@@H]1C(=O)OCCOCCOCCOCCOC(=O)c1ccc(-c2c3nc(c(-c4ccc(S(=O)(=O)[O-])cc4)c4ccc([nH]4)c(-c4ccc(S(=O)(=O)[O-])cc4)c4nc(c(-c5ccc(S(=O)(=O)[O-])cc5)c5ccc2[nH]5)C=C4)C=C3)cc1
REMARK SMILES IDX 27 1 26 2 25 3 24 4 23 5 22 6 21 7 20 8 18 9 19 10 17 11
REMARK SMILES IDX 1 12 2 13 3 14 4 15 9 16 5 17 8 18 6 19 7 20 10 21 11 22
REMARK SMILES IDX 16 23 12 24 15 25 13 26 14 27 28 28 29 29 30 30 31 31 32 32
REMARK SMILES IDX 33 33 34 34 35 35 36 36 94 37 37 38 93 39 38 40 39 41 40 42
REMARK SMILES IDX 87 43 41 44 92 45 86 46 88 47 42 48 91 49 85 50 84 51 43 53
REMARK SMILES IDX 73 54 54 55 72 56 55 57 58 58 71 59 89 60 56 61 57 62 70 64
REMARK SMILES IDX 90 65 59 66 44 67 45 68 53 69 46 70 52 71 47 72 48 73 49 74
REMARK SMILES IDX 50 75 51 76 74 77 75 78 83 79 76 80 82 81 77 82 78 83 79 84
REMARK SMILES IDX 80 85 81 86 60 87 61 88 69 89 62 90 68 91 63 92 64 93 65 94
REMARK SMILES IDX 66 95 67 96
REMARK H PARENT 88 52 58 63
REMARK Flexibility Score: inf
ROOT
ATOM      1  C   UNL A   1      41.489  19.117  26.122  1.00  0.00     0.188 C 
ENDROOT
BRANCH   1   2
ATOM      2  O   UNL A   1      41.384  20.533  26.115  1.00  0.00    -0.377 OA
BRANCH   2   3
ATOM      3  C   UNL A   1      40.238  21.154  26.671  1.00  0.00     0.188 C 
BRANCH   3   4
ATOM      4  C   UNL A   1      39.542  22.317  25.955  1.00  0.00     0.188 C 
BRANCH   4   5
ATOM      5  O   UNL A   1      38.213  22.504  26.397  1.00  0.00    -0.376 OA
BRANCH   5   6
ATOM      6  C   UNL A   1      37.158  21.854  25.733  1.00  0.00     0.202 C 
BRANCH   6   7
ATOM      7  C   UNL A   1      36.703  22.394  24.372  1.00  0.00     0.261 C 
BRANCH   7   8
ATOM      8  O   UNL A   1      35.817  23.525  24.348  1.00  0.00    -0.463 OA
BRANCH   8   9
ATOM      9  C   UNL A   1      34.760  23.457  23.521  1.00  0.00     0.317 C 
ATOM     10  O   UNL A   1      34.892  23.275  22.313  1.00  0.00    -0.251 OA
BRANCH   9  11
ATOM     11  C   UNL A   1      33.384  23.640  24.165  1.00  0.00     0.173 C 
ATOM     12  C   UNL A   1      34.397  25.744  25.365  1.00  0.00     0.063 C 
ATOM     13  C   UNL A   1      33.475  24.540  25.404  1.00  0.00     0.036 C 
ATOM     14  N   UNL A   1      32.759  24.429  26.477  1.00  0.00    -0.220 NA
ATOM     15  C   UNL A   1      31.755  23.532  26.500  1.00  0.00     0.248 A 
ATOM     16  C   UNL A   1      32.340  22.484  24.298  1.00  0.00     0.161 C 
ATOM     17  N   UNL A   1      30.842  23.340  27.428  1.00  0.00    -0.198 NA
ATOM     18  N   UNL A   1      31.470  22.705  25.453  1.00  0.00    -0.221 N 
ATOM     19  C   UNL A   1      29.984  22.442  26.864  1.00  0.00     0.248 A 
ATOM     20  N   UNL A   1      30.287  22.079  25.616  1.00  0.00    -0.157 NA
BRANCH  16  21
ATOM     21  C   UNL A   1      32.662  20.990  24.268  1.00  0.00    -0.022 A 
ATOM     22  C   UNL A   1      32.157  20.234  23.180  1.00  0.00     0.009 A 
ATOM     23  C   UNL A   1      33.288  20.292  25.308  1.00  0.00     0.009 A 
ATOM     24  C   UNL A   1      32.307  18.851  23.120  1.00  0.00     0.039 A 
ATOM     25  C   UNL A   1      33.504  18.911  25.208  1.00  0.00     0.039 A 
ATOM     26  C   UNL A   1      33.010  18.204  24.119  1.00  0.00     0.123 A 
ATOM     27  F   UNL A   1      33.210  16.883  24.038  1.00  0.00    -0.207 F 
ENDBRANCH  16  21
ENDBRANCH   9  11
ENDBRANCH   8   9
ENDBRANCH   7   8
ENDBRANCH   6   7
ENDBRANCH   5   6
ENDBRANCH   4   5
ENDBRANCH   3   4
ENDBRANCH   2   3
ENDBRANCH   1   2
BRANCH   1  28
ATOM     28  C   UNL A   1      42.916  18.569  26.352  1.00  0.00     0.188 C 
BRANCH  28  29
ATOM     29  O   UNL A   1      43.782  18.214  25.272  1.00  0.00    -0.376 OA
BRANCH  29  30
ATOM     30  C   UNL A   1      45.149  18.577  25.267  1.00  0.00     0.202 C 
BRANCH  30  31
ATOM     31  C   UNL A   1      45.554  19.939  24.721  1.00  0.00     0.261 C 
BRANCH  31  32
ATOM     32  O   UNL A   1      45.217  21.049  25.530  1.00  0.00    -0.460 OA
BRANCH  32  33
ATOM     33  C   UNL A   1      44.782  22.121  24.842  1.00  0.00     0.338 C 
ATOM     34  O   UNL A   1      45.117  22.472  23.715  1.00  0.00    -0.246 OA
BRANCH  33  35
ATOM     35  C   UNL A   1      44.003  22.954  25.756  1.00  0.00     0.060 A 
ATOM     36  C   UNL A   1      43.037  23.790  25.199  1.00  0.00     0.016 A 
ATOM     37  C   UNL A   1      44.454  23.114  27.078  1.00  0.00     0.016 A 
ATOM     38  C   UNL A   1      42.651  24.900  25.916  1.00  0.00     0.010 A 
ATOM     39  C   UNL A   1      44.061  24.213  27.796  1.00  0.00     0.010 A 
ATOM     40  C   UNL A   1      43.234  25.135  27.168  1.00  0.00    -0.014 A 
BRANCH  40  41
ATOM     41  C   UNL A   1      42.952  26.389  27.821  1.00  0.00     0.031 A 
ATOM     42  C   UNL A   1      44.022  27.389  27.675  1.00  0.00     0.074 A 
ATOM     43  C   UNL A   1      41.783  26.640  28.433  1.00  0.00     0.049 A 
ATOM     44  N   UNL A   1      44.857  27.778  28.578  1.00  0.00    -0.248 NA
ATOM     45  C   UNL A   1      44.305  27.888  26.324  1.00  0.00     0.031 C 
ATOM     46  C   UNL A   1      40.546  25.854  28.386  1.00  0.00     0.029 A 
ATOM     47  N   UNL A   1      41.430  27.734  29.155  1.00  0.00    -0.354 N 
ATOM     48  C   UNL A   1      45.639  28.745  27.965  1.00  0.00     0.074 A 
ATOM     49  C   UNL A   1      45.394  28.623  26.550  1.00  0.00     0.031 C 
ATOM     50  C   UNL A   1      39.528  26.607  28.863  1.00  0.00     0.029 A 
ATOM     51  C   UNL A   1      40.068  27.856  29.375  1.00  0.00     0.049 A 
ATOM     52  H   UNL A   1      42.087  28.386  29.493  1.00  0.00     0.167 HD
ATOM     53  C   UNL A   1      46.220  29.742  28.685  1.00  0.00     0.031 A 
ATOM     54  C   UNL A   1      39.435  28.941  29.882  1.00  0.00     0.031 A 
ATOM     55  C   UNL A   1      46.219  29.448  30.097  1.00  0.00     0.049 A 
ATOM     56  C   UNL A   1      40.450  29.742  30.613  1.00  0.00     0.074 A 
ATOM     57  C   UNL A   1      46.751  28.443  30.881  1.00  0.00     0.029 A 
ATOM     58  N   UNL A   1      45.250  30.061  30.859  1.00  0.00    -0.354 N 
ATOM     59  N   UNL A   1      41.033  29.340  31.708  1.00  0.00    -0.248 NA
ATOM     60  C   UNL A   1      41.136  30.814  29.907  1.00  0.00     0.031 C 
ATOM     61  C   UNL A   1      45.789  28.222  31.909  1.00  0.00     0.029 A 
ATOM     62  C   UNL A   1      44.745  29.135  31.735  1.00  0.00     0.049 A 
ATOM     63  H   UNL A   1      44.968  31.002  30.787  1.00  0.00     0.167 HD
ATOM     64  C   UNL A   1      42.342  29.790  31.605  1.00  0.00     0.074 A 
ATOM     65  C   UNL A   1      42.313  30.788  30.540  1.00  0.00     0.031 C 
ATOM     66  C   UNL A   1      43.370  29.112  32.198  1.00  0.00     0.031 A 
BRANCH  53  67
ATOM     67  C   UNL A   1      46.392  31.145  28.156  1.00  0.00    -0.014 A 
ATOM     68  C   UNL A   1      45.336  32.063  28.322  1.00  0.00     0.010 A 
ATOM     69  C   UNL A   1      47.424  31.514  27.268  1.00  0.00     0.010 A 
ATOM     70  C   UNL A   1      45.275  33.243  27.569  1.00  0.00     0.020 A 
ATOM     71  C   UNL A   1      47.396  32.708  26.549  1.00  0.00     0.020 A 
ATOM     72  C   UNL A   1      46.300  33.546  26.674  1.00  0.00     0.054 A 
BRANCH  72  73
ATOM     73  S   UNL A   1      46.155  35.004  25.615  1.00  0.00     0.124 S 
ATOM     74  O   UNL A   1      45.617  34.427  24.387  1.00  0.00    -0.237 OA
ATOM     75  O   UNL A   1      45.241  35.850  26.376  1.00  0.00    -0.237 OA
ATOM     76  O   UNL A   1      47.528  35.499  25.526  1.00  0.00    -0.744 OA
ENDBRANCH  72  73
ENDBRANCH  53  67
BRANCH  54  77
ATOM     77  C   UNL A   1      38.097  29.467  29.519  1.00  0.00    -0.014 A 
ATOM     78  C   UNL A   1      37.232  29.975  30.504  1.00  0.00     0.010 A 
ATOM     79  C   UNL A   1      37.782  29.730  28.168  1.00  0.00     0.010 A 
ATOM     80  C   UNL A   1      36.132  30.775  30.155  1.00  0.00     0.020 A 
ATOM     81  C   UNL A   1      36.681  30.516  27.813  1.00  0.00     0.020 A 
ATOM     82  C   UNL A   1      35.877  31.060  28.810  1.00  0.00     0.054 A 
BRANCH  82  83
ATOM     83  S   UNL A   1      34.574  32.250  28.380  1.00  0.00     0.124 S 
ATOM     84  O   UNL A   1      35.309  33.250  27.611  1.00  0.00    -0.237 OA
ATOM     85  O   UNL A   1      33.634  31.432  27.619  1.00  0.00    -0.237 OA
ATOM     86  O   UNL A   1      34.082  32.706  29.679  1.00  0.00    -0.744 OA
ENDBRANCH  82  83
ENDBRANCH  54  77
BRANCH  66  87
ATOM     87  C   UNL A   1      43.038  28.082  33.255  1.00  0.00    -0.014 A 
ATOM     88  C   UNL A   1      43.465  26.741  33.206  1.00  0.00     0.010 A 
ATOM     89  C   UNL A   1      42.389  28.536  34.418  1.00  0.00     0.010 A 
ATOM     90  C   UNL A   1      43.229  25.874  34.283  1.00  0.00     0.020 A 
ATOM     91  C   UNL A   1      42.169  27.683  35.502  1.00  0.00     0.020 A 
ATOM     92  C   UNL A   1      42.581  26.353  35.427  1.00  0.00     0.054 A 
BRANCH  92  93
ATOM     93  S   UNL A   1      42.329  25.245  36.843  1.00  0.00     0.124 S 
ATOM     94  O   UNL A   1      41.417  24.241  36.301  1.00  0.00    -0.237 OA
ATOM     95  O   UNL A   1      43.681  24.774  37.134  1.00  0.00    -0.237 OA
ATOM     96  O   UNL A   1      41.753  26.114  37.868  1.00  0.00    -0.744 OA
ENDBRANCH  92  93
ENDBRANCH  66  87
ENDBRANCH  40  41
ENDBRANCH  33  35
ENDBRANCH  32  33
ENDBRANCH  31  32
ENDBRANCH  30  31
ENDBRANCH  29  30
ENDBRANCH  28  29
ENDBRANCH   1  28
TORSDOF 24
ENDMDL
MODEL 3
REMARK VINA RESULT:      -9.5      5.107     12.592
REMARK SMILES CC1=Nc2ncnn2[C@H](c2ccc(F)cc2)[C@@H]1C(=O)OCCOCCOCCOCCOC(=O)c1ccc(-c2c3nc(c(-c4ccc(S(=O)(=O)[O-])cc4)c4ccc([nH]4)c(-c4ccc(S(=O)(=O)[O-])cc4)c4nc(c(-c5ccc(S(=O)(=O)[O-])cc5)c5ccc2[nH]5)C=C4)C=C3)cc1
REMARK SMILES IDX 27 1 26 2 25 3 24 4 23 5 22 6 21 7 20 8 18 9 19 10 17 11
REMARK SMILES IDX 1 12 2 13 3 14 4 15 9 16 5 17 8 18 6 19 7 20 10 21 11 22
REMARK SMILES IDX 16 23 12 24 15 25 13 26 14 27 28 28 29 29 30 30 31 31 32 32
REMARK SMILES IDX 33 33 34 34 35 35 36 36 94 37 37 38 93 39 38 40 39 41 40 42
REMARK SMILES IDX 87 43 41 44 92 45 86 46 88 47 42 48 91 49 85 50 84 51 43 53
REMARK SMILES IDX 73 54 54 55 72 56 55 57 58 58 71 59 89 60 56 61 57 62 70 64
REMARK SMILES IDX 90 65 59 66 44 67 45 68 53 69 46 70 52 71 47 72 48 73 49 74
REMARK SMILES IDX 50 75 51 76 74 77 75 78 83 79 76 80 82 81 77 82 78 83 79 84
REMARK SMILES IDX 80 85 81 86 60 87 61 88 69 89 62 90 68 91 63 92 64 93 65 94
REMARK SMILES IDX 66 95 67 96
REMARK H PARENT 88 52 58 63
REMARK Flexibility Score: inf
ROOT
ATOM      1  C   UNL A   1      33.288  37.106  29.745  1.00  0.00     0.188 C 
ENDROOT
BRANCH   1   2
ATOM      2  O   UNL A   1      32.873  37.370  31.077  1.00  0.00    -0.377 OA
BRANCH   2   3
ATOM      3  C   UNL A   1      32.358  36.317  31.873  1.00  0.00     0.188 C 
BRANCH   3   4
ATOM      4  C   UNL A   1      33.272  35.209  32.408  1.00  0.00     0.188 C 
BRANCH   4   5
ATOM      5  O   UNL A   1      34.395  35.722  33.095  1.00  0.00    -0.376 OA
BRANCH   5   6
ATOM      6  C   UNL A   1      34.765  35.175  34.336  1.00  0.00     0.202 C 
BRANCH   6   7
ATOM      7  C   UNL A   1      35.545  33.854  34.354  1.00  0.00     0.261 C 
BRANCH   7   8
ATOM      8  O   UNL A   1      36.845  33.839  34.966  1.00  0.00    -0.463 OA
BRANCH   8   9
ATOM      9  C   UNL A   1      37.892  34.164  34.188  1.00  0.00     0.317 C 
ATOM     10  O   UNL A   1      37.793  34.982  33.277  1.00  0.00    -0.251 OA
BRANCH   9  11
ATOM     11  C   UNL A   1      39.208  33.443  34.488  1.00  0.00     0.173 C 
ATOM     12  C   UNL A   1      38.160  31.359  33.282  1.00  0.00     0.063 C 
ATOM     13  C   UNL A   1      39.033  31.922  34.387  1.00  0.00     0.036 C 
ATOM     14  N   UNL A   1      39.643  31.039  35.112  1.00  0.00    -0.220 NA
ATOM     15  C   UNL A   1      40.608  31.444  35.958  1.00  0.00     0.248 A 
ATOM     16  C   UNL A   1      40.194  33.893  35.613  1.00  0.00     0.161 C 
ATOM     17  N   UNL A   1      41.424  30.715  36.689  1.00  0.00    -0.198 NA
ATOM     18  N   UNL A   1      40.961  32.753  36.114  1.00  0.00    -0.221 N 
ATOM     19  C   UNL A   1      42.299  31.622  37.209  1.00  0.00     0.248 A 
ATOM     20  N   UNL A   1      42.102  32.884  36.822  1.00  0.00    -0.157 NA
BRANCH  16  21
ATOM     21  C   UNL A   1      39.826  34.745  36.828  1.00  0.00    -0.022 A 
ATOM     22  C   UNL A   1      40.503  35.980  36.991  1.00  0.00     0.009 A 
ATOM     23  C   UNL A   1      38.981  34.327  37.863  1.00  0.00     0.009 A 
ATOM     24  C   UNL A   1      40.312  36.774  38.119  1.00  0.00     0.039 A 
ATOM     25  C   UNL A   1      38.734  35.162  38.961  1.00  0.00     0.039 A 
ATOM     26  C   UNL A   1      39.402  36.374  39.080  1.00  0.00     0.123 A 
ATOM     27  F   UNL A   1      39.170  37.161  40.138  1.00  0.00    -0.207 F 
ENDBRANCH  16  21
ENDBRANCH   9  11
ENDBRANCH   8   9
ENDBRANCH   7   8
ENDBRANCH   6   7
ENDBRANCH   5   6
ENDBRANCH   4   5
ENDBRANCH   3   4
ENDBRANCH   2   3
ENDBRANCH   1   2
BRANCH   1  28
ATOM     28  C   UNL A   1      32.827  35.746  29.175  1.00  0.00     0.188 C 
BRANCH  28  29
ATOM     29  O   UNL A   1      33.749  34.766  28.694  1.00  0.00    -0.376 OA
BRANCH  29  30
ATOM     30  C   UNL A   1      33.322  33.661  27.922  1.00  0.00     0.202 C 
BRANCH  30  31
ATOM     31  C   UNL A   1      34.257  32.473  27.745  1.00  0.00     0.261 C 
BRANCH  31  32
ATOM     32  O   UNL A   1      34.248  31.523  28.792  1.00  0.00    -0.460 OA
BRANCH  32  33
ATOM     33  C   UNL A   1      35.169  31.746  29.747  1.00  0.00     0.338 C 
ATOM     34  O   UNL A   1      35.033  32.394  30.781  1.00  0.00    -0.246 OA
BRANCH  33  35
ATOM     35  C   UNL A   1      36.460  31.283  29.242  1.00  0.00     0.060 A 
ATOM     36  C   UNL A   1      36.548  29.956  28.824  1.00  0.00     0.016 A 
ATOM     37  C   UNL A   1      37.603  32.065  29.482  1.00  0.00     0.016 A 
ATOM     38  C   UNL A   1      37.789  29.360  28.819  1.00  0.00     0.010 A 
ATOM     39  C   UNL A   1      38.840  31.475  29.465  1.00  0.00     0.010 A 
ATOM     40  C   UNL A   1      38.903  30.110  29.220  1.00  0.00    -0.014 A 
BRANCH  40  41
ATOM     41  C   UNL A   1      40.160  29.422  29.379  1.00  0.00     0.031 A 
ATOM     42  C   UNL A   1      40.518  29.151  30.781  1.00  0.00     0.074 A 
ATOM     43  C   UNL A   1      40.891  28.998  28.334  1.00  0.00     0.049 A 
ATOM     44  N   UNL A   1      41.422  29.743  31.484  1.00  0.00    -0.248 NA
ATOM     45  C   UNL A   1      39.653  28.236  31.537  1.00  0.00     0.031 C 
ATOM     46  C   UNL A   1      40.504  28.938  26.921  1.00  0.00     0.029 A 
ATOM     47  N   UNL A   1      42.121  28.426  28.346  1.00  0.00    -0.354 N 
ATOM     48  C   UNL A   1      41.393  29.115  32.721  1.00  0.00     0.074 A 
ATOM     49  C   UNL A   1      40.170  28.354  32.760  1.00  0.00     0.031 C 
ATOM     50  C   UNL A   1      41.390  28.161  26.255  1.00  0.00     0.029 A 
ATOM     51  C   UNL A   1      42.469  27.799  27.160  1.00  0.00     0.049 A 
ATOM     52  H   UNL A   1      42.716  28.454  29.131  1.00  0.00     0.167 HD
ATOM     53  C   UNL A   1      42.502  29.059  33.508  1.00  0.00     0.031 A 
ATOM     54  C   UNL A   1      43.536  26.987  26.970  1.00  0.00     0.031 A 
ATOM     55  C   UNL A   1      43.509  29.996  33.075  1.00  0.00     0.049 A 
ATOM     56  C   UNL A   1      44.514  27.284  28.048  1.00  0.00     0.074 A 
ATOM     57  C   UNL A   1      43.564  31.369  32.934  1.00  0.00     0.029 A 
ATOM     58  N   UNL A   1      44.551  29.490  32.330  1.00  0.00    -0.354 N 
ATOM     59  N   UNL A   1      45.156  28.414  28.147  1.00  0.00    -0.248 NA
ATOM     60  C   UNL A   1      44.474  26.488  29.266  1.00  0.00     0.031 C 
ATOM     61  C   UNL A   1      44.362  31.595  31.775  1.00  0.00     0.029 A 
ATOM     62  C   UNL A   1      44.799  30.356  31.297  1.00  0.00     0.049 A 
ATOM     63  H   UNL A   1      45.033  28.650  32.509  1.00  0.00     0.167 HD
ATOM     64  C   UNL A   1      45.227  28.670  29.509  1.00  0.00     0.074 A 
ATOM     65  C   UNL A   1      44.900  27.398  30.147  1.00  0.00     0.031 C 
ATOM     66  C   UNL A   1      45.269  29.951  29.985  1.00  0.00     0.031 A 
BRANCH  53  67
ATOM     67  C   UNL A   1      42.830  27.874  34.383  1.00  0.00    -0.014 A 
ATOM     68  C   UNL A   1      42.943  28.073  35.773  1.00  0.00     0.010 A 
ATOM     69  C   UNL A   1      43.301  26.645  33.874  1.00  0.00     0.010 A 
ATOM     70  C   UNL A   1      43.576  27.129  36.592  1.00  0.00     0.020 A 
ATOM     71  C   UNL A   1      43.890  25.678  34.688  1.00  0.00     0.020 A 
ATOM     72  C   UNL A   1      44.061  25.945  36.036  1.00  0.00     0.054 A 
BRANCH  72  73
ATOM     73  S   UNL A   1      44.986  24.788  37.072  1.00  0.00     0.124 S 
ATOM     74  O   UNL A   1      46.352  25.280  36.920  1.00  0.00    -0.237 OA
ATOM     75  O   UNL A   1      44.378  24.992  38.384  1.00  0.00    -0.237 OA
ATOM     76  O   UNL A   1      44.715  23.489  36.460  1.00  0.00    -0.744 OA
ENDBRANCH  72  73
ENDBRANCH  53  67
BRANCH  54  77
ATOM     77  C   UNL A   1      43.623  25.784  26.108  1.00  0.00    -0.014 A 
ATOM     78  C   UNL A   1      44.778  25.523  25.351  1.00  0.00     0.010 A 
ATOM     79  C   UNL A   1      42.678  24.745  26.245  1.00  0.00     0.010 A 
ATOM     80  C   UNL A   1      45.015  24.248  24.811  1.00  0.00     0.020 A 
ATOM     81  C   UNL A   1      42.902  23.475  25.700  1.00  0.00     0.020 A 
ATOM     82  C   UNL A   1      44.084  23.225  25.009  1.00  0.00     0.054 A 
BRANCH  82  83
ATOM     83  S   UNL A   1      44.487  21.534  24.479  1.00  0.00     0.124 S 
ATOM     84  O   UNL A   1      43.395  20.758  25.060  1.00  0.00    -0.237 OA
ATOM     85  O   UNL A   1      44.477  21.648  23.023  1.00  0.00    -0.237 OA
ATOM     86  O   UNL A   1      45.802  21.293  25.069  1.00  0.00    -0.744 OA
ENDBRANCH  82  83
ENDBRANCH  54  77
BRANCH  66  87
ATOM     87  C   UNL A   1      45.597  31.067  29.019  1.00  0.00    -0.014 A 
ATOM     88  C   UNL A   1      44.630  31.775  28.279  1.00  0.00     0.010 A 
ATOM     89  C   UNL A   1      46.931  31.512  28.975  1.00  0.00     0.010 A 
ATOM     90  C   UNL A   1      44.993  32.883  27.499  1.00  0.00     0.020 A 
ATOM     91  C   UNL A   1      47.296  32.628  28.216  1.00  0.00     0.020 A 
ATOM     92  C   UNL A   1      46.328  33.303  27.474  1.00  0.00     0.054 A 
BRANCH  92  93
ATOM     93  S   UNL A   1      46.786  34.772  26.511  1.00  0.00     0.124 S 
ATOM     94  O   UNL A   1      46.595  34.321  25.135  1.00  0.00    -0.237 OA
ATOM     95  O   UNL A   1      45.837  35.779  26.981  1.00  0.00    -0.237 OA
ATOM     96  O   UNL A   1      48.176  35.020  26.893  1.00  0.00    -0.744 OA
ENDBRANCH  92  93
ENDBRANCH  66  87
ENDBRANCH  40  41
ENDBRANCH  33  35
ENDBRANCH  32  33
ENDBRANCH  31  32
ENDBRANCH  30  31
ENDBRANCH  29  30
ENDBRANCH  28  29
ENDBRANCH   1  28
TORSDOF 24
ENDMDL
