MODEL 1
REMARK VINA RESULT:      -8.6      0.000      0.000
REMARK SMILES Cc1ccc(C)c(N2C(=O)S[C@H](CC(=O)Nc3ccc(C(=O)OCCOCCOCCOCCOC(=O)c4ccc(-c5c6nc(c(-c7ccc(S(=O)(=O)[O-])cc7)c7ccc([nH]7)c(-c7ccc(S(=O)(=O)[O-])cc7)c7nc(c(-c8ccc(S(=O)(=O)[O-])cc8)c8ccc5[nH]8)C=C7)C=C6)cc4)c(O)c3)C2=O)c1
REMARK SMILES IDX 28 1 27 2 26 3 25 4 24 5 23 6 21 7 22 8 20 9 17 10 18 11
REMARK SMILES IDX 100 12 19 13 98 14 16 15 14 16 15 17 13 19 12 20 8 21 9 22
REMARK SMILES IDX 101 23 10 24 11 25 102 26 7 27 1 28 2 29 3 30 103 31 4 32
REMARK SMILES IDX 5 33 6 34 99 35 29 37 30 38 31 39 32 40 33 41 34 42 35 43
REMARK SMILES IDX 36 44 37 45 38 46 39 47 97 48 40 49 96 50 41 51 42 52 43 53
REMARK SMILES IDX 90 54 44 55 95 56 89 57 91 58 45 59 94 60 88 61 87 62 46 64
REMARK SMILES IDX 76 65 57 66 75 67 58 68 61 69 74 70 92 71 59 72 60 73 73 75
REMARK SMILES IDX 93 76 62 77 47 78 48 79 56 80 49 81 55 82 50 83 51 84 52 85
REMARK SMILES IDX 53 86 54 87 77 88 78 89 86 90 79 91 85 92 80 93 81 94 82 95
REMARK SMILES IDX 83 96 84 97 63 98 64 99 72 100 65 101 71 102 66 103 67 104
REMARK SMILES IDX 68 105 69 106 70 107
REMARK H PARENT 16 18 99 36 91 63 61 74
REMARK Flexibility Score: inf
ROOT
ATOM      1  C   UNL A   1      33.250  27.339  26.431  1.00  0.00     0.188 C 
ENDROOT
BRANCH   1   2
ATOM      2  C   UNL A   1      32.529  26.896  25.127  1.00  0.00     0.188 C 
BRANCH   2   3
ATOM      3  O   UNL A   1      33.325  26.998  23.965  1.00  0.00    -0.376 OA
BRANCH   3   4
ATOM      4  C   UNL A   1      33.591  25.868  23.164  1.00  0.00     0.202 C 
BRANCH   4   5
ATOM      5  C   UNL A   1      33.719  24.495  23.834  1.00  0.00     0.261 C 
BRANCH   5   6
ATOM      6  O   UNL A   1      35.077  24.102  24.127  1.00  0.00    -0.460 OA
BRANCH   6   7
ATOM      7  C   UNL A   1      35.208  22.760  24.255  1.00  0.00     0.341 C 
ATOM      8  O   UNL A   1      34.541  21.944  23.644  1.00  0.00    -0.246 OA
BRANCH   7   9
ATOM      9  C   UNL A   1      36.410  22.341  25.016  1.00  0.00     0.101 A 
ATOM     10  C   UNL A   1      39.019  21.850  26.037  1.00  0.00     0.044 A 
ATOM     11  C   UNL A   1      38.468  23.091  26.096  1.00  0.00     0.027 A 
ATOM     12  C   UNL A   1      38.157  20.795  25.648  1.00  0.00     0.073 A 
ATOM     13  C   UNL A   1      37.264  23.340  25.470  1.00  0.00     0.022 A 
ATOM     14  C   UNL A   1      36.824  21.041  25.216  1.00  0.00     0.132 A 
BRANCH  10  15
ATOM     15  N   UNL A   1      40.418  21.696  26.184  1.00  0.00    -0.326 N 
ATOM     16  C   UNL A   1      41.492  22.567  26.056  1.00  0.00     0.226 C 
ATOM     17  O   UNL A   1      42.575  22.042  25.767  1.00  0.00    -0.275 OA
ATOM     18  H   UNL A   1      40.686  20.780  26.427  1.00  0.00     0.169 HD
BRANCH  16  19
ATOM     19  C   UNL A   1      41.482  24.098  26.385  1.00  0.00     0.125 C 
BRANCH  19  20
ATOM     20  C   UNL A   1      41.146  24.520  27.838  1.00  0.00     0.156 C 
ATOM     21  N   UNL A   1      40.729  26.734  28.829  1.00  0.00    -0.240 N 
ATOM     22  C   UNL A   1      42.077  26.733  28.782  1.00  0.00     0.293 C 
ATOM     23  C   UNL A   1      40.143  25.703  28.099  1.00  0.00     0.248 C 
ATOM     24  O   UNL A   1      42.803  27.721  28.758  1.00  0.00    -0.261 OA
ATOM     25  S   UNL A   1      42.647  25.124  28.555  1.00  0.00    -0.050 SA
ATOM     26  O   UNL A   1      38.997  25.711  27.665  1.00  0.00    -0.273 OA
BRANCH  21  27
ATOM     27  C   UNL A   1      40.101  27.887  29.402  1.00  0.00     0.056 A 
ATOM     28  C   UNL A   1      38.042  28.786  32.537  1.00  0.00     0.044 C 
ATOM     29  C   UNL A   1      38.664  28.827  31.173  1.00  0.00    -0.049 A 
ATOM     30  C   UNL A   1      38.278  29.862  30.321  1.00  0.00     0.004 A 
ATOM     31  C   UNL A   1      39.571  27.844  30.711  1.00  0.00     0.030 A 
ATOM     32  C   UNL A   1      38.755  29.903  29.020  1.00  0.00     0.006 A 
ATOM     33  C   UNL A   1      39.627  28.907  28.540  1.00  0.00    -0.027 A 
ATOM     34  C   UNL A   1      39.953  28.970  27.075  1.00  0.00     0.046 C 
ENDBRANCH  21  27
ENDBRANCH  19  20
ENDBRANCH  16  19
ENDBRANCH  10  15
BRANCH  14  35
ATOM     35  O   UNL A   1      36.002  19.975  24.992  1.00  0.00    -0.507 OA
ATOM     36  H   UNL A   1      36.274  19.113  25.241  1.00  0.00     0.293 HD
ENDBRANCH  14  35
ENDBRANCH   7   9
ENDBRANCH   6   7
ENDBRANCH   5   6
ENDBRANCH   4   5
ENDBRANCH   3   4
ENDBRANCH   2   3
ENDBRANCH   1   2
BRANCH   1  37
ATOM     37  O   UNL A   1      32.635  28.275  27.308  1.00  0.00    -0.377 OA
BRANCH  37  38
ATOM     38  C   UNL A   1      32.022  29.402  26.706  1.00  0.00     0.188 C 
BRANCH  38  39
ATOM     39  C   UNL A   1      32.663  30.765  27.005  1.00  0.00     0.188 C 
BRANCH  39  40
ATOM     40  O   UNL A   1      34.081  30.756  26.954  1.00  0.00    -0.376 OA
BRANCH  40  41
ATOM     41  C   UNL A   1      34.757  31.675  27.796  1.00  0.00     0.202 C 
BRANCH  41  42
ATOM     42  C   UNL A   1      33.816  32.809  28.174  1.00  0.00     0.261 C 
BRANCH  42  43
ATOM     43  O   UNL A   1      34.483  33.925  28.827  1.00  0.00    -0.460 OA
BRANCH  43  44
ATOM     44  C   UNL A   1      34.359  34.041  30.188  1.00  0.00     0.338 C 
ATOM     45  O   UNL A   1      33.374  34.509  30.736  1.00  0.00    -0.246 OA
BRANCH  44  46
ATOM     46  C   UNL A   1      35.583  33.506  30.888  1.00  0.00     0.060 A 
ATOM     47  C   UNL A   1      35.580  32.333  31.638  1.00  0.00     0.016 A 
ATOM     48  C   UNL A   1      36.742  34.275  30.923  1.00  0.00     0.016 A 
ATOM     49  C   UNL A   1      36.676  32.048  32.506  1.00  0.00     0.010 A 
ATOM     50  C   UNL A   1      37.765  34.051  31.856  1.00  0.00     0.010 A 
ATOM     51  C   UNL A   1      37.735  32.965  32.737  1.00  0.00    -0.014 A 
BRANCH  51  52
ATOM     52  C   UNL A   1      39.059  32.600  33.376  1.00  0.00     0.031 A 
ATOM     53  C   UNL A   1      39.054  33.346  34.618  1.00  0.00     0.074 A 
ATOM     54  C   UNL A   1      40.241  31.970  33.062  1.00  0.00     0.049 A 
ATOM     55  N   UNL A   1      39.584  34.527  34.671  1.00  0.00    -0.248 NA
ATOM     56  C   UNL A   1      38.110  33.048  35.697  1.00  0.00     0.031 C 
ATOM     57  C   UNL A   1      40.772  31.829  31.737  1.00  0.00     0.029 A 
ATOM     58  N   UNL A   1      41.265  31.321  33.808  1.00  0.00    -0.354 N 
ATOM     59  C   UNL A   1      39.478  34.839  35.997  1.00  0.00     0.074 A 
ATOM     60  C   UNL A   1      38.307  34.124  36.466  1.00  0.00     0.031 C 
ATOM     61  C   UNL A   1      41.812  30.978  31.683  1.00  0.00     0.029 A 
ATOM     62  C   UNL A   1      42.051  30.403  33.015  1.00  0.00     0.049 A 
ATOM     63  H   UNL A   1      41.421  31.481  34.767  1.00  0.00     0.167 HD
ATOM     64  C   UNL A   1      40.673  35.025  36.616  1.00  0.00     0.031 A 
ATOM     65  C   UNL A   1      43.276  29.780  33.158  1.00  0.00     0.031 A 
ATOM     66  C   UNL A   1      41.708  35.483  35.703  1.00  0.00     0.049 A 
ATOM     67  C   UNL A   1      44.229  30.749  33.701  1.00  0.00     0.074 A 
ATOM     68  C   UNL A   1      41.872  36.577  34.875  1.00  0.00     0.029 A 
ATOM     69  N   UNL A   1      42.557  34.510  35.231  1.00  0.00    -0.354 N 
ATOM     70  N   UNL A   1      44.688  31.747  33.001  1.00  0.00    -0.248 NA
ATOM     71  C   UNL A   1      44.234  30.922  35.147  1.00  0.00     0.031 C 
ATOM     72  C   UNL A   1      42.827  36.219  33.881  1.00  0.00     0.029 A 
ATOM     73  C   UNL A   1      43.284  34.935  34.144  1.00  0.00     0.049 A 
ATOM     74  H   UNL A   1      42.637  33.613  35.627  1.00  0.00     0.167 HD
ATOM     75  C   UNL A   1      44.513  32.819  33.855  1.00  0.00     0.074 A 
ATOM     76  C   UNL A   1      44.380  32.248  35.191  1.00  0.00     0.031 C 
ATOM     77  C   UNL A   1      44.128  34.036  33.386  1.00  0.00     0.031 A 
BRANCH  64  78
ATOM     78  C   UNL A   1      40.979  34.224  37.847  1.00  0.00    -0.014 A 
ATOM     79  C   UNL A   1      40.860  34.825  39.100  1.00  0.00     0.010 A 
ATOM     80  C   UNL A   1      41.574  32.940  37.796  1.00  0.00     0.010 A 
ATOM     81  C   UNL A   1      41.248  34.133  40.253  1.00  0.00     0.020 A 
ATOM     82  C   UNL A   1      41.909  32.220  38.930  1.00  0.00     0.020 A 
ATOM     83  C   UNL A   1      41.742  32.826  40.159  1.00  0.00     0.054 A 
BRANCH  83  84
ATOM     84  S   UNL A   1      42.180  31.922  41.655  1.00  0.00     0.124 S 
ATOM     85  O   UNL A   1      40.982  31.123  41.881  1.00  0.00    -0.237 OA
ATOM     86  O   UNL A   1      43.370  31.190  41.229  1.00  0.00    -0.237 OA
ATOM     87  O   UNL A   1      42.425  32.980  42.634  1.00  0.00    -0.744 OA
ENDBRANCH  83  84
ENDBRANCH  64  78
BRANCH  65  88
ATOM     88  C   UNL A   1      43.562  28.300  33.055  1.00  0.00    -0.014 A 
ATOM     89  C   UNL A   1      43.978  27.592  31.903  1.00  0.00     0.010 A 
ATOM     90  C   UNL A   1      43.468  27.538  34.229  1.00  0.00     0.010 A 
ATOM     91  C   UNL A   1      44.235  26.186  31.938  1.00  0.00     0.020 A 
ATOM     92  C   UNL A   1      43.670  26.150  34.273  1.00  0.00     0.020 A 
ATOM     93  C   UNL A   1      44.075  25.474  33.131  1.00  0.00     0.054 A 
BRANCH  93  94
ATOM     94  S   UNL A   1      44.387  23.679  33.246  1.00  0.00     0.124 S 
ATOM     95  O   UNL A   1      43.268  23.181  34.039  1.00  0.00    -0.237 OA
ATOM     96  O   UNL A   1      44.393  23.276  31.843  1.00  0.00    -0.237 OA
ATOM     97  O   UNL A   1      45.690  23.612  33.913  1.00  0.00    -0.744 OA
ENDBRANCH  93  94
ENDBRANCH  65  88
BRANCH  77  98
ATOM     98  C   UNL A   1      44.583  34.443  32.012  1.00  0.00    -0.014 A 
ATOM     99  C   UNL A   1      43.819  34.342  30.840  1.00  0.00     0.010 A 
ATOM    100  C   UNL A   1      45.844  35.059  31.930  1.00  0.00     0.010 A 
ATOM    101  C   UNL A   1      44.296  34.854  29.619  1.00  0.00     0.020 A 
ATOM    102  C   UNL A   1      46.325  35.578  30.724  1.00  0.00     0.020 A 
ATOM    103  C   UNL A   1      45.549  35.471  29.571  1.00  0.00     0.054 A 
BRANCH 103 104
ATOM    104  S   UNL A   1      46.145  36.182  28.010  1.00  0.00     0.124 S 
ATOM    105  O   UNL A   1      45.705  35.198  27.024  1.00  0.00    -0.237 OA
ATOM    106  O   UNL A   1      45.463  37.475  27.956  1.00  0.00    -0.237 OA
ATOM    107  O   UNL A   1      47.593  36.265  28.195  1.00  0.00    -0.744 OA
ENDBRANCH 103 104
ENDBRANCH  77  98
ENDBRANCH  51  52
ENDBRANCH  44  46
ENDBRANCH  43  44
ENDBRANCH  42  43
ENDBRANCH  41  42
ENDBRANCH  40  41
ENDBRANCH  39  40
ENDBRANCH  38  39
ENDBRANCH  37  38
ENDBRANCH   1  37
TORSDOF 28
ENDMDL
MODEL 2
REMARK VINA RESULT:      -8.4      3.316      9.654
REMARK SMILES Cc1ccc(C)c(N2C(=O)S[C@H](CC(=O)Nc3ccc(C(=O)OCCOCCOCCOCCOC(=O)c4ccc(-c5c6nc(c(-c7ccc(S(=O)(=O)[O-])cc7)c7ccc([nH]7)c(-c7ccc(S(=O)(=O)[O-])cc7)c7nc(c(-c8ccc(S(=O)(=O)[O-])cc8)c8ccc5[nH]8)C=C7)C=C6)cc4)c(O)c3)C2=O)c1
REMARK SMILES IDX 28 1 27 2 26 3 25 4 24 5 23 6 21 7 22 8 20 9 17 10 18 11
REMARK SMILES IDX 100 12 19 13 98 14 16 15 14 16 15 17 13 19 12 20 8 21 9 22
REMARK SMILES IDX 101 23 10 24 11 25 102 26 7 27 1 28 2 29 3 30 103 31 4 32
REMARK SMILES IDX 5 33 6 34 99 35 29 37 30 38 31 39 32 40 33 41 34 42 35 43
REMARK SMILES IDX 36 44 37 45 38 46 39 47 97 48 40 49 96 50 41 51 42 52 43 53
REMARK SMILES IDX 90 54 44 55 95 56 89 57 91 58 45 59 94 60 88 61 87 62 46 64
REMARK SMILES IDX 76 65 57 66 75 67 58 68 61 69 74 70 92 71 59 72 60 73 73 75
REMARK SMILES IDX 93 76 62 77 47 78 48 79 56 80 49 81 55 82 50 83 51 84 52 85
REMARK SMILES IDX 53 86 54 87 77 88 78 89 86 90 79 91 85 92 80 93 81 94 82 95
REMARK SMILES IDX 83 96 84 97 63 98 64 99 72 100 65 101 71 102 66 103 67 104
REMARK SMILES IDX 68 105 69 106 70 107
REMARK H PARENT 16 18 99 36 91 63 61 74
REMARK Flexibility Score: inf
ROOT
ATOM      1  C   UNL A   1      37.555  22.646  25.161  1.00  0.00     0.188 C 
ENDROOT
BRANCH   1   2
ATOM      2  C   UNL A   1      36.471  23.348  26.027  1.00  0.00     0.188 C 
BRANCH   2   3
ATOM      3  O   UNL A   1      35.845  22.500  26.965  1.00  0.00    -0.376 OA
BRANCH   3   4
ATOM      4  C   UNL A   1      34.453  22.562  27.186  1.00  0.00     0.202 C 
BRANCH   4   5
ATOM      5  C   UNL A   1      33.563  21.433  26.653  1.00  0.00     0.261 C 
BRANCH   5   6
ATOM      6  O   UNL A   1      34.272  20.426  25.899  1.00  0.00    -0.460 OA
BRANCH   6   7
ATOM      7  C   UNL A   1      33.563  19.991  24.829  1.00  0.00     0.341 C 
ATOM      8  O   UNL A   1      32.906  18.965  24.812  1.00  0.00    -0.246 OA
BRANCH   7   9
ATOM      9  C   UNL A   1      33.436  20.991  23.743  1.00  0.00     0.101 A 
ATOM     10  C   UNL A   1      33.095  23.307  22.126  1.00  0.00     0.044 A 
ATOM     11  C   UNL A   1      34.202  23.152  22.899  1.00  0.00     0.027 A 
ATOM     12  C   UNL A   1      32.247  22.178  22.005  1.00  0.00     0.073 A 
ATOM     13  C   UNL A   1      34.282  22.094  23.782  1.00  0.00     0.022 A 
ATOM     14  C   UNL A   1      32.472  20.992  22.756  1.00  0.00     0.132 A 
BRANCH  10  15
ATOM     15  N   UNL A   1      32.753  24.591  21.640  1.00  0.00    -0.326 N 
ATOM     16  C   UNL A   1      31.884  25.579  22.083  1.00  0.00     0.226 C 
ATOM     17  O   UNL A   1      31.452  26.343  21.211  1.00  0.00    -0.275 OA
ATOM     18  H   UNL A   1      33.231  24.835  20.814  1.00  0.00     0.169 HD
BRANCH  16  19
ATOM     19  C   UNL A   1      31.530  25.893  23.577  1.00  0.00     0.125 C 
BRANCH  19  20
ATOM     20  C   UNL A   1      31.449  27.382  23.999  1.00  0.00     0.156 C 
ATOM     21  N   UNL A   1      32.677  28.651  25.714  1.00  0.00    -0.240 N 
ATOM     22  C   UNL A   1      31.752  28.034  26.476  1.00  0.00     0.293 C 
ATOM     23  C   UNL A   1      32.756  28.150  24.416  1.00  0.00     0.248 C 
ATOM     24  O   UNL A   1      31.843  27.792  27.675  1.00  0.00    -0.261 OA
ATOM     25  S   UNL A   1      30.479  27.442  25.478  1.00  0.00    -0.050 SA
ATOM     26  O   UNL A   1      33.733  28.248  23.682  1.00  0.00    -0.273 OA
BRANCH  21  27
ATOM     27  C   UNL A   1      33.583  29.538  26.382  1.00  0.00     0.056 A 
ATOM     28  C   UNL A   1      36.793  29.314  28.507  1.00  0.00     0.044 C 
ATOM     29  C   UNL A   1      35.531  29.814  27.868  1.00  0.00    -0.049 A 
ATOM     30  C   UNL A   1      35.057  31.063  28.271  1.00  0.00     0.004 A 
ATOM     31  C   UNL A   1      34.793  29.056  26.928  1.00  0.00     0.030 A 
ATOM     32  C   UNL A   1      33.853  31.538  27.777  1.00  0.00     0.006 A 
ATOM     33  C   UNL A   1      33.092  30.774  26.872  1.00  0.00    -0.027 A 
ATOM     34  C   UNL A   1      31.736  31.321  26.527  1.00  0.00     0.046 C 
ENDBRANCH  21  27
ENDBRANCH  19  20
ENDBRANCH  16  19
ENDBRANCH  10  15
BRANCH  14  35
ATOM     35  O   UNL A   1      31.706  19.894  22.489  1.00  0.00    -0.507 OA
ATOM     36  H   UNL A   1      31.390  19.361  23.193  1.00  0.00     0.293 HD
ENDBRANCH  14  35
ENDBRANCH   7   9
ENDBRANCH   6   7
ENDBRANCH   5   6
ENDBRANCH   4   5
ENDBRANCH   3   4
ENDBRANCH   2   3
ENDBRANCH   1   2
BRANCH   1  37
ATOM     37  O   UNL A   1      38.252  21.513  25.664  1.00  0.00    -0.377 OA
BRANCH  37  38
ATOM     38  C   UNL A   1      39.433  21.770  26.404  1.00  0.00     0.188 C 
BRANCH  38  39
ATOM     39  C   UNL A   1      40.533  20.701  26.323  1.00  0.00     0.188 C 
BRANCH  39  40
ATOM     40  O   UNL A   1      41.743  21.167  25.747  1.00  0.00    -0.376 OA
BRANCH  40  41
ATOM     41  C   UNL A   1      42.035  22.546  25.899  1.00  0.00     0.202 C 
BRANCH  41  42
ATOM     42  C   UNL A   1      43.308  22.886  25.138  1.00  0.00     0.261 C 
BRANCH  42  43
ATOM     43  O   UNL A   1      43.353  24.260  24.664  1.00  0.00    -0.460 OA
BRANCH  43  44
ATOM     44  C   UNL A   1      44.444  25.020  24.998  1.00  0.00     0.338 C 
ATOM     45  O   UNL A   1      45.582  24.754  24.646  1.00  0.00    -0.246 OA
BRANCH  44  46
ATOM     46  C   UNL A   1      44.038  26.210  25.832  1.00  0.00     0.060 A 
ATOM     47  C   UNL A   1      43.022  27.088  25.464  1.00  0.00     0.016 A 
ATOM     48  C   UNL A   1      44.792  26.550  26.951  1.00  0.00     0.016 A 
ATOM     49  C   UNL A   1      42.894  28.340  26.136  1.00  0.00     0.010 A 
ATOM     50  C   UNL A   1      44.735  27.823  27.536  1.00  0.00     0.010 A 
ATOM     51  C   UNL A   1      43.830  28.796  27.100  1.00  0.00    -0.014 A 
BRANCH  51  52
ATOM     52  C   UNL A   1      43.579  29.939  28.063  1.00  0.00     0.031 A 
ATOM     53  C   UNL A   1      44.769  30.756  27.937  1.00  0.00     0.074 A 
ATOM     54  C   UNL A   1      42.712  30.296  29.069  1.00  0.00     0.049 A 
ATOM     55  N   UNL A   1      45.773  30.572  28.735  1.00  0.00    -0.248 NA
ATOM     56  C   UNL A   1      45.091  31.473  26.702  1.00  0.00     0.031 C 
ATOM     57  C   UNL A   1      41.953  29.377  29.868  1.00  0.00     0.029 A 
ATOM     58  N   UNL A   1      42.295  31.527  29.648  1.00  0.00    -0.354 N 
ATOM     59  C   UNL A   1      46.624  31.579  28.377  1.00  0.00     0.074 A 
ATOM     60  C   UNL A   1      46.349  31.833  26.976  1.00  0.00     0.031 C 
ATOM     61  C   UNL A   1      41.017  29.989  30.615  1.00  0.00     0.029 A 
ATOM     62  C   UNL A   1      41.026  31.432  30.335  1.00  0.00     0.049 A 
ATOM     63  H   UNL A   1      42.817  32.359  29.588  1.00  0.00     0.167 HD
ATOM     64  C   UNL A   1      46.877  32.466  29.375  1.00  0.00     0.031 A 
ATOM     65  C   UNL A   1      40.350  32.199  31.263  1.00  0.00     0.031 A 
ATOM     66  C   UNL A   1      46.755  31.870  30.695  1.00  0.00     0.049 A 
ATOM     67  C   UNL A   1      41.309  32.662  32.269  1.00  0.00     0.074 A 
ATOM     68  C   UNL A   1      47.366  30.822  31.359  1.00  0.00     0.029 A 
ATOM     69  N   UNL A   1      45.563  32.095  31.341  1.00  0.00    -0.354 N 
ATOM     70  N   UNL A   1      41.843  31.861  33.146  1.00  0.00    -0.248 NA
ATOM     71  C   UNL A   1      42.069  33.861  31.944  1.00  0.00     0.031 C 
ATOM     72  C   UNL A   1      46.490  30.413  32.405  1.00  0.00     0.029 A 
ATOM     73  C   UNL A   1      45.383  31.251  32.412  1.00  0.00     0.049 A 
ATOM     74  H   UNL A   1      44.912  32.782  31.069  1.00  0.00     0.167 HD
ATOM     75  C   UNL A   1      43.187  32.168  33.052  1.00  0.00     0.074 A 
ATOM     76  C   UNL A   1      43.254  33.485  32.428  1.00  0.00     0.031 C 
ATOM     77  C   UNL A   1      44.137  31.200  33.147  1.00  0.00     0.031 A 
BRANCH  64  78
ATOM     78  C   UNL A   1      46.630  33.924  29.121  1.00  0.00    -0.014 A 
ATOM     79  C   UNL A   1      47.679  34.831  29.278  1.00  0.00     0.010 A 
ATOM     80  C   UNL A   1      45.334  34.457  28.920  1.00  0.00     0.010 A 
ATOM     81  C   UNL A   1      47.444  36.205  29.157  1.00  0.00     0.020 A 
ATOM     82  C   UNL A   1      45.096  35.809  28.740  1.00  0.00     0.020 A 
ATOM     83  C   UNL A   1      46.160  36.680  28.861  1.00  0.00     0.054 A 
BRANCH  83  84
ATOM     84  S   UNL A   1      45.883  38.447  28.647  1.00  0.00     0.124 S 
ATOM     85  O   UNL A   1      47.190  38.900  28.186  1.00  0.00    -0.237 OA
ATOM     86  O   UNL A   1      44.810  38.468  27.656  1.00  0.00    -0.237 OA
ATOM     87  O   UNL A   1      45.496  38.897  29.983  1.00  0.00    -0.744 OA
ENDBRANCH  83  84
ENDBRANCH  64  78
BRANCH  65  88
ATOM     88  C   UNL A   1      38.938  32.727  31.154  1.00  0.00    -0.014 A 
ATOM     89  C   UNL A   1      38.347  33.350  30.031  1.00  0.00     0.010 A 
ATOM     90  C   UNL A   1      38.089  32.535  32.254  1.00  0.00     0.010 A 
ATOM     91  C   UNL A   1      36.988  33.793  30.047  1.00  0.00     0.020 A 
ATOM     92  C   UNL A   1      36.766  33.004  32.305  1.00  0.00     0.020 A 
ATOM     93  C   UNL A   1      36.207  33.616  31.193  1.00  0.00     0.054 A 
BRANCH  93  94
ATOM     94  S   UNL A   1      34.465  34.156  31.281  1.00  0.00     0.124 S 
ATOM     95  O   UNL A   1      33.811  33.099  32.046  1.00  0.00    -0.237 OA
ATOM     96  O   UNL A   1      34.575  35.446  31.955  1.00  0.00    -0.237 OA
ATOM     97  O   UNL A   1      34.069  34.227  29.872  1.00  0.00    -0.744 OA
ENDBRANCH  93  94
ENDBRANCH  65  88
BRANCH  77  98
ATOM     98  C   UNL A   1      43.861  30.019  34.037  1.00  0.00    -0.014 A 
ATOM     99  C   UNL A   1      43.951  30.019  35.437  1.00  0.00     0.010 A 
ATOM    100  C   UNL A   1      43.385  28.859  33.403  1.00  0.00     0.010 A 
ATOM    101  C   UNL A   1      43.563  28.892  36.186  1.00  0.00     0.020 A 
ATOM    102  C   UNL A   1      42.991  27.736  34.138  1.00  0.00     0.020 A 
ATOM    103  C   UNL A   1      43.084  27.756  35.528  1.00  0.00     0.054 A 
BRANCH 103 104
ATOM    104  S   UNL A   1      42.533  26.321  36.494  1.00  0.00     0.124 S 
ATOM    105  O   UNL A   1      43.091  26.592  37.816  1.00  0.00    -0.237 OA
ATOM    106  O   UNL A   1      41.075  26.400  36.398  1.00  0.00    -0.237 OA
ATOM    107  O   UNL A   1      43.126  25.182  35.795  1.00  0.00    -0.744 OA
ENDBRANCH 103 104
ENDBRANCH  77  98
ENDBRANCH  51  52
ENDBRANCH  44  46
ENDBRANCH  43  44
ENDBRANCH  42  43
ENDBRANCH  41  42
ENDBRANCH  40  41
ENDBRANCH  39  40
ENDBRANCH  38  39
ENDBRANCH  37  38
ENDBRANCH   1  37
TORSDOF 28
ENDMDL
MODEL 3
REMARK VINA RESULT:      -8.2      5.774     11.738
REMARK SMILES Cc1ccc(C)c(N2C(=O)S[C@H](CC(=O)Nc3ccc(C(=O)OCCOCCOCCOCCOC(=O)c4ccc(-c5c6nc(c(-c7ccc(S(=O)(=O)[O-])cc7)c7ccc([nH]7)c(-c7ccc(S(=O)(=O)[O-])cc7)c7nc(c(-c8ccc(S(=O)(=O)[O-])cc8)c8ccc5[nH]8)C=C7)C=C6)cc4)c(O)c3)C2=O)c1
REMARK SMILES IDX 28 1 27 2 26 3 25 4 24 5 23 6 21 7 22 8 20 9 17 10 18 11
REMARK SMILES IDX 100 12 19 13 98 14 16 15 14 16 15 17 13 19 12 20 8 21 9 22
REMARK SMILES IDX 101 23 10 24 11 25 102 26 7 27 1 28 2 29 3 30 103 31 4 32
REMARK SMILES IDX 5 33 6 34 99 35 29 37 30 38 31 39 32 40 33 41 34 42 35 43
REMARK SMILES IDX 36 44 37 45 38 46 39 47 97 48 40 49 96 50 41 51 42 52 43 53
REMARK SMILES IDX 90 54 44 55 95 56 89 57 91 58 45 59 94 60 88 61 87 62 46 64
REMARK SMILES IDX 76 65 57 66 75 67 58 68 61 69 74 70 92 71 59 72 60 73 73 75
REMARK SMILES IDX 93 76 62 77 47 78 48 79 56 80 49 81 55 82 50 83 51 84 52 85
REMARK SMILES IDX 53 86 54 87 77 88 78 89 86 90 79 91 85 92 80 93 81 94 82 95
REMARK SMILES IDX 83 96 84 97 63 98 64 99 72 100 65 101 71 102 66 103 67 104
REMARK SMILES IDX 68 105 69 106 70 107
REMARK H PARENT 16 18 99 36 91 63 61 74
REMARK Flexibility Score: inf
ROOT
ATOM      1  C   UNL A   1      34.815  30.577  27.436  1.00  0.00     0.188 C 
ENDROOT
BRANCH   1   2
ATOM      2  C   UNL A   1      34.939  29.028  27.394  1.00  0.00     0.188 C 
BRANCH   2   3
ATOM      3  O   UNL A   1      34.172  28.415  26.381  1.00  0.00    -0.376 OA
BRANCH   3   4
ATOM      4  C   UNL A   1      32.875  27.925  26.645  1.00  0.00     0.202 C 
BRANCH   4   5
ATOM      5  C   UNL A   1      31.688  28.894  26.587  1.00  0.00     0.261 C 
BRANCH   5   6
ATOM      6  O   UNL A   1      31.851  29.976  25.645  1.00  0.00    -0.460 OA
BRANCH   6   7
ATOM      7  C   UNL A   1      30.994  29.883  24.600  1.00  0.00     0.341 C 
ATOM      8  O   UNL A   1      30.055  30.637  24.412  1.00  0.00    -0.246 OA
BRANCH   7   9
ATOM      9  C   UNL A   1      31.430  28.937  23.545  1.00  0.00     0.101 A 
ATOM     10  C   UNL A   1      32.039  26.693  21.906  1.00  0.00     0.044 A 
ATOM     11  C   UNL A   1      30.754  27.094  22.092  1.00  0.00     0.027 A 
ATOM     12  C   UNL A   1      33.047  27.566  22.384  1.00  0.00     0.073 A 
ATOM     13  C   UNL A   1      30.468  28.093  23.001  1.00  0.00     0.022 A 
ATOM     14  C   UNL A   1      32.731  28.732  23.134  1.00  0.00     0.132 A 
BRANCH  10  15
ATOM     15  N   UNL A   1      32.305  25.390  21.424  1.00  0.00    -0.326 N 
ATOM     16  C   UNL A   1      32.920  24.275  21.979  1.00  0.00     0.226 C 
ATOM     17  O   UNL A   1      33.424  23.485  21.171  1.00  0.00    -0.275 OA
ATOM     18  H   UNL A   1      31.987  25.242  20.504  1.00  0.00     0.169 HD
BRANCH  16  19
ATOM     19  C   UNL A   1      32.901  23.868  23.491  1.00  0.00     0.125 C 
BRANCH  19  20
ATOM     20  C   UNL A   1      33.954  24.517  24.425  1.00  0.00     0.156 C 
ATOM     21  N   UNL A   1      35.813  23.534  25.704  1.00  0.00    -0.240 N 
ATOM     22  C   UNL A   1      34.775  23.249  26.516  1.00  0.00     0.293 C 
ATOM     23  C   UNL A   1      35.429  23.974  24.439  1.00  0.00     0.248 C 
ATOM     24  O   UNL A   1      34.728  22.347  27.345  1.00  0.00    -0.261 OA
ATOM     25  S   UNL A   1      33.418  24.220  26.085  1.00  0.00    -0.050 SA
ATOM     26  O   UNL A   1      36.127  23.916  23.432  1.00  0.00    -0.273 OA
BRANCH  21  27
ATOM     27  C   UNL A   1      37.115  23.137  26.151  1.00  0.00     0.056 A 
ATOM     28  C   UNL A   1      40.402  24.800  27.290  1.00  0.00     0.044 C 
ATOM     29  C   UNL A   1      39.401  23.799  26.796  1.00  0.00    -0.049 A 
ATOM     30  C   UNL A   1      39.882  22.549  26.404  1.00  0.00     0.004 A 
ATOM     31  C   UNL A   1      38.023  24.089  26.666  1.00  0.00     0.030 A 
ATOM     32  C   UNL A   1      39.016  21.614  25.860  1.00  0.00     0.006 A 
ATOM     33  C   UNL A   1      37.649  21.908  25.691  1.00  0.00    -0.027 A 
ATOM     34  C   UNL A   1      36.843  20.879  24.952  1.00  0.00     0.046 C 
ENDBRANCH  21  27
ENDBRANCH  19  20
ENDBRANCH  16  19
ENDBRANCH  10  15
BRANCH  14  35
ATOM     35  O   UNL A   1      33.734  29.605  23.443  1.00  0.00    -0.507 OA
ATOM     36  H   UNL A   1      33.573  30.315  24.033  1.00  0.00     0.293 HD
ENDBRANCH  14  35
ENDBRANCH   7   9
ENDBRANCH   6   7
ENDBRANCH   5   6
ENDBRANCH   4   5
ENDBRANCH   3   4
ENDBRANCH   2   3
ENDBRANCH   1   2
BRANCH   1  37
ATOM     37  O   UNL A   1      35.953  31.380  27.723  1.00  0.00    -0.377 OA
BRANCH  37  38
ATOM     38  C   UNL A   1      35.703  32.696  28.186  1.00  0.00     0.188 C 
BRANCH  38  39
ATOM     39  C   UNL A   1      36.753  33.295  29.132  1.00  0.00     0.188 C 
BRANCH  39  40
ATOM     40  O   UNL A   1      37.002  32.507  30.286  1.00  0.00    -0.376 OA
BRANCH  40  41
ATOM     41  C   UNL A   1      38.293  31.934  30.403  1.00  0.00     0.202 C 
BRANCH  41  42
ATOM     42  C   UNL A   1      39.241  32.936  31.046  1.00  0.00     0.261 C 
BRANCH  42  43
ATOM     43  O   UNL A   1      40.162  33.552  30.104  1.00  0.00    -0.460 OA
BRANCH  43  44
ATOM     44  C   UNL A   1      41.460  33.110  30.092  1.00  0.00     0.338 C 
ATOM     45  O   UNL A   1      41.795  31.996  30.461  1.00  0.00    -0.246 OA
BRANCH  44  46
ATOM     46  C   UNL A   1      42.387  34.174  29.556  1.00  0.00     0.060 A 
ATOM     47  C   UNL A   1      43.094  34.039  28.365  1.00  0.00     0.016 A 
ATOM     48  C   UNL A   1      42.677  35.286  30.341  1.00  0.00     0.016 A 
ATOM     49  C   UNL A   1      44.163  34.938  28.073  1.00  0.00     0.010 A 
ATOM     50  C   UNL A   1      43.795  36.099  30.107  1.00  0.00     0.010 A 
ATOM     51  C   UNL A   1      44.627  35.909  29.000  1.00  0.00    -0.014 A 
BRANCH  51  52
ATOM     52  C   UNL A   1      45.518  37.080  28.637  1.00  0.00     0.031 A 
ATOM     53  C   UNL A   1      46.846  36.613  28.978  1.00  0.00     0.074 A 
ATOM     54  C   UNL A   1      45.421  38.406  28.285  1.00  0.00     0.049 A 
ATOM     55  N   UNL A   1      47.343  36.859  30.149  1.00  0.00    -0.248 NA
ATOM     56  C   UNL A   1      47.492  35.514  28.257  1.00  0.00     0.031 C 
ATOM     57  C   UNL A   1      44.320  39.266  28.610  1.00  0.00     0.029 A 
ATOM     58  N   UNL A   1      46.253  39.324  27.584  1.00  0.00    -0.354 N 
ATOM     59  C   UNL A   1      48.613  36.366  30.041  1.00  0.00     0.074 A 
ATOM     60  C   UNL A   1      48.525  35.289  29.075  1.00  0.00     0.031 C 
ATOM     61  C   UNL A   1      44.367  40.439  27.954  1.00  0.00     0.029 A 
ATOM     62  C   UNL A   1      45.526  40.454  27.050  1.00  0.00     0.049 A 
ATOM     63  H   UNL A   1      47.223  39.202  27.474  1.00  0.00     0.167 HD
ATOM     64  C   UNL A   1      49.583  37.306  30.190  1.00  0.00     0.031 A 
ATOM     65  C   UNL A   1      45.866  41.706  26.576  1.00  0.00     0.031 A 
ATOM     66  C   UNL A   1      49.158  38.417  31.026  1.00  0.00     0.049 A 
ATOM     67  C   UNL A   1      46.887  42.275  27.457  1.00  0.00     0.074 A 
ATOM     68  C   UNL A   1      48.711  38.552  32.327  1.00  0.00     0.029 A 
ATOM     69  N   UNL A   1      48.733  39.538  30.353  1.00  0.00    -0.354 N 
ATOM     70  N   UNL A   1      46.622  42.677  28.668  1.00  0.00    -0.248 NA
ATOM     71  C   UNL A   1      48.266  41.886  27.197  1.00  0.00     0.031 C 
ATOM     72  C   UNL A   1      47.987  39.776  32.403  1.00  0.00     0.029 A 
ATOM     73  C   UNL A   1      48.048  40.408  31.169  1.00  0.00     0.049 A 
ATOM     74  H   UNL A   1      48.901  39.701  29.397  1.00  0.00     0.167 HD
ATOM     75  C   UNL A   1      47.622  42.079  29.408  1.00  0.00     0.074 A 
ATOM     76  C   UNL A   1      48.676  41.740  28.457  1.00  0.00     0.031 C 
ATOM     77  C   UNL A   1      47.376  41.580  30.649  1.00  0.00     0.031 A 
BRANCH  64  78
ATOM     78  C   UNL A   1      50.612  37.456  29.109  1.00  0.00    -0.014 A 
ATOM     79  C   UNL A   1      51.955  37.593  29.459  1.00  0.00     0.010 A 
ATOM     80  C   UNL A   1      50.270  37.663  27.751  1.00  0.00     0.010 A 
ATOM     81  C   UNL A   1      52.917  37.847  28.475  1.00  0.00     0.020 A 
ATOM     82  C   UNL A   1      51.215  37.856  26.757  1.00  0.00     0.020 A 
ATOM     83  C   UNL A   1      52.542  37.949  27.130  1.00  0.00     0.054 A 
BRANCH  83  84
ATOM     84  S   UNL A   1      53.797  38.214  25.865  1.00  0.00     0.124 S 
ATOM     85  O   UNL A   1      54.863  37.326  26.313  1.00  0.00    -0.237 OA
ATOM     86  O   UNL A   1      53.093  37.810  24.650  1.00  0.00    -0.237 OA
ATOM     87  O   UNL A   1      54.085  39.644  25.963  1.00  0.00    -0.744 OA
ENDBRANCH  83  84
ENDBRANCH  64  78
BRANCH  65  88
ATOM     88  C   UNL A   1      45.490  42.308  25.241  1.00  0.00    -0.014 A 
ATOM     89  C   UNL A   1      44.363  43.114  24.958  1.00  0.00     0.010 A 
ATOM     90  C   UNL A   1      46.372  42.106  24.169  1.00  0.00     0.010 A 
ATOM     91  C   UNL A   1      44.126  43.640  23.650  1.00  0.00     0.020 A 
ATOM     92  C   UNL A   1      46.132  42.575  22.867  1.00  0.00     0.020 A 
ATOM     93  C   UNL A   1      45.018  43.362  22.611  1.00  0.00     0.054 A 
BRANCH  93  94
ATOM     94  S   UNL A   1      44.777  44.003  20.918  1.00  0.00     0.124 S 
ATOM     95  O   UNL A   1      45.787  43.301  20.133  1.00  0.00    -0.237 OA
ATOM     96  O   UNL A   1      43.392  43.630  20.641  1.00  0.00    -0.237 OA
ATOM     97  O   UNL A   1      45.010  45.441  21.072  1.00  0.00    -0.744 OA
ENDBRANCH  93  94
ENDBRANCH  65  88
BRANCH  77  98
ATOM     98  C   UNL A   1      46.342  42.267  31.498  1.00  0.00    -0.014 A 
ATOM     99  C   UNL A   1      46.535  43.466  32.201  1.00  0.00     0.010 A 
ATOM    100  C   UNL A   1      45.057  41.698  31.499  1.00  0.00     0.010 A 
ATOM    101  C   UNL A   1      45.469  44.086  32.878  1.00  0.00     0.020 A 
ATOM    102  C   UNL A   1      43.989  42.309  32.162  1.00  0.00     0.020 A 
ATOM    103  C   UNL A   1      44.200  43.502  32.852  1.00  0.00     0.054 A 
BRANCH 103 104
ATOM    104  S   UNL A   1      42.810  44.328  33.679  1.00  0.00     0.124 S 
ATOM    105  O   UNL A   1      43.430  45.538  34.212  1.00  0.00    -0.237 OA
ATOM    106  O   UNL A   1      41.857  44.537  32.590  1.00  0.00    -0.237 OA
ATOM    107  O   UNL A   1      42.378  43.360  34.686  1.00  0.00    -0.744 OA
ENDBRANCH 103 104
ENDBRANCH  77  98
ENDBRANCH  51  52
ENDBRANCH  44  46
ENDBRANCH  43  44
ENDBRANCH  42  43
ENDBRANCH  41  42
ENDBRANCH  40  41
ENDBRANCH  39  40
ENDBRANCH  38  39
ENDBRANCH  37  38
ENDBRANCH   1  37
TORSDOF 28
ENDMDL
