MODEL 1
REMARK VINA RESULT:      -6.9      0.000      0.000
REMARK SMILES Cc1ccc(/N=C/c2cc(C)n(-c3ccc(C(=O)OCCOCCOCCOCCOC(=O)c4ccc(-c5c6nc(c(-c7ccc(S(=O)(=O)[O-])cc7)c7ccc([nH]7)c(-c7ccc(S(=O)(=O)[O-])cc7)c7nc(c(-c8ccc(S(=O)(=O)[O-])cc8)c8ccc5[nH]8)C=C7)C=C6)cc4)c(Cl)c3)c2C)cc1
REMARK SMILES IDX 25 1 24 2 23 3 22 4 21 5 20 6 19 7 17 8 18 9 16 10 13 11
REMARK SMILES IDX 14 12 96 13 15 14 94 15 95 16 12 17 8 18 9 19 97 20 10 21
REMARK SMILES IDX 98 22 11 23 7 24 6 25 5 26 1 27 2 28 3 29 100 30 4 31 99 32
REMARK SMILES IDX 26 33 27 34 28 35 29 36 30 37 31 38 32 39 33 40 34 41 35 42
REMARK SMILES IDX 93 43 36 44 92 45 37 46 38 47 39 48 86 49 40 50 91 51 85 52
REMARK SMILES IDX 87 53 41 54 90 55 84 56 83 57 42 59 72 60 53 61 71 62 54 63
REMARK SMILES IDX 57 64 70 65 88 66 55 67 56 68 69 70 89 71 58 72 43 73 44 74
REMARK SMILES IDX 52 75 45 76 51 77 46 78 47 79 48 80 49 81 50 82 73 83 74 84
REMARK SMILES IDX 82 85 75 86 81 87 76 88 77 89 78 90 79 91 80 92 59 93 60 94
REMARK SMILES IDX 68 95 61 96 67 97 62 98 63 99 64 100 65 101 66 102
REMARK H PARENT 87 58 57 69
REMARK Flexibility Score: inf
ROOT
ATOM      1  O   UNL A   1      46.333  39.237  34.245  1.00  0.00    -0.377 OA
ENDROOT
BRANCH   1   2
ATOM      2  C   UNL A   1      46.731  40.005  33.128  1.00  0.00     0.188 C 
BRANCH   2   3
ATOM      3  C   UNL A   1      46.117  39.796  31.733  1.00  0.00     0.188 C 
BRANCH   3   4
ATOM      4  O   UNL A   1      45.253  40.753  31.125  1.00  0.00    -0.376 OA
BRANCH   4   5
ATOM      5  C   UNL A   1      43.856  40.483  31.267  1.00  0.00     0.202 C 
BRANCH   5   6
ATOM      6  C   UNL A   1      43.102  40.242  29.972  1.00  0.00     0.261 C 
BRANCH   6   7
ATOM      7  O   UNL A   1      43.738  39.265  29.177  1.00  0.00    -0.460 OA
BRANCH   7   8
ATOM      8  C   UNL A   1      42.950  38.623  28.303  1.00  0.00     0.339 C 
ATOM      9  O   UNL A   1      42.068  39.039  27.594  1.00  0.00    -0.246 OA
BRANCH   8  10
ATOM     10  C   UNL A   1      43.603  37.321  28.214  1.00  0.00     0.078 A 
ATOM     11  C   UNL A   1      44.956  34.938  28.200  1.00  0.00     0.047 A 
ATOM     12  C   UNL A   1      43.883  35.092  29.082  1.00  0.00     0.027 A 
ATOM     13  C   UNL A   1      45.438  36.005  27.435  1.00  0.00     0.048 A 
ATOM     14  C   UNL A   1      43.174  36.280  29.059  1.00  0.00     0.019 A 
ATOM     15  C   UNL A   1      44.765  37.213  27.452  1.00  0.00     0.057 A 
ATOM     16  Cl  UNL A   1      45.457  38.513  26.552  1.00  0.00    -0.083 Cl
BRANCH  11  17
ATOM     17  N   UNL A   1      45.321  33.645  27.768  1.00  0.00    -0.318 N 
ATOM     18  C   UNL A   1      45.883  31.509  28.130  1.00  0.00     0.014 A 
ATOM     19  C   UNL A   1      45.006  31.569  27.019  1.00  0.00     0.033 A 
ATOM     20  C   UNL A   1      46.119  32.809  28.546  1.00  0.00     0.029 A 
ATOM     21  C   UNL A   1      44.686  32.893  26.792  1.00  0.00     0.021 A 
ATOM     22  C   UNL A   1      46.936  33.285  29.713  1.00  0.00     0.065 C 
ATOM     23  C   UNL A   1      43.837  33.482  25.713  1.00  0.00     0.065 C 
BRANCH  18  24
ATOM     24  C   UNL A   1      46.457  30.358  28.777  1.00  0.00     0.121 C 
ATOM     25  N   UNL A   1      47.494  29.782  28.274  1.00  0.00    -0.256 NA
BRANCH  25  26
ATOM     26  C   UNL A   1      48.054  28.727  29.010  1.00  0.00     0.063 A 
ATOM     27  C   UNL A   1      49.487  25.348  31.264  1.00  0.00     0.044 C 
ATOM     28  C   UNL A   1      49.020  26.517  30.456  1.00  0.00    -0.051 A 
ATOM     29  C   UNL A   1      47.902  26.388  29.625  1.00  0.00     0.005 A 
ATOM     30  C   UNL A   1      49.665  27.754  30.545  1.00  0.00     0.005 A 
ATOM     31  C   UNL A   1      47.429  27.486  28.906  1.00  0.00     0.028 A 
ATOM     32  C   UNL A   1      49.176  28.853  29.840  1.00  0.00     0.028 A 
ENDBRANCH  25  26
ENDBRANCH  18  24
ENDBRANCH  11  17
ENDBRANCH   8  10
ENDBRANCH   7   8
ENDBRANCH   6   7
ENDBRANCH   5   6
ENDBRANCH   4   5
ENDBRANCH   3   4
ENDBRANCH   2   3
ENDBRANCH   1   2
BRANCH   1  33
ATOM     33  C   UNL A   1      46.995  38.016  34.466  1.00  0.00     0.188 C 
BRANCH  33  34
ATOM     34  C   UNL A   1      46.365  36.875  35.262  1.00  0.00     0.188 C 
BRANCH  34  35
ATOM     35  O   UNL A   1      45.420  36.041  34.639  1.00  0.00    -0.376 OA
BRANCH  35  36
ATOM     36  C   UNL A   1      44.068  36.484  34.730  1.00  0.00     0.202 C 
BRANCH  36  37
ATOM     37  C   UNL A   1      42.893  35.472  34.770  1.00  0.00     0.261 C 
BRANCH  37  38
ATOM     38  O   UNL A   1      43.056  34.300  35.600  1.00  0.00    -0.460 OA
BRANCH  38  39
ATOM     39  C   UNL A   1      43.430  33.130  34.987  1.00  0.00     0.338 C 
ATOM     40  O   UNL A   1      44.471  32.509  35.112  1.00  0.00    -0.246 OA
BRANCH  39  41
ATOM     41  C   UNL A   1      42.188  32.532  34.431  1.00  0.00     0.060 A 
ATOM     42  C   UNL A   1      41.522  31.478  35.052  1.00  0.00     0.016 A 
ATOM     43  C   UNL A   1      41.960  32.797  33.087  1.00  0.00     0.016 A 
ATOM     44  C   UNL A   1      40.908  30.501  34.259  1.00  0.00     0.010 A 
ATOM     45  C   UNL A   1      41.484  31.767  32.295  1.00  0.00     0.010 A 
ATOM     46  C   UNL A   1      41.112  30.546  32.873  1.00  0.00    -0.014 A 
BRANCH  46  47
ATOM     47  C   UNL A   1      41.464  29.316  32.096  1.00  0.00     0.031 A 
ATOM     48  C   UNL A   1      42.729  28.546  32.357  1.00  0.00     0.074 A 
ATOM     49  C   UNL A   1      40.435  28.775  31.381  1.00  0.00     0.049 A 
ATOM     50  N   UNL A   1      43.216  27.613  31.604  1.00  0.00    -0.248 NA
ATOM     51  C   UNL A   1      43.586  28.774  33.523  1.00  0.00     0.031 C 
ATOM     52  C   UNL A   1      40.279  27.440  30.815  1.00  0.00     0.029 A 
ATOM     53  N   UNL A   1      39.237  29.394  30.998  1.00  0.00    -0.354 N 
ATOM     54  C   UNL A   1      44.232  26.948  32.293  1.00  0.00     0.074 A 
ATOM     55  C   UNL A   1      44.456  27.759  33.459  1.00  0.00     0.031 C 
ATOM     56  C   UNL A   1      39.134  27.348  30.120  1.00  0.00     0.029 A 
ATOM     57  C   UNL A   1      38.654  28.690  29.934  1.00  0.00     0.049 A 
ATOM     58  H   UNL A   1      38.860  30.203  31.414  1.00  0.00     0.167 HD
ATOM     59  C   UNL A   1      44.671  25.713  31.876  1.00  0.00     0.031 A 
ATOM     60  C   UNL A   1      38.711  29.264  28.696  1.00  0.00     0.031 A 
ATOM     61  C   UNL A   1      44.151  25.381  30.520  1.00  0.00     0.049 A 
ATOM     62  C   UNL A   1      39.891  28.765  27.813  1.00  0.00     0.074 A 
ATOM     63  C   UNL A   1      43.566  24.275  29.925  1.00  0.00     0.029 A 
ATOM     64  N   UNL A   1      44.004  26.402  29.574  1.00  0.00    -0.354 N 
ATOM     65  N   UNL A   1      40.839  27.942  28.236  1.00  0.00    -0.248 NA
ATOM     66  C   UNL A   1      40.108  29.090  26.403  1.00  0.00     0.031 C 
ATOM     67  C   UNL A   1      42.829  24.722  28.782  1.00  0.00     0.029 A 
ATOM     68  C   UNL A   1      43.093  26.070  28.586  1.00  0.00     0.049 A 
ATOM     69  H   UNL A   1      44.492  27.256  29.607  1.00  0.00     0.167 HD
ATOM     70  C   UNL A   1      41.782  27.699  27.267  1.00  0.00     0.074 A 
ATOM     71  C   UNL A   1      41.246  28.418  26.121  1.00  0.00     0.031 C 
ATOM     72  C   UNL A   1      42.934  26.961  27.434  1.00  0.00     0.031 A 
BRANCH  59  73
ATOM     73  C   UNL A   1      45.347  24.669  32.814  1.00  0.00    -0.014 A 
ATOM     74  C   UNL A   1      44.626  23.541  33.272  1.00  0.00     0.010 A 
ATOM     75  C   UNL A   1      46.639  24.792  33.379  1.00  0.00     0.010 A 
ATOM     76  C   UNL A   1      45.139  22.621  34.220  1.00  0.00     0.020 A 
ATOM     77  C   UNL A   1      47.185  23.859  34.295  1.00  0.00     0.020 A 
ATOM     78  C   UNL A   1      46.427  22.776  34.718  1.00  0.00     0.054 A 
BRANCH  78  79
ATOM     79  S   UNL A   1      47.108  21.539  35.867  1.00  0.00     0.124 S 
ATOM     80  O   UNL A   1      48.124  20.871  35.060  1.00  0.00    -0.237 OA
ATOM     81  O   UNL A   1      47.616  22.365  36.960  1.00  0.00    -0.237 OA
ATOM     82  O   UNL A   1      45.953  20.712  36.213  1.00  0.00    -0.744 OA
ENDBRANCH  78  79
ENDBRANCH  59  73
BRANCH  60  83
ATOM     83  C   UNL A   1      37.669  30.364  28.671  1.00  0.00    -0.014 A 
ATOM     84  C   UNL A   1      36.406  29.969  29.196  1.00  0.00     0.010 A 
ATOM     85  C   UNL A   1      38.046  31.709  28.915  1.00  0.00     0.010 A 
ATOM     86  C   UNL A   1      35.705  30.763  30.128  1.00  0.00     0.020 A 
ATOM     87  C   UNL A   1      37.323  32.519  29.827  1.00  0.00     0.020 A 
ATOM     88  C   UNL A   1      36.195  32.017  30.479  1.00  0.00     0.054 A 
BRANCH  88  89
ATOM     89  S   UNL A   1      35.504  32.882  31.937  1.00  0.00     0.124 S 
ATOM     90  O   UNL A   1      36.115  34.202  31.836  1.00  0.00    -0.237 OA
ATOM     91  O   UNL A   1      34.062  32.842  31.699  1.00  0.00    -0.237 OA
ATOM     92  O   UNL A   1      35.966  32.059  33.052  1.00  0.00    -0.744 OA
ENDBRANCH  88  89
ENDBRANCH  60  83
BRANCH  72  93
ATOM     93  C   UNL A   1      44.141  26.968  26.494  1.00  0.00    -0.014 A 
ATOM     94  C   UNL A   1      44.923  28.100  26.240  1.00  0.00     0.010 A 
ATOM     95  C   UNL A   1      44.647  25.730  26.002  1.00  0.00     0.010 A 
ATOM     96  C   UNL A   1      46.109  28.011  25.491  1.00  0.00     0.020 A 
ATOM     97  C   UNL A   1      45.853  25.621  25.306  1.00  0.00     0.020 A 
ATOM     98  C   UNL A   1      46.565  26.775  25.029  1.00  0.00     0.054 A 
BRANCH  98  99
ATOM     99  S   UNL A   1      48.122  26.676  24.114  1.00  0.00     0.124 S 
ATOM    100  O   UNL A   1      49.104  26.793  25.188  1.00  0.00    -0.237 OA
ATOM    101  O   UNL A   1      48.040  25.363  23.479  1.00  0.00    -0.237 OA
ATOM    102  O   UNL A   1      48.058  27.809  23.194  1.00  0.00    -0.744 OA
ENDBRANCH  98  99
ENDBRANCH  72  93
ENDBRANCH  46  47
ENDBRANCH  39  41
ENDBRANCH  38  39
ENDBRANCH  37  38
ENDBRANCH  36  37
ENDBRANCH  35  36
ENDBRANCH  34  35
ENDBRANCH  33  34
ENDBRANCH   1  33
TORSDOF 26
ENDMDL
MODEL 2
REMARK VINA RESULT:      -6.6      5.594     12.339
REMARK SMILES Cc1ccc(/N=C/c2cc(C)n(-c3ccc(C(=O)OCCOCCOCCOCCOC(=O)c4ccc(-c5c6nc(c(-c7ccc(S(=O)(=O)[O-])cc7)c7ccc([nH]7)c(-c7ccc(S(=O)(=O)[O-])cc7)c7nc(c(-c8ccc(S(=O)(=O)[O-])cc8)c8ccc5[nH]8)C=C7)C=C6)cc4)c(Cl)c3)c2C)cc1
REMARK SMILES IDX 25 1 24 2 23 3 22 4 21 5 20 6 19 7 17 8 18 9 16 10 13 11
REMARK SMILES IDX 14 12 96 13 15 14 94 15 95 16 12 17 8 18 9 19 97 20 10 21
REMARK SMILES IDX 98 22 11 23 7 24 6 25 5 26 1 27 2 28 3 29 100 30 4 31 99 32
REMARK SMILES IDX 26 33 27 34 28 35 29 36 30 37 31 38 32 39 33 40 34 41 35 42
REMARK SMILES IDX 93 43 36 44 92 45 37 46 38 47 39 48 86 49 40 50 91 51 85 52
REMARK SMILES IDX 87 53 41 54 90 55 84 56 83 57 42 59 72 60 53 61 71 62 54 63
REMARK SMILES IDX 57 64 70 65 88 66 55 67 56 68 69 70 89 71 58 72 43 73 44 74
REMARK SMILES IDX 52 75 45 76 51 77 46 78 47 79 48 80 49 81 50 82 73 83 74 84
REMARK SMILES IDX 82 85 75 86 81 87 76 88 77 89 78 90 79 91 80 92 59 93 60 94
REMARK SMILES IDX 68 95 61 96 67 97 62 98 63 99 64 100 65 101 66 102
REMARK H PARENT 87 58 57 69
REMARK Flexibility Score: inf
ROOT
ATOM      1  O   UNL A   1      51.406  26.934  32.051  1.00  0.00    -0.377 OA
ENDROOT
BRANCH   1   2
ATOM      2  C   UNL A   1      51.373  27.823  33.150  1.00  0.00     0.188 C 
BRANCH   2   3
ATOM      3  C   UNL A   1      51.605  27.345  34.593  1.00  0.00     0.188 C 
BRANCH   3   4
ATOM      4  O   UNL A   1      50.761  26.389  35.229  1.00  0.00    -0.376 OA
BRANCH   4   5
ATOM      5  C   UNL A   1      49.428  26.838  35.490  1.00  0.00     0.202 C 
BRANCH   5   6
ATOM      6  C   UNL A   1      48.600  25.940  36.390  1.00  0.00     0.261 C 
BRANCH   6   7
ATOM      7  O   UNL A   1      48.855  24.576  36.136  1.00  0.00    -0.460 OA
BRANCH   7   8
ATOM      8  C   UNL A   1      48.077  24.002  35.207  1.00  0.00     0.339 C 
ATOM      9  O   UNL A   1      47.916  24.277  34.043  1.00  0.00    -0.246 OA
BRANCH   8  10
ATOM     10  C   UNL A   1      47.662  22.776  35.881  1.00  0.00     0.078 A 
ATOM     11  C   UNL A   1      47.000  20.534  37.309  1.00  0.00     0.047 A 
ATOM     12  C   UNL A   1      46.232  21.689  37.484  1.00  0.00     0.027 A 
ATOM     13  C   UNL A   1      48.168  20.536  36.539  1.00  0.00     0.048 A 
ATOM     14  C   UNL A   1      46.542  22.808  36.732  1.00  0.00     0.019 A 
ATOM     15  C   UNL A   1      48.511  21.672  35.829  1.00  0.00     0.057 A 
ATOM     16  Cl  UNL A   1      50.005  21.638  34.966  1.00  0.00    -0.083 Cl
BRANCH  11  17
ATOM     17  N   UNL A   1      46.425  19.271  37.567  1.00  0.00    -0.318 N 
ATOM     18  C   UNL A   1      45.448  17.762  38.901  1.00  0.00     0.014 A 
ATOM     19  C   UNL A   1      44.821  17.724  37.630  1.00  0.00     0.033 A 
ATOM     20  C   UNL A   1      46.480  18.683  38.829  1.00  0.00     0.029 A 
ATOM     21  C   UNL A   1      45.448  18.641  36.811  1.00  0.00     0.021 A 
ATOM     22  C   UNL A   1      47.414  19.130  39.917  1.00  0.00     0.065 C 
ATOM     23  C   UNL A   1      45.191  18.943  35.372  1.00  0.00     0.065 C 
BRANCH  18  24
ATOM     24  C   UNL A   1      45.128  17.030  40.099  1.00  0.00     0.121 C 
ATOM     25  N   UNL A   1      43.962  17.145  40.636  1.00  0.00    -0.256 NA
BRANCH  25  26
ATOM     26  C   UNL A   1      43.691  16.330  41.745  1.00  0.00     0.063 A 
ATOM     27  C   UNL A   1      42.581  13.763  45.021  1.00  0.00     0.044 C 
ATOM     28  C   UNL A   1      43.002  14.635  43.880  1.00  0.00    -0.051 A 
ATOM     29  C   UNL A   1      42.422  14.460  42.619  1.00  0.00     0.005 A 
ATOM     30  C   UNL A   1      43.944  15.651  44.064  1.00  0.00     0.005 A 
ATOM     31  C   UNL A   1      42.771  15.301  41.562  1.00  0.00     0.028 A 
ATOM     32  C   UNL A   1      44.274  16.501  43.008  1.00  0.00     0.028 A 
ENDBRANCH  25  26
ENDBRANCH  18  24
ENDBRANCH  11  17
ENDBRANCH   8  10
ENDBRANCH   7   8
ENDBRANCH   6   7
ENDBRANCH   5   6
ENDBRANCH   4   5
ENDBRANCH   3   4
ENDBRANCH   2   3
ENDBRANCH   1   2
BRANCH   1  33
ATOM     33  C   UNL A   1      50.184  26.391  31.615  1.00  0.00     0.188 C 
BRANCH  33  34
ATOM     34  C   UNL A   1      48.890  27.203  31.590  1.00  0.00     0.188 C 
BRANCH  34  35
ATOM     35  O   UNL A   1      48.692  28.150  30.570  1.00  0.00    -0.376 OA
BRANCH  35  36
ATOM     36  C   UNL A   1      48.543  29.496  31.013  1.00  0.00     0.202 C 
BRANCH  36  37
ATOM     37  C   UNL A   1      47.859  30.565  30.121  1.00  0.00     0.261 C 
BRANCH  37  38
ATOM     38  O   UNL A   1      47.888  30.351  28.692  1.00  0.00    -0.460 OA
BRANCH  38  39
ATOM     39  C   UNL A   1      48.134  31.437  27.888  1.00  0.00     0.338 C 
ATOM     40  O   UNL A   1      49.209  31.907  27.558  1.00  0.00    -0.246 OA
BRANCH  39  41
ATOM     41  C   UNL A   1      46.866  31.720  27.167  1.00  0.00     0.060 A 
ATOM     42  C   UNL A   1      45.988  32.725  27.565  1.00  0.00     0.016 A 
ATOM     43  C   UNL A   1      46.415  30.694  26.347  1.00  0.00     0.016 A 
ATOM     44  C   UNL A   1      44.609  32.518  27.428  1.00  0.00     0.010 A 
ATOM     45  C   UNL A   1      45.059  30.418  26.340  1.00  0.00     0.010 A 
ATOM     46  C   UNL A   1      44.166  31.249  27.031  1.00  0.00    -0.014 A 
BRANCH  46  47
ATOM     47  C   UNL A   1      43.038  30.561  27.733  1.00  0.00     0.031 A 
ATOM     48  C   UNL A   1      42.400  29.315  27.183  1.00  0.00     0.074 A 
ATOM     49  C   UNL A   1      42.850  30.945  29.029  1.00  0.00     0.049 A 
ATOM     50  N   UNL A   1      41.296  28.783  27.598  1.00  0.00    -0.248 NA
ATOM     51  C   UNL A   1      42.967  28.541  26.075  1.00  0.00     0.031 C 
ATOM     52  C   UNL A   1      42.130  30.286  30.113  1.00  0.00     0.029 A 
ATOM     53  N   UNL A   1      43.314  32.110  29.656  1.00  0.00    -0.354 N 
ATOM     54  C   UNL A   1      41.165  27.506  27.048  1.00  0.00     0.074 A 
ATOM     55  C   UNL A   1      42.206  27.440  26.059  1.00  0.00     0.031 C 
ATOM     56  C   UNL A   1      42.131  31.048  31.218  1.00  0.00     0.029 A 
ATOM     57  C   UNL A   1      42.569  32.358  30.818  1.00  0.00     0.049 A 
ATOM     58  H   UNL A   1      44.054  32.671  29.329  1.00  0.00     0.167 HD
ATOM     59  C   UNL A   1      40.283  26.597  27.587  1.00  0.00     0.031 A 
ATOM     60  C   UNL A   1      41.673  33.388  30.781  1.00  0.00     0.031 A 
ATOM     61  C   UNL A   1      39.361  27.246  28.560  1.00  0.00     0.049 A 
ATOM     62  C   UNL A   1      40.214  32.956  30.455  1.00  0.00     0.074 A 
ATOM     63  C   UNL A   1      38.897  26.956  29.833  1.00  0.00     0.029 A 
ATOM     64  N   UNL A   1      38.922  28.554  28.321  1.00  0.00    -0.354 N 
ATOM     65  N   UNL A   1      39.860  31.722  30.127  1.00  0.00    -0.248 NA
ATOM     66  C   UNL A   1      39.032  33.818  30.500  1.00  0.00     0.031 C 
ATOM     67  C   UNL A   1      38.459  28.177  30.437  1.00  0.00     0.029 A 
ATOM     68  C   UNL A   1      38.503  29.183  29.481  1.00  0.00     0.049 A 
ATOM     69  H   UNL A   1      38.914  28.977  27.433  1.00  0.00     0.167 HD
ATOM     70  C   UNL A   1      38.518  31.627  29.848  1.00  0.00     0.074 A 
ATOM     71  C   UNL A   1      38.042  32.972  30.139  1.00  0.00     0.031 C 
ATOM     72  C   UNL A   1      37.870  30.500  29.389  1.00  0.00     0.031 A 
BRANCH  59  73
ATOM     73  C   UNL A   1      40.435  25.054  27.447  1.00  0.00    -0.014 A 
ATOM     74  C   UNL A   1      41.715  24.450  27.489  1.00  0.00     0.010 A 
ATOM     75  C   UNL A   1      39.385  24.150  27.155  1.00  0.00     0.010 A 
ATOM     76  C   UNL A   1      41.934  23.072  27.249  1.00  0.00     0.020 A 
ATOM     77  C   UNL A   1      39.580  22.761  26.955  1.00  0.00     0.020 A 
ATOM     78  C   UNL A   1      40.861  22.226  26.996  1.00  0.00     0.054 A 
BRANCH  78  79
ATOM     79  S   UNL A   1      41.145  20.442  26.776  1.00  0.00     0.124 S 
ATOM     80  O   UNL A   1      40.070  20.052  25.868  1.00  0.00    -0.237 OA
ATOM     81  O   UNL A   1      42.491  20.400  26.210  1.00  0.00    -0.237 OA
ATOM     82  O   UNL A   1      41.035  19.903  28.130  1.00  0.00    -0.744 OA
ENDBRANCH  78  79
ENDBRANCH  59  73
BRANCH  60  83
ATOM     83  C   UNL A   1      42.471  34.671  30.899  1.00  0.00    -0.014 A 
ATOM     84  C   UNL A   1      43.656  34.539  31.676  1.00  0.00     0.010 A 
ATOM     85  C   UNL A   1      42.548  35.566  29.802  1.00  0.00     0.010 A 
ATOM     86  C   UNL A   1      44.899  35.038  31.231  1.00  0.00     0.020 A 
ATOM     87  C   UNL A   1      43.792  36.096  29.373  1.00  0.00     0.020 A 
ATOM     88  C   UNL A   1      44.969  35.774  30.052  1.00  0.00     0.054 A 
BRANCH  88  89
ATOM     89  S   UNL A   1      46.599  36.104  29.288  1.00  0.00     0.124 S 
ATOM     90  O   UNL A   1      46.869  37.475  29.705  1.00  0.00    -0.237 OA
ATOM     91  O   UNL A   1      47.463  35.087  29.887  1.00  0.00    -0.237 OA
ATOM     92  O   UNL A   1      46.334  35.921  27.863  1.00  0.00    -0.744 OA
ENDBRANCH  88  89
ENDBRANCH  60  83
BRANCH  72  93
ATOM     93  C   UNL A   1      36.479  30.469  28.754  1.00  0.00    -0.014 A 
ATOM     94  C   UNL A   1      35.759  31.615  28.398  1.00  0.00     0.010 A 
ATOM     95  C   UNL A   1      35.952  29.227  28.295  1.00  0.00     0.010 A 
ATOM     96  C   UNL A   1      34.556  31.523  27.678  1.00  0.00     0.020 A 
ATOM     97  C   UNL A   1      34.788  29.128  27.529  1.00  0.00     0.020 A 
ATOM     98  C   UNL A   1      34.078  30.283  27.250  1.00  0.00     0.054 A 
BRANCH  98  99
ATOM     99  S   UNL A   1      32.556  30.193  26.277  1.00  0.00     0.124 S 
ATOM    100  O   UNL A   1      31.809  29.161  26.992  1.00  0.00    -0.237 OA
ATOM    101  O   UNL A   1      32.021  31.547  26.390  1.00  0.00    -0.237 OA
ATOM    102  O   UNL A   1      33.018  29.822  24.942  1.00  0.00    -0.744 OA
ENDBRANCH  98  99
ENDBRANCH  72  93
ENDBRANCH  46  47
ENDBRANCH  39  41
ENDBRANCH  38  39
ENDBRANCH  37  38
ENDBRANCH  36  37
ENDBRANCH  35  36
ENDBRANCH  34  35
ENDBRANCH  33  34
ENDBRANCH   1  33
TORSDOF 26
ENDMDL
MODEL 3
REMARK VINA RESULT:      -6.4      3.786     11.387
REMARK SMILES Cc1ccc(/N=C/c2cc(C)n(-c3ccc(C(=O)OCCOCCOCCOCCOC(=O)c4ccc(-c5c6nc(c(-c7ccc(S(=O)(=O)[O-])cc7)c7ccc([nH]7)c(-c7ccc(S(=O)(=O)[O-])cc7)c7nc(c(-c8ccc(S(=O)(=O)[O-])cc8)c8ccc5[nH]8)C=C7)C=C6)cc4)c(Cl)c3)c2C)cc1
REMARK SMILES IDX 25 1 24 2 23 3 22 4 21 5 20 6 19 7 17 8 18 9 16 10 13 11
REMARK SMILES IDX 14 12 96 13 15 14 94 15 95 16 12 17 8 18 9 19 97 20 10 21
REMARK SMILES IDX 98 22 11 23 7 24 6 25 5 26 1 27 2 28 3 29 100 30 4 31 99 32
REMARK SMILES IDX 26 33 27 34 28 35 29 36 30 37 31 38 32 39 33 40 34 41 35 42
REMARK SMILES IDX 93 43 36 44 92 45 37 46 38 47 39 48 86 49 40 50 91 51 85 52
REMARK SMILES IDX 87 53 41 54 90 55 84 56 83 57 42 59 72 60 53 61 71 62 54 63
REMARK SMILES IDX 57 64 70 65 88 66 55 67 56 68 69 70 89 71 58 72 43 73 44 74
REMARK SMILES IDX 52 75 45 76 51 77 46 78 47 79 48 80 49 81 50 82 73 83 74 84
REMARK SMILES IDX 82 85 75 86 81 87 76 88 77 89 78 90 79 91 80 92 59 93 60 94
REMARK SMILES IDX 68 95 61 96 67 97 62 98 63 99 64 100 65 101 66 102
REMARK H PARENT 87 58 57 69
REMARK Flexibility Score: inf
ROOT
ATOM      1  O   UNL A   1      52.027  24.868  35.833  1.00  0.00    -0.377 OA
ENDROOT
BRANCH   1   2
ATOM      2  C   UNL A   1      51.671  23.840  34.931  1.00  0.00     0.188 C 
BRANCH   2   3
ATOM      3  C   UNL A   1      50.209  23.574  34.531  1.00  0.00     0.188 C 
BRANCH   3   4
ATOM      4  O   UNL A   1      49.258  23.014  35.433  1.00  0.00    -0.376 OA
BRANCH   4   5
ATOM      5  C   UNL A   1      48.764  21.723  35.067  1.00  0.00     0.202 C 
BRANCH   5   6
ATOM      6  C   UNL A   1      47.257  21.558  35.133  1.00  0.00     0.261 C 
BRANCH   6   7
ATOM      7  O   UNL A   1      46.593  22.556  34.389  1.00  0.00    -0.460 OA
BRANCH   7   8
ATOM      8  C   UNL A   1      45.260  22.438  34.316  1.00  0.00     0.339 C 
ATOM      9  O   UNL A   1      44.548  21.483  34.508  1.00  0.00    -0.246 OA
BRANCH   8  10
ATOM     10  C   UNL A   1      44.842  23.831  34.207  1.00  0.00     0.078 A 
ATOM     11  C   UNL A   1      43.862  26.383  34.014  1.00  0.00     0.047 A 
ATOM     12  C   UNL A   1      44.087  25.848  35.285  1.00  0.00     0.027 A 
ATOM     13  C   UNL A   1      43.989  25.608  32.856  1.00  0.00     0.048 A 
ATOM     14  C   UNL A   1      44.621  24.575  35.381  1.00  0.00     0.019 A 
ATOM     15  C   UNL A   1      44.470  24.315  32.953  1.00  0.00     0.057 A 
ATOM     16  Cl  UNL A   1      44.526  23.385  31.501  1.00  0.00    -0.083 Cl
BRANCH  11  17
ATOM     17  N   UNL A   1      43.887  27.782  33.834  1.00  0.00    -0.318 N 
ATOM     18  C   UNL A   1      44.785  29.672  33.038  1.00  0.00     0.014 A 
ATOM     19  C   UNL A   1      43.377  29.737  32.891  1.00  0.00     0.033 A 
ATOM     20  C   UNL A   1      45.083  28.481  33.680  1.00  0.00     0.029 A 
ATOM     21  C   UNL A   1      42.835  28.577  33.406  1.00  0.00     0.021 A 
ATOM     22  C   UNL A   1      46.431  27.914  34.024  1.00  0.00     0.065 C 
ATOM     23  C   UNL A   1      41.399  28.187  33.530  1.00  0.00     0.065 C 
BRANCH  18  24
ATOM     24  C   UNL A   1      45.791  30.612  32.617  1.00  0.00     0.121 C 
ATOM     25  N   UNL A   1      45.898  31.753  33.206  1.00  0.00    -0.256 NA
BRANCH  25  26
ATOM     26  C   UNL A   1      46.960  32.577  32.805  1.00  0.00     0.063 A 
ATOM     27  C   UNL A   1      50.006  35.308  31.455  1.00  0.00     0.044 C 
ATOM     28  C   UNL A   1      48.965  34.359  31.961  1.00  0.00    -0.051 A 
ATOM     29  C   UNL A   1      47.670  34.819  32.220  1.00  0.00     0.005 A 
ATOM     30  C   UNL A   1      49.258  33.005  32.144  1.00  0.00     0.005 A 
ATOM     31  C   UNL A   1      46.680  33.932  32.643  1.00  0.00     0.028 A 
ATOM     32  C   UNL A   1      48.259  32.119  32.549  1.00  0.00     0.028 A 
ENDBRANCH  25  26
ENDBRANCH  18  24
ENDBRANCH  11  17
ENDBRANCH   8  10
ENDBRANCH   7   8
ENDBRANCH   6   7
ENDBRANCH   5   6
ENDBRANCH   4   5
ENDBRANCH   3   4
ENDBRANCH   2   3
ENDBRANCH   1   2
BRANCH   1  33
ATOM     33  C   UNL A   1      51.228  26.026  35.849  1.00  0.00     0.188 C 
BRANCH  33  34
ATOM     34  C   UNL A   1      51.287  27.076  34.742  1.00  0.00     0.188 C 
BRANCH  34  35
ATOM     35  O   UNL A   1      50.427  26.958  33.635  1.00  0.00    -0.376 OA
BRANCH  35  36
ATOM     36  C   UNL A   1      50.882  27.594  32.444  1.00  0.00     0.202 C 
BRANCH  36  37
ATOM     37  C   UNL A   1      49.926  27.830  31.245  1.00  0.00     0.261 C 
BRANCH  37  38
ATOM     38  O   UNL A   1      50.119  27.008  30.072  1.00  0.00    -0.460 OA
BRANCH  38  39
ATOM     39  C   UNL A   1      49.668  25.712  30.120  1.00  0.00     0.338 C 
ATOM     40  O   UNL A   1      49.988  24.826  30.893  1.00  0.00    -0.246 OA
BRANCH  39  41
ATOM     41  C   UNL A   1      48.425  25.671  29.305  1.00  0.00     0.060 A 
ATOM     42  C   UNL A   1      48.394  26.065  27.970  1.00  0.00     0.016 A 
ATOM     43  C   UNL A   1      47.246  25.611  30.036  1.00  0.00     0.016 A 
ATOM     44  C   UNL A   1      47.254  26.716  27.480  1.00  0.00     0.010 A 
ATOM     45  C   UNL A   1      46.177  26.378  29.606  1.00  0.00     0.010 A 
ATOM     46  C   UNL A   1      46.250  27.073  28.391  1.00  0.00    -0.014 A 
BRANCH  46  47
ATOM     47  C   UNL A   1      45.629  28.434  28.374  1.00  0.00     0.031 A 
ATOM     48  C   UNL A   1      46.392  29.661  28.792  1.00  0.00     0.074 A 
ATOM     49  C   UNL A   1      44.465  28.525  27.667  1.00  0.00     0.049 A 
ATOM     50  N   UNL A   1      45.883  30.829  29.014  1.00  0.00    -0.248 NA
ATOM     51  C   UNL A   1      47.841  29.675  29.009  1.00  0.00     0.031 C 
ATOM     52  C   UNL A   1      43.777  29.693  27.129  1.00  0.00     0.029 A 
ATOM     53  N   UNL A   1      43.614  27.482  27.277  1.00  0.00    -0.354 N 
ATOM     54  C   UNL A   1      46.911  31.770  29.109  1.00  0.00     0.074 A 
ATOM     55  C   UNL A   1      48.110  30.977  29.160  1.00  0.00     0.031 C 
ATOM     56  C   UNL A   1      42.615  29.340  26.557  1.00  0.00     0.029 A 
ATOM     57  C   UNL A   1      42.343  27.990  26.972  1.00  0.00     0.049 A 
ATOM     58  H   UNL A   1      43.870  26.533  27.225  1.00  0.00     0.167 HD
ATOM     59  C   UNL A   1      46.645  33.115  28.991  1.00  0.00     0.031 A 
ATOM     60  C   UNL A   1      41.338  27.747  27.864  1.00  0.00     0.031 A 
ATOM     61  C   UNL A   1      45.182  33.387  29.053  1.00  0.00     0.049 A 
ATOM     62  C   UNL A   1      41.085  28.903  28.875  1.00  0.00     0.074 A 
ATOM     63  C   UNL A   1      44.284  34.156  28.330  1.00  0.00     0.029 A 
ATOM     64  N   UNL A   1      44.376  32.609  29.893  1.00  0.00    -0.354 N 
ATOM     65  N   UNL A   1      41.834  29.993  28.960  1.00  0.00    -0.248 NA
ATOM     66  C   UNL A   1      39.984  28.980  29.835  1.00  0.00     0.031 C 
ATOM     67  C   UNL A   1      42.973  33.618  28.534  1.00  0.00     0.029 A 
ATOM     68  C   UNL A   1      43.048  32.627  29.502  1.00  0.00     0.049 A 
ATOM     69  H   UNL A   1      44.713  32.108  30.669  1.00  0.00     0.167 HD
ATOM     70  C   UNL A   1      41.414  30.830  29.965  1.00  0.00     0.074 A 
ATOM     71  C   UNL A   1      40.220  30.157  30.455  1.00  0.00     0.031 C 
ATOM     72  C   UNL A   1      42.043  31.991  30.358  1.00  0.00     0.031 A 
BRANCH  59  73
ATOM     73  C   UNL A   1      47.695  34.169  28.532  1.00  0.00    -0.014 A 
ATOM     74  C   UNL A   1      47.477  35.549  28.762  1.00  0.00     0.010 A 
ATOM     75  C   UNL A   1      48.855  33.892  27.769  1.00  0.00     0.010 A 
ATOM     76  C   UNL A   1      48.329  36.566  28.266  1.00  0.00     0.020 A 
ATOM     77  C   UNL A   1      49.742  34.893  27.301  1.00  0.00     0.020 A 
ATOM     78  C   UNL A   1      49.471  36.232  27.547  1.00  0.00     0.054 A 
BRANCH  78  79
ATOM     79  S   UNL A   1      50.605  37.542  26.990  1.00  0.00     0.124 S 
ATOM     80  O   UNL A   1      49.728  38.703  26.876  1.00  0.00    -0.237 OA
ATOM     81  O   UNL A   1      51.584  37.599  28.073  1.00  0.00    -0.237 OA
ATOM     82  O   UNL A   1      51.126  37.035  25.722  1.00  0.00    -0.744 OA
ENDBRANCH  78  79
ENDBRANCH  59  73
BRANCH  60  83
ATOM     83  C   UNL A   1      40.918  26.303  27.672  1.00  0.00    -0.014 A 
ATOM     84  C   UNL A   1      40.791  25.921  26.307  1.00  0.00     0.010 A 
ATOM     85  C   UNL A   1      41.391  25.299  28.554  1.00  0.00     0.010 A 
ATOM     86  C   UNL A   1      41.357  24.727  25.811  1.00  0.00     0.020 A 
ATOM     87  C   UNL A   1      41.930  24.084  28.059  1.00  0.00     0.020 A 
ATOM     88  C   UNL A   1      41.970  23.835  26.686  1.00  0.00     0.054 A 
BRANCH  88  89
ATOM     89  S   UNL A   1      43.013  22.488  26.018  1.00  0.00     0.124 S 
ATOM     90  O   UNL A   1      44.280  22.699  26.711  1.00  0.00    -0.237 OA
ATOM     91  O   UNL A   1      42.287  21.278  26.403  1.00  0.00    -0.237 OA
ATOM     92  O   UNL A   1      43.027  22.766  24.584  1.00  0.00    -0.744 OA
ENDBRANCH  88  89
ENDBRANCH  60  83
BRANCH  72  93
ATOM     93  C   UNL A   1      41.798  32.737  31.671  1.00  0.00    -0.014 A 
ATOM     94  C   UNL A   1      42.759  33.530  32.308  1.00  0.00     0.010 A 
ATOM     95  C   UNL A   1      40.471  32.821  32.185  1.00  0.00     0.010 A 
ATOM     96  C   UNL A   1      42.429  34.314  33.427  1.00  0.00     0.020 A 
ATOM     97  C   UNL A   1      40.119  33.641  33.260  1.00  0.00     0.020 A 
ATOM     98  C   UNL A   1      41.114  34.363  33.895  1.00  0.00     0.054 A 
BRANCH  98  99
ATOM     99  S   UNL A   1      40.701  35.421  35.303  1.00  0.00     0.124 S 
ATOM    100  O   UNL A   1      41.024  34.552  36.431  1.00  0.00    -0.237 OA
ATOM    101  O   UNL A   1      41.590  36.566  35.118  1.00  0.00    -0.237 OA
ATOM    102  O   UNL A   1      39.281  35.708  35.118  1.00  0.00    -0.744 OA
ENDBRANCH  98  99
ENDBRANCH  72  93
ENDBRANCH  46  47
ENDBRANCH  39  41
ENDBRANCH  38  39
ENDBRANCH  37  38
ENDBRANCH  36  37
ENDBRANCH  35  36
ENDBRANCH  34  35
ENDBRANCH  33  34
ENDBRANCH   1  33
TORSDOF 26
ENDMDL
