MODEL 1
REMARK VINA RESULT:      -7.7      0.000      0.000
REMARK SMILES C[C@@H](C(=O)OCCOCCOCCOCCOC(=O)c1ccc(-c2c3nc(c(-c4ccc(S(=O)(=O)[O-])cc4)c4ccc([nH]4)c(-c4ccc(S(=O)(=O)[O-])cc4)c4nc(c(-c5ccc(S(=O)(=O)[O-])cc5)c5ccc2[nH]5)C=C4)C=C3)cc1)c1ccccc1-c1ccn(C(F)F)c(=O)c1
REMARK SMILES IDX 11 1 10 2 9 3 8 4 7 5 6 6 5 7 3 8 4 9 2 10 1 11 80 12 81 13
REMARK SMILES IDX 85 14 82 15 84 16 83 17 86 18 87 19 95 20 88 21 93 22 89 23
REMARK SMILES IDX 94 24 90 25 91 26 92 27 12 28 13 29 14 30 15 31 16 32 17 33
REMARK SMILES IDX 18 34 19 35 20 36 21 37 79 38 22 39 78 40 23 41 24 42 25 43
REMARK SMILES IDX 72 44 26 45 77 46 71 47 73 48 27 49 76 50 70 51 69 52 28 54
REMARK SMILES IDX 58 55 39 56 57 57 40 58 43 59 56 60 74 61 41 62 42 63 55 65
REMARK SMILES IDX 75 66 44 67 29 68 30 69 38 70 31 71 37 72 32 73 33 74 34 75
REMARK SMILES IDX 35 76 36 77 59 78 60 79 68 80 61 81 67 82 62 83 63 84 64 85
REMARK SMILES IDX 65 86 66 87 45 88 46 89 54 90 47 91 53 92 48 93 49 94 50 95
REMARK SMILES IDX 51 96 52 97
REMARK H PARENT 73 53 43 64
REMARK Flexibility Score: inf
ROOT
ATOM      1  O   UNL A   1      41.338  29.880  31.576  1.00  0.00    -0.377 OA
ENDROOT
BRANCH   1   2
ATOM      2  C   UNL A   1      40.168  29.089  31.552  1.00  0.00     0.188 C 
BRANCH   2   3
ATOM      3  C   UNL A   1      38.858  29.841  31.846  1.00  0.00     0.188 C 
BRANCH   3   4
ATOM      4  O   UNL A   1      38.816  30.811  32.878  1.00  0.00    -0.376 OA
BRANCH   4   5
ATOM      5  C   UNL A   1      37.598  31.149  33.531  1.00  0.00     0.202 C 
BRANCH   5   6
ATOM      6  C   UNL A   1      36.302  31.561  32.806  1.00  0.00     0.261 C 
BRANCH   6   7
ATOM      7  O   UNL A   1      35.380  32.316  33.594  1.00  0.00    -0.463 OA
BRANCH   7   8
ATOM      8  C   UNL A   1      34.498  33.124  32.960  1.00  0.00     0.313 C 
ATOM      9  O   UNL A   1      33.282  33.061  33.100  1.00  0.00    -0.252 OA
BRANCH   8  10
ATOM     10  C   UNL A   1      35.203  34.191  32.094  1.00  0.00     0.127 C 
ATOM     11  C   UNL A   1      35.705  35.327  33.007  1.00  0.00     0.025 C 
BRANCH  10  12
ATOM     12  C   UNL A   1      34.490  34.506  30.746  1.00  0.00    -0.026 A 
ATOM     13  C   UNL A   1      33.629  35.638  30.721  1.00  0.00     0.005 A 
ATOM     14  C   UNL A   1      34.522  33.727  29.558  1.00  0.00    -0.014 A 
ATOM     15  C   UNL A   1      32.849  35.985  29.614  1.00  0.00     0.000 A 
ATOM     16  C   UNL A   1      33.676  34.063  28.467  1.00  0.00     0.009 A 
ATOM     17  C   UNL A   1      32.852  35.182  28.491  1.00  0.00     0.001 A 
BRANCH  14  18
ATOM     18  C   UNL A   1      35.430  32.588  29.290  1.00  0.00    -0.011 A 
ATOM     19  C   UNL A   1      36.858  32.607  29.526  1.00  0.00     0.027 A 
ATOM     20  C   UNL A   1      34.873  31.471  28.783  1.00  0.00     0.080 A 
ATOM     21  C   UNL A   1      37.631  31.623  29.047  1.00  0.00     0.095 A 
ATOM     22  C   UNL A   1      35.707  30.316  28.365  1.00  0.00     0.255 A 
ATOM     23  N   UNL A   1      37.075  30.522  28.421  1.00  0.00    -0.258 N 
ATOM     24  O   UNL A   1      35.145  29.297  27.974  1.00  0.00    -0.269 OA
BRANCH  23  25
ATOM     25  C   UNL A   1      37.912  29.511  27.828  1.00  0.00     0.451 C 
ATOM     26  F   UNL A   1      39.146  30.001  27.558  1.00  0.00    -0.185 F 
ATOM     27  F   UNL A   1      38.056  28.448  28.657  1.00  0.00    -0.185 F 
ENDBRANCH  23  25
ENDBRANCH  14  18
ENDBRANCH  10  12
ENDBRANCH   8  10
ENDBRANCH   7   8
ENDBRANCH   6   7
ENDBRANCH   5   6
ENDBRANCH   4   5
ENDBRANCH   3   4
ENDBRANCH   2   3
ENDBRANCH   1   2
BRANCH   1  28
ATOM     28  C   UNL A   1      41.561  30.793  30.508  1.00  0.00     0.188 C 
BRANCH  28  29
ATOM     29  C   UNL A   1      41.537  32.316  30.761  1.00  0.00     0.188 C 
BRANCH  29  30
ATOM     30  O   UNL A   1      40.624  33.046  29.955  1.00  0.00    -0.376 OA
BRANCH  30  31
ATOM     31  C   UNL A   1      40.494  34.444  30.168  1.00  0.00     0.202 C 
BRANCH  31  32
ATOM     32  C   UNL A   1      40.542  35.364  28.938  1.00  0.00     0.261 C 
BRANCH  32  33
ATOM     33  O   UNL A   1      41.765  36.089  28.733  1.00  0.00    -0.460 OA
BRANCH  33  34
ATOM     34  C   UNL A   1      42.260  36.158  27.480  1.00  0.00     0.338 C 
ATOM     35  O   UNL A   1      42.107  37.064  26.676  1.00  0.00    -0.246 OA
BRANCH  34  36
ATOM     36  C   UNL A   1      43.201  35.033  27.306  1.00  0.00     0.060 A 
ATOM     37  C   UNL A   1      43.745  34.421  28.443  1.00  0.00     0.016 A 
ATOM     38  C   UNL A   1      43.547  34.588  26.028  1.00  0.00     0.016 A 
ATOM     39  C   UNL A   1      44.671  33.387  28.304  1.00  0.00     0.010 A 
ATOM     40  C   UNL A   1      44.492  33.567  25.891  1.00  0.00     0.010 A 
ATOM     41  C   UNL A   1      45.087  32.989  27.027  1.00  0.00    -0.014 A 
BRANCH  41  42
ATOM     42  C   UNL A   1      46.282  32.123  26.879  1.00  0.00     0.031 A 
ATOM     43  C   UNL A   1      46.073  30.636  26.759  1.00  0.00     0.074 A 
ATOM     44  C   UNL A   1      47.523  32.637  26.827  1.00  0.00     0.049 A 
ATOM     45  N   UNL A   1      46.957  29.677  26.674  1.00  0.00    -0.248 NA
ATOM     46  C   UNL A   1      44.675  30.171  26.735  1.00  0.00     0.031 C 
ATOM     47  C   UNL A   1      47.855  34.060  26.879  1.00  0.00     0.029 A 
ATOM     48  N   UNL A   1      48.742  32.010  26.726  1.00  0.00    -0.354 N 
ATOM     49  C   UNL A   1      46.227  28.497  26.596  1.00  0.00     0.074 A 
ATOM     50  C   UNL A   1      44.828  28.857  26.677  1.00  0.00     0.031 C 
ATOM     51  C   UNL A   1      49.192  34.197  26.821  1.00  0.00     0.029 A 
ATOM     52  C   UNL A   1      49.811  32.873  26.769  1.00  0.00     0.049 A 
ATOM     53  H   UNL A   1      48.840  31.035  26.630  1.00  0.00     0.167 HD
ATOM     54  C   UNL A   1      46.678  27.227  26.462  1.00  0.00     0.031 A 
ATOM     55  C   UNL A   1      51.136  32.622  26.792  1.00  0.00     0.031 A 
ATOM     56  C   UNL A   1      48.070  26.872  26.402  1.00  0.00     0.049 A 
ATOM     57  C   UNL A   1      51.618  31.193  26.731  1.00  0.00     0.074 A 
ATOM     58  C   UNL A   1      48.630  25.613  26.264  1.00  0.00     0.029 A 
ATOM     59  N   UNL A   1      49.122  27.772  26.487  1.00  0.00    -0.354 N 
ATOM     60  N   UNL A   1      50.916  30.088  26.640  1.00  0.00    -0.248 NA
ATOM     61  C   UNL A   1      53.071  30.979  26.768  1.00  0.00     0.031 C 
ATOM     62  C   UNL A   1      50.021  25.747  26.331  1.00  0.00     0.029 A 
ATOM     63  C   UNL A   1      50.329  27.094  26.432  1.00  0.00     0.049 A 
ATOM     64  H   UNL A   1      49.025  28.747  26.572  1.00  0.00     0.167 HD
ATOM     65  C   UNL A   1      51.843  29.052  26.575  1.00  0.00     0.074 A 
ATOM     66  C   UNL A   1      53.155  29.664  26.624  1.00  0.00     0.031 C 
ATOM     67  C   UNL A   1      51.629  27.715  26.481  1.00  0.00     0.031 A 
BRANCH  54  68
ATOM     68  C   UNL A   1      45.651  26.125  26.410  1.00  0.00    -0.014 A 
ATOM     69  C   UNL A   1      45.338  25.473  25.204  1.00  0.00     0.010 A 
ATOM     70  C   UNL A   1      45.016  25.711  27.596  1.00  0.00     0.010 A 
ATOM     71  C   UNL A   1      44.382  24.454  25.178  1.00  0.00     0.020 A 
ATOM     72  C   UNL A   1      44.084  24.670  27.579  1.00  0.00     0.020 A 
ATOM     73  C   UNL A   1      43.761  24.058  26.366  1.00  0.00     0.054 A 
BRANCH  73  74
ATOM     74  S   UNL A   1      42.547  22.713  26.307  1.00  0.00     0.124 S 
ATOM     75  O   UNL A   1      41.318  23.399  26.699  1.00  0.00    -0.237 OA
ATOM     76  O   UNL A   1      42.609  22.289  24.910  1.00  0.00    -0.237 OA
ATOM     77  O   UNL A   1      43.053  21.743  27.274  1.00  0.00    -0.744 OA
ENDBRANCH  73  74
ENDBRANCH  54  68
BRANCH  55  78
ATOM     78  C   UNL A   1      52.107  33.748  26.908  1.00  0.00    -0.014 A 
ATOM     79  C   UNL A   1      52.654  34.353  25.764  1.00  0.00     0.010 A 
ATOM     80  C   UNL A   1      52.497  34.214  28.178  1.00  0.00     0.010 A 
ATOM     81  C   UNL A   1      53.582  35.392  25.885  1.00  0.00     0.020 A 
ATOM     82  C   UNL A   1      53.399  35.273  28.304  1.00  0.00     0.020 A 
ATOM     83  C   UNL A   1      53.945  35.849  27.156  1.00  0.00     0.054 A 
BRANCH  83  84
ATOM     84  S   UNL A   1      55.110  37.234  27.289  1.00  0.00     0.124 S 
ATOM     85  O   UNL A   1      55.219  37.403  28.735  1.00  0.00    -0.237 OA
ATOM     86  O   UNL A   1      56.298  36.708  26.621  1.00  0.00    -0.237 OA
ATOM     87  O   UNL A   1      54.435  38.319  26.581  1.00  0.00    -0.744 OA
ENDBRANCH  83  84
ENDBRANCH  55  78
BRANCH  67  88
ATOM     88  C   UNL A   1      52.837  26.817  26.378  1.00  0.00    -0.014 A 
ATOM     89  C   UNL A   1      53.454  26.551  25.144  1.00  0.00     0.010 A 
ATOM     90  C   UNL A   1      53.400  26.282  27.553  1.00  0.00     0.010 A 
ATOM     91  C   UNL A   1      54.591  25.738  25.082  1.00  0.00     0.020 A 
ATOM     92  C   UNL A   1      54.554  25.497  27.499  1.00  0.00     0.020 A 
ATOM     93  C   UNL A   1      55.135  25.218  26.261  1.00  0.00     0.054 A 
BRANCH  93  94
ATOM     94  S   UNL A   1      56.634  24.203  26.157  1.00  0.00     0.124 S 
ATOM     95  O   UNL A   1      57.595  25.000  26.913  1.00  0.00    -0.237 OA
ATOM     96  O   UNL A   1      56.217  22.953  26.790  1.00  0.00    -0.237 OA
ATOM     97  O   UNL A   1      56.893  24.112  24.722  1.00  0.00    -0.744 OA
ENDBRANCH  93  94
ENDBRANCH  67  88
ENDBRANCH  41  42
ENDBRANCH  34  36
ENDBRANCH  33  34
ENDBRANCH  32  33
ENDBRANCH  31  32
ENDBRANCH  30  31
ENDBRANCH  29  30
ENDBRANCH  28  29
ENDBRANCH   1  28
TORSDOF 26
ENDMDL
MODEL 2
REMARK VINA RESULT:      -7.6      7.033     10.829
REMARK SMILES C[C@@H](C(=O)OCCOCCOCCOCCOC(=O)c1ccc(-c2c3nc(c(-c4ccc(S(=O)(=O)[O-])cc4)c4ccc([nH]4)c(-c4ccc(S(=O)(=O)[O-])cc4)c4nc(c(-c5ccc(S(=O)(=O)[O-])cc5)c5ccc2[nH]5)C=C4)C=C3)cc1)c1ccccc1-c1ccn(C(F)F)c(=O)c1
REMARK SMILES IDX 11 1 10 2 9 3 8 4 7 5 6 6 5 7 3 8 4 9 2 10 1 11 80 12 81 13
REMARK SMILES IDX 85 14 82 15 84 16 83 17 86 18 87 19 95 20 88 21 93 22 89 23
REMARK SMILES IDX 94 24 90 25 91 26 92 27 12 28 13 29 14 30 15 31 16 32 17 33
REMARK SMILES IDX 18 34 19 35 20 36 21 37 79 38 22 39 78 40 23 41 24 42 25 43
REMARK SMILES IDX 72 44 26 45 77 46 71 47 73 48 27 49 76 50 70 51 69 52 28 54
REMARK SMILES IDX 58 55 39 56 57 57 40 58 43 59 56 60 74 61 41 62 42 63 55 65
REMARK SMILES IDX 75 66 44 67 29 68 30 69 38 70 31 71 37 72 32 73 33 74 34 75
REMARK SMILES IDX 35 76 36 77 59 78 60 79 68 80 61 81 67 82 62 83 63 84 64 85
REMARK SMILES IDX 65 86 66 87 45 88 46 89 54 90 47 91 53 92 48 93 49 94 50 95
REMARK SMILES IDX 51 96 52 97
REMARK H PARENT 73 53 43 64
REMARK Flexibility Score: inf
ROOT
ATOM      1  O   UNL A   1      38.005  30.346  28.757  1.00  0.00    -0.377 OA
ENDROOT
BRANCH   1   2
ATOM      2  C   UNL A   1      36.818  29.702  28.342  1.00  0.00     0.188 C 
BRANCH   2   3
ATOM      3  C   UNL A   1      35.662  30.639  27.952  1.00  0.00     0.188 C 
BRANCH   3   4
ATOM      4  O   UNL A   1      34.558  30.133  27.222  1.00  0.00    -0.376 OA
BRANCH   4   5
ATOM      5  C   UNL A   1      34.501  28.773  26.808  1.00  0.00     0.202 C 
BRANCH   5   6
ATOM      6  C   UNL A   1      34.067  28.303  25.406  1.00  0.00     0.261 C 
BRANCH   6   7
ATOM      7  O   UNL A   1      32.794  27.658  25.350  1.00  0.00    -0.463 OA
BRANCH   7   8
ATOM      8  C   UNL A   1      31.707  28.333  25.793  1.00  0.00     0.313 C 
ATOM      9  O   UNL A   1      31.025  27.985  26.751  1.00  0.00    -0.252 OA
BRANCH   8  10
ATOM     10  C   UNL A   1      31.465  29.636  25.001  1.00  0.00     0.127 C 
ATOM     11  C   UNL A   1      31.719  30.841  25.929  1.00  0.00     0.025 C 
BRANCH  10  12
ATOM     12  C   UNL A   1      30.228  29.602  24.058  1.00  0.00    -0.026 A 
ATOM     13  C   UNL A   1      29.422  30.773  24.008  1.00  0.00     0.005 A 
ATOM     14  C   UNL A   1      29.750  28.489  23.313  1.00  0.00    -0.014 A 
ATOM     15  C   UNL A   1      28.229  30.854  23.284  1.00  0.00     0.000 A 
ATOM     16  C   UNL A   1      28.505  28.574  22.633  1.00  0.00     0.009 A 
ATOM     17  C   UNL A   1      27.754  29.744  22.613  1.00  0.00     0.001 A 
BRANCH  14  18
ATOM     18  C   UNL A   1      30.470  27.213  23.099  1.00  0.00    -0.011 A 
ATOM     19  C   UNL A   1      30.127  25.962  23.740  1.00  0.00     0.027 A 
ATOM     20  C   UNL A   1      31.518  27.241  22.252  1.00  0.00     0.080 A 
ATOM     21  C   UNL A   1      30.963  24.918  23.665  1.00  0.00     0.095 A 
ATOM     22  C   UNL A   1      32.382  26.048  22.059  1.00  0.00     0.255 A 
ATOM     23  N   UNL A   1      32.105  24.974  22.888  1.00  0.00    -0.258 N 
ATOM     24  O   UNL A   1      33.282  26.105  21.226  1.00  0.00    -0.269 OA
BRANCH  23  25
ATOM     25  C   UNL A   1      33.046  23.885  22.881  1.00  0.00     0.451 C 
ATOM     26  F   UNL A   1      32.624  22.875  23.679  1.00  0.00    -0.185 F 
ATOM     27  F   UNL A   1      33.210  23.389  21.630  1.00  0.00    -0.185 F 
ENDBRANCH  23  25
ENDBRANCH  14  18
ENDBRANCH  10  12
ENDBRANCH   8  10
ENDBRANCH   7   8
ENDBRANCH   6   7
ENDBRANCH   5   6
ENDBRANCH   4   5
ENDBRANCH   3   4
ENDBRANCH   2   3
ENDBRANCH   1   2
BRANCH   1  28
ATOM     28  C   UNL A   1      38.074  30.851  30.086  1.00  0.00     0.188 C 
BRANCH  28  29
ATOM     29  C   UNL A   1      36.844  31.523  30.734  1.00  0.00     0.188 C 
BRANCH  29  30
ATOM     30  O   UNL A   1      37.021  32.886  31.090  1.00  0.00    -0.376 OA
BRANCH  30  31
ATOM     31  C   UNL A   1      36.121  33.469  32.022  1.00  0.00     0.202 C 
BRANCH  31  32
ATOM     32  C   UNL A   1      35.722  32.633  33.249  1.00  0.00     0.261 C 
BRANCH  32  33
ATOM     33  O   UNL A   1      36.400  32.942  34.477  1.00  0.00    -0.460 OA
BRANCH  33  34
ATOM     34  C   UNL A   1      37.488  33.735  34.419  1.00  0.00     0.338 C 
ATOM     35  O   UNL A   1      37.511  34.956  34.403  1.00  0.00    -0.246 OA
BRANCH  34  36
ATOM     36  C   UNL A   1      38.679  32.878  34.586  1.00  0.00     0.060 A 
ATOM     37  C   UNL A   1      39.911  33.323  34.086  1.00  0.00     0.016 A 
ATOM     38  C   UNL A   1      38.580  31.643  35.229  1.00  0.00     0.016 A 
ATOM     39  C   UNL A   1      41.041  32.511  34.191  1.00  0.00     0.010 A 
ATOM     40  C   UNL A   1      39.708  30.822  35.313  1.00  0.00     0.010 A 
ATOM     41  C   UNL A   1      40.934  31.236  34.760  1.00  0.00    -0.014 A 
BRANCH  41  42
ATOM     42  C   UNL A   1      42.040  30.261  34.595  1.00  0.00     0.031 A 
ATOM     43  C   UNL A   1      42.963  30.028  35.762  1.00  0.00     0.074 A 
ATOM     44  C   UNL A   1      42.212  29.578  33.449  1.00  0.00     0.049 A 
ATOM     45  N   UNL A   1      44.026  29.270  35.841  1.00  0.00    -0.248 NA
ATOM     46  C   UNL A   1      42.644  30.751  37.005  1.00  0.00     0.031 C 
ATOM     47  C   UNL A   1      41.357  29.674  32.268  1.00  0.00     0.029 A 
ATOM     48  N   UNL A   1      43.179  28.669  33.093  1.00  0.00    -0.354 N 
ATOM     49  C   UNL A   1      44.507  29.431  37.136  1.00  0.00     0.074 A 
ATOM     50  C   UNL A   1      43.641  30.384  37.796  1.00  0.00     0.031 C 
ATOM     51  C   UNL A   1      41.845  28.864  31.311  1.00  0.00     0.029 A 
ATOM     52  C   UNL A   1      43.067  28.224  31.797  1.00  0.00     0.049 A 
ATOM     53  H   UNL A   1      43.884  28.364  33.708  1.00  0.00     0.167 HD
ATOM     54  C   UNL A   1      45.570  28.836  37.726  1.00  0.00     0.031 A 
ATOM     55  C   UNL A   1      43.872  27.416  31.078  1.00  0.00     0.031 A 
ATOM     56  C   UNL A   1      46.441  27.904  37.060  1.00  0.00     0.049 A 
ATOM     57  C   UNL A   1      45.102  26.832  31.728  1.00  0.00     0.074 A 
ATOM     58  C   UNL A   1      47.544  27.243  37.571  1.00  0.00     0.029 A 
ATOM     59  N   UNL A   1      46.314  27.509  35.736  1.00  0.00    -0.354 N 
ATOM     60  N   UNL A   1      45.535  26.979  32.958  1.00  0.00    -0.248 NA
ATOM     61  C   UNL A   1      45.947  25.965  30.894  1.00  0.00     0.031 C 
ATOM     62  C   UNL A   1      48.122  26.498  36.539  1.00  0.00     0.029 A 
ATOM     63  C   UNL A   1      47.336  26.634  35.405  1.00  0.00     0.049 A 
ATOM     64  H   UNL A   1      45.604  27.806  35.124  1.00  0.00     0.167 HD
ATOM     65  C   UNL A   1      46.684  26.198  33.053  1.00  0.00     0.074 A 
ATOM     66  C   UNL A   1      46.869  25.571  31.761  1.00  0.00     0.031 C 
ATOM     67  C   UNL A   1      47.509  26.015  34.115  1.00  0.00     0.031 A 
BRANCH  54  68
ATOM     68  C   UNL A   1      45.872  29.206  39.155  1.00  0.00    -0.014 A 
ATOM     69  C   UNL A   1      46.418  30.459  39.487  1.00  0.00     0.010 A 
ATOM     70  C   UNL A   1      45.569  28.297  40.186  1.00  0.00     0.010 A 
ATOM     71  C   UNL A   1      46.690  30.781  40.820  1.00  0.00     0.020 A 
ATOM     72  C   UNL A   1      45.810  28.629  41.522  1.00  0.00     0.020 A 
ATOM     73  C   UNL A   1      46.384  29.864  41.829  1.00  0.00     0.054 A 
BRANCH  73  74
ATOM     74  S   UNL A   1      46.721  30.322  43.551  1.00  0.00     0.124 S 
ATOM     75  O   UNL A   1      47.902  29.516  43.852  1.00  0.00    -0.237 OA
ATOM     76  O   UNL A   1      46.953  31.762  43.458  1.00  0.00    -0.237 OA
ATOM     77  O   UNL A   1      45.505  29.933  44.260  1.00  0.00    -0.744 OA
ENDBRANCH  73  74
ENDBRANCH  54  68
BRANCH  55  78
ATOM     78  C   UNL A   1      43.560  27.133  29.648  1.00  0.00    -0.014 A 
ATOM     79  C   UNL A   1      42.787  26.018  29.282  1.00  0.00     0.010 A 
ATOM     80  C   UNL A   1      44.051  27.983  28.638  1.00  0.00     0.010 A 
ATOM     81  C   UNL A   1      42.521  25.749  27.935  1.00  0.00     0.020 A 
ATOM     82  C   UNL A   1      43.761  27.736  27.294  1.00  0.00     0.020 A 
ATOM     83  C   UNL A   1      43.006  26.614  26.950  1.00  0.00     0.054 A 
BRANCH  83  84
ATOM     84  S   UNL A   1      42.604  26.276  25.212  1.00  0.00     0.124 S 
ATOM     85  O   UNL A   1      42.654  27.610  24.622  1.00  0.00    -0.237 OA
ATOM     86  O   UNL A   1      43.677  25.367  24.815  1.00  0.00    -0.237 OA
ATOM     87  O   UNL A   1      41.277  25.671  25.279  1.00  0.00    -0.744 OA
ENDBRANCH  83  84
ENDBRANCH  55  78
BRANCH  67  88
ATOM     88  C   UNL A   1      48.668  25.063  33.946  1.00  0.00    -0.014 A 
ATOM     89  C   UNL A   1      48.595  23.729  34.385  1.00  0.00     0.010 A 
ATOM     90  C   UNL A   1      49.827  25.500  33.277  1.00  0.00     0.010 A 
ATOM     91  C   UNL A   1      49.673  22.860  34.189  1.00  0.00     0.020 A 
ATOM     92  C   UNL A   1      50.893  24.626  33.050  1.00  0.00     0.020 A 
ATOM     93  C   UNL A   1      50.815  23.314  33.520  1.00  0.00     0.054 A 
BRANCH  93  94
ATOM     94  S   UNL A   1      52.181  22.155  33.241  1.00  0.00     0.124 S 
ATOM     95  O   UNL A   1      53.287  23.056  32.932  1.00  0.00    -0.237 OA
ATOM     96  O   UNL A   1      52.276  21.460  34.523  1.00  0.00    -0.237 OA
ATOM     97  O   UNL A   1      51.718  21.333  32.126  1.00  0.00    -0.744 OA
ENDBRANCH  93  94
ENDBRANCH  67  88
ENDBRANCH  41  42
ENDBRANCH  34  36
ENDBRANCH  33  34
ENDBRANCH  32  33
ENDBRANCH  31  32
ENDBRANCH  30  31
ENDBRANCH  29  30
ENDBRANCH  28  29
ENDBRANCH   1  28
TORSDOF 26
ENDMDL
MODEL 3
REMARK VINA RESULT:      -7.4      5.913      9.513
REMARK SMILES C[C@@H](C(=O)OCCOCCOCCOCCOC(=O)c1ccc(-c2c3nc(c(-c4ccc(S(=O)(=O)[O-])cc4)c4ccc([nH]4)c(-c4ccc(S(=O)(=O)[O-])cc4)c4nc(c(-c5ccc(S(=O)(=O)[O-])cc5)c5ccc2[nH]5)C=C4)C=C3)cc1)c1ccccc1-c1ccn(C(F)F)c(=O)c1
REMARK SMILES IDX 11 1 10 2 9 3 8 4 7 5 6 6 5 7 3 8 4 9 2 10 1 11 80 12 81 13
REMARK SMILES IDX 85 14 82 15 84 16 83 17 86 18 87 19 95 20 88 21 93 22 89 23
REMARK SMILES IDX 94 24 90 25 91 26 92 27 12 28 13 29 14 30 15 31 16 32 17 33
REMARK SMILES IDX 18 34 19 35 20 36 21 37 79 38 22 39 78 40 23 41 24 42 25 43
REMARK SMILES IDX 72 44 26 45 77 46 71 47 73 48 27 49 76 50 70 51 69 52 28 54
REMARK SMILES IDX 58 55 39 56 57 57 40 58 43 59 56 60 74 61 41 62 42 63 55 65
REMARK SMILES IDX 75 66 44 67 29 68 30 69 38 70 31 71 37 72 32 73 33 74 34 75
REMARK SMILES IDX 35 76 36 77 59 78 60 79 68 80 61 81 67 82 62 83 63 84 64 85
REMARK SMILES IDX 65 86 66 87 45 88 46 89 54 90 47 91 53 92 48 93 49 94 50 95
REMARK SMILES IDX 51 96 52 97
REMARK H PARENT 73 53 43 64
REMARK Flexibility Score: inf
ROOT
ATOM      1  O   UNL A   1      34.676  32.145  30.272  1.00  0.00    -0.377 OA
ENDROOT
BRANCH   1   2
ATOM      2  C   UNL A   1      35.926  31.563  29.965  1.00  0.00     0.188 C 
BRANCH   2   3
ATOM      3  C   UNL A   1      36.387  31.724  28.506  1.00  0.00     0.188 C 
BRANCH   3   4
ATOM      4  O   UNL A   1      35.447  31.621  27.452  1.00  0.00    -0.376 OA
BRANCH   4   5
ATOM      5  C   UNL A   1      34.339  30.731  27.529  1.00  0.00     0.202 C 
BRANCH   5   6
ATOM      6  C   UNL A   1      34.389  29.237  27.157  1.00  0.00     0.261 C 
BRANCH   6   7
ATOM      7  O   UNL A   1      33.977  28.929  25.825  1.00  0.00    -0.463 OA
BRANCH   7   8
ATOM      8  C   UNL A   1      32.672  28.650  25.599  1.00  0.00     0.313 C 
ATOM      9  O   UNL A   1      31.783  28.794  26.432  1.00  0.00    -0.252 OA
BRANCH   8  10
ATOM     10  C   UNL A   1      32.414  28.200  24.145  1.00  0.00     0.127 C 
ATOM     11  C   UNL A   1      33.278  29.052  23.195  1.00  0.00     0.025 C 
BRANCH  10  12
ATOM     12  C   UNL A   1      30.922  27.900  23.815  1.00  0.00    -0.026 A 
ATOM     13  C   UNL A   1      30.147  28.975  23.299  1.00  0.00     0.005 A 
ATOM     14  C   UNL A   1      30.215  26.692  24.067  1.00  0.00    -0.014 A 
ATOM     15  C   UNL A   1      28.774  28.882  23.050  1.00  0.00     0.000 A 
ATOM     16  C   UNL A   1      28.810  26.638  23.863  1.00  0.00     0.009 A 
ATOM     17  C   UNL A   1      28.097  27.719  23.356  1.00  0.00     0.001 A 
BRANCH  14  18
ATOM     18  C   UNL A   1      30.817  25.402  24.473  1.00  0.00    -0.011 A 
ATOM     19  C   UNL A   1      31.605  24.556  23.603  1.00  0.00     0.027 A 
ATOM     20  C   UNL A   1      30.597  25.000  25.741  1.00  0.00     0.080 A 
ATOM     21  C   UNL A   1      31.917  23.309  23.980  1.00  0.00     0.095 A 
ATOM     22  C   UNL A   1      31.051  23.668  26.216  1.00  0.00     0.255 A 
ATOM     23  N   UNL A   1      31.594  22.845  25.243  1.00  0.00    -0.258 N 
ATOM     24  O   UNL A   1      30.886  23.379  27.397  1.00  0.00    -0.269 OA
BRANCH  23  25
ATOM     25  C   UNL A   1      31.850  21.478  25.614  1.00  0.00     0.451 C 
ATOM     26  F   UNL A   1      31.819  20.668  24.528  1.00  0.00    -0.185 F 
ATOM     27  F   UNL A   1      33.066  21.349  26.197  1.00  0.00    -0.185 F 
ENDBRANCH  23  25
ENDBRANCH  14  18
ENDBRANCH  10  12
ENDBRANCH   8  10
ENDBRANCH   7   8
ENDBRANCH   6   7
ENDBRANCH   5   6
ENDBRANCH   4   5
ENDBRANCH   3   4
ENDBRANCH   2   3
ENDBRANCH   1   2
BRANCH   1  28
ATOM     28  C   UNL A   1      34.630  33.535  30.575  1.00  0.00     0.188 C 
BRANCH  28  29
ATOM     29  C   UNL A   1      34.303  34.015  32.006  1.00  0.00     0.188 C 
BRANCH  29  30
ATOM     30  O   UNL A   1      35.422  34.128  32.873  1.00  0.00    -0.376 OA
BRANCH  30  31
ATOM     31  C   UNL A   1      35.592  33.155  33.894  1.00  0.00     0.202 C 
BRANCH  31  32
ATOM     32  C   UNL A   1      36.653  32.064  33.674  1.00  0.00     0.261 C 
BRANCH  32  33
ATOM     33  O   UNL A   1      37.453  31.715  34.814  1.00  0.00    -0.460 OA
BRANCH  33  34
ATOM     34  C   UNL A   1      37.818  32.701  35.659  1.00  0.00     0.338 C 
ATOM     35  O   UNL A   1      37.357  32.933  36.766  1.00  0.00    -0.246 OA
BRANCH  34  36
ATOM     36  C   UNL A   1      39.027  33.344  35.105  1.00  0.00     0.060 A 
ATOM     37  C   UNL A   1      38.881  34.338  34.128  1.00  0.00     0.016 A 
ATOM     38  C   UNL A   1      40.297  32.965  35.545  1.00  0.00     0.016 A 
ATOM     39  C   UNL A   1      40.009  34.927  33.556  1.00  0.00     0.010 A 
ATOM     40  C   UNL A   1      41.426  33.540  34.956  1.00  0.00     0.010 A 
ATOM     41  C   UNL A   1      41.287  34.495  33.932  1.00  0.00    -0.014 A 
BRANCH  41  42
ATOM     42  C   UNL A   1      42.464  34.886  33.118  1.00  0.00     0.031 A 
ATOM     43  C   UNL A   1      42.906  33.959  32.016  1.00  0.00     0.074 A 
ATOM     44  C   UNL A   1      43.114  36.044  33.329  1.00  0.00     0.049 A 
ATOM     45  N   UNL A   1      43.931  34.057  31.209  1.00  0.00    -0.248 NA
ATOM     46  C   UNL A   1      42.081  32.759  31.797  1.00  0.00     0.031 C 
ATOM     47  C   UNL A   1      42.754  37.049  34.327  1.00  0.00     0.029 A 
ATOM     48  N   UNL A   1      44.227  36.564  32.713  1.00  0.00    -0.354 N 
ATOM     49  C   UNL A   1      43.880  32.931  30.396  1.00  0.00     0.074 A 
ATOM     50  C   UNL A   1      42.743  32.147  30.827  1.00  0.00     0.031 C 
ATOM     51  C   UNL A   1      43.638  38.061  34.264  1.00  0.00     0.029 A 
ATOM     52  C   UNL A   1      44.648  37.757  33.250  1.00  0.00     0.049 A 
ATOM     53  H   UNL A   1      44.680  36.124  31.958  1.00  0.00     0.167 HD
ATOM     54  C   UNL A   1      44.700  32.582  29.377  1.00  0.00     0.031 A 
ATOM     55  C   UNL A   1      45.736  38.504  32.975  1.00  0.00     0.031 A 
ATOM     56  C   UNL A   1      45.841  33.355  28.964  1.00  0.00     0.049 A 
ATOM     57  C   UNL A   1      46.687  38.052  31.894  1.00  0.00     0.074 A 
ATOM     58  C   UNL A   1      46.734  33.088  27.940  1.00  0.00     0.029 A 
ATOM     59  N   UNL A   1      46.254  34.538  29.558  1.00  0.00    -0.354 N 
ATOM     60  N   UNL A   1      46.617  36.994  31.122  1.00  0.00    -0.248 NA
ATOM     61  C   UNL A   1      47.861  38.901  31.643  1.00  0.00     0.031 C 
ATOM     62  C   UNL A   1      47.723  34.076  27.958  1.00  0.00     0.029 A 
ATOM     63  C   UNL A   1      47.405  35.000  28.941  1.00  0.00     0.049 A 
ATOM     64  H   UNL A   1      45.796  34.983  30.307  1.00  0.00     0.167 HD
ATOM     65  C   UNL A   1      47.717  37.068  30.272  1.00  0.00     0.074 A 
ATOM     66  C   UNL A   1      48.429  38.281  30.617  1.00  0.00     0.031 C 
ATOM     67  C   UNL A   1      48.103  36.211  29.293  1.00  0.00     0.031 A 
BRANCH  54  68
ATOM     68  C   UNL A   1      44.412  31.287  28.663  1.00  0.00    -0.014 A 
ATOM     69  C   UNL A   1      43.592  31.247  27.521  1.00  0.00     0.010 A 
ATOM     70  C   UNL A   1      45.002  30.095  29.123  1.00  0.00     0.010 A 
ATOM     71  C   UNL A   1      43.338  30.034  26.874  1.00  0.00     0.020 A 
ATOM     72  C   UNL A   1      44.776  28.885  28.460  1.00  0.00     0.020 A 
ATOM     73  C   UNL A   1      43.932  28.860  27.348  1.00  0.00     0.054 A 
BRANCH  73  74
ATOM     74  S   UNL A   1      43.607  27.306  26.471  1.00  0.00     0.124 S 
ATOM     75  O   UNL A   1      43.856  27.687  25.083  1.00  0.00    -0.237 OA
ATOM     76  O   UNL A   1      44.591  26.399  27.058  1.00  0.00    -0.237 OA
ATOM     77  O   UNL A   1      42.215  27.007  26.795  1.00  0.00    -0.744 OA
ENDBRANCH  73  74
ENDBRANCH  54  68
BRANCH  55  78
ATOM     78  C   UNL A   1      46.006  39.745  33.756  1.00  0.00    -0.014 A 
ATOM     79  C   UNL A   1      45.532  40.994  33.318  1.00  0.00     0.010 A 
ATOM     80  C   UNL A   1      46.756  39.680  34.946  1.00  0.00     0.010 A 
ATOM     81  C   UNL A   1      45.813  42.155  34.046  1.00  0.00     0.020 A 
ATOM     82  C   UNL A   1      47.011  40.833  35.693  1.00  0.00     0.020 A 
ATOM     83  C   UNL A   1      46.546  42.065  35.233  1.00  0.00     0.054 A 
BRANCH  83  84
ATOM     84  S   UNL A   1      46.853  43.577  36.190  1.00  0.00     0.124 S 
ATOM     85  O   UNL A   1      45.652  44.361  35.915  1.00  0.00    -0.237 OA
ATOM     86  O   UNL A   1      46.977  43.064  37.552  1.00  0.00    -0.237 OA
ATOM     87  O   UNL A   1      48.088  44.102  35.614  1.00  0.00    -0.744 OA
ENDBRANCH  83  84
ENDBRANCH  55  78
BRANCH  67  88
ATOM     88  C   UNL A   1      49.327  36.571  28.488  1.00  0.00    -0.014 A 
ATOM     89  C   UNL A   1      50.617  36.197  28.902  1.00  0.00     0.010 A 
ATOM     90  C   UNL A   1      49.172  37.242  27.261  1.00  0.00     0.010 A 
ATOM     91  C   UNL A   1      51.732  36.517  28.122  1.00  0.00     0.020 A 
ATOM     92  C   UNL A   1      50.280  37.536  26.462  1.00  0.00     0.020 A 
ATOM     93  C   UNL A   1      51.556  37.184  26.904  1.00  0.00     0.054 A 
BRANCH  93  94
ATOM     94  S   UNL A   1      53.014  37.550  25.891  1.00  0.00     0.124 S 
ATOM     95  O   UNL A   1      54.042  36.734  26.529  1.00  0.00    -0.237 OA
ATOM     96  O   UNL A   1      52.597  37.109  24.561  1.00  0.00    -0.237 OA
ATOM     97  O   UNL A   1      53.186  38.994  26.038  1.00  0.00    -0.744 OA
ENDBRANCH  93  94
ENDBRANCH  67  88
ENDBRANCH  41  42
ENDBRANCH  34  36
ENDBRANCH  33  34
ENDBRANCH  32  33
ENDBRANCH  31  32
ENDBRANCH  30  31
ENDBRANCH  29  30
ENDBRANCH  28  29
ENDBRANCH   1  28
TORSDOF 26
ENDMDL
