MODEL 1
REMARK VINA RESULT:      -7.7      0.000      0.000
REMARK SMILES N#CCOc1ccccc1[C@H]1[NH2+][C@@H](C(=O)OCCOCCOCCOCCOC(=O)c2ccc(-c3c4nc(c(-c5ccc(S(=O)(=O)[O-])cc5)c5ccc([nH]5)c(-c5ccc(S(=O)(=O)[O-])cc5)c5nc(c(-c6ccc(S(=O)(=O)[O-])cc6)c6ccc3[nH]6)C=C5)C=C4)cc2)CS1
REMARK SMILES IDX 21 1 20 2 19 3 18 4 17 5 16 6 14 7 15 8 13 9 11 10 12 11
REMARK SMILES IDX 92 12 91 15 10 16 5 17 6 18 7 19 9 20 8 21 4 22 3 23 2 24
REMARK SMILES IDX 1 25 22 26 23 27 24 28 25 29 26 30 27 31 28 32 29 33 30 34
REMARK SMILES IDX 31 35 32 36 90 37 33 38 89 39 34 40 35 41 36 42 83 43 37 44
REMARK SMILES IDX 88 45 82 46 84 47 38 48 87 49 81 50 80 51 39 53 69 54 50 55
REMARK SMILES IDX 68 56 51 57 54 58 67 59 85 60 52 61 53 62 66 64 86 65 55 66
REMARK SMILES IDX 40 67 41 68 49 69 42 70 48 71 43 72 44 73 45 74 46 75 47 76
REMARK SMILES IDX 70 77 71 78 79 79 72 80 78 81 73 82 74 83 75 84 76 85 77 86
REMARK SMILES IDX 56 87 57 88 65 89 58 90 64 91 59 92 60 93 61 94 62 95 63 96
REMARK H PARENT 12 13 12 14 84 52 54 63
REMARK Flexibility Score: inf
ROOT
ATOM      1  C   UNL A   1      31.766  26.570  26.216  1.00  0.00     0.188 C 
ENDROOT
BRANCH   1   2
ATOM      2  C   UNL A   1      31.540  25.102  26.617  1.00  0.00     0.188 C 
BRANCH   2   3
ATOM      3  O   UNL A   1      30.475  24.345  26.060  1.00  0.00    -0.376 OA
BRANCH   3   4
ATOM      4  C   UNL A   1      30.769  23.195  25.292  1.00  0.00     0.202 C 
BRANCH   4   5
ATOM      5  C   UNL A   1      31.513  23.357  23.957  1.00  0.00     0.261 C 
BRANCH   5   6
ATOM      6  O   UNL A   1      32.580  24.315  23.869  1.00  0.00    -0.459 OA
BRANCH   6   7
ATOM      7  C   UNL A   1      33.844  23.874  23.578  1.00  0.00     0.365 C 
ATOM      8  O   UNL A   1      34.463  24.172  22.564  1.00  0.00    -0.245 OA
BRANCH   7   9
ATOM      9  C   UNL A   1      34.354  22.868  24.653  1.00  0.00     0.304 C 
ATOM     10  C   UNL A   1      36.406  22.193  25.762  1.00  0.00     0.278 C 
ATOM     11  N   UNL A   1      35.672  23.324  25.185  1.00  0.00    -0.319 N 
ATOM     12  S   UNL A   1      35.753  20.613  25.200  1.00  0.00    -0.087 SA
ATOM     13  H   UNL A   1      36.220  23.729  24.426  1.00  0.00     0.348 HD
ATOM     14  H   UNL A   1      35.513  24.022  25.911  1.00  0.00     0.348 HD
ATOM     15  C   UNL A   1      34.421  21.414  24.169  1.00  0.00     0.153 C 
BRANCH  10  16
ATOM     16  C   UNL A   1      37.883  22.588  26.161  1.00  0.00     0.062 A 
ATOM     17  C   UNL A   1      39.230  22.032  26.102  1.00  0.00     0.131 A 
ATOM     18  C   UNL A   1      40.319  22.867  26.468  1.00  0.00     0.047 A 
ATOM     19  C   UNL A   1      40.178  24.207  26.816  1.00  0.00     0.004 A 
ATOM     20  C   UNL A   1      37.827  23.979  26.541  1.00  0.00     0.015 A 
ATOM     21  C   UNL A   1      38.925  24.767  26.850  1.00  0.00     0.001 A 
BRANCH  17  22
ATOM     22  O   UNL A   1      39.821  20.766  25.902  1.00  0.00    -0.478 OA
BRANCH  22  23
ATOM     23  C   UNL A   1      40.599  20.075  26.950  1.00  0.00     0.349 C 
BRANCH  23  24
ATOM     24  C   UNL A   1      41.732  19.699  26.010  1.00  0.00     0.104 C 
ATOM     25  N   UNL A   1      42.674  19.386  25.231  1.00  0.00    -0.195 NA
ENDBRANCH  23  24
ENDBRANCH  22  23
ENDBRANCH  17  22
ENDBRANCH  10  16
ENDBRANCH   7   9
ENDBRANCH   6   7
ENDBRANCH   5   6
ENDBRANCH   4   5
ENDBRANCH   3   4
ENDBRANCH   2   3
ENDBRANCH   1   2
BRANCH   1  26
ATOM     26  O   UNL A   1      30.765  27.205  25.440  1.00  0.00    -0.377 OA
BRANCH  26  27
ATOM     27  C   UNL A   1      31.189  27.864  24.258  1.00  0.00     0.188 C 
BRANCH  27  28
ATOM     28  C   UNL A   1      32.255  28.947  24.457  1.00  0.00     0.188 C 
BRANCH  28  29
ATOM     29  O   UNL A   1      32.244  29.446  25.791  1.00  0.00    -0.376 OA
BRANCH  29  30
ATOM     30  C   UNL A   1      33.439  29.979  26.334  1.00  0.00     0.202 C 
BRANCH  30  31
ATOM     31  C   UNL A   1      33.300  31.097  27.379  1.00  0.00     0.261 C 
BRANCH  31  32
ATOM     32  O   UNL A   1      34.446  31.362  28.202  1.00  0.00    -0.460 OA
BRANCH  32  33
ATOM     33  C   UNL A   1      34.549  32.600  28.742  1.00  0.00     0.338 C 
ATOM     34  O   UNL A   1      33.640  33.351  29.019  1.00  0.00    -0.246 OA
BRANCH  33  35
ATOM     35  C   UNL A   1      35.967  32.800  29.118  1.00  0.00     0.060 A 
ATOM     36  C   UNL A   1      36.924  31.878  28.673  1.00  0.00     0.016 A 
ATOM     37  C   UNL A   1      36.349  33.893  29.900  1.00  0.00     0.016 A 
ATOM     38  C   UNL A   1      38.264  32.032  29.031  1.00  0.00     0.010 A 
ATOM     39  C   UNL A   1      37.688  34.033  30.277  1.00  0.00     0.010 A 
ATOM     40  C   UNL A   1      38.646  33.088  29.870  1.00  0.00    -0.014 A 
BRANCH  40  41
ATOM     41  C   UNL A   1      39.998  33.101  30.482  1.00  0.00     0.031 A 
ATOM     42  C   UNL A   1      40.954  34.191  30.075  1.00  0.00     0.074 A 
ATOM     43  C   UNL A   1      40.375  32.171  31.377  1.00  0.00     0.049 A 
ATOM     44  N   UNL A   1      42.205  34.364  30.408  1.00  0.00    -0.248 NA
ATOM     45  C   UNL A   1      40.423  35.220  29.165  1.00  0.00     0.031 C 
ATOM     46  C   UNL A   1      39.526  31.099  31.895  1.00  0.00     0.029 A 
ATOM     47  N   UNL A   1      41.581  31.978  32.004  1.00  0.00    -0.354 N 
ATOM     48  C   UNL A   1      42.617  35.512  29.739  1.00  0.00     0.074 A 
ATOM     49  C   UNL A   1      41.491  35.976  28.960  1.00  0.00     0.031 C 
ATOM     50  C   UNL A   1      40.244  30.350  32.751  1.00  0.00     0.029 A 
ATOM     51  C   UNL A   1      41.612  30.865  32.812  1.00  0.00     0.049 A 
ATOM     52  H   UNL A   1      42.352  32.579  31.886  1.00  0.00     0.167 HD
ATOM     53  C   UNL A   1      43.824  36.125  29.773  1.00  0.00     0.031 A 
ATOM     54  C   UNL A   1      42.633  30.310  33.495  1.00  0.00     0.031 A 
ATOM     55  C   UNL A   1      44.946  35.649  30.535  1.00  0.00     0.049 A 
ATOM     56  C   UNL A   1      43.994  30.958  33.446  1.00  0.00     0.074 A 
ATOM     57  C   UNL A   1      46.208  36.204  30.645  1.00  0.00     0.029 A 
ATOM     58  N   UNL A   1      44.947  34.498  31.310  1.00  0.00    -0.354 N 
ATOM     59  N   UNL A   1      44.364  32.055  32.826  1.00  0.00    -0.248 NA
ATOM     60  C   UNL A   1      45.075  30.298  34.193  1.00  0.00     0.031 C 
ATOM     61  C   UNL A   1      46.992  35.353  31.430  1.00  0.00     0.029 A 
ATOM     62  C   UNL A   1      46.197  34.309  31.874  1.00  0.00     0.049 A 
ATOM     63  H   UNL A   1      44.173  33.904  31.440  1.00  0.00     0.167 HD
ATOM     64  C   UNL A   1      45.709  32.233  33.139  1.00  0.00     0.074 A 
ATOM     65  C   UNL A   1      46.084  31.139  34.010  1.00  0.00     0.031 C 
ATOM     66  C   UNL A   1      46.555  33.217  32.744  1.00  0.00     0.031 A 
BRANCH  53  67
ATOM     67  C   UNL A   1      44.004  37.357  28.924  1.00  0.00    -0.014 A 
ATOM     68  C   UNL A   1      44.002  38.645  29.490  1.00  0.00     0.010 A 
ATOM     69  C   UNL A   1      44.214  37.219  27.539  1.00  0.00     0.010 A 
ATOM     70  C   UNL A   1      44.168  39.772  28.683  1.00  0.00     0.020 A 
ATOM     71  C   UNL A   1      44.413  38.343  26.733  1.00  0.00     0.020 A 
ATOM     72  C   UNL A   1      44.373  39.614  27.308  1.00  0.00     0.054 A 
BRANCH  72  73
ATOM     73  S   UNL A   1      44.609  41.095  26.289  1.00  0.00     0.124 S 
ATOM     74  O   UNL A   1      43.575  40.926  25.270  1.00  0.00    -0.237 OA
ATOM     75  O   UNL A   1      44.381  42.177  27.242  1.00  0.00    -0.237 OA
ATOM     76  O   UNL A   1      45.983  40.970  25.807  1.00  0.00    -0.744 OA
ENDBRANCH  72  73
ENDBRANCH  53  67
BRANCH  54  77
ATOM     77  C   UNL A   1      42.419  29.054  34.268  1.00  0.00    -0.014 A 
ATOM     78  C   UNL A   1      42.560  27.797  33.652  1.00  0.00     0.010 A 
ATOM     79  C   UNL A   1      42.064  29.109  35.629  1.00  0.00     0.010 A 
ATOM     80  C   UNL A   1      42.332  26.622  34.377  1.00  0.00     0.020 A 
ATOM     81  C   UNL A   1      41.868  27.937  36.365  1.00  0.00     0.020 A 
ATOM     82  C   UNL A   1      41.993  26.700  35.731  1.00  0.00     0.054 A 
BRANCH  82  83
ATOM     83  S   UNL A   1      41.755  25.162  36.662  1.00  0.00     0.124 S 
ATOM     84  O   UNL A   1      40.509  25.428  37.375  1.00  0.00    -0.237 OA
ATOM     85  O   UNL A   1      41.675  24.163  35.600  1.00  0.00    -0.237 OA
ATOM     86  O   UNL A   1      42.950  25.079  37.499  1.00  0.00    -0.744 OA
ENDBRANCH  82  83
ENDBRANCH  54  77
BRANCH  66  87
ATOM     87  C   UNL A   1      47.964  33.192  33.284  1.00  0.00    -0.014 A 
ATOM     88  C   UNL A   1      48.228  33.330  34.659  1.00  0.00     0.010 A 
ATOM     89  C   UNL A   1      49.035  32.949  32.404  1.00  0.00     0.010 A 
ATOM     90  C   UNL A   1      49.539  33.253  35.137  1.00  0.00     0.020 A 
ATOM     91  C   UNL A   1      50.343  32.839  32.883  1.00  0.00     0.020 A 
ATOM     92  C   UNL A   1      50.587  33.003  34.247  1.00  0.00     0.054 A 
BRANCH  92  93
ATOM     93  S   UNL A   1      52.272  32.851  34.903  1.00  0.00     0.124 S 
ATOM     94  O   UNL A   1      52.941  32.092  33.851  1.00  0.00    -0.237 OA
ATOM     95  O   UNL A   1      52.689  34.245  35.036  1.00  0.00    -0.237 OA
ATOM     96  O   UNL A   1      52.090  32.138  36.166  1.00  0.00    -0.744 OA
ENDBRANCH  92  93
ENDBRANCH  66  87
ENDBRANCH  40  41
ENDBRANCH  33  35
ENDBRANCH  32  33
ENDBRANCH  31  32
ENDBRANCH  30  31
ENDBRANCH  29  30
ENDBRANCH  28  29
ENDBRANCH  27  28
ENDBRANCH  26  27
ENDBRANCH   1  26
TORSDOF 27
ENDMDL
MODEL 2
REMARK VINA RESULT:      -7.4      6.250     11.033
REMARK SMILES N#CCOc1ccccc1[C@H]1[NH2+][C@@H](C(=O)OCCOCCOCCOCCOC(=O)c2ccc(-c3c4nc(c(-c5ccc(S(=O)(=O)[O-])cc5)c5ccc([nH]5)c(-c5ccc(S(=O)(=O)[O-])cc5)c5nc(c(-c6ccc(S(=O)(=O)[O-])cc6)c6ccc3[nH]6)C=C5)C=C4)cc2)CS1
REMARK SMILES IDX 21 1 20 2 19 3 18 4 17 5 16 6 14 7 15 8 13 9 11 10 12 11
REMARK SMILES IDX 92 12 91 15 10 16 5 17 6 18 7 19 9 20 8 21 4 22 3 23 2 24
REMARK SMILES IDX 1 25 22 26 23 27 24 28 25 29 26 30 27 31 28 32 29 33 30 34
REMARK SMILES IDX 31 35 32 36 90 37 33 38 89 39 34 40 35 41 36 42 83 43 37 44
REMARK SMILES IDX 88 45 82 46 84 47 38 48 87 49 81 50 80 51 39 53 69 54 50 55
REMARK SMILES IDX 68 56 51 57 54 58 67 59 85 60 52 61 53 62 66 64 86 65 55 66
REMARK SMILES IDX 40 67 41 68 49 69 42 70 48 71 43 72 44 73 45 74 46 75 47 76
REMARK SMILES IDX 70 77 71 78 79 79 72 80 78 81 73 82 74 83 75 84 76 85 77 86
REMARK SMILES IDX 56 87 57 88 65 89 58 90 64 91 59 92 60 93 61 94 62 95 63 96
REMARK H PARENT 12 13 12 14 84 52 54 63
REMARK Flexibility Score: inf
ROOT
ATOM      1  C   UNL A   1      41.173  23.879  26.323  1.00  0.00     0.188 C 
ENDROOT
BRANCH   1   2
ATOM      2  C   UNL A   1      41.713  25.310  26.155  1.00  0.00     0.188 C 
BRANCH   2   3
ATOM      3  O   UNL A   1      43.110  25.567  26.125  1.00  0.00    -0.376 OA
BRANCH   3   4
ATOM      4  C   UNL A   1      43.602  26.634  25.340  1.00  0.00     0.202 C 
BRANCH   4   5
ATOM      5  C   UNL A   1      43.561  28.062  25.908  1.00  0.00     0.261 C 
BRANCH   5   6
ATOM      6  O   UNL A   1      44.798  28.720  26.224  1.00  0.00    -0.459 OA
BRANCH   6   7
ATOM      7  C   UNL A   1      44.770  30.031  26.622  1.00  0.00     0.365 C 
ATOM      8  O   UNL A   1      43.877  30.820  26.337  1.00  0.00    -0.245 OA
BRANCH   7   9
ATOM      9  C   UNL A   1      46.067  30.416  27.395  1.00  0.00     0.304 C 
ATOM     10  C   UNL A   1      48.290  29.560  27.862  1.00  0.00     0.278 C 
ATOM     11  N   UNL A   1      47.221  29.633  26.861  1.00  0.00    -0.319 N 
ATOM     12  S   UNL A   1      47.693  29.958  29.513  1.00  0.00    -0.087 SA
ATOM     13  H   UNL A   1      46.910  28.690  26.630  1.00  0.00     0.348 HD
ATOM     14  H   UNL A   1      47.579  30.097  26.026  1.00  0.00     0.348 HD
ATOM     15  C   UNL A   1      45.953  30.276  28.918  1.00  0.00     0.153 C 
BRANCH  10  16
ATOM     16  C   UNL A   1      49.449  28.581  27.419  1.00  0.00     0.062 A 
ATOM     17  C   UNL A   1      50.094  28.113  26.198  1.00  0.00     0.131 A 
ATOM     18  C   UNL A   1      51.255  27.304  26.318  1.00  0.00     0.047 A 
ATOM     19  C   UNL A   1      51.850  26.988  27.536  1.00  0.00     0.004 A 
ATOM     20  C   UNL A   1      50.124  28.199  28.636  1.00  0.00     0.015 A 
ATOM     21  C   UNL A   1      51.283  27.441  28.702  1.00  0.00     0.001 A 
BRANCH  17  22
ATOM     22  O   UNL A   1      49.815  28.108  24.814  1.00  0.00    -0.478 OA
BRANCH  22  23
ATOM     23  C   UNL A   1      49.316  26.914  24.105  1.00  0.00     0.349 C 
BRANCH  23  24
ATOM     24  C   UNL A   1      48.033  27.589  23.650  1.00  0.00     0.104 C 
ATOM     25  N   UNL A   1      46.969  28.150  23.271  1.00  0.00    -0.195 NA
ENDBRANCH  23  24
ENDBRANCH  22  23
ENDBRANCH  17  22
ENDBRANCH  10  16
ENDBRANCH   7   9
ENDBRANCH   6   7
ENDBRANCH   5   6
ENDBRANCH   4   5
ENDBRANCH   3   4
ENDBRANCH   2   3
ENDBRANCH   1   2
BRANCH   1  26
ATOM     26  O   UNL A   1      41.793  23.047  27.288  1.00  0.00    -0.377 OA
BRANCH  26  27
ATOM     27  C   UNL A   1      41.405  21.684  27.306  1.00  0.00     0.188 C 
BRANCH  27  28
ATOM     28  C   UNL A   1      42.507  20.684  26.940  1.00  0.00     0.188 C 
BRANCH  28  29
ATOM     29  O   UNL A   1      42.751  20.671  25.537  1.00  0.00    -0.376 OA
BRANCH  29  30
ATOM     30  C   UNL A   1      43.986  20.168  25.060  1.00  0.00     0.202 C 
BRANCH  30  31
ATOM     31  C   UNL A   1      45.021  21.192  24.570  1.00  0.00     0.261 C 
BRANCH  31  32
ATOM     32  O   UNL A   1      44.901  22.530  25.075  1.00  0.00    -0.460 OA
BRANCH  32  33
ATOM     33  C   UNL A   1      45.977  23.342  24.943  1.00  0.00     0.338 C 
ATOM     34  O   UNL A   1      46.583  23.587  23.924  1.00  0.00    -0.246 OA
BRANCH  33  35
ATOM     35  C   UNL A   1      46.168  24.036  26.237  1.00  0.00     0.060 A 
ATOM     36  C   UNL A   1      45.607  23.480  27.394  1.00  0.00     0.016 A 
ATOM     37  C   UNL A   1      46.898  25.225  26.307  1.00  0.00     0.016 A 
ATOM     38  C   UNL A   1      45.754  24.126  28.624  1.00  0.00     0.010 A 
ATOM     39  C   UNL A   1      47.025  25.882  27.534  1.00  0.00     0.010 A 
ATOM     40  C   UNL A   1      46.428  25.352  28.692  1.00  0.00    -0.014 A 
BRANCH  40  41
ATOM     41  C   UNL A   1      46.348  26.178  29.922  1.00  0.00     0.031 A 
ATOM     42  C   UNL A   1      45.054  26.885  30.223  1.00  0.00     0.074 A 
ATOM     43  C   UNL A   1      47.395  26.302  30.757  1.00  0.00     0.049 A 
ATOM     44  N   UNL A   1      44.768  27.721  31.185  1.00  0.00    -0.248 NA
ATOM     45  C   UNL A   1      43.932  26.614  29.307  1.00  0.00     0.031 C 
ATOM     46  C   UNL A   1      48.683  25.625  30.608  1.00  0.00     0.029 A 
ATOM     47  N   UNL A   1      47.540  27.054  31.896  1.00  0.00    -0.354 N 
ATOM     48  C   UNL A   1      43.442  28.087  30.986  1.00  0.00     0.074 A 
ATOM     49  C   UNL A   1      42.988  27.405  29.794  1.00  0.00     0.031 C 
ATOM     50  C   UNL A   1      49.493  26.004  31.613  1.00  0.00     0.029 A 
ATOM     51  C   UNL A   1      48.796  26.980  32.451  1.00  0.00     0.049 A 
ATOM     52  H   UNL A   1      46.813  27.595  32.280  1.00  0.00     0.167 HD
ATOM     53  C   UNL A   1      42.671  28.916  31.729  1.00  0.00     0.031 A 
ATOM     54  C   UNL A   1      49.330  27.645  33.496  1.00  0.00     0.031 A 
ATOM     55  C   UNL A   1      43.133  29.606  32.902  1.00  0.00     0.049 A 
ATOM     56  C   UNL A   1      48.481  28.633  34.255  1.00  0.00     0.074 A 
ATOM     57  C   UNL A   1      42.426  30.459  33.732  1.00  0.00     0.029 A 
ATOM     58  N   UNL A   1      44.422  29.533  33.409  1.00  0.00    -0.354 N 
ATOM     59  N   UNL A   1      47.222  28.954  34.068  1.00  0.00    -0.248 NA
ATOM     60  C   UNL A   1      49.121  29.344  35.371  1.00  0.00     0.031 C 
ATOM     61  C   UNL A   1      43.306  30.955  34.698  1.00  0.00     0.029 A 
ATOM     62  C   UNL A   1      44.540  30.351  34.520  1.00  0.00     0.049 A 
ATOM     63  H   UNL A   1      45.146  28.981  33.035  1.00  0.00     0.167 HD
ATOM     64  C   UNL A   1      46.912  29.876  35.063  1.00  0.00     0.074 A 
ATOM     65  C   UNL A   1      48.111  30.053  35.856  1.00  0.00     0.031 C 
ATOM     66  C   UNL A   1      45.740  30.515  35.303  1.00  0.00     0.031 A 
BRANCH  53  67
ATOM     67  C   UNL A   1      41.257  29.154  31.266  1.00  0.00    -0.014 A 
ATOM     68  C   UNL A   1      40.187  28.374  31.744  1.00  0.00     0.010 A 
ATOM     69  C   UNL A   1      40.990  30.201  30.363  1.00  0.00     0.010 A 
ATOM     70  C   UNL A   1      38.885  28.612  31.298  1.00  0.00     0.020 A 
ATOM     71  C   UNL A   1      39.685  30.462  29.940  1.00  0.00     0.020 A 
ATOM     72  C   UNL A   1      38.642  29.656  30.398  1.00  0.00     0.054 A 
BRANCH  72  73
ATOM     73  S   UNL A   1      36.938  29.956  29.856  1.00  0.00     0.124 S 
ATOM     74  O   UNL A   1      36.923  31.409  29.703  1.00  0.00    -0.237 OA
ATOM     75  O   UNL A   1      36.860  29.193  28.614  1.00  0.00    -0.237 OA
ATOM     76  O   UNL A   1      36.127  29.438  30.955  1.00  0.00    -0.744 OA
ENDBRANCH  72  73
ENDBRANCH  53  67
BRANCH  54  77
ATOM     77  C   UNL A   1      50.755  27.422  33.874  1.00  0.00    -0.014 A 
ATOM     78  C   UNL A   1      51.102  26.450  34.829  1.00  0.00     0.010 A 
ATOM     79  C   UNL A   1      51.775  28.191  33.283  1.00  0.00     0.010 A 
ATOM     80  C   UNL A   1      52.438  26.263  35.199  1.00  0.00     0.020 A 
ATOM     81  C   UNL A   1      53.115  27.984  33.625  1.00  0.00     0.020 A 
ATOM     82  C   UNL A   1      53.437  27.028  34.590  1.00  0.00     0.054 A 
BRANCH  82  83
ATOM     83  S   UNL A   1      55.167  26.731  35.047  1.00  0.00     0.124 S 
ATOM     84  O   UNL A   1      55.295  25.293  34.836  1.00  0.00    -0.237 OA
ATOM     85  O   UNL A   1      55.890  27.577  34.101  1.00  0.00    -0.237 OA
ATOM     86  O   UNL A   1      55.233  27.168  36.440  1.00  0.00    -0.744 OA
ENDBRANCH  82  83
ENDBRANCH  54  77
BRANCH  66  87
ATOM     87  C   UNL A   1      45.669  31.433  36.498  1.00  0.00    -0.014 A 
ATOM     88  C   UNL A   1      45.937  32.809  36.386  1.00  0.00     0.010 A 
ATOM     89  C   UNL A   1      45.251  30.917  37.739  1.00  0.00     0.010 A 
ATOM     90  C   UNL A   1      45.815  33.645  37.499  1.00  0.00     0.020 A 
ATOM     91  C   UNL A   1      45.096  31.756  38.846  1.00  0.00     0.020 A 
ATOM     92  C   UNL A   1      45.390  33.114  38.721  1.00  0.00     0.054 A 
BRANCH  92  93
ATOM     93  S   UNL A   1      45.185  34.232  40.135  1.00  0.00     0.124 S 
ATOM     94  O   UNL A   1      43.960  33.727  40.748  1.00  0.00    -0.237 OA
ATOM     95  O   UNL A   1      46.410  34.008  40.898  1.00  0.00    -0.237 OA
ATOM     96  O   UNL A   1      45.074  35.554  39.520  1.00  0.00    -0.744 OA
ENDBRANCH  92  93
ENDBRANCH  66  87
ENDBRANCH  40  41
ENDBRANCH  33  35
ENDBRANCH  32  33
ENDBRANCH  31  32
ENDBRANCH  30  31
ENDBRANCH  29  30
ENDBRANCH  28  29
ENDBRANCH  27  28
ENDBRANCH  26  27
ENDBRANCH   1  26
TORSDOF 27
ENDMDL
MODEL 3
REMARK VINA RESULT:      -7.3      5.578     13.078
REMARK SMILES N#CCOc1ccccc1[C@H]1[NH2+][C@@H](C(=O)OCCOCCOCCOCCOC(=O)c2ccc(-c3c4nc(c(-c5ccc(S(=O)(=O)[O-])cc5)c5ccc([nH]5)c(-c5ccc(S(=O)(=O)[O-])cc5)c5nc(c(-c6ccc(S(=O)(=O)[O-])cc6)c6ccc3[nH]6)C=C5)C=C4)cc2)CS1
REMARK SMILES IDX 21 1 20 2 19 3 18 4 17 5 16 6 14 7 15 8 13 9 11 10 12 11
REMARK SMILES IDX 92 12 91 15 10 16 5 17 6 18 7 19 9 20 8 21 4 22 3 23 2 24
REMARK SMILES IDX 1 25 22 26 23 27 24 28 25 29 26 30 27 31 28 32 29 33 30 34
REMARK SMILES IDX 31 35 32 36 90 37 33 38 89 39 34 40 35 41 36 42 83 43 37 44
REMARK SMILES IDX 88 45 82 46 84 47 38 48 87 49 81 50 80 51 39 53 69 54 50 55
REMARK SMILES IDX 68 56 51 57 54 58 67 59 85 60 52 61 53 62 66 64 86 65 55 66
REMARK SMILES IDX 40 67 41 68 49 69 42 70 48 71 43 72 44 73 45 74 46 75 47 76
REMARK SMILES IDX 70 77 71 78 79 79 72 80 78 81 73 82 74 83 75 84 76 85 77 86
REMARK SMILES IDX 56 87 57 88 65 89 58 90 64 91 59 92 60 93 61 94 62 95 63 96
REMARK H PARENT 12 13 12 14 84 52 54 63
REMARK Flexibility Score: inf
ROOT
ATOM      1  C   UNL A   1      41.965  38.648  27.696  1.00  0.00     0.188 C 
ENDROOT
BRANCH   1   2
ATOM      2  C   UNL A   1      42.915  37.757  26.878  1.00  0.00     0.188 C 
BRANCH   2   3
ATOM      3  O   UNL A   1      42.561  36.423  26.542  1.00  0.00    -0.376 OA
BRANCH   3   4
ATOM      4  C   UNL A   1      43.013  35.359  27.357  1.00  0.00     0.202 C 
BRANCH   4   5
ATOM      5  C   UNL A   1      43.748  34.178  26.703  1.00  0.00     0.261 C 
BRANCH   5   6
ATOM      6  O   UNL A   1      44.786  34.448  25.748  1.00  0.00    -0.459 OA
BRANCH   6   7
ATOM      7  C   UNL A   1      46.045  33.959  25.979  1.00  0.00     0.365 C 
ATOM      8  O   UNL A   1      46.307  32.774  26.140  1.00  0.00    -0.245 OA
BRANCH   7   9
ATOM      9  C   UNL A   1      47.084  35.113  26.112  1.00  0.00     0.304 C 
ATOM     10  C   UNL A   1      48.642  36.052  27.721  1.00  0.00     0.278 C 
ATOM     11  N   UNL A   1      48.026  34.815  27.232  1.00  0.00    -0.319 N 
ATOM     12  S   UNL A   1      47.720  37.510  27.203  1.00  0.00    -0.087 SA
ATOM     13  H   UNL A   1      47.514  34.369  27.993  1.00  0.00     0.348 HD
ATOM     14  H   UNL A   1      48.758  34.191  26.892  1.00  0.00     0.348 HD
ATOM     15  C   UNL A   1      46.460  36.505  26.264  1.00  0.00     0.153 C 
BRANCH  10  16
ATOM     16  C   UNL A   1      49.495  35.812  29.029  1.00  0.00     0.062 A 
ATOM     17  C   UNL A   1      49.532  36.249  30.420  1.00  0.00     0.131 A 
ATOM     18  C   UNL A   1      50.443  35.608  31.301  1.00  0.00     0.047 A 
ATOM     19  C   UNL A   1      51.253  34.540  30.928  1.00  0.00     0.004 A 
ATOM     20  C   UNL A   1      50.374  34.710  28.724  1.00  0.00     0.015 A 
ATOM     21  C   UNL A   1      51.217  34.086  29.632  1.00  0.00     0.001 A 
BRANCH  17  22
ATOM     22  O   UNL A   1      48.987  37.297  31.193  1.00  0.00    -0.478 OA
BRANCH  22  23
ATOM     23  C   UNL A   1      49.586  37.744  32.465  1.00  0.00     0.349 C 
BRANCH  23  24
ATOM     24  C   UNL A   1      48.593  38.879  32.656  1.00  0.00     0.104 C 
ATOM     25  N   UNL A   1      47.770  39.821  32.817  1.00  0.00    -0.195 NA
ENDBRANCH  23  24
ENDBRANCH  22  23
ENDBRANCH  17  22
ENDBRANCH  10  16
ENDBRANCH   7   9
ENDBRANCH   6   7
ENDBRANCH   5   6
ENDBRANCH   4   5
ENDBRANCH   3   4
ENDBRANCH   2   3
ENDBRANCH   1   2
BRANCH   1  26
ATOM     26  O   UNL A   1      42.405  39.952  28.032  1.00  0.00    -0.377 OA
BRANCH  26  27
ATOM     27  C   UNL A   1      41.779  40.577  29.140  1.00  0.00     0.188 C 
BRANCH  27  28
ATOM     28  C   UNL A   1      42.672  40.779  30.369  1.00  0.00     0.188 C 
BRANCH  28  29
ATOM     29  O   UNL A   1      41.897  40.966  31.549  1.00  0.00    -0.376 OA
BRANCH  29  30
ATOM     30  C   UNL A   1      42.414  41.777  32.589  1.00  0.00     0.202 C 
BRANCH  30  31
ATOM     31  C   UNL A   1      43.134  41.067  33.745  1.00  0.00     0.261 C 
BRANCH  31  32
ATOM     32  O   UNL A   1      44.198  40.170  33.394  1.00  0.00    -0.460 OA
BRANCH  32  33
ATOM     33  C   UNL A   1      44.526  39.214  34.297  1.00  0.00     0.338 C 
ATOM     34  O   UNL A   1      44.561  39.332  35.501  1.00  0.00    -0.246 OA
BRANCH  33  35
ATOM     35  C   UNL A   1      44.649  37.936  33.558  1.00  0.00     0.060 A 
ATOM     36  C   UNL A   1      44.582  37.951  32.159  1.00  0.00     0.016 A 
ATOM     37  C   UNL A   1      44.835  36.733  34.244  1.00  0.00     0.016 A 
ATOM     38  C   UNL A   1      44.674  36.757  31.441  1.00  0.00     0.010 A 
ATOM     39  C   UNL A   1      44.903  35.536  33.525  1.00  0.00     0.010 A 
ATOM     40  C   UNL A   1      44.793  35.539  32.123  1.00  0.00    -0.014 A 
BRANCH  40  41
ATOM     41  C   UNL A   1      44.608  34.258  31.398  1.00  0.00     0.031 A 
ATOM     42  C   UNL A   1      43.205  33.810  31.087  1.00  0.00     0.074 A 
ATOM     43  C   UNL A   1      45.658  33.505  31.021  1.00  0.00     0.049 A 
ATOM     44  N   UNL A   1      42.791  32.700  30.539  1.00  0.00    -0.248 NA
ATOM     45  C   UNL A   1      42.125  34.744  31.449  1.00  0.00     0.031 C 
ATOM     46  C   UNL A   1      47.065  33.853  31.213  1.00  0.00     0.029 A 
ATOM     47  N   UNL A   1      45.695  32.279  30.404  1.00  0.00    -0.354 N 
ATOM     48  C   UNL A   1      41.404  32.792  30.503  1.00  0.00     0.074 A 
ATOM     49  C   UNL A   1      41.047  34.055  31.110  1.00  0.00     0.031 C 
ATOM     50  C   UNL A   1      47.829  32.856  30.734  1.00  0.00     0.029 A 
ATOM     51  C   UNL A   1      46.967  31.782  30.241  1.00  0.00     0.049 A 
ATOM     52  H   UNL A   1      44.888  31.801  30.106  1.00  0.00     0.167 HD
ATOM     53  C   UNL A   1      40.508  31.906  30.007  1.00  0.00     0.031 A 
ATOM     54  C   UNL A   1      47.385  30.587  29.775  1.00  0.00     0.031 A 
ATOM     55  C   UNL A   1      40.867  30.643  29.421  1.00  0.00     0.049 A 
ATOM     56  C   UNL A   1      46.365  29.577  29.312  1.00  0.00     0.074 A 
ATOM     57  C   UNL A   1      40.035  29.680  28.880  1.00  0.00     0.029 A 
ATOM     58  N   UNL A   1      42.163  30.161  29.309  1.00  0.00    -0.354 N 
ATOM     59  N   UNL A   1      45.058  29.686  29.264  1.00  0.00    -0.248 NA
ATOM     60  C   UNL A   1      46.877  28.284  28.834  1.00  0.00     0.031 C 
ATOM     61  C   UNL A   1      40.822  28.586  28.503  1.00  0.00     0.029 A 
ATOM     62  C   UNL A   1      42.151  28.900  28.737  1.00  0.00     0.049 A 
ATOM     63  H   UNL A   1      42.972  30.645  29.593  1.00  0.00     0.167 HD
ATOM     64  C   UNL A   1      44.596  28.492  28.718  1.00  0.00     0.074 A 
ATOM     65  C   UNL A   1      45.763  27.680  28.443  1.00  0.00     0.031 C 
ATOM     66  C   UNL A   1      43.322  28.104  28.464  1.00  0.00     0.031 A 
BRANCH  53  67
ATOM     67  C   UNL A   1      39.046  32.256  30.118  1.00  0.00    -0.014 A 
ATOM     68  C   UNL A   1      38.479  33.290  29.351  1.00  0.00     0.010 A 
ATOM     69  C   UNL A   1      38.220  31.512  30.981  1.00  0.00     0.010 A 
ATOM     70  C   UNL A   1      37.122  33.597  29.473  1.00  0.00     0.020 A 
ATOM     71  C   UNL A   1      36.856  31.795  31.082  1.00  0.00     0.020 A 
ATOM     72  C   UNL A   1      36.318  32.848  30.339  1.00  0.00     0.054 A 
BRANCH  72  73
ATOM     73  S   UNL A   1      34.556  33.255  30.459  1.00  0.00     0.124 S 
ATOM     74  O   UNL A   1      33.962  32.298  29.527  1.00  0.00    -0.237 OA
ATOM     75  O   UNL A   1      34.269  33.018  31.870  1.00  0.00    -0.237 OA
ATOM     76  O   UNL A   1      34.492  34.652  30.038  1.00  0.00    -0.744 OA
ENDBRANCH  72  73
ENDBRANCH  53  67
BRANCH  54  77
ATOM     77  C   UNL A   1      48.840  30.264  29.746  1.00  0.00    -0.014 A 
ATOM     78  C   UNL A   1      49.659  30.730  28.702  1.00  0.00     0.010 A 
ATOM     79  C   UNL A   1      49.413  29.479  30.763  1.00  0.00     0.010 A 
ATOM     80  C   UNL A   1      51.019  30.401  28.666  1.00  0.00     0.020 A 
ATOM     81  C   UNL A   1      50.778  29.176  30.749  1.00  0.00     0.020 A 
ATOM     82  C   UNL A   1      51.571  29.631  29.694  1.00  0.00     0.054 A 
BRANCH  82  83
ATOM     83  S   UNL A   1      53.346  29.262  29.654  1.00  0.00     0.124 S 
ATOM     84  O   UNL A   1      53.846  30.052  30.775  1.00  0.00    -0.237 OA
ATOM     85  O   UNL A   1      53.369  27.814  29.839  1.00  0.00    -0.237 OA
ATOM     86  O   UNL A   1      53.761  29.721  28.331  1.00  0.00    -0.744 OA
ENDBRANCH  82  83
ENDBRANCH  54  77
BRANCH  66  87
ATOM     87  C   UNL A   1      43.111  26.761  27.811  1.00  0.00    -0.014 A 
ATOM     88  C   UNL A   1      43.257  26.586  26.423  1.00  0.00     0.010 A 
ATOM     89  C   UNL A   1      42.837  25.639  28.616  1.00  0.00     0.010 A 
ATOM     90  C   UNL A   1      43.106  25.319  25.851  1.00  0.00     0.020 A 
ATOM     91  C   UNL A   1      42.718  24.366  28.052  1.00  0.00     0.020 A 
ATOM     92  C   UNL A   1      42.842  24.217  26.670  1.00  0.00     0.054 A 
BRANCH  92  93
ATOM     93  S   UNL A   1      42.707  22.576  25.908  1.00  0.00     0.124 S 
ATOM     94  O   UNL A   1      41.294  22.267  26.097  1.00  0.00    -0.237 OA
ATOM     95  O   UNL A   1      43.117  22.831  24.528  1.00  0.00    -0.237 OA
ATOM     96  O   UNL A   1      43.634  21.755  26.684  1.00  0.00    -0.744 OA
ENDBRANCH  92  93
ENDBRANCH  66  87
ENDBRANCH  40  41
ENDBRANCH  33  35
ENDBRANCH  32  33
ENDBRANCH  31  32
ENDBRANCH  30  31
ENDBRANCH  29  30
ENDBRANCH  28  29
ENDBRANCH  27  28
ENDBRANCH  26  27
ENDBRANCH   1  26
TORSDOF 27
ENDMDL
