MODEL 1
REMARK VINA RESULT:      -8.5      0.000      0.000
REMARK SMILES O=C(OCCOCCOCCOCCOC(=O)[C@@H]1[C@H](C(=O)Nc2ccccc2OC(F)F)[C@@H]2C=C[C@H]1C2)c1ccc(-c2c3nc(c(-c4ccc(S(=O)(=O)[O-])cc4)c4ccc([nH]4)c(-c4ccc(S(=O)(=O)[O-])cc4)c4nc(c(-c5ccc(S(=O)(=O)[O-])cc5)c5ccc2[nH]5)C=C4)C=C3)cc1
REMARK SMILES IDX 10 1 9 2 8 3 7 4 6 5 5 6 4 7 3 8 2 9 1 10 38 11 39 12 97 13
REMARK SMILES IDX 40 14 96 15 41 16 42 17 43 18 90 19 44 20 95 21 89 22 91 23
REMARK SMILES IDX 45 24 94 25 88 26 87 27 46 29 76 30 57 31 75 32 58 33 61 34
REMARK SMILES IDX 74 35 92 36 59 37 60 38 73 40 93 41 62 42 47 43 48 44 56 45
REMARK SMILES IDX 49 46 55 47 50 48 51 49 52 50 53 51 54 52 77 53 78 54 86 55
REMARK SMILES IDX 79 56 85 57 80 58 81 59 82 60 83 61 84 62 63 63 64 64 72 65
REMARK SMILES IDX 65 66 71 67 66 68 67 69 68 70 69 71 70 72 11 73 12 74 13 75
REMARK SMILES IDX 14 76 15 77 16 78 17 79 18 80 19 81 36 82 33 83 35 84 37 85
REMARK SMILES IDX 34 86 20 87 21 88 22 89 23 91 24 92 28 93 25 94 27 95 26 96
REMARK SMILES IDX 29 97 30 98 31 99 32 100
REMARK H PARENT 91 28 61 39 22 90
REMARK Flexibility Score: inf
ROOT
ATOM      1  C   UNL A   1      40.502  22.010  27.095  1.00  0.00     0.188 C 
ENDROOT
BRANCH   1   2
ATOM      2  O   UNL A   1      41.638  21.307  26.615  1.00  0.00    -0.377 OA
BRANCH   2   3
ATOM      3  C   UNL A   1      42.510  21.987  25.719  1.00  0.00     0.188 C 
BRANCH   3   4
ATOM      4  C   UNL A   1      42.720  23.429  26.185  1.00  0.00     0.188 C 
BRANCH   4   5
ATOM      5  O   UNL A   1      43.550  24.001  25.190  1.00  0.00    -0.376 OA
BRANCH   5   6
ATOM      6  C   UNL A   1      44.619  23.317  24.595  1.00  0.00     0.202 C 
BRANCH   6   7
ATOM      7  C   UNL A   1      46.029  23.656  25.020  1.00  0.00     0.261 C 
BRANCH   7   8
ATOM      8  O   UNL A   1      46.786  24.712  24.356  1.00  0.00    -0.460 OA
BRANCH   8   9
ATOM      9  C   UNL A   1      47.613  25.741  24.640  1.00  0.00     0.338 C 
ATOM     10  O   UNL A   1      48.779  25.690  24.261  1.00  0.00    -0.246 OA
BRANCH   9  11
ATOM     11  C   UNL A   1      47.203  26.937  25.408  1.00  0.00     0.060 A 
ATOM     12  C   UNL A   1      46.228  27.797  24.953  1.00  0.00     0.016 A 
ATOM     13  C   UNL A   1      47.645  27.125  26.717  1.00  0.00     0.016 A 
ATOM     14  C   UNL A   1      45.920  28.982  25.572  1.00  0.00     0.010 A 
ATOM     15  C   UNL A   1      47.202  28.234  27.456  1.00  0.00     0.010 A 
ATOM     16  C   UNL A   1      46.392  29.211  26.849  1.00  0.00    -0.014 A 
BRANCH  16  17
ATOM     17  C   UNL A   1      46.145  30.550  27.414  1.00  0.00     0.031 A 
ATOM     18  C   UNL A   1      44.930  30.711  28.279  1.00  0.00     0.074 A 
ATOM     19  C   UNL A   1      47.089  31.511  27.337  1.00  0.00     0.049 A 
ATOM     20  N   UNL A   1      44.430  31.792  28.804  1.00  0.00    -0.248 NA
ATOM     21  C   UNL A   1      44.179  29.482  28.602  1.00  0.00     0.031 C 
ATOM     22  C   UNL A   1      48.400  31.373  26.685  1.00  0.00     0.029 A 
ATOM     23  N   UNL A   1      47.127  32.775  27.864  1.00  0.00    -0.354 N 
ATOM     24  C   UNL A   1      43.278  31.383  29.464  1.00  0.00     0.074 A 
ATOM     25  C   UNL A   1      43.145  29.960  29.273  1.00  0.00     0.031 C 
ATOM     26  C   UNL A   1      49.127  32.480  26.903  1.00  0.00     0.029 A 
ATOM     27  C   UNL A   1      48.294  33.453  27.590  1.00  0.00     0.049 A 
ATOM     28  H   UNL A   1      46.390  33.161  28.388  1.00  0.00     0.167 HD
ATOM     29  C   UNL A   1      42.409  32.144  30.162  1.00  0.00     0.031 A 
ATOM     30  C   UNL A   1      48.620  34.739  27.816  1.00  0.00     0.031 A 
ATOM     31  C   UNL A   1      42.594  33.556  30.339  1.00  0.00     0.049 A 
ATOM     32  C   UNL A   1      47.576  35.597  28.478  1.00  0.00     0.074 A 
ATOM     33  C   UNL A   1      41.744  34.477  30.916  1.00  0.00     0.029 A 
ATOM     34  N   UNL A   1      43.735  34.243  29.945  1.00  0.00    -0.354 N 
ATOM     35  N   UNL A   1      46.408  35.241  28.964  1.00  0.00    -0.248 NA
ATOM     36  C   UNL A   1      47.874  37.027  28.601  1.00  0.00     0.031 C 
ATOM     37  C   UNL A   1      42.354  35.734  30.828  1.00  0.00     0.029 A 
ATOM     38  C   UNL A   1      43.610  35.582  30.256  1.00  0.00     0.049 A 
ATOM     39  H   UNL A   1      44.518  33.836  29.510  1.00  0.00     0.167 HD
ATOM     40  C   UNL A   1      45.833  36.403  29.457  1.00  0.00     0.074 A 
ATOM     41  C   UNL A   1      46.801  37.463  29.245  1.00  0.00     0.031 C 
ATOM     42  C   UNL A   1      44.612  36.591  30.020  1.00  0.00     0.031 A 
BRANCH  29  43
ATOM     43  C   UNL A   1      41.170  31.471  30.680  1.00  0.00    -0.014 A 
ATOM     44  C   UNL A   1      41.094  30.973  31.993  1.00  0.00     0.010 A 
ATOM     45  C   UNL A   1      40.074  31.299  29.817  1.00  0.00     0.010 A 
ATOM     46  C   UNL A   1      39.951  30.291  32.424  1.00  0.00     0.020 A 
ATOM     47  C   UNL A   1      38.920  30.641  30.251  1.00  0.00     0.020 A 
ATOM     48  C   UNL A   1      38.871  30.131  31.549  1.00  0.00     0.054 A 
BRANCH  48  49
ATOM     49  S   UNL A   1      37.389  29.269  32.141  1.00  0.00     0.124 S 
ATOM     50  O   UNL A   1      36.757  30.289  32.971  1.00  0.00    -0.237 OA
ATOM     51  O   UNL A   1      36.688  28.953  30.894  1.00  0.00    -0.237 OA
ATOM     52  O   UNL A   1      37.920  28.118  32.862  1.00  0.00    -0.744 OA
ENDBRANCH  48  49
ENDBRANCH  29  43
BRANCH  30  53
ATOM     53  C   UNL A   1      49.902  35.311  27.304  1.00  0.00    -0.014 A 
ATOM     54  C   UNL A   1      51.067  35.340  28.091  1.00  0.00     0.010 A 
ATOM     55  C   UNL A   1      49.951  35.878  26.014  1.00  0.00     0.010 A 
ATOM     56  C   UNL A   1      52.234  35.954  27.615  1.00  0.00     0.020 A 
ATOM     57  C   UNL A   1      51.122  36.456  25.520  1.00  0.00     0.020 A 
ATOM     58  C   UNL A   1      52.252  36.512  26.334  1.00  0.00     0.054 A 
BRANCH  58  59
ATOM     59  S   UNL A   1      53.770  37.305  25.734  1.00  0.00     0.124 S 
ATOM     60  O   UNL A   1      54.278  37.943  26.944  1.00  0.00    -0.237 OA
ATOM     61  O   UNL A   1      54.547  36.169  25.242  1.00  0.00    -0.237 OA
ATOM     62  O   UNL A   1      53.293  38.217  24.697  1.00  0.00    -0.744 OA
ENDBRANCH  58  59
ENDBRANCH  30  53
BRANCH  42  63
ATOM     63  C   UNL A   1      44.294  37.986  30.471  1.00  0.00    -0.014 A 
ATOM     64  C   UNL A   1      44.628  38.425  31.764  1.00  0.00     0.010 A 
ATOM     65  C   UNL A   1      43.688  38.877  29.568  1.00  0.00     0.010 A 
ATOM     66  C   UNL A   1      44.318  39.725  32.161  1.00  0.00     0.020 A 
ATOM     67  C   UNL A   1      43.409  40.187  29.951  1.00  0.00     0.020 A 
ATOM     68  C   UNL A   1      43.709  40.596  31.251  1.00  0.00     0.054 A 
BRANCH  68  69
ATOM     69  S   UNL A   1      43.342  42.288  31.783  1.00  0.00     0.124 S 
ATOM     70  O   UNL A   1      44.207  42.432  32.950  1.00  0.00    -0.237 OA
ATOM     71  O   UNL A   1      43.721  43.080  30.616  1.00  0.00    -0.237 OA
ATOM     72  O   UNL A   1      41.909  42.257  32.070  1.00  0.00    -0.744 OA
ENDBRANCH  68  69
ENDBRANCH  42  63
ENDBRANCH  16  17
ENDBRANCH   9  11
ENDBRANCH   8   9
ENDBRANCH   7   8
ENDBRANCH   6   7
ENDBRANCH   5   6
ENDBRANCH   4   5
ENDBRANCH   3   4
ENDBRANCH   2   3
ENDBRANCH   1   2
BRANCH   1  73
ATOM     73  C   UNL A   1      39.358  22.216  26.108  1.00  0.00     0.188 C 
BRANCH  73  74
ATOM     74  O   UNL A   1      38.742  21.048  25.606  1.00  0.00    -0.376 OA
BRANCH  74  75
ATOM     75  C   UNL A   1      37.389  21.126  25.156  1.00  0.00     0.202 C 
BRANCH  75  76
ATOM     76  C   UNL A   1      36.323  21.956  25.917  1.00  0.00     0.261 C 
BRANCH  76  77
ATOM     77  O   UNL A   1      35.023  21.308  26.098  1.00  0.00    -0.463 OA
BRANCH  77  78
ATOM     78  C   UNL A   1      33.940  22.062  26.404  1.00  0.00     0.310 C 
ATOM     79  O   UNL A   1      33.466  22.038  27.542  1.00  0.00    -0.252 OA
BRANCH  78  80
ATOM     80  C   UNL A   1      33.355  23.058  25.337  1.00  0.00     0.119 C 
ATOM     81  C   UNL A   1      32.447  24.371  25.342  1.00  0.00     0.100 C 
ATOM     82  C   UNL A   1      33.397  22.676  23.813  1.00  0.00     0.027 C 
ATOM     83  C   UNL A   1      32.255  24.623  23.802  1.00  0.00     0.025 C 
ATOM     84  C   UNL A   1      32.031  22.416  23.221  1.00  0.00    -0.027 C 
ATOM     85  C   UNL A   1      33.568  24.088  23.201  1.00  0.00     0.017 C 
ATOM     86  C   UNL A   1      31.356  23.576  23.207  1.00  0.00    -0.027 C 
BRANCH  81  87
ATOM     87  C   UNL A   1      31.270  25.020  26.153  1.00  0.00     0.229 C 
ATOM     88  O   UNL A   1      30.973  24.468  27.233  1.00  0.00    -0.274 OA
ATOM     89  N   UNL A   1      30.644  26.225  25.990  1.00  0.00    -0.323 N 
ATOM     90  H   UNL A   1      30.131  26.519  26.777  1.00  0.00     0.170 HD
BRANCH  89  91
ATOM     91  C   UNL A   1      30.595  27.117  24.920  1.00  0.00     0.084 A 
ATOM     92  C   UNL A   1      29.693  26.968  23.862  1.00  0.00     0.030 A 
ATOM     93  C   UNL A   1      31.437  28.184  24.885  1.00  0.00     0.149 A 
ATOM     94  C   UNL A   1      29.425  28.052  23.012  1.00  0.00     0.002 A 
ATOM     95  C   UNL A   1      30.998  29.320  24.237  1.00  0.00     0.049 A 
ATOM     96  C   UNL A   1      29.996  29.281  23.287  1.00  0.00     0.004 A 
BRANCH  93  97
ATOM     97  O   UNL A   1      32.644  28.203  25.481  1.00  0.00    -0.433 OA
BRANCH  97  98
ATOM     98  C   UNL A   1      32.786  28.926  26.714  1.00  0.00     0.542 C 
ATOM     99  F   UNL A   1      33.475  28.145  27.584  1.00  0.00    -0.167 F 
ATOM    100  F   UNL A   1      33.464  30.090  26.575  1.00  0.00    -0.167 F 
ENDBRANCH  97  98
ENDBRANCH  93  97
ENDBRANCH  89  91
ENDBRANCH  81  87
ENDBRANCH  78  80
ENDBRANCH  77  78
ENDBRANCH  76  77
ENDBRANCH  75  76
ENDBRANCH  74  75
ENDBRANCH  73  74
ENDBRANCH   1  73
TORSDOF 27
ENDMDL
MODEL 2
REMARK VINA RESULT:      -8.2      5.857     10.873
REMARK SMILES O=C(OCCOCCOCCOCCOC(=O)[C@@H]1[C@H](C(=O)Nc2ccccc2OC(F)F)[C@@H]2C=C[C@H]1C2)c1ccc(-c2c3nc(c(-c4ccc(S(=O)(=O)[O-])cc4)c4ccc([nH]4)c(-c4ccc(S(=O)(=O)[O-])cc4)c4nc(c(-c5ccc(S(=O)(=O)[O-])cc5)c5ccc2[nH]5)C=C4)C=C3)cc1
REMARK SMILES IDX 10 1 9 2 8 3 7 4 6 5 5 6 4 7 3 8 2 9 1 10 38 11 39 12 97 13
REMARK SMILES IDX 40 14 96 15 41 16 42 17 43 18 90 19 44 20 95 21 89 22 91 23
REMARK SMILES IDX 45 24 94 25 88 26 87 27 46 29 76 30 57 31 75 32 58 33 61 34
REMARK SMILES IDX 74 35 92 36 59 37 60 38 73 40 93 41 62 42 47 43 48 44 56 45
REMARK SMILES IDX 49 46 55 47 50 48 51 49 52 50 53 51 54 52 77 53 78 54 86 55
REMARK SMILES IDX 79 56 85 57 80 58 81 59 82 60 83 61 84 62 63 63 64 64 72 65
REMARK SMILES IDX 65 66 71 67 66 68 67 69 68 70 69 71 70 72 11 73 12 74 13 75
REMARK SMILES IDX 14 76 15 77 16 78 17 79 18 80 19 81 36 82 33 83 35 84 37 85
REMARK SMILES IDX 34 86 20 87 21 88 22 89 23 91 24 92 28 93 25 94 27 95 26 96
REMARK SMILES IDX 29 97 30 98 31 99 32 100
REMARK H PARENT 91 28 61 39 22 90
REMARK Flexibility Score: inf
ROOT
ATOM      1  C   UNL A   1      42.135  19.695  25.893  1.00  0.00     0.188 C 
ENDROOT
BRANCH   1   2
ATOM      2  O   UNL A   1      41.816  20.811  26.710  1.00  0.00    -0.377 OA
BRANCH   2   3
ATOM      3  C   UNL A   1      41.236  21.949  26.083  1.00  0.00     0.188 C 
BRANCH   3   4
ATOM      4  C   UNL A   1      41.901  23.227  26.597  1.00  0.00     0.188 C 
BRANCH   4   5
ATOM      5  O   UNL A   1      42.338  22.892  27.902  1.00  0.00    -0.376 OA
BRANCH   5   6
ATOM      6  C   UNL A   1      43.674  22.994  28.315  1.00  0.00     0.202 C 
BRANCH   6   7
ATOM      7  C   UNL A   1      44.211  24.348  28.720  1.00  0.00     0.261 C 
BRANCH   7   8
ATOM      8  O   UNL A   1      45.015  24.512  29.926  1.00  0.00    -0.460 OA
BRANCH   8   9
ATOM      9  C   UNL A   1      44.892  24.870  31.223  1.00  0.00     0.338 C 
ATOM     10  O   UNL A   1      44.887  23.995  32.083  1.00  0.00    -0.246 OA
BRANCH   9  11
ATOM     11  C   UNL A   1      44.739  26.269  31.677  1.00  0.00     0.060 A 
ATOM     12  C   UNL A   1      43.533  26.931  31.607  1.00  0.00     0.016 A 
ATOM     13  C   UNL A   1      45.763  26.902  32.381  1.00  0.00     0.016 A 
ATOM     14  C   UNL A   1      43.388  28.265  31.893  1.00  0.00     0.010 A 
ATOM     15  C   UNL A   1      45.583  28.211  32.858  1.00  0.00     0.010 A 
ATOM     16  C   UNL A   1      44.412  28.923  32.544  1.00  0.00    -0.014 A 
BRANCH  16  17
ATOM     17  C   UNL A   1      44.261  30.381  32.707  1.00  0.00     0.031 A 
ATOM     18  C   UNL A   1      45.003  31.255  31.741  1.00  0.00     0.074 A 
ATOM     19  C   UNL A   1      43.324  30.884  33.538  1.00  0.00     0.049 A 
ATOM     20  N   UNL A   1      45.128  32.550  31.729  1.00  0.00    -0.248 NA
ATOM     21  C   UNL A   1      45.697  30.574  30.629  1.00  0.00     0.031 C 
ATOM     22  C   UNL A   1      42.405  30.094  34.372  1.00  0.00     0.029 A 
ATOM     23  N   UNL A   1      42.938  32.177  33.775  1.00  0.00    -0.354 N 
ATOM     24  C   UNL A   1      45.960  32.832  30.653  1.00  0.00     0.074 A 
ATOM     25  C   UNL A   1      46.317  31.580  30.035  1.00  0.00     0.031 C 
ATOM     26  C   UNL A   1      41.533  30.914  34.976  1.00  0.00     0.029 A 
ATOM     27  C   UNL A   1      41.908  32.288  34.683  1.00  0.00     0.049 A 
ATOM     28  H   UNL A   1      43.356  32.952  33.337  1.00  0.00     0.167 HD
ATOM     29  C   UNL A   1      46.388  34.041  30.231  1.00  0.00     0.031 A 
ATOM     30  C   UNL A   1      41.376  33.383  35.258  1.00  0.00     0.031 A 
ATOM     31  C   UNL A   1      45.990  35.263  30.869  1.00  0.00     0.049 A 
ATOM     32  C   UNL A   1      41.966  34.710  34.864  1.00  0.00     0.074 A 
ATOM     33  C   UNL A   1      46.430  36.549  30.633  1.00  0.00     0.029 A 
ATOM     34  N   UNL A   1      45.031  35.337  31.871  1.00  0.00    -0.354 N 
ATOM     35  N   UNL A   1      42.877  34.965  33.950  1.00  0.00    -0.248 NA
ATOM     36  C   UNL A   1      41.486  35.890  35.588  1.00  0.00     0.031 C 
ATOM     37  C   UNL A   1      45.768  37.397  31.528  1.00  0.00     0.029 A 
ATOM     38  C   UNL A   1      44.870  36.647  32.274  1.00  0.00     0.049 A 
ATOM     39  H   UNL A   1      44.537  34.569  32.239  1.00  0.00     0.167 HD
ATOM     40  C   UNL A   1      43.073  36.338  33.985  1.00  0.00     0.074 A 
ATOM     41  C   UNL A   1      42.157  36.859  34.983  1.00  0.00     0.031 C 
ATOM     42  C   UNL A   1      43.939  37.105  33.275  1.00  0.00     0.031 A 
BRANCH  29  43
ATOM     43  C   UNL A   1      47.384  34.062  29.107  1.00  0.00    -0.014 A 
ATOM     44  C   UNL A   1      46.981  34.144  27.762  1.00  0.00     0.010 A 
ATOM     45  C   UNL A   1      48.754  33.957  29.407  1.00  0.00     0.010 A 
ATOM     46  C   UNL A   1      47.930  34.092  26.736  1.00  0.00     0.020 A 
ATOM     47  C   UNL A   1      49.707  33.931  28.386  1.00  0.00     0.020 A 
ATOM     48  C   UNL A   1      49.288  33.988  27.056  1.00  0.00     0.054 A 
BRANCH  48  49
ATOM     49  S   UNL A   1      50.501  33.953  25.708  1.00  0.00     0.124 S 
ATOM     50  O   UNL A   1      49.891  34.846  24.728  1.00  0.00    -0.237 OA
ATOM     51  O   UNL A   1      51.709  34.469  26.358  1.00  0.00    -0.237 OA
ATOM     52  O   UNL A   1      50.556  32.548  25.325  1.00  0.00    -0.744 OA
ENDBRANCH  48  49
ENDBRANCH  29  43
BRANCH  30  53
ATOM     53  C   UNL A   1      40.349  33.265  36.337  1.00  0.00    -0.014 A 
ATOM     54  C   UNL A   1      40.704  33.250  37.698  1.00  0.00     0.010 A 
ATOM     55  C   UNL A   1      38.988  33.122  35.996  1.00  0.00     0.010 A 
ATOM     56  C   UNL A   1      39.728  33.058  38.686  1.00  0.00     0.020 A 
ATOM     57  C   UNL A   1      38.008  32.970  36.979  1.00  0.00     0.020 A 
ATOM     58  C   UNL A   1      38.387  32.915  38.320  1.00  0.00     0.054 A 
BRANCH  58  59
ATOM     59  S   UNL A   1      37.137  32.665  39.612  1.00  0.00     0.124 S 
ATOM     60  O   UNL A   1      37.461  31.326  40.092  1.00  0.00    -0.237 OA
ATOM     61  O   UNL A   1      37.419  33.757  40.540  1.00  0.00    -0.237 OA
ATOM     62  O   UNL A   1      35.872  32.783  38.891  1.00  0.00    -0.744 OA
ENDBRANCH  58  59
ENDBRANCH  30  53
BRANCH  42  63
ATOM     63  C   UNL A   1      43.892  38.581  33.538  1.00  0.00    -0.014 A 
ATOM     64  C   UNL A   1      44.548  39.142  34.647  1.00  0.00     0.010 A 
ATOM     65  C   UNL A   1      43.214  39.417  32.634  1.00  0.00     0.010 A 
ATOM     66  C   UNL A   1      44.486  40.516  34.873  1.00  0.00     0.020 A 
ATOM     67  C   UNL A   1      43.181  40.795  32.837  1.00  0.00     0.020 A 
ATOM     68  C   UNL A   1      43.801  41.333  33.966  1.00  0.00     0.054 A 
BRANCH  68  69
ATOM     69  S   UNL A   1      43.760  43.118  34.267  1.00  0.00     0.124 S 
ATOM     70  O   UNL A   1      43.839  43.180  35.724  1.00  0.00    -0.237 OA
ATOM     71  O   UNL A   1      44.941  43.591  33.550  1.00  0.00    -0.237 OA
ATOM     72  O   UNL A   1      42.481  43.535  33.695  1.00  0.00    -0.744 OA
ENDBRANCH  68  69
ENDBRANCH  42  63
ENDBRANCH  16  17
ENDBRANCH   9  11
ENDBRANCH   8   9
ENDBRANCH   7   8
ENDBRANCH   6   7
ENDBRANCH   5   6
ENDBRANCH   4   5
ENDBRANCH   3   4
ENDBRANCH   2   3
ENDBRANCH   1   2
BRANCH   1  73
ATOM     73  C   UNL A   1      43.612  19.472  25.586  1.00  0.00     0.188 C 
BRANCH  73  74
ATOM     74  O   UNL A   1      44.061  19.893  24.314  1.00  0.00    -0.376 OA
BRANCH  74  75
ATOM     75  C   UNL A   1      45.023  20.947  24.241  1.00  0.00     0.202 C 
BRANCH  75  76
ATOM     76  C   UNL A   1      45.325  21.861  25.457  1.00  0.00     0.261 C 
BRANCH  76  77
ATOM     77  O   UNL A   1      45.236  23.299  25.208  1.00  0.00    -0.463 OA
BRANCH  77  78
ATOM     78  C   UNL A   1      46.368  24.007  24.980  1.00  0.00     0.310 C 
ATOM     79  O   UNL A   1      46.964  23.900  23.906  1.00  0.00    -0.252 OA
BRANCH  78  80
ATOM     80  C   UNL A   1      46.861  25.055  26.043  1.00  0.00     0.119 C 
ATOM     81  C   UNL A   1      46.579  26.588  26.389  1.00  0.00     0.100 C 
ATOM     82  C   UNL A   1      48.121  24.732  26.925  1.00  0.00     0.027 C 
ATOM     83  C   UNL A   1      47.620  26.845  27.538  1.00  0.00     0.025 C 
ATOM     84  C   UNL A   1      49.313  25.607  26.613  1.00  0.00    -0.027 C 
ATOM     85  C   UNL A   1      47.720  25.471  28.225  1.00  0.00     0.017 C 
ATOM     86  C   UNL A   1      49.018  26.861  26.987  1.00  0.00    -0.027 C 
BRANCH  81  87
ATOM     87  C   UNL A   1      46.207  27.936  25.675  1.00  0.00     0.229 C 
ATOM     88  O   UNL A   1      47.048  28.385  24.868  1.00  0.00    -0.274 OA
ATOM     89  N   UNL A   1      45.016  28.606  25.618  1.00  0.00    -0.323 N 
ATOM     90  H   UNL A   1      44.967  29.273  24.896  1.00  0.00     0.170 HD
BRANCH  89  91
ATOM     91  C   UNL A   1      43.858  28.523  26.389  1.00  0.00     0.084 A 
ATOM     92  C   UNL A   1      43.255  27.301  26.704  1.00  0.00     0.030 A 
ATOM     93  C   UNL A   1      43.279  29.655  26.873  1.00  0.00     0.149 A 
ATOM     94  C   UNL A   1      42.329  27.228  27.757  1.00  0.00     0.002 A 
ATOM     95  C   UNL A   1      42.585  29.557  28.060  1.00  0.00     0.049 A 
ATOM     96  C   UNL A   1      42.090  28.354  28.523  1.00  0.00     0.004 A 
BRANCH  93  97
ATOM     97  O   UNL A   1      43.386  30.859  26.281  1.00  0.00    -0.433 OA
BRANCH  97  98
ATOM     98  C   UNL A   1      44.293  31.819  26.844  1.00  0.00     0.542 C 
ATOM     99  F   UNL A   1      44.636  32.698  25.868  1.00  0.00    -0.167 F 
ATOM    100  F   UNL A   1      43.756  32.525  27.867  1.00  0.00    -0.167 F 
ENDBRANCH  97  98
ENDBRANCH  93  97
ENDBRANCH  89  91
ENDBRANCH  81  87
ENDBRANCH  78  80
ENDBRANCH  77  78
ENDBRANCH  76  77
ENDBRANCH  75  76
ENDBRANCH  74  75
ENDBRANCH  73  74
ENDBRANCH   1  73
TORSDOF 27
ENDMDL
MODEL 3
REMARK VINA RESULT:      -7.7      7.996     11.922
REMARK SMILES O=C(OCCOCCOCCOCCOC(=O)[C@@H]1[C@H](C(=O)Nc2ccccc2OC(F)F)[C@@H]2C=C[C@H]1C2)c1ccc(-c2c3nc(c(-c4ccc(S(=O)(=O)[O-])cc4)c4ccc([nH]4)c(-c4ccc(S(=O)(=O)[O-])cc4)c4nc(c(-c5ccc(S(=O)(=O)[O-])cc5)c5ccc2[nH]5)C=C4)C=C3)cc1
REMARK SMILES IDX 10 1 9 2 8 3 7 4 6 5 5 6 4 7 3 8 2 9 1 10 38 11 39 12 97 13
REMARK SMILES IDX 40 14 96 15 41 16 42 17 43 18 90 19 44 20 95 21 89 22 91 23
REMARK SMILES IDX 45 24 94 25 88 26 87 27 46 29 76 30 57 31 75 32 58 33 61 34
REMARK SMILES IDX 74 35 92 36 59 37 60 38 73 40 93 41 62 42 47 43 48 44 56 45
REMARK SMILES IDX 49 46 55 47 50 48 51 49 52 50 53 51 54 52 77 53 78 54 86 55
REMARK SMILES IDX 79 56 85 57 80 58 81 59 82 60 83 61 84 62 63 63 64 64 72 65
REMARK SMILES IDX 65 66 71 67 66 68 67 69 68 70 69 71 70 72 11 73 12 74 13 75
REMARK SMILES IDX 14 76 15 77 16 78 17 79 18 80 19 81 36 82 33 83 35 84 37 85
REMARK SMILES IDX 34 86 20 87 21 88 22 89 23 91 24 92 28 93 25 94 27 95 26 96
REMARK SMILES IDX 29 97 30 98 31 99 32 100
REMARK H PARENT 91 28 61 39 22 90
REMARK Flexibility Score: inf
ROOT
ATOM      1  C   UNL A   1      35.852  31.056  29.200  1.00  0.00     0.188 C 
ENDROOT
BRANCH   1   2
ATOM      2  O   UNL A   1      36.534  30.823  30.424  1.00  0.00    -0.377 OA
BRANCH   2   3
ATOM      3  C   UNL A   1      37.743  30.073  30.377  1.00  0.00     0.188 C 
BRANCH   3   4
ATOM      4  C   UNL A   1      38.875  30.864  31.037  1.00  0.00     0.188 C 
BRANCH   4   5
ATOM      5  O   UNL A   1      39.269  31.800  30.049  1.00  0.00    -0.376 OA
BRANCH   5   6
ATOM      6  C   UNL A   1      39.310  33.183  30.274  1.00  0.00     0.202 C 
BRANCH   6   7
ATOM      7  C   UNL A   1      38.070  34.003  30.001  1.00  0.00     0.261 C 
BRANCH   7   8
ATOM      8  O   UNL A   1      36.973  34.058  30.962  1.00  0.00    -0.460 OA
BRANCH   8   9
ATOM      9  C   UNL A   1      36.736  34.345  32.261  1.00  0.00     0.338 C 
ATOM     10  O   UNL A   1      35.774  35.050  32.547  1.00  0.00    -0.246 OA
BRANCH   9  11
ATOM     11  C   UNL A   1      37.587  33.874  33.375  1.00  0.00     0.060 A 
ATOM     12  C   UNL A   1      38.504  34.697  33.991  1.00  0.00     0.016 A 
ATOM     13  C   UNL A   1      37.348  32.639  33.976  1.00  0.00     0.016 A 
ATOM     14  C   UNL A   1      39.399  34.256  34.932  1.00  0.00     0.010 A 
ATOM     15  C   UNL A   1      38.126  32.229  35.072  1.00  0.00     0.010 A 
ATOM     16  C   UNL A   1      39.210  33.014  35.503  1.00  0.00    -0.014 A 
BRANCH  16  17
ATOM     17  C   UNL A   1      40.272  32.535  36.407  1.00  0.00     0.031 A 
ATOM     18  C   UNL A   1      40.106  32.828  37.868  1.00  0.00     0.074 A 
ATOM     19  C   UNL A   1      41.219  31.683  35.961  1.00  0.00     0.049 A 
ATOM     20  N   UNL A   1      40.933  32.617  38.850  1.00  0.00    -0.248 NA
ATOM     21  C   UNL A   1      38.827  33.440  38.280  1.00  0.00     0.031 C 
ATOM     22  C   UNL A   1      41.336  31.175  34.585  1.00  0.00     0.029 A 
ATOM     23  N   UNL A   1      42.228  31.036  36.625  1.00  0.00    -0.354 N 
ATOM     24  C   UNL A   1      40.303  33.123  39.980  1.00  0.00     0.074 A 
ATOM     25  C   UNL A   1      39.028  33.657  39.569  1.00  0.00     0.031 C 
ATOM     26  C   UNL A   1      42.314  30.260  34.528  1.00  0.00     0.029 A 
ATOM     27  C   UNL A   1      42.980  30.210  35.820  1.00  0.00     0.049 A 
ATOM     28  H   UNL A   1      42.398  31.151  37.587  1.00  0.00     0.167 HD
ATOM     29  C   UNL A   1      40.764  33.140  41.248  1.00  0.00     0.031 A 
ATOM     30  C   UNL A   1      44.117  29.543  36.087  1.00  0.00     0.031 A 
ATOM     31  C   UNL A   1      42.034  32.580  41.612  1.00  0.00     0.049 A 
ATOM     32  C   UNL A   1      44.679  29.690  37.475  1.00  0.00     0.074 A 
ATOM     33  C   UNL A   1      42.688  32.625  42.826  1.00  0.00     0.029 A 
ATOM     34  N   UNL A   1      42.836  31.848  40.744  1.00  0.00    -0.354 N 
ATOM     35  N   UNL A   1      44.157  30.309  38.511  1.00  0.00    -0.248 NA
ATOM     36  C   UNL A   1      45.986  29.078  37.730  1.00  0.00     0.031 C 
ATOM     37  C   UNL A   1      43.910  31.960  42.678  1.00  0.00     0.029 A 
ATOM     38  C   UNL A   1      43.986  31.444  41.391  1.00  0.00     0.049 A 
ATOM     39  H   UNL A   1      42.616  31.647  39.806  1.00  0.00     0.167 HD
ATOM     40  C   UNL A   1      45.070  30.155  39.544  1.00  0.00     0.074 A 
ATOM     41  C   UNL A   1      46.157  29.351  39.015  1.00  0.00     0.031 C 
ATOM     42  C   UNL A   1      45.033  30.642  40.810  1.00  0.00     0.031 A 
BRANCH  29  43
ATOM     43  C   UNL A   1      39.932  33.859  42.271  1.00  0.00    -0.014 A 
ATOM     44  C   UNL A   1      40.063  35.241  42.494  1.00  0.00     0.010 A 
ATOM     45  C   UNL A   1      39.025  33.121  43.053  1.00  0.00     0.010 A 
ATOM     46  C   UNL A   1      39.321  35.867  43.501  1.00  0.00     0.020 A 
ATOM     47  C   UNL A   1      38.263  33.748  44.043  1.00  0.00     0.020 A 
ATOM     48  C   UNL A   1      38.425  35.116  44.268  1.00  0.00     0.054 A 
BRANCH  48  49
ATOM     49  S   UNL A   1      37.452  35.957  45.547  1.00  0.00     0.124 S 
ATOM     50  O   UNL A   1      36.116  35.960  44.959  1.00  0.00    -0.237 OA
ATOM     51  O   UNL A   1      37.625  35.076  46.705  1.00  0.00    -0.237 OA
ATOM     52  O   UNL A   1      38.087  37.264  45.664  1.00  0.00    -0.744 OA
ENDBRANCH  48  49
ENDBRANCH  29  43
BRANCH  30  53
ATOM     53  C   UNL A   1      44.853  28.811  35.012  1.00  0.00    -0.014 A 
ATOM     54  C   UNL A   1      45.759  29.465  34.158  1.00  0.00     0.010 A 
ATOM     55  C   UNL A   1      44.612  27.436  34.808  1.00  0.00     0.010 A 
ATOM     56  C   UNL A   1      46.374  28.771  33.106  1.00  0.00     0.020 A 
ATOM     57  C   UNL A   1      45.253  26.732  33.787  1.00  0.00     0.020 A 
ATOM     58  C   UNL A   1      46.114  27.410  32.925  1.00  0.00     0.054 A 
BRANCH  58  59
ATOM     59  S   UNL A   1      46.917  26.528  31.558  1.00  0.00     0.124 S 
ATOM     60  O   UNL A   1      47.573  27.615  30.839  1.00  0.00    -0.237 OA
ATOM     61  O   UNL A   1      47.806  25.603  32.258  1.00  0.00    -0.237 OA
ATOM     62  O   UNL A   1      45.803  25.895  30.857  1.00  0.00    -0.744 OA
ENDBRANCH  58  59
ENDBRANCH  30  53
BRANCH  42  63
ATOM     63  C   UNL A   1      46.184  30.277  41.700  1.00  0.00    -0.014 A 
ATOM     64  C   UNL A   1      46.160  29.103  42.472  1.00  0.00     0.010 A 
ATOM     65  C   UNL A   1      47.320  31.105  41.726  1.00  0.00     0.010 A 
ATOM     66  C   UNL A   1      47.241  28.787  43.294  1.00  0.00     0.020 A 
ATOM     67  C   UNL A   1      48.416  30.773  42.520  1.00  0.00     0.020 A 
ATOM     68  C   UNL A   1      48.360  29.626  43.313  1.00  0.00     0.054 A 
BRANCH  68  69
ATOM     69  S   UNL A   1      49.762  29.178  44.369  1.00  0.00     0.124 S 
ATOM     70  O   UNL A   1      49.422  27.813  44.760  1.00  0.00    -0.237 OA
ATOM     71  O   UNL A   1      50.900  29.309  43.462  1.00  0.00    -0.237 OA
ATOM     72  O   UNL A   1      49.713  30.165  45.445  1.00  0.00    -0.744 OA
ENDBRANCH  68  69
ENDBRANCH  42  63
ENDBRANCH  16  17
ENDBRANCH   9  11
ENDBRANCH   8   9
ENDBRANCH   7   8
ENDBRANCH   6   7
ENDBRANCH   5   6
ENDBRANCH   4   5
ENDBRANCH   3   4
ENDBRANCH   2   3
ENDBRANCH   1   2
BRANCH   1  73
ATOM     73  C   UNL A   1      35.663  29.854  28.282  1.00  0.00     0.188 C 
BRANCH  73  74
ATOM     74  O   UNL A   1      34.850  30.051  27.144  1.00  0.00    -0.376 OA
BRANCH  74  75
ATOM     75  C   UNL A   1      33.431  30.028  27.303  1.00  0.00     0.202 C 
BRANCH  75  76
ATOM     76  C   UNL A   1      32.485  29.670  26.128  1.00  0.00     0.261 C 
BRANCH  76  77
ATOM     77  O   UNL A   1      33.059  29.798  24.789  1.00  0.00    -0.463 OA
BRANCH  77  78
ATOM     78  C   UNL A   1      32.755  28.877  23.843  1.00  0.00     0.310 C 
ATOM     79  O   UNL A   1      33.068  29.068  22.665  1.00  0.00    -0.252 OA
BRANCH  78  80
ATOM     80  C   UNL A   1      32.104  27.510  24.264  1.00  0.00     0.119 C 
ATOM     81  C   UNL A   1      32.548  25.977  24.330  1.00  0.00     0.100 C 
ATOM     82  C   UNL A   1      30.551  27.427  24.493  1.00  0.00     0.027 C 
ATOM     83  C   UNL A   1      31.203  25.281  24.752  1.00  0.00     0.025 C 
ATOM     84  C   UNL A   1      29.836  26.590  23.457  1.00  0.00    -0.027 C 
ATOM     85  C   UNL A   1      30.514  26.357  25.612  1.00  0.00     0.017 C 
ATOM     86  C   UNL A   1      30.217  25.314  23.618  1.00  0.00    -0.027 C 
BRANCH  81  87
ATOM     87  C   UNL A   1      33.480  24.959  23.582  1.00  0.00     0.229 C 
ATOM     88  O   UNL A   1      33.850  25.288  22.436  1.00  0.00    -0.274 OA
ATOM     89  N   UNL A   1      34.142  23.858  24.051  1.00  0.00    -0.323 N 
ATOM     90  H   UNL A   1      34.867  23.547  23.463  1.00  0.00     0.170 HD
BRANCH  89  91
ATOM     91  C   UNL A   1      33.984  23.094  25.206  1.00  0.00     0.084 A 
ATOM     92  C   UNL A   1      34.930  23.091  26.236  1.00  0.00     0.030 A 
ATOM     93  C   UNL A   1      32.876  22.322  25.366  1.00  0.00     0.149 A 
ATOM     94  C   UNL A   1      34.579  22.612  27.508  1.00  0.00     0.002 A 
ATOM     95  C   UNL A   1      32.437  22.099  26.653  1.00  0.00     0.049 A 
ATOM     96  C   UNL A   1      33.272  22.229  27.745  1.00  0.00     0.004 A 
BRANCH  93  97
ATOM     97  O   UNL A   1      32.169  21.810  24.341  1.00  0.00    -0.433 OA
BRANCH  97  98
ATOM     98  C   UNL A   1      32.572  20.543  23.798  1.00  0.00     0.542 C 
ATOM     99  F   UNL A   1      32.087  19.566  24.605  1.00  0.00    -0.167 F 
ATOM    100  F   UNL A   1      32.098  20.323  22.549  1.00  0.00    -0.167 F 
ENDBRANCH  97  98
ENDBRANCH  93  97
ENDBRANCH  89  91
ENDBRANCH  81  87
ENDBRANCH  78  80
ENDBRANCH  77  78
ENDBRANCH  76  77
ENDBRANCH  75  76
ENDBRANCH  74  75
ENDBRANCH  73  74
ENDBRANCH   1  73
TORSDOF 27
ENDMDL
