MODEL 1
REMARK VINA RESULT:      -9.2      0.000      0.000
REMARK SMILES O=C(OCCOCCOCCOCCOC(=O)[C@H]1Cc2c([nH]c3ccccc23)[C@@H](c2ccc(OC(F)(F)F)cc2)[NH2+]1)c1ccc(-c2c3nc(c(-c4ccc(S(=O)(=O)[O-])cc4)c4ccc([nH]4)c(-c4ccc(S(=O)(=O)[O-])cc4)c4nc(c(-c5ccc(S(=O)(=O)[O-])cc5)c5ccc2[nH]5)C=C4)C=C3)cc1
REMARK SMILES IDX 9 1 8 2 7 3 6 4 5 5 4 6 3 7 2 8 1 9 42 10 43 11 101 12 44 13
REMARK SMILES IDX 100 14 45 15 46 16 47 17 94 18 48 19 99 20 93 21 95 22 49 23
REMARK SMILES IDX 98 24 92 25 91 26 50 28 80 29 61 30 79 31 62 32 65 33 78 34
REMARK SMILES IDX 96 35 63 36 64 37 77 39 97 40 66 41 51 42 52 43 60 44 53 45
REMARK SMILES IDX 59 46 54 47 55 48 56 49 57 50 58 51 81 52 82 53 90 54 83 55
REMARK SMILES IDX 89 56 84 57 85 58 86 59 87 60 88 61 67 62 68 63 76 64 69 65
REMARK SMILES IDX 75 66 70 67 71 68 72 69 73 70 74 71 10 72 11 73 12 74 13 75
REMARK SMILES IDX 14 76 15 77 16 78 17 79 18 80 19 81 41 82 20 83 29 84 21 87
REMARK SMILES IDX 28 88 22 89 23 90 27 91 24 93 26 94 25 95 30 96 31 97 40 98
REMARK SMILES IDX 32 99 39 100 33 101 34 102 35 103 36 104 37 105 38 106
REMARK H PARENT 95 27 65 38 41 85 41 86 22 92
REMARK Flexibility Score: inf
ROOT
ATOM      1  O   UNL A   1      38.282  21.637  25.840  1.00  0.00    -0.377 OA
ENDROOT
BRANCH   1   2
ATOM      2  C   UNL A   1      39.664  21.832  26.076  1.00  0.00     0.188 C 
BRANCH   2   3
ATOM      3  C   UNL A   1      39.984  22.793  27.200  1.00  0.00     0.188 C 
BRANCH   3   4
ATOM      4  O   UNL A   1      40.222  24.069  26.650  1.00  0.00    -0.376 OA
BRANCH   4   5
ATOM      5  C   UNL A   1      41.214  24.931  27.157  1.00  0.00     0.202 C 
BRANCH   5   6
ATOM      6  C   UNL A   1      42.619  24.397  27.321  1.00  0.00     0.261 C 
BRANCH   6   7
ATOM      7  O   UNL A   1      43.623  25.231  27.958  1.00  0.00    -0.460 OA
BRANCH   7   8
ATOM      8  C   UNL A   1      43.994  25.558  29.213  1.00  0.00     0.338 C 
ATOM      9  O   UNL A   1      44.531  24.704  29.914  1.00  0.00    -0.246 OA
BRANCH   8  10
ATOM     10  C   UNL A   1      43.830  26.910  29.788  1.00  0.00     0.060 A 
ATOM     11  C   UNL A   1      42.875  27.817  29.360  1.00  0.00     0.016 A 
ATOM     12  C   UNL A   1      44.575  27.245  30.923  1.00  0.00     0.016 A 
ATOM     13  C   UNL A   1      42.865  29.122  29.793  1.00  0.00     0.010 A 
ATOM     14  C   UNL A   1      44.456  28.517  31.492  1.00  0.00     0.010 A 
ATOM     15  C   UNL A   1      43.667  29.489  30.860  1.00  0.00    -0.014 A 
BRANCH  15  16
ATOM     16  C   UNL A   1      43.799  30.929  31.139  1.00  0.00     0.031 A 
ATOM     17  C   UNL A   1      43.077  31.457  32.344  1.00  0.00     0.074 A 
ATOM     18  C   UNL A   1      44.686  31.677  30.455  1.00  0.00     0.049 A 
ATOM     19  N   UNL A   1      42.944  32.684  32.757  1.00  0.00    -0.248 NA
ATOM     20  C   UNL A   1      42.412  30.460  33.207  1.00  0.00     0.031 C 
ATOM     21  C   UNL A   1      45.575  31.189  29.392  1.00  0.00     0.029 A 
ATOM     22  N   UNL A   1      45.033  32.994  30.589  1.00  0.00    -0.354 N 
ATOM     23  C   UNL A   1      42.116  32.613  33.870  1.00  0.00     0.074 A 
ATOM     24  C   UNL A   1      41.783  31.226  34.080  1.00  0.00     0.031 C 
ATOM     25  C   UNL A   1      46.404  32.176  29.020  1.00  0.00     0.029 A 
ATOM     26  C   UNL A   1      46.026  33.391  29.724  1.00  0.00     0.049 A 
ATOM     27  H   UNL A   1      44.612  33.597  31.241  1.00  0.00     0.167 HD
ATOM     28  C   UNL A   1      41.663  33.631  34.633  1.00  0.00     0.031 A 
ATOM     29  C   UNL A   1      46.530  34.619  29.500  1.00  0.00     0.031 A 
ATOM     30  C   UNL A   1      42.048  34.994  34.398  1.00  0.00     0.049 A 
ATOM     31  C   UNL A   1      45.938  35.752  30.292  1.00  0.00     0.074 A 
ATOM     32  C   UNL A   1      41.621  36.140  35.037  1.00  0.00     0.029 A 
ATOM     33  N   UNL A   1      42.976  35.383  33.439  1.00  0.00    -0.354 N 
ATOM     34  N   UNL A   1      45.050  35.701  31.260  1.00  0.00    -0.248 NA
ATOM     35  C   UNL A   1      46.390  37.104  29.951  1.00  0.00     0.031 C 
ATOM     36  C   UNL A   1      42.250  37.229  34.423  1.00  0.00     0.029 A 
ATOM     37  C   UNL A   1      43.123  36.755  33.452  1.00  0.00     0.049 A 
ATOM     38  H   UNL A   1      43.458  34.770  32.837  1.00  0.00     0.167 HD
ATOM     39  C   UNL A   1      44.851  37.014  31.661  1.00  0.00     0.074 A 
ATOM     40  C   UNL A   1      45.728  37.831  30.841  1.00  0.00     0.031 C 
ATOM     41  C   UNL A   1      44.021  37.511  32.613  1.00  0.00     0.031 A 
BRANCH  28  42
ATOM     42  C   UNL A   1      40.632  33.302  35.679  1.00  0.00    -0.014 A 
ATOM     43  C   UNL A   1      40.965  33.123  37.034  1.00  0.00     0.010 A 
ATOM     44  C   UNL A   1      39.300  33.106  35.273  1.00  0.00     0.010 A 
ATOM     45  C   UNL A   1      39.994  32.707  37.951  1.00  0.00     0.020 A 
ATOM     46  C   UNL A   1      38.320  32.718  36.190  1.00  0.00     0.020 A 
ATOM     47  C   UNL A   1      38.679  32.501  37.522  1.00  0.00     0.054 A 
BRANCH  47  48
ATOM     48  S   UNL A   1      37.434  31.958  38.725  1.00  0.00     0.124 S 
ATOM     49  O   UNL A   1      37.137  30.603  38.257  1.00  0.00    -0.237 OA
ATOM     50  O   UNL A   1      38.166  32.032  39.993  1.00  0.00    -0.237 OA
ATOM     51  O   UNL A   1      36.356  32.920  38.575  1.00  0.00    -0.744 OA
ENDBRANCH  47  48
ENDBRANCH  28  42
BRANCH  29  52
ATOM     52  C   UNL A   1      47.566  34.841  28.451  1.00  0.00    -0.014 A 
ATOM     53  C   UNL A   1      48.924  34.976  28.788  1.00  0.00     0.010 A 
ATOM     54  C   UNL A   1      47.196  34.921  27.093  1.00  0.00     0.010 A 
ATOM     55  C   UNL A   1      49.885  35.205  27.794  1.00  0.00     0.020 A 
ATOM     56  C   UNL A   1      48.156  35.115  26.094  1.00  0.00     0.020 A 
ATOM     57  C   UNL A   1      49.494  35.273  26.454  1.00  0.00     0.054 A 
BRANCH  57  58
ATOM     58  S   UNL A   1      50.760  35.542  25.181  1.00  0.00     0.124 S 
ATOM     59  O   UNL A   1      50.142  36.572  24.351  1.00  0.00    -0.237 OA
ATOM     60  O   UNL A   1      51.914  35.970  25.969  1.00  0.00    -0.237 OA
ATOM     61  O   UNL A   1      50.898  34.230  24.552  1.00  0.00    -0.744 OA
ENDBRANCH  57  58
ENDBRANCH  29  52
BRANCH  41  62
ATOM     62  C   UNL A   1      44.078  38.992  32.848  1.00  0.00    -0.014 A 
ATOM     63  C   UNL A   1      44.985  39.552  33.763  1.00  0.00     0.010 A 
ATOM     64  C   UNL A   1      43.242  39.832  32.092  1.00  0.00     0.010 A 
ATOM     65  C   UNL A   1      45.026  40.934  33.945  1.00  0.00     0.020 A 
ATOM     66  C   UNL A   1      43.305  41.215  32.246  1.00  0.00     0.020 A 
ATOM     67  C   UNL A   1      44.185  41.755  33.185  1.00  0.00     0.054 A 
BRANCH  67  68
ATOM     68  S   UNL A   1      44.286  43.550  33.410  1.00  0.00     0.124 S 
ATOM     69  O   UNL A   1      43.000  43.993  32.878  1.00  0.00    -0.237 OA
ATOM     70  O   UNL A   1      44.449  43.681  34.855  1.00  0.00    -0.237 OA
ATOM     71  O   UNL A   1      45.454  43.932  32.620  1.00  0.00    -0.744 OA
ENDBRANCH  67  68
ENDBRANCH  41  62
ENDBRANCH  15  16
ENDBRANCH   8  10
ENDBRANCH   7   8
ENDBRANCH   6   7
ENDBRANCH   5   6
ENDBRANCH   4   5
ENDBRANCH   3   4
ENDBRANCH   2   3
ENDBRANCH   1   2
BRANCH   1  72
ATOM     72  C   UNL A   1      37.392  22.702  25.501  1.00  0.00     0.188 C 
BRANCH  72  73
ATOM     73  C   UNL A   1      36.483  22.563  24.278  1.00  0.00     0.188 C 
BRANCH  73  74
ATOM     74  O   UNL A   1      35.516  21.549  24.420  1.00  0.00    -0.376 OA
BRANCH  74  75
ATOM     75  C   UNL A   1      34.149  21.947  24.431  1.00  0.00     0.202 C 
BRANCH  75  76
ATOM     76  C   UNL A   1      33.663  23.271  25.080  1.00  0.00     0.261 C 
BRANCH  76  77
ATOM     77  O   UNL A   1      32.240  23.454  25.286  1.00  0.00    -0.459 OA
BRANCH  77  78
ATOM     78  C   UNL A   1      31.856  24.666  25.778  1.00  0.00     0.365 C 
ATOM     79  O   UNL A   1      31.696  24.879  26.983  1.00  0.00    -0.245 OA
BRANCH  78  80
ATOM     80  C   UNL A   1      31.620  25.824  24.757  1.00  0.00     0.298 C 
ATOM     81  C   UNL A   1      30.349  26.698  24.843  1.00  0.00     0.115 C 
ATOM     82  N   UNL A   1      32.916  26.540  24.631  1.00  0.00    -0.323 N 
ATOM     83  C   UNL A   1      30.429  27.835  23.895  1.00  0.00    -0.006 A 
ATOM     84  C   UNL A   1      32.943  27.942  24.205  1.00  0.00     0.262 C 
ATOM     85  H   UNL A   1      33.476  26.017  23.958  1.00  0.00     0.347 HD
ATOM     86  H   UNL A   1      33.254  26.582  25.592  1.00  0.00     0.347 HD
ATOM     87  C   UNL A   1      31.653  28.370  23.596  1.00  0.00     0.083 A 
ATOM     88  C   UNL A   1      29.435  28.536  23.164  1.00  0.00     0.003 A 
ATOM     89  N   UNL A   1      31.453  29.400  22.718  1.00  0.00    -0.353 N 
ATOM     90  C   UNL A   1      30.101  29.554  22.474  1.00  0.00     0.046 A 
ATOM     91  C   UNL A   1      28.035  28.426  23.030  1.00  0.00     0.010 A 
ATOM     92  H   UNL A   1      32.165  29.951  22.319  1.00  0.00     0.166 HD
ATOM     93  C   UNL A   1      29.420  30.507  21.707  1.00  0.00     0.026 A 
ATOM     94  C   UNL A   1      27.344  29.360  22.249  1.00  0.00     0.001 A 
ATOM     95  C   UNL A   1      28.028  30.395  21.613  1.00  0.00     0.002 A 
BRANCH  84  96
ATOM     96  C   UNL A   1      33.373  28.789  25.402  1.00  0.00     0.016 A 
ATOM     97  C   UNL A   1      32.685  29.933  25.831  1.00  0.00     0.014 A 
ATOM     98  C   UNL A   1      34.512  28.399  26.128  1.00  0.00     0.014 A 
ATOM     99  C   UNL A   1      33.144  30.674  26.922  1.00  0.00     0.047 A 
ATOM    100  C   UNL A   1      34.956  29.126  27.232  1.00  0.00     0.047 A 
ATOM    101  C   UNL A   1      34.285  30.283  27.621  1.00  0.00     0.129 A 
BRANCH 101 102
ATOM    102  O   UNL A   1      34.633  31.110  28.648  1.00  0.00    -0.406 OA
BRANCH 102 103
ATOM    103  C   UNL A   1      35.605  32.103  28.375  1.00  0.00     0.573 C 
ATOM    104  F   UNL A   1      35.119  33.044  27.539  1.00  0.00    -0.132 F 
ATOM    105  F   UNL A   1      36.048  32.689  29.509  1.00  0.00    -0.132 F 
ATOM    106  F   UNL A   1      36.665  31.514  27.775  1.00  0.00    -0.132 F 
ENDBRANCH 102 103
ENDBRANCH 101 102
ENDBRANCH  84  96
ENDBRANCH  78  80
ENDBRANCH  77  78
ENDBRANCH  76  77
ENDBRANCH  75  76
ENDBRANCH  74  75
ENDBRANCH  73  74
ENDBRANCH  72  73
ENDBRANCH   1  72
TORSDOF 26
ENDMDL
MODEL 2
REMARK VINA RESULT:      -9.0      7.858     11.594
REMARK SMILES O=C(OCCOCCOCCOCCOC(=O)[C@H]1Cc2c([nH]c3ccccc23)[C@@H](c2ccc(OC(F)(F)F)cc2)[NH2+]1)c1ccc(-c2c3nc(c(-c4ccc(S(=O)(=O)[O-])cc4)c4ccc([nH]4)c(-c4ccc(S(=O)(=O)[O-])cc4)c4nc(c(-c5ccc(S(=O)(=O)[O-])cc5)c5ccc2[nH]5)C=C4)C=C3)cc1
REMARK SMILES IDX 9 1 8 2 7 3 6 4 5 5 4 6 3 7 2 8 1 9 42 10 43 11 101 12 44 13
REMARK SMILES IDX 100 14 45 15 46 16 47 17 94 18 48 19 99 20 93 21 95 22 49 23
REMARK SMILES IDX 98 24 92 25 91 26 50 28 80 29 61 30 79 31 62 32 65 33 78 34
REMARK SMILES IDX 96 35 63 36 64 37 77 39 97 40 66 41 51 42 52 43 60 44 53 45
REMARK SMILES IDX 59 46 54 47 55 48 56 49 57 50 58 51 81 52 82 53 90 54 83 55
REMARK SMILES IDX 89 56 84 57 85 58 86 59 87 60 88 61 67 62 68 63 76 64 69 65
REMARK SMILES IDX 75 66 70 67 71 68 72 69 73 70 74 71 10 72 11 73 12 74 13 75
REMARK SMILES IDX 14 76 15 77 16 78 17 79 18 80 19 81 41 82 20 83 29 84 21 87
REMARK SMILES IDX 28 88 22 89 23 90 27 91 24 93 26 94 25 95 30 96 31 97 40 98
REMARK SMILES IDX 32 99 39 100 33 101 34 102 35 103 36 104 37 105 38 106
REMARK H PARENT 95 27 65 38 41 85 41 86 22 92
REMARK Flexibility Score: inf
ROOT
ATOM      1  O   UNL A   1      42.618  20.737  25.713  1.00  0.00    -0.377 OA
ENDROOT
BRANCH   1   2
ATOM      2  C   UNL A   1      41.995  20.355  26.926  1.00  0.00     0.188 C 
BRANCH   2   3
ATOM      3  C   UNL A   1      40.879  21.269  27.379  1.00  0.00     0.188 C 
BRANCH   3   4
ATOM      4  O   UNL A   1      40.169  21.715  26.245  1.00  0.00    -0.376 OA
BRANCH   4   5
ATOM      5  C   UNL A   1      39.098  22.624  26.340  1.00  0.00     0.202 C 
BRANCH   5   6
ATOM      6  C   UNL A   1      39.228  23.796  27.288  1.00  0.00     0.261 C 
BRANCH   6   7
ATOM      7  O   UNL A   1      39.394  25.131  26.743  1.00  0.00    -0.460 OA
BRANCH   7   8
ATOM      8  C   UNL A   1      40.180  26.205  26.963  1.00  0.00     0.338 C 
ATOM      9  O   UNL A   1      41.054  26.479  26.144  1.00  0.00    -0.246 OA
BRANCH   8  10
ATOM     10  C   UNL A   1      40.023  27.109  28.123  1.00  0.00     0.060 A 
ATOM     11  C   UNL A   1      40.445  28.427  28.133  1.00  0.00     0.016 A 
ATOM     12  C   UNL A   1      39.279  26.661  29.219  1.00  0.00     0.016 A 
ATOM     13  C   UNL A   1      40.444  29.184  29.281  1.00  0.00     0.010 A 
ATOM     14  C   UNL A   1      39.116  27.481  30.339  1.00  0.00     0.010 A 
ATOM     15  C   UNL A   1      39.787  28.711  30.403  1.00  0.00    -0.014 A 
BRANCH  15  16
ATOM     16  C   UNL A   1      40.006  29.436  31.668  1.00  0.00     0.031 A 
ATOM     17  C   UNL A   1      38.947  30.417  32.080  1.00  0.00     0.074 A 
ATOM     18  C   UNL A   1      41.007  29.078  32.493  1.00  0.00     0.049 A 
ATOM     19  N   UNL A   1      38.937  31.250  33.080  1.00  0.00    -0.248 NA
ATOM     20  C   UNL A   1      37.729  30.465  31.248  1.00  0.00     0.031 C 
ATOM     21  C   UNL A   1      41.966  27.992  32.252  1.00  0.00     0.029 A 
ATOM     22  N   UNL A   1      41.351  29.545  33.732  1.00  0.00    -0.354 N 
ATOM     23  C   UNL A   1      37.758  31.973  32.947  1.00  0.00     0.074 A 
ATOM     24  C   UNL A   1      37.071  31.480  31.780  1.00  0.00     0.031 C 
ATOM     25  C   UNL A   1      42.745  27.839  33.335  1.00  0.00     0.029 A 
ATOM     26  C   UNL A   1      42.423  28.889  34.289  1.00  0.00     0.049 A 
ATOM     27  H   UNL A   1      40.876  30.281  34.181  1.00  0.00     0.167 HD
ATOM     28  C   UNL A   1      37.308  32.977  33.731  1.00  0.00     0.031 A 
ATOM     29  C   UNL A   1      43.096  29.151  35.426  1.00  0.00     0.031 A 
ATOM     30  C   UNL A   1      38.018  33.411  34.901  1.00  0.00     0.049 A 
ATOM     31  C   UNL A   1      42.637  30.336  36.230  1.00  0.00     0.074 A 
ATOM     32  C   UNL A   1      37.729  34.458  35.754  1.00  0.00     0.029 A 
ATOM     33  N   UNL A   1      39.168  32.796  35.383  1.00  0.00    -0.354 N 
ATOM     34  N   UNL A   1      41.593  31.109  36.030  1.00  0.00    -0.248 NA
ATOM     35  C   UNL A   1      43.452  30.702  37.392  1.00  0.00     0.031 C 
ATOM     36  C   UNL A   1      38.739  34.508  36.720  1.00  0.00     0.029 A 
ATOM     37  C   UNL A   1      39.616  33.451  36.513  1.00  0.00     0.049 A 
ATOM     38  H   UNL A   1      39.600  32.010  34.978  1.00  0.00     0.167 HD
ATOM     39  C   UNL A   1      41.612  32.044  37.055  1.00  0.00     0.074 A 
ATOM     40  C   UNL A   1      42.762  31.722  37.882  1.00  0.00     0.031 C 
ATOM     41  C   UNL A   1      40.766  33.077  37.298  1.00  0.00     0.031 A 
BRANCH  28  42
ATOM     42  C   UNL A   1      36.083  33.716  33.266  1.00  0.00    -0.014 A 
ATOM     43  C   UNL A   1      36.160  34.886  32.487  1.00  0.00     0.010 A 
ATOM     44  C   UNL A   1      34.820  33.254  33.679  1.00  0.00     0.010 A 
ATOM     45  C   UNL A   1      35.000  35.603  32.173  1.00  0.00     0.020 A 
ATOM     46  C   UNL A   1      33.657  33.951  33.343  1.00  0.00     0.020 A 
ATOM     47  C   UNL A   1      33.756  35.134  32.608  1.00  0.00     0.054 A 
BRANCH  47  48
ATOM     48  S   UNL A   1      32.264  36.079  32.194  1.00  0.00     0.124 S 
ATOM     49  O   UNL A   1      32.433  36.290  30.755  1.00  0.00    -0.237 OA
ATOM     50  O   UNL A   1      31.190  35.153  32.565  1.00  0.00    -0.237 OA
ATOM     51  O   UNL A   1      32.365  37.273  33.016  1.00  0.00    -0.744 OA
ENDBRANCH  47  48
ENDBRANCH  28  42
BRANCH  29  52
ATOM     52  C   UNL A   1      44.291  28.345  35.810  1.00  0.00    -0.014 A 
ATOM     53  C   UNL A   1      45.562  28.634  35.286  1.00  0.00     0.010 A 
ATOM     54  C   UNL A   1      44.161  27.270  36.712  1.00  0.00     0.010 A 
ATOM     55  C   UNL A   1      46.672  27.857  35.640  1.00  0.00     0.020 A 
ATOM     56  C   UNL A   1      45.273  26.512  37.095  1.00  0.00     0.020 A 
ATOM     57  C   UNL A   1      46.520  26.800  36.542  1.00  0.00     0.054 A 
BRANCH  57  58
ATOM     58  S   UNL A   1      47.978  25.823  37.008  1.00  0.00     0.124 S 
ATOM     59  O   UNL A   1      47.790  24.607  36.223  1.00  0.00    -0.237 OA
ATOM     60  O   UNL A   1      49.081  26.684  36.590  1.00  0.00    -0.237 OA
ATOM     61  O   UNL A   1      47.835  25.664  38.454  1.00  0.00    -0.744 OA
ENDBRANCH  57  58
ENDBRANCH  29  52
BRANCH  41  62
ATOM     62  C   UNL A   1      41.029  33.883  38.536  1.00  0.00    -0.014 A 
ATOM     63  C   UNL A   1      41.778  35.070  38.490  1.00  0.00     0.010 A 
ATOM     64  C   UNL A   1      40.462  33.463  39.752  1.00  0.00     0.010 A 
ATOM     65  C   UNL A   1      41.989  35.806  39.656  1.00  0.00     0.020 A 
ATOM     66  C   UNL A   1      40.642  34.214  40.911  1.00  0.00     0.020 A 
ATOM     67  C   UNL A   1      41.419  35.372  40.858  1.00  0.00     0.054 A 
BRANCH  67  68
ATOM     68  S   UNL A   1      41.674  36.367  42.350  1.00  0.00     0.124 S 
ATOM     69  O   UNL A   1      42.058  35.351  43.328  1.00  0.00    -0.237 OA
ATOM     70  O   UNL A   1      42.735  37.285  41.945  1.00  0.00    -0.237 OA
ATOM     71  O   UNL A   1      40.372  36.990  42.576  1.00  0.00    -0.744 OA
ENDBRANCH  67  68
ENDBRANCH  41  62
ENDBRANCH  15  16
ENDBRANCH   8  10
ENDBRANCH   7   8
ENDBRANCH   6   7
ENDBRANCH   5   6
ENDBRANCH   4   5
ENDBRANCH   3   4
ENDBRANCH   2   3
ENDBRANCH   1   2
BRANCH   1  72
ATOM     72  C   UNL A   1      43.543  21.822  25.622  1.00  0.00     0.188 C 
BRANCH  72  73
ATOM     73  C   UNL A   1      43.257  22.977  24.658  1.00  0.00     0.188 C 
BRANCH  73  74
ATOM     74  O   UNL A   1      44.275  23.949  24.643  1.00  0.00    -0.376 OA
BRANCH  74  75
ATOM     75  C   UNL A   1      43.950  25.244  25.138  1.00  0.00     0.202 C 
BRANCH  75  76
ATOM     76  C   UNL A   1      45.013  26.354  25.356  1.00  0.00     0.261 C 
BRANCH  76  77
ATOM     77  O   UNL A   1      46.380  25.954  25.626  1.00  0.00    -0.459 OA
BRANCH  77  78
ATOM     78  C   UNL A   1      46.547  25.008  26.594  1.00  0.00     0.365 C 
ATOM     79  O   UNL A   1      47.029  23.894  26.365  1.00  0.00    -0.245 OA
BRANCH  78  80
ATOM     80  C   UNL A   1      46.112  25.372  28.049  1.00  0.00     0.298 C 
ATOM     81  C   UNL A   1      45.919  24.263  29.108  1.00  0.00     0.115 C 
ATOM     82  N   UNL A   1      46.933  26.544  28.449  1.00  0.00    -0.323 N 
ATOM     83  C   UNL A   1      45.685  24.854  30.448  1.00  0.00    -0.006 A 
ATOM     84  C   UNL A   1      47.185  26.814  29.868  1.00  0.00     0.262 C 
ATOM     85  H   UNL A   1      46.469  27.369  28.070  1.00  0.00     0.347 HD
ATOM     86  H   UNL A   1      47.858  26.316  28.088  1.00  0.00     0.347 HD
ATOM     87  C   UNL A   1      46.262  26.055  30.758  1.00  0.00     0.083 A 
ATOM     88  C   UNL A   1      44.921  24.416  31.561  1.00  0.00     0.003 A 
ATOM     89  N   UNL A   1      45.903  26.371  32.040  1.00  0.00    -0.353 N 
ATOM     90  C   UNL A   1      45.123  25.361  32.570  1.00  0.00     0.046 A 
ATOM     91  C   UNL A   1      44.096  23.303  31.824  1.00  0.00     0.010 A 
ATOM     92  H   UNL A   1      46.163  27.194  32.515  1.00  0.00     0.166 HD
ATOM     93  C   UNL A   1      44.585  25.209  33.855  1.00  0.00     0.026 A 
ATOM     94  C   UNL A   1      43.535  23.150  33.099  1.00  0.00     0.001 A 
ATOM     95  C   UNL A   1      43.793  24.082  34.102  1.00  0.00     0.002 A 
BRANCH  84  96
ATOM     96  C   UNL A   1      48.665  26.549  30.140  1.00  0.00     0.016 A 
ATOM     97  C   UNL A   1      49.559  26.068  29.172  1.00  0.00     0.014 A 
ATOM     98  C   UNL A   1      49.170  26.810  31.426  1.00  0.00     0.014 A 
ATOM     99  C   UNL A   1      50.896  25.828  29.493  1.00  0.00     0.047 A 
ATOM    100  C   UNL A   1      50.511  26.593  31.739  1.00  0.00     0.047 A 
ATOM    101  C   UNL A   1      51.378  26.077  30.779  1.00  0.00     0.129 A 
BRANCH 101 102
ATOM    102  O   UNL A   1      52.696  25.775  30.959  1.00  0.00    -0.406 OA
BRANCH 102 103
ATOM    103  C   UNL A   1      53.613  26.853  30.931  1.00  0.00     0.573 C 
ATOM    104  F   UNL A   1      53.079  27.933  30.325  1.00  0.00    -0.132 F 
ATOM    105  F   UNL A   1      54.024  27.188  32.174  1.00  0.00    -0.132 F 
ATOM    106  F   UNL A   1      54.704  26.472  30.227  1.00  0.00    -0.132 F 
ENDBRANCH 102 103
ENDBRANCH 101 102
ENDBRANCH  84  96
ENDBRANCH  78  80
ENDBRANCH  77  78
ENDBRANCH  76  77
ENDBRANCH  75  76
ENDBRANCH  74  75
ENDBRANCH  73  74
ENDBRANCH  72  73
ENDBRANCH   1  72
TORSDOF 26
ENDMDL
MODEL 3
REMARK VINA RESULT:      -8.9      5.327     12.731
REMARK SMILES O=C(OCCOCCOCCOCCOC(=O)[C@H]1Cc2c([nH]c3ccccc23)[C@@H](c2ccc(OC(F)(F)F)cc2)[NH2+]1)c1ccc(-c2c3nc(c(-c4ccc(S(=O)(=O)[O-])cc4)c4ccc([nH]4)c(-c4ccc(S(=O)(=O)[O-])cc4)c4nc(c(-c5ccc(S(=O)(=O)[O-])cc5)c5ccc2[nH]5)C=C4)C=C3)cc1
REMARK SMILES IDX 9 1 8 2 7 3 6 4 5 5 4 6 3 7 2 8 1 9 42 10 43 11 101 12 44 13
REMARK SMILES IDX 100 14 45 15 46 16 47 17 94 18 48 19 99 20 93 21 95 22 49 23
REMARK SMILES IDX 98 24 92 25 91 26 50 28 80 29 61 30 79 31 62 32 65 33 78 34
REMARK SMILES IDX 96 35 63 36 64 37 77 39 97 40 66 41 51 42 52 43 60 44 53 45
REMARK SMILES IDX 59 46 54 47 55 48 56 49 57 50 58 51 81 52 82 53 90 54 83 55
REMARK SMILES IDX 89 56 84 57 85 58 86 59 87 60 88 61 67 62 68 63 76 64 69 65
REMARK SMILES IDX 75 66 70 67 71 68 72 69 73 70 74 71 10 72 11 73 12 74 13 75
REMARK SMILES IDX 14 76 15 77 16 78 17 79 18 80 19 81 41 82 20 83 29 84 21 87
REMARK SMILES IDX 28 88 22 89 23 90 27 91 24 93 26 94 25 95 30 96 31 97 40 98
REMARK SMILES IDX 32 99 39 100 33 101 34 102 35 103 36 104 37 105 38 106
REMARK H PARENT 95 27 65 38 41 85 41 86 22 92
REMARK Flexibility Score: inf
ROOT
ATOM      1  O   UNL A   1      32.324  32.138  27.200  1.00  0.00    -0.377 OA
ENDROOT
BRANCH   1   2
ATOM      2  C   UNL A   1      31.381  31.587  26.299  1.00  0.00     0.188 C 
BRANCH   2   3
ATOM      3  C   UNL A   1      31.748  30.225  25.754  1.00  0.00     0.188 C 
BRANCH   3   4
ATOM      4  O   UNL A   1      32.359  29.476  26.782  1.00  0.00    -0.376 OA
BRANCH   4   5
ATOM      5  C   UNL A   1      33.748  29.248  26.819  1.00  0.00     0.202 C 
BRANCH   5   6
ATOM      6  C   UNL A   1      34.596  30.111  27.727  1.00  0.00     0.261 C 
BRANCH   6   7
ATOM      7  O   UNL A   1      35.543  29.475  28.625  1.00  0.00    -0.460 OA
BRANCH   7   8
ATOM      8  C   UNL A   1      36.689  29.802  29.259  1.00  0.00     0.338 C 
ATOM      9  O   UNL A   1      36.633  30.539  30.241  1.00  0.00    -0.246 OA
BRANCH   8  10
ATOM     10  C   UNL A   1      38.017  29.289  28.863  1.00  0.00     0.060 A 
ATOM     11  C   UNL A   1      38.746  28.382  29.614  1.00  0.00     0.016 A 
ATOM     12  C   UNL A   1      38.506  29.616  27.595  1.00  0.00     0.016 A 
ATOM     13  C   UNL A   1      40.047  28.061  29.308  1.00  0.00     0.010 A 
ATOM     14  C   UNL A   1      39.763  29.159  27.187  1.00  0.00     0.010 A 
ATOM     15  C   UNL A   1      40.574  28.458  28.091  1.00  0.00    -0.014 A 
BRANCH  15  16
ATOM     16  C   UNL A   1      42.027  28.299  27.903  1.00  0.00     0.031 A 
ATOM     17  C   UNL A   1      42.906  29.386  28.450  1.00  0.00     0.074 A 
ATOM     18  C   UNL A   1      42.531  27.140  27.440  1.00  0.00     0.049 A 
ATOM     19  N   UNL A   1      44.193  29.545  28.335  1.00  0.00    -0.248 NA
ATOM     20  C   UNL A   1      42.240  30.442  29.238  1.00  0.00     0.031 C 
ATOM     21  C   UNL A   1      41.746  25.954  27.070  1.00  0.00     0.029 A 
ATOM     22  N   UNL A   1      43.827  26.741  27.258  1.00  0.00    -0.354 N 
ATOM     23  C   UNL A   1      44.474  30.754  28.960  1.00  0.00     0.074 A 
ATOM     24  C   UNL A   1      43.231  31.285  29.463  1.00  0.00     0.031 C 
ATOM     25  C   UNL A   1      42.580  24.947  26.767  1.00  0.00     0.029 A 
ATOM     26  C   UNL A   1      43.945  25.448  26.803  1.00  0.00     0.049 A 
ATOM     27  H   UNL A   1      44.600  27.323  27.436  1.00  0.00     0.167 HD
ATOM     28  C   UNL A   1      45.671  31.367  29.081  1.00  0.00     0.031 A 
ATOM     29  C   UNL A   1      45.042  24.772  26.412  1.00  0.00     0.031 A 
ATOM     30  C   UNL A   1      46.884  30.779  28.587  1.00  0.00     0.049 A 
ATOM     31  C   UNL A   1      46.350  25.510  26.462  1.00  0.00     0.074 A 
ATOM     32  C   UNL A   1      48.160  31.305  28.570  1.00  0.00     0.029 A 
ATOM     33  N   UNL A   1      46.959  29.508  28.028  1.00  0.00    -0.354 N 
ATOM     34  N   UNL A   1      46.597  26.713  26.932  1.00  0.00    -0.248 NA
ATOM     35  C   UNL A   1      47.520  24.821  25.909  1.00  0.00     0.031 C 
ATOM     36  C   UNL A   1      48.996  30.372  27.947  1.00  0.00     0.029 A 
ATOM     37  C   UNL A   1      48.256  29.237  27.643  1.00  0.00     0.049 A 
ATOM     38  H   UNL A   1      46.198  28.892  27.921  1.00  0.00     0.167 HD
ATOM     39  C   UNL A   1      47.958  26.918  26.752  1.00  0.00     0.074 A 
ATOM     40  C   UNL A   1      48.479  25.705  26.147  1.00  0.00     0.031 C 
ATOM     41  C   UNL A   1      48.715  28.004  27.050  1.00  0.00     0.031 A 
BRANCH  28  42
ATOM     42  C   UNL A   1      45.677  32.759  29.651  1.00  0.00    -0.014 A 
ATOM     43  C   UNL A   1      45.112  33.854  28.970  1.00  0.00     0.010 A 
ATOM     44  C   UNL A   1      46.325  32.982  30.879  1.00  0.00     0.010 A 
ATOM     45  C   UNL A   1      45.240  35.148  29.484  1.00  0.00     0.020 A 
ATOM     46  C   UNL A   1      46.430  34.269  31.412  1.00  0.00     0.020 A 
ATOM     47  C   UNL A   1      45.904  35.348  30.699  1.00  0.00     0.054 A 
BRANCH  47  48
ATOM     48  S   UNL A   1      46.063  37.035  31.349  1.00  0.00     0.124 S 
ATOM     49  O   UNL A   1      44.796  37.637  30.931  1.00  0.00    -0.237 OA
ATOM     50  O   UNL A   1      46.198  36.807  32.791  1.00  0.00    -0.237 OA
ATOM     51  O   UNL A   1      47.249  37.555  30.690  1.00  0.00    -0.744 OA
ENDBRANCH  47  48
ENDBRANCH  28  42
BRANCH  29  52
ATOM     52  C   UNL A   1      44.933  23.383  25.878  1.00  0.00    -0.014 A 
ATOM     53  C   UNL A   1      44.090  22.435  26.482  1.00  0.00     0.010 A 
ATOM     54  C   UNL A   1      45.685  22.996  24.750  1.00  0.00     0.010 A 
ATOM     55  C   UNL A   1      44.014  21.129  25.982  1.00  0.00     0.020 A 
ATOM     56  C   UNL A   1      45.587  21.703  24.226  1.00  0.00     0.020 A 
ATOM     57  C   UNL A   1      44.763  20.771  24.857  1.00  0.00     0.054 A 
BRANCH  57  58
ATOM     58  S   UNL A   1      44.627  19.081  24.210  1.00  0.00     0.124 S 
ATOM     59  O   UNL A   1      45.864  18.472  24.691  1.00  0.00    -0.237 OA
ATOM     60  O   UNL A   1      43.398  18.601  24.837  1.00  0.00    -0.237 OA
ATOM     61  O   UNL A   1      44.545  19.273  22.764  1.00  0.00    -0.744 OA
ENDBRANCH  57  58
ENDBRANCH  29  52
BRANCH  41  62
ATOM     62  C   UNL A   1      50.186  27.892  26.780  1.00  0.00    -0.014 A 
ATOM     63  C   UNL A   1      51.076  27.423  27.761  1.00  0.00     0.010 A 
ATOM     64  C   UNL A   1      50.667  28.212  25.497  1.00  0.00     0.010 A 
ATOM     65  C   UNL A   1      52.436  27.313  27.471  1.00  0.00     0.020 A 
ATOM     66  C   UNL A   1      52.020  28.070  25.196  1.00  0.00     0.020 A 
ATOM     67  C   UNL A   1      52.897  27.638  26.190  1.00  0.00     0.054 A 
BRANCH  67  68
ATOM     68  S   UNL A   1      54.662  27.448  25.828  1.00  0.00     0.124 S 
ATOM     69  O   UNL A   1      55.256  27.555  27.158  1.00  0.00    -0.237 OA
ATOM     70  O   UNL A   1      54.722  26.123  25.217  1.00  0.00    -0.237 OA
ATOM     71  O   UNL A   1      54.950  28.558  24.923  1.00  0.00    -0.744 OA
ENDBRANCH  67  68
ENDBRANCH  41  62
ENDBRANCH  15  16
ENDBRANCH   8  10
ENDBRANCH   7   8
ENDBRANCH   6   7
ENDBRANCH   5   6
ENDBRANCH   4   5
ENDBRANCH   3   4
ENDBRANCH   2   3
ENDBRANCH   1   2
BRANCH   1  72
ATOM     72  C   UNL A   1      32.252  33.484  27.674  1.00  0.00     0.188 C 
BRANCH  72  73
ATOM     73  C   UNL A   1      33.497  34.137  28.279  1.00  0.00     0.188 C 
BRANCH  73  74
ATOM     74  O   UNL A   1      33.793  33.667  29.574  1.00  0.00    -0.376 OA
BRANCH  74  75
ATOM     75  C   UNL A   1      34.392  34.588  30.481  1.00  0.00     0.202 C 
BRANCH  75  76
ATOM     76  C   UNL A   1      33.934  34.733  31.958  1.00  0.00     0.261 C 
BRANCH  76  77
ATOM     77  O   UNL A   1      34.507  33.841  32.946  1.00  0.00    -0.459 OA
BRANCH  77  78
ATOM     78  C   UNL A   1      35.732  34.190  33.431  1.00  0.00     0.365 C 
ATOM     79  O   UNL A   1      36.133  35.357  33.459  1.00  0.00    -0.245 OA
BRANCH  78  80
ATOM     80  C   UNL A   1      36.650  33.050  33.976  1.00  0.00     0.298 C 
ATOM     81  C   UNL A   1      38.037  32.794  33.347  1.00  0.00     0.115 C 
ATOM     82  N   UNL A   1      36.594  33.141  35.458  1.00  0.00    -0.323 N 
ATOM     83  C   UNL A   1      38.795  31.793  34.137  1.00  0.00    -0.006 A 
ATOM     84  C   UNL A   1      37.696  32.616  36.269  1.00  0.00     0.262 C 
ATOM     85  H   UNL A   1      35.751  32.646  35.751  1.00  0.00     0.347 HD
ATOM     86  H   UNL A   1      36.635  34.145  35.632  1.00  0.00     0.347 HD
ATOM     87  C   UNL A   1      38.590  31.716  35.488  1.00  0.00     0.083 A 
ATOM     88  C   UNL A   1      39.751  30.813  33.766  1.00  0.00     0.003 A 
ATOM     89  N   UNL A   1      39.407  30.733  35.977  1.00  0.00    -0.353 N 
ATOM     90  C   UNL A   1      40.163  30.198  34.951  1.00  0.00     0.046 A 
ATOM     91  C   UNL A   1      40.327  30.397  32.547  1.00  0.00     0.010 A 
ATOM     92  H   UNL A   1      39.450  30.449  36.919  1.00  0.00     0.166 HD
ATOM     93  C   UNL A   1      41.173  29.228  34.979  1.00  0.00     0.026 A 
ATOM     94  C   UNL A   1      41.324  29.413  32.559  1.00  0.00     0.001 A 
ATOM     95  C   UNL A   1      41.751  28.852  33.761  1.00  0.00     0.002 A 
BRANCH  84  96
ATOM     96  C   UNL A   1      38.417  33.803  36.907  1.00  0.00     0.016 A 
ATOM     97  C   UNL A   1      38.985  34.852  36.170  1.00  0.00     0.014 A 
ATOM     98  C   UNL A   1      38.510  33.860  38.308  1.00  0.00     0.014 A 
ATOM     99  C   UNL A   1      39.649  35.898  36.815  1.00  0.00     0.047 A 
ATOM    100  C   UNL A   1      39.151  34.918  38.952  1.00  0.00     0.047 A 
ATOM    101  C   UNL A   1      39.746  35.932  38.206  1.00  0.00     0.129 A 
BRANCH 101 102
ATOM    102  O   UNL A   1      40.441  36.997  38.700  1.00  0.00    -0.406 OA
BRANCH 102 103
ATOM    103  C   UNL A   1      39.786  37.804  39.661  1.00  0.00     0.573 C 
ATOM    104  F   UNL A   1      38.482  37.966  39.354  1.00  0.00    -0.132 F 
ATOM    105  F   UNL A   1      39.899  37.286  40.904  1.00  0.00    -0.132 F 
ATOM    106  F   UNL A   1      40.371  39.024  39.669  1.00  0.00    -0.132 F 
ENDBRANCH 102 103
ENDBRANCH 101 102
ENDBRANCH  84  96
ENDBRANCH  78  80
ENDBRANCH  77  78
ENDBRANCH  76  77
ENDBRANCH  75  76
ENDBRANCH  74  75
ENDBRANCH  73  74
ENDBRANCH  72  73
ENDBRANCH   1  72
TORSDOF 26
ENDMDL
