MODEL 1
REMARK VINA RESULT:      -8.6      0.000      0.000
REMARK SMILES Cc1c(Cl)cc2c(c1C)O[C@@H](C(F)(F)F)C(C(=O)OCCOCCOCCOCCOC(=O)c1ccc(-c3c4nc(c(-c5ccc(S(=O)(=O)[O-])cc5)c5ccc([nH]5)c(-c5ccc(S(=O)(=O)[O-])cc5)c5nc(c(-c6ccc(S(=O)(=O)[O-])cc6)c6ccc3[nH]6)C=C5)C=C4)cc1)=C2
REMARK SMILES IDX 26 1 25 2 24 3 23 4 22 5 21 6 20 7 19 8 17 9 18 10 16 11
REMARK SMILES IDX 1 12 2 13 3 14 8 15 4 16 5 17 7 18 9 19 6 20 10 21 94 22
REMARK SMILES IDX 11 23 12 24 13 25 14 26 15 27 27 28 28 29 29 30 30 31 31 32
REMARK SMILES IDX 32 33 33 34 34 35 35 36 93 37 36 38 92 39 37 40 38 41 39 42
REMARK SMILES IDX 86 43 40 44 91 45 85 46 87 47 41 48 90 49 84 50 83 51 42 53
REMARK SMILES IDX 72 54 53 55 71 56 54 57 57 58 70 59 88 60 55 61 56 62 69 64
REMARK SMILES IDX 89 65 58 66 43 67 44 68 52 69 45 70 51 71 46 72 47 73 48 74
REMARK SMILES IDX 49 75 50 76 73 77 74 78 82 79 75 80 81 81 76 82 77 83 78 84
REMARK SMILES IDX 79 85 80 86 59 87 60 88 68 89 61 90 67 91 62 92 63 93 64 94
REMARK SMILES IDX 65 95 66 96
REMARK H PARENT 87 52 57 63
REMARK Flexibility Score: inf
ROOT
ATOM      1  C   UNL A   1      34.577  29.331  27.361  1.00  0.00     0.188 C 
ENDROOT
BRANCH   1   2
ATOM      2  O   UNL A   1      33.582  30.218  26.876  1.00  0.00    -0.377 OA
BRANCH   2   3
ATOM      3  C   UNL A   1      32.669  29.830  25.867  1.00  0.00     0.188 C 
BRANCH   3   4
ATOM      4  C   UNL A   1      32.460  28.356  25.488  1.00  0.00     0.188 C 
BRANCH   4   5
ATOM      5  O   UNL A   1      31.108  27.968  25.502  1.00  0.00    -0.376 OA
BRANCH   5   6
ATOM      6  C   UNL A   1      30.524  27.378  24.362  1.00  0.00     0.202 C 
BRANCH   6   7
ATOM      7  C   UNL A   1      30.935  25.973  23.892  1.00  0.00     0.261 C 
BRANCH   7   8
ATOM      8  O   UNL A   1      30.570  24.881  24.745  1.00  0.00    -0.460 OA
BRANCH   8   9
ATOM      9  C   UNL A   1      31.428  24.591  25.741  1.00  0.00     0.338 C 
ATOM     10  O   UNL A   1      31.387  25.025  26.881  1.00  0.00    -0.246 OA
BRANCH   9  11
ATOM     11  C   UNL A   1      32.359  23.530  25.319  1.00  0.00     0.087 C 
ATOM     12  C   UNL A   1      35.285  17.754  24.613  1.00  0.00     0.046 C 
ATOM     13  C   UNL A   1      34.384  18.964  24.629  1.00  0.00    -0.026 A 
ATOM     14  C   UNL A   1      32.993  18.846  24.436  1.00  0.00     0.045 A 
ATOM     15  C   UNL A   1      34.929  20.251  24.892  1.00  0.00    -0.004 A 
ATOM     16  Cl  UNL A   1      32.221  17.336  24.089  1.00  0.00    -0.084 Cl
ATOM     17  C   UNL A   1      32.157  19.958  24.549  1.00  0.00     0.032 A 
ATOM     18  C   UNL A   1      34.067  21.360  25.020  1.00  0.00     0.131 A 
ATOM     19  C   UNL A   1      36.414  20.486  25.028  1.00  0.00     0.049 C 
ATOM     20  C   UNL A   1      32.687  21.206  24.872  1.00  0.00     0.019 A 
ATOM     21  O   UNL A   1      34.630  22.560  25.384  1.00  0.00    -0.475 OA
ATOM     22  C   UNL A   1      31.805  22.321  25.159  1.00  0.00     0.027 C 
ATOM     23  C   UNL A   1      33.839  23.779  25.213  1.00  0.00     0.316 C 
BRANCH  23  24
ATOM     24  C   UNL A   1      34.331  24.500  23.942  1.00  0.00     0.430 C 
ATOM     25  F   UNL A   1      33.542  24.240  22.874  1.00  0.00    -0.167 F 
ATOM     26  F   UNL A   1      34.416  25.837  24.097  1.00  0.00    -0.167 F 
ATOM     27  F   UNL A   1      35.582  24.078  23.621  1.00  0.00    -0.167 F 
ENDBRANCH  23  24
ENDBRANCH   9  11
ENDBRANCH   8   9
ENDBRANCH   7   8
ENDBRANCH   6   7
ENDBRANCH   5   6
ENDBRANCH   4   5
ENDBRANCH   3   4
ENDBRANCH   2   3
ENDBRANCH   1   2
BRANCH   1  28
ATOM     28  C   UNL A   1      35.995  29.844  27.682  1.00  0.00     0.188 C 
BRANCH  28  29
ATOM     29  O   UNL A   1      36.187  30.863  28.653  1.00  0.00    -0.376 OA
BRANCH  29  30
ATOM     30  C   UNL A   1      35.662  32.158  28.412  1.00  0.00     0.202 C 
BRANCH  30  31
ATOM     31  C   UNL A   1      35.607  33.153  29.568  1.00  0.00     0.261 C 
BRANCH  31  32
ATOM     32  O   UNL A   1      36.115  32.624  30.798  1.00  0.00    -0.460 OA
BRANCH  32  33
ATOM     33  C   UNL A   1      35.230  32.602  31.818  1.00  0.00     0.338 C 
ATOM     34  O   UNL A   1      34.036  32.332  31.759  1.00  0.00    -0.246 OA
BRANCH  33  35
ATOM     35  C   UNL A   1      35.940  32.799  33.091  1.00  0.00     0.060 A 
ATOM     36  C   UNL A   1      35.603  33.910  33.875  1.00  0.00     0.016 A 
ATOM     37  C   UNL A   1      36.979  31.946  33.467  1.00  0.00     0.016 A 
ATOM     38  C   UNL A   1      36.345  34.205  35.013  1.00  0.00     0.010 A 
ATOM     39  C   UNL A   1      37.736  32.255  34.598  1.00  0.00     0.010 A 
ATOM     40  C   UNL A   1      37.448  33.410  35.347  1.00  0.00    -0.014 A 
BRANCH  40  41
ATOM     41  C   UNL A   1      38.425  33.910  36.337  1.00  0.00     0.031 A 
ATOM     42  C   UNL A   1      38.193  33.584  37.788  1.00  0.00     0.074 A 
ATOM     43  C   UNL A   1      39.515  34.595  35.951  1.00  0.00     0.049 A 
ATOM     44  N   UNL A   1      38.888  33.939  38.836  1.00  0.00    -0.248 NA
ATOM     45  C   UNL A   1      37.024  32.741  38.098  1.00  0.00     0.031 C 
ATOM     46  C   UNL A   1      39.873  34.905  34.568  1.00  0.00     0.029 A 
ATOM     47  N   UNL A   1      40.524  35.150  36.695  1.00  0.00    -0.354 N 
ATOM     48  C   UNL A   1      38.242  33.367  39.927  1.00  0.00     0.074 A 
ATOM     49  C   UNL A   1      37.080  32.671  39.420  1.00  0.00     0.031 C 
ATOM     50  C   UNL A   1      41.026  35.597  34.563  1.00  0.00     0.029 A 
ATOM     51  C   UNL A   1      41.465  35.810  35.941  1.00  0.00     0.049 A 
ATOM     52  H   UNL A   1      40.571  35.082  37.676  1.00  0.00     0.167 HD
ATOM     53  C   UNL A   1      38.592  33.409  41.231  1.00  0.00     0.031 A 
ATOM     54  C   UNL A   1      42.543  36.521  36.325  1.00  0.00     0.031 A 
ATOM     55  C   UNL A   1      39.743  34.113  41.727  1.00  0.00     0.049 A 
ATOM     56  C   UNL A   1      42.851  36.643  37.796  1.00  0.00     0.074 A 
ATOM     57  C   UNL A   1      40.184  34.225  43.034  1.00  0.00     0.029 A 
ATOM     58  N   UNL A   1      40.634  34.825  40.939  1.00  0.00    -0.354 N 
ATOM     59  N   UNL A   1      42.232  36.097  38.817  1.00  0.00    -0.248 NA
ATOM     60  C   UNL A   1      44.006  37.474  38.167  1.00  0.00     0.031 C 
ATOM     61  C   UNL A   1      41.307  35.056  43.042  1.00  0.00     0.029 A 
ATOM     62  C   UNL A   1      41.607  35.404  41.735  1.00  0.00     0.049 A 
ATOM     63  H   UNL A   1      40.582  34.907  39.960  1.00  0.00     0.167 HD
ATOM     64  C   UNL A   1      42.938  36.497  39.948  1.00  0.00     0.074 A 
ATOM     65  C   UNL A   1      44.040  37.315  39.484  1.00  0.00     0.031 C 
ATOM     66  C   UNL A   1      42.698  36.215  41.252  1.00  0.00     0.031 A 
BRANCH  53  67
ATOM     67  C   UNL A   1      37.714  32.691  42.221  1.00  0.00    -0.014 A 
ATOM     68  C   UNL A   1      37.976  31.359  42.590  1.00  0.00     0.010 A 
ATOM     69  C   UNL A   1      36.657  33.379  42.845  1.00  0.00     0.010 A 
ATOM     70  C   UNL A   1      37.188  30.725  43.553  1.00  0.00     0.020 A 
ATOM     71  C   UNL A   1      35.884  32.757  43.828  1.00  0.00     0.020 A 
ATOM     72  C   UNL A   1      36.151  31.430  44.172  1.00  0.00     0.054 A 
BRANCH  72  73
ATOM     73  S   UNL A   1      35.184  30.597  45.460  1.00  0.00     0.124 S 
ATOM     74  O   UNL A   1      33.870  30.490  44.832  1.00  0.00    -0.237 OA
ATOM     75  O   UNL A   1      35.903  29.336  45.630  1.00  0.00    -0.237 OA
ATOM     76  O   UNL A   1      35.257  31.511  46.597  1.00  0.00    -0.744 OA
ENDBRANCH  72  73
ENDBRANCH  53  67
BRANCH  54  77
ATOM     77  C   UNL A   1      43.404  37.184  35.307  1.00  0.00    -0.014 A 
ATOM     78  C   UNL A   1      43.072  38.455  34.805  1.00  0.00     0.010 A 
ATOM     79  C   UNL A   1      44.564  36.545  34.829  1.00  0.00     0.010 A 
ATOM     80  C   UNL A   1      43.874  39.066  33.837  1.00  0.00     0.020 A 
ATOM     81  C   UNL A   1      45.385  37.166  33.884  1.00  0.00     0.020 A 
ATOM     82  C   UNL A   1      45.028  38.420  33.386  1.00  0.00     0.054 A 
BRANCH  82  83
ATOM     83  S   UNL A   1      46.076  39.258  32.164  1.00  0.00     0.124 S 
ATOM     84  O   UNL A   1      47.375  39.264  32.829  1.00  0.00    -0.237 OA
ATOM     85  O   UNL A   1      45.963  38.379  31.003  1.00  0.00    -0.237 OA
ATOM     86  O   UNL A   1      45.445  40.566  32.010  1.00  0.00    -0.744 OA
ENDBRANCH  82  83
ENDBRANCH  54  77
BRANCH  66  87
ATOM     87  C   UNL A   1      43.651  36.768  42.278  1.00  0.00    -0.014 A 
ATOM     88  C   UNL A   1      43.406  38.001  42.907  1.00  0.00     0.010 A 
ATOM     89  C   UNL A   1      44.760  36.001  42.683  1.00  0.00     0.010 A 
ATOM     90  C   UNL A   1      44.266  38.468  43.905  1.00  0.00     0.020 A 
ATOM     91  C   UNL A   1      45.603  36.449  43.703  1.00  0.00     0.020 A 
ATOM     92  C   UNL A   1      45.356  37.686  44.300  1.00  0.00     0.054 A 
BRANCH  92  93
ATOM     93  S   UNL A   1      46.420  38.293  45.636  1.00  0.00     0.124 S 
ATOM     94  O   UNL A   1      47.746  38.207  45.032  1.00  0.00    -0.237 OA
ATOM     95  O   UNL A   1      45.915  39.646  45.855  1.00  0.00    -0.237 OA
ATOM     96  O   UNL A   1      46.174  37.356  46.731  1.00  0.00    -0.744 OA
ENDBRANCH  92  93
ENDBRANCH  66  87
ENDBRANCH  40  41
ENDBRANCH  33  35
ENDBRANCH  32  33
ENDBRANCH  31  32
ENDBRANCH  30  31
ENDBRANCH  29  30
ENDBRANCH  28  29
ENDBRANCH   1  28
TORSDOF 24
ENDMDL
MODEL 2
REMARK VINA RESULT:      -8.6      7.806     11.570
REMARK SMILES Cc1c(Cl)cc2c(c1C)O[C@@H](C(F)(F)F)C(C(=O)OCCOCCOCCOCCOC(=O)c1ccc(-c3c4nc(c(-c5ccc(S(=O)(=O)[O-])cc5)c5ccc([nH]5)c(-c5ccc(S(=O)(=O)[O-])cc5)c5nc(c(-c6ccc(S(=O)(=O)[O-])cc6)c6ccc3[nH]6)C=C5)C=C4)cc1)=C2
REMARK SMILES IDX 26 1 25 2 24 3 23 4 22 5 21 6 20 7 19 8 17 9 18 10 16 11
REMARK SMILES IDX 1 12 2 13 3 14 8 15 4 16 5 17 7 18 9 19 6 20 10 21 94 22
REMARK SMILES IDX 11 23 12 24 13 25 14 26 15 27 27 28 28 29 29 30 30 31 31 32
REMARK SMILES IDX 32 33 33 34 34 35 35 36 93 37 36 38 92 39 37 40 38 41 39 42
REMARK SMILES IDX 86 43 40 44 91 45 85 46 87 47 41 48 90 49 84 50 83 51 42 53
REMARK SMILES IDX 72 54 53 55 71 56 54 57 57 58 70 59 88 60 55 61 56 62 69 64
REMARK SMILES IDX 89 65 58 66 43 67 44 68 52 69 45 70 51 71 46 72 47 73 48 74
REMARK SMILES IDX 49 75 50 76 73 77 74 78 82 79 75 80 81 81 76 82 77 83 78 84
REMARK SMILES IDX 79 85 80 86 59 87 60 88 68 89 61 90 67 91 62 92 63 93 64 94
REMARK SMILES IDX 65 95 66 96
REMARK H PARENT 87 52 57 63
REMARK Flexibility Score: inf
ROOT
ATOM      1  C   UNL A   1      34.438  31.795  27.888  1.00  0.00     0.188 C 
ENDROOT
BRANCH   1   2
ATOM      2  O   UNL A   1      33.663  30.971  27.032  1.00  0.00    -0.377 OA
BRANCH   2   3
ATOM      3  C   UNL A   1      33.950  29.596  26.863  1.00  0.00     0.188 C 
BRANCH   3   4
ATOM      4  C   UNL A   1      33.655  28.864  25.546  1.00  0.00     0.188 C 
BRANCH   4   5
ATOM      5  O   UNL A   1      32.770  29.567  24.708  1.00  0.00    -0.376 OA
BRANCH   5   6
ATOM      6  C   UNL A   1      31.590  28.952  24.241  1.00  0.00     0.202 C 
BRANCH   6   7
ATOM      7  C   UNL A   1      31.411  28.595  22.756  1.00  0.00     0.261 C 
BRANCH   7   8
ATOM      8  O   UNL A   1      31.577  27.217  22.405  1.00  0.00    -0.460 OA
BRANCH   8   9
ATOM      9  C   UNL A   1      32.844  26.765  22.348  1.00  0.00     0.338 C 
ATOM     10  O   UNL A   1      33.807  27.365  21.898  1.00  0.00    -0.246 OA
BRANCH   9  11
ATOM     11  C   UNL A   1      32.959  25.480  23.060  1.00  0.00     0.087 C 
ATOM     12  C   UNL A   1      34.930  19.547  24.887  1.00  0.00     0.046 C 
ATOM     13  C   UNL A   1      34.738  21.008  24.564  1.00  0.00    -0.026 A 
ATOM     14  C   UNL A   1      35.837  21.880  24.431  1.00  0.00     0.045 A 
ATOM     15  C   UNL A   1      33.431  21.520  24.336  1.00  0.00    -0.004 A 
ATOM     16  Cl  UNL A   1      37.471  21.376  24.703  1.00  0.00    -0.084 Cl
ATOM     17  C   UNL A   1      35.656  23.207  24.037  1.00  0.00     0.032 A 
ATOM     18  C   UNL A   1      33.268  22.858  23.923  1.00  0.00     0.131 A 
ATOM     19  C   UNL A   1      32.191  20.682  24.537  1.00  0.00     0.049 C 
ATOM     20  C   UNL A   1      34.379  23.687  23.752  1.00  0.00     0.019 A 
ATOM     21  O   UNL A   1      31.996  23.273  23.608  1.00  0.00    -0.475 OA
ATOM     22  C   UNL A   1      34.207  25.008  23.178  1.00  0.00     0.027 C 
ATOM     23  C   UNL A   1      31.742  24.710  23.492  1.00  0.00     0.316 C 
BRANCH  23  24
ATOM     24  C   UNL A   1      31.045  25.183  24.783  1.00  0.00     0.430 C 
ATOM     25  F   UNL A   1      30.641  24.146  25.551  1.00  0.00    -0.167 F 
ATOM     26  F   UNL A   1      31.821  25.993  25.530  1.00  0.00    -0.167 F 
ATOM     27  F   UNL A   1      29.934  25.903  24.476  1.00  0.00    -0.167 F 
ENDBRANCH  23  24
ENDBRANCH   9  11
ENDBRANCH   8   9
ENDBRANCH   7   8
ENDBRANCH   6   7
ENDBRANCH   5   6
ENDBRANCH   4   5
ENDBRANCH   3   4
ENDBRANCH   2   3
ENDBRANCH   1   2
BRANCH   1  28
ATOM     28  C   UNL A   1      33.758  32.822  28.815  1.00  0.00     0.188 C 
BRANCH  28  29
ATOM     29  O   UNL A   1      34.330  34.108  29.004  1.00  0.00    -0.376 OA
BRANCH  29  30
ATOM     30  C   UNL A   1      34.066  34.816  30.204  1.00  0.00     0.202 C 
BRANCH  30  31
ATOM     31  C   UNL A   1      35.204  35.021  31.199  1.00  0.00     0.261 C 
BRANCH  31  32
ATOM     32  O   UNL A   1      34.968  34.400  32.468  1.00  0.00    -0.460 OA
BRANCH  32  33
ATOM     33  C   UNL A   1      34.931  33.050  32.444  1.00  0.00     0.338 C 
ATOM     34  O   UNL A   1      33.935  32.336  32.434  1.00  0.00    -0.246 OA
BRANCH  33  35
ATOM     35  C   UNL A   1      36.292  32.523  32.267  1.00  0.00     0.060 A 
ATOM     36  C   UNL A   1      37.256  32.832  33.235  1.00  0.00     0.016 A 
ATOM     37  C   UNL A   1      36.634  31.802  31.121  1.00  0.00     0.016 A 
ATOM     38  C   UNL A   1      38.583  32.469  33.033  1.00  0.00     0.010 A 
ATOM     39  C   UNL A   1      37.969  31.456  30.910  1.00  0.00     0.010 A 
ATOM     40  C   UNL A   1      38.952  31.829  31.844  1.00  0.00    -0.014 A 
BRANCH  40  41
ATOM     41  C   UNL A   1      40.383  31.752  31.480  1.00  0.00     0.031 A 
ATOM     42  C   UNL A   1      40.986  32.907  30.727  1.00  0.00     0.074 A 
ATOM     43  C   UNL A   1      41.137  30.705  31.853  1.00  0.00     0.049 A 
ATOM     44  N   UNL A   1      42.201  33.053  30.271  1.00  0.00    -0.248 NA
ATOM     45  C   UNL A   1      40.099  34.053  30.454  1.00  0.00     0.031 C 
ATOM     46  C   UNL A   1      40.673  29.566  32.644  1.00  0.00     0.029 A 
ATOM     47  N   UNL A   1      42.460  30.434  31.614  1.00  0.00    -0.354 N 
ATOM     48  C   UNL A   1      42.226  34.301  29.658  1.00  0.00     0.074 A 
ATOM     49  C   UNL A   1      40.897  34.859  29.768  1.00  0.00     0.031 C 
ATOM     50  C   UNL A   1      41.700  28.718  32.828  1.00  0.00     0.029 A 
ATOM     51  C   UNL A   1      42.879  29.233  32.134  1.00  0.00     0.049 A 
ATOM     52  H   UNL A   1      43.054  31.042  31.117  1.00  0.00     0.167 HD
ATOM     53  C   UNL A   1      43.267  34.929  29.067  1.00  0.00     0.031 A 
ATOM     54  C   UNL A   1      44.073  28.615  32.041  1.00  0.00     0.031 A 
ATOM     55  C   UNL A   1      44.583  34.362  28.953  1.00  0.00     0.049 A 
ATOM     56  C   UNL A   1      45.188  29.290  31.284  1.00  0.00     0.074 A 
ATOM     57  C   UNL A   1      45.708  34.912  28.366  1.00  0.00     0.029 A 
ATOM     58  N   UNL A   1      44.950  33.114  29.434  1.00  0.00    -0.354 N 
ATOM     59  N   UNL A   1      45.199  30.470  30.709  1.00  0.00    -0.248 NA
ATOM     60  C   UNL A   1      46.454  28.551  31.164  1.00  0.00     0.031 C 
ATOM     61  C   UNL A   1      46.739  33.972  28.438  1.00  0.00     0.029 A 
ATOM     62  C   UNL A   1      46.277  32.865  29.132  1.00  0.00     0.049 A 
ATOM     63  H   UNL A   1      44.355  32.498  29.919  1.00  0.00     0.167 HD
ATOM     64  C   UNL A   1      46.478  30.626  30.183  1.00  0.00     0.074 A 
ATOM     65  C   UNL A   1      47.217  29.428  30.524  1.00  0.00     0.031 C 
ATOM     66  C   UNL A   1      46.996  31.664  29.482  1.00  0.00     0.031 A 
BRANCH  53  67
ATOM     67  C   UNL A   1      43.026  36.294  28.480  1.00  0.00    -0.014 A 
ATOM     68  C   UNL A   1      43.338  37.459  29.204  1.00  0.00     0.010 A 
ATOM     69  C   UNL A   1      42.549  36.413  27.162  1.00  0.00     0.010 A 
ATOM     70  C   UNL A   1      43.163  38.718  28.624  1.00  0.00     0.020 A 
ATOM     71  C   UNL A   1      42.399  37.670  26.569  1.00  0.00     0.020 A 
ATOM     72  C   UNL A   1      42.702  38.816  27.307  1.00  0.00     0.054 A 
BRANCH  72  73
ATOM     73  S   UNL A   1      42.543  40.462  26.564  1.00  0.00     0.124 S 
ATOM     74  O   UNL A   1      41.148  40.466  26.132  1.00  0.00    -0.237 OA
ATOM     75  O   UNL A   1      42.855  41.347  27.684  1.00  0.00    -0.237 OA
ATOM     76  O   UNL A   1      43.527  40.454  25.485  1.00  0.00    -0.744 OA
ENDBRANCH  72  73
ENDBRANCH  53  67
BRANCH  54  77
ATOM     77  C   UNL A   1      44.276  27.280  32.671  1.00  0.00    -0.014 A 
ATOM     78  C   UNL A   1      44.263  26.111  31.890  1.00  0.00     0.010 A 
ATOM     79  C   UNL A   1      44.482  27.170  34.059  1.00  0.00     0.010 A 
ATOM     80  C   UNL A   1      44.436  24.859  32.487  1.00  0.00     0.020 A 
ATOM     81  C   UNL A   1      44.687  25.923  34.655  1.00  0.00     0.020 A 
ATOM     82  C   UNL A   1      44.653  24.773  33.865  1.00  0.00     0.054 A 
BRANCH  82  83
ATOM     83  S   UNL A   1      44.923  23.139  34.605  1.00  0.00     0.124 S 
ATOM     84  O   UNL A   1      44.882  22.264  33.438  1.00  0.00    -0.237 OA
ATOM     85  O   UNL A   1      46.233  23.295  35.234  1.00  0.00    -0.237 OA
ATOM     86  O   UNL A   1      43.807  22.994  35.536  1.00  0.00    -0.744 OA
ENDBRANCH  82  83
ENDBRANCH  54  77
BRANCH  66  87
ATOM     87  C   UNL A   1      48.436  31.574  29.052  1.00  0.00    -0.014 A 
ATOM     88  C   UNL A   1      48.786  31.072  27.787  1.00  0.00     0.010 A 
ATOM     89  C   UNL A   1      49.445  32.083  29.891  1.00  0.00     0.010 A 
ATOM     90  C   UNL A   1      50.123  31.057  27.379  1.00  0.00     0.020 A 
ATOM     91  C   UNL A   1      50.778  32.099  29.474  1.00  0.00     0.020 A 
ATOM     92  C   UNL A   1      51.109  31.576  28.223  1.00  0.00     0.054 A 
BRANCH  92  93
ATOM     93  S   UNL A   1      52.826  31.595  27.641  1.00  0.00     0.124 S 
ATOM     94  O   UNL A   1      53.240  32.958  27.959  1.00  0.00    -0.237 OA
ATOM     95  O   UNL A   1      53.446  30.547  28.447  1.00  0.00    -0.237 OA
ATOM     96  O   UNL A   1      52.715  31.295  26.215  1.00  0.00    -0.744 OA
ENDBRANCH  92  93
ENDBRANCH  66  87
ENDBRANCH  40  41
ENDBRANCH  33  35
ENDBRANCH  32  33
ENDBRANCH  31  32
ENDBRANCH  30  31
ENDBRANCH  29  30
ENDBRANCH  28  29
ENDBRANCH   1  28
TORSDOF 24
ENDMDL
MODEL 3
REMARK VINA RESULT:      -8.2      3.551      4.081
REMARK SMILES Cc1c(Cl)cc2c(c1C)O[C@@H](C(F)(F)F)C(C(=O)OCCOCCOCCOCCOC(=O)c1ccc(-c3c4nc(c(-c5ccc(S(=O)(=O)[O-])cc5)c5ccc([nH]5)c(-c5ccc(S(=O)(=O)[O-])cc5)c5nc(c(-c6ccc(S(=O)(=O)[O-])cc6)c6ccc3[nH]6)C=C5)C=C4)cc1)=C2
REMARK SMILES IDX 26 1 25 2 24 3 23 4 22 5 21 6 20 7 19 8 17 9 18 10 16 11
REMARK SMILES IDX 1 12 2 13 3 14 8 15 4 16 5 17 7 18 9 19 6 20 10 21 94 22
REMARK SMILES IDX 11 23 12 24 13 25 14 26 15 27 27 28 28 29 29 30 30 31 31 32
REMARK SMILES IDX 32 33 33 34 34 35 35 36 93 37 36 38 92 39 37 40 38 41 39 42
REMARK SMILES IDX 86 43 40 44 91 45 85 46 87 47 41 48 90 49 84 50 83 51 42 53
REMARK SMILES IDX 72 54 53 55 71 56 54 57 57 58 70 59 88 60 55 61 56 62 69 64
REMARK SMILES IDX 89 65 58 66 43 67 44 68 52 69 45 70 51 71 46 72 47 73 48 74
REMARK SMILES IDX 49 75 50 76 73 77 74 78 82 79 75 80 81 81 76 82 77 83 78 84
REMARK SMILES IDX 79 85 80 86 59 87 60 88 68 89 61 90 67 91 62 92 63 93 64 94
REMARK SMILES IDX 65 95 66 96
REMARK H PARENT 87 52 57 63
REMARK Flexibility Score: inf
ROOT
ATOM      1  C   UNL A   1      35.085  29.612  27.580  1.00  0.00     0.188 C 
ENDROOT
BRANCH   1   2
ATOM      2  O   UNL A   1      33.997  30.467  27.266  1.00  0.00    -0.377 OA
BRANCH   2   3
ATOM      3  C   UNL A   1      33.020  30.106  26.308  1.00  0.00     0.188 C 
BRANCH   3   4
ATOM      4  C   UNL A   1      32.781  28.642  25.909  1.00  0.00     0.188 C 
BRANCH   4   5
ATOM      5  O   UNL A   1      31.417  28.309  25.817  1.00  0.00    -0.376 OA
BRANCH   5   6
ATOM      6  C   UNL A   1      30.877  27.851  24.597  1.00  0.00     0.202 C 
BRANCH   6   7
ATOM      7  C   UNL A   1      31.280  26.489  24.008  1.00  0.00     0.261 C 
BRANCH   7   8
ATOM      8  O   UNL A   1      30.702  25.331  24.621  1.00  0.00    -0.460 OA
BRANCH   8   9
ATOM      9  C   UNL A   1      31.332  24.857  25.713  1.00  0.00     0.338 C 
ATOM     10  O   UNL A   1      31.071  25.129  26.874  1.00  0.00    -0.246 OA
BRANCH   9  11
ATOM     11  C   UNL A   1      32.302  23.816  25.330  1.00  0.00     0.087 C 
ATOM     12  C   UNL A   1      35.250  18.063  24.542  1.00  0.00     0.046 C 
ATOM     13  C   UNL A   1      34.364  19.284  24.540  1.00  0.00    -0.026 A 
ATOM     14  C   UNL A   1      33.010  19.207  24.159  1.00  0.00     0.045 A 
ATOM     15  C   UNL A   1      34.879  20.535  24.975  1.00  0.00    -0.004 A 
ATOM     16  Cl  UNL A   1      32.278  17.743  23.593  1.00  0.00    -0.084 Cl
ATOM     17  C   UNL A   1      32.174  20.321  24.253  1.00  0.00     0.032 A 
ATOM     18  C   UNL A   1      34.017  21.646  25.080  1.00  0.00     0.131 A 
ATOM     19  C   UNL A   1      36.336  20.731  25.321  1.00  0.00     0.049 C 
ATOM     20  C   UNL A   1      32.667  21.529  24.742  1.00  0.00     0.019 A 
ATOM     21  O   UNL A   1      34.536  22.803  25.610  1.00  0.00    -0.475 OA
ATOM     22  C   UNL A   1      31.764  22.634  25.002  1.00  0.00     0.027 C 
ATOM     23  C   UNL A   1      33.784  24.046  25.437  1.00  0.00     0.316 C 
BRANCH  23  24
ATOM     24  C   UNL A   1      34.443  24.856  24.304  1.00  0.00     0.430 C 
ATOM     25  F   UNL A   1      33.844  24.640  23.111  1.00  0.00    -0.167 F 
ATOM     26  F   UNL A   1      34.453  26.183  24.545  1.00  0.00    -0.167 F 
ATOM     27  F   UNL A   1      35.745  24.490  24.164  1.00  0.00    -0.167 F 
ENDBRANCH  23  24
ENDBRANCH   9  11
ENDBRANCH   8   9
ENDBRANCH   7   8
ENDBRANCH   6   7
ENDBRANCH   5   6
ENDBRANCH   4   5
ENDBRANCH   3   4
ENDBRANCH   2   3
ENDBRANCH   1   2
BRANCH   1  28
ATOM     28  C   UNL A   1      36.519  30.171  27.677  1.00  0.00     0.188 C 
BRANCH  28  29
ATOM     29  O   UNL A   1      36.822  31.213  28.593  1.00  0.00    -0.376 OA
BRANCH  29  30
ATOM     30  C   UNL A   1      36.659  32.562  28.188  1.00  0.00     0.202 C 
BRANCH  30  31
ATOM     31  C   UNL A   1      37.004  33.671  29.178  1.00  0.00     0.261 C 
BRANCH  31  32
ATOM     32  O   UNL A   1      37.194  33.199  30.517  1.00  0.00    -0.460 OA
BRANCH  32  33
ATOM     33  C   UNL A   1      36.349  33.724  31.431  1.00  0.00     0.338 C 
ATOM     34  O   UNL A   1      35.246  34.217  31.225  1.00  0.00    -0.246 OA
BRANCH  33  35
ATOM     35  C   UNL A   1      36.873  33.480  32.783  1.00  0.00     0.060 A 
ATOM     36  C   UNL A   1      37.479  34.544  33.463  1.00  0.00     0.016 A 
ATOM     37  C   UNL A   1      36.838  32.200  33.340  1.00  0.00     0.016 A 
ATOM     38  C   UNL A   1      38.107  34.318  34.683  1.00  0.00     0.010 A 
ATOM     39  C   UNL A   1      37.486  31.971  34.555  1.00  0.00     0.010 A 
ATOM     40  C   UNL A   1      38.160  33.020  35.205  1.00  0.00    -0.014 A 
BRANCH  40  41
ATOM     41  C   UNL A   1      39.103  32.723  36.305  1.00  0.00     0.031 A 
ATOM     42  C   UNL A   1      38.568  32.700  37.711  1.00  0.00     0.074 A 
ATOM     43  C   UNL A   1      40.391  32.433  36.053  1.00  0.00     0.049 A 
ATOM     44  N   UNL A   1      39.204  32.499  38.834  1.00  0.00    -0.248 NA
ATOM     45  C   UNL A   1      37.121  32.931  37.871  1.00  0.00     0.031 C 
ATOM     46  C   UNL A   1      40.998  32.358  34.725  1.00  0.00     0.029 A 
ATOM     47  N   UNL A   1      41.420  32.144  36.913  1.00  0.00    -0.354 N 
ATOM     48  C   UNL A   1      38.239  32.581  39.832  1.00  0.00     0.074 A 
ATOM     49  C   UNL A   1      36.980  32.884  39.188  1.00  0.00     0.031 C 
ATOM     50  C   UNL A   1      42.298  32.040  34.860  1.00  0.00     0.029 A 
ATOM     51  C   UNL A   1      42.621  31.929  36.281  1.00  0.00     0.049 A 
ATOM     52  H   UNL A   1      41.308  32.094  37.890  1.00  0.00     0.167 HD
ATOM     53  C   UNL A   1      38.387  32.407  41.164  1.00  0.00     0.031 A 
ATOM     54  C   UNL A   1      43.843  31.691  36.796  1.00  0.00     0.031 A 
ATOM     55  C   UNL A   1      39.644  32.117  41.797  1.00  0.00     0.049 A 
ATOM     56  C   UNL A   1      44.001  31.609  38.293  1.00  0.00     0.074 A 
ATOM     57  C   UNL A   1      39.906  31.929  43.143  1.00  0.00     0.029 A 
ATOM     58  N   UNL A   1      40.851  31.973  41.129  1.00  0.00    -0.354 N 
ATOM     59  N   UNL A   1      43.081  31.688  39.226  1.00  0.00    -0.248 NA
ATOM     60  C   UNL A   1      45.363  31.402  38.808  1.00  0.00     0.031 C 
ATOM     61  C   UNL A   1      41.280  31.733  43.294  1.00  0.00     0.029 A 
ATOM     62  C   UNL A   1      41.865  31.728  42.038  1.00  0.00     0.049 A 
ATOM     63  H   UNL A   1      40.968  32.036  40.154  1.00  0.00     0.167 HD
ATOM     64  C   UNL A   1      43.748  31.514  40.435  1.00  0.00     0.074 A 
ATOM     65  C   UNL A   1      45.145  31.308  40.114  1.00  0.00     0.031 C 
ATOM     66  C   UNL A   1      43.252  31.524  41.697  1.00  0.00     0.031 A 
BRANCH  53  67
ATOM     67  C   UNL A   1      37.166  32.544  42.034  1.00  0.00    -0.014 A 
ATOM     68  C   UNL A   1      36.856  33.764  42.661  1.00  0.00     0.010 A 
ATOM     69  C   UNL A   1      36.278  31.461  42.167  1.00  0.00     0.010 A 
ATOM     70  C   UNL A   1      35.688  33.893  43.418  1.00  0.00     0.020 A 
ATOM     71  C   UNL A   1      35.096  31.594  42.900  1.00  0.00     0.020 A 
ATOM     72  C   UNL A   1      34.812  32.809  43.526  1.00  0.00     0.054 A 
BRANCH  72  73
ATOM     73  S   UNL A   1      33.276  33.028  44.466  1.00  0.00     0.124 S 
ATOM     74  O   UNL A   1      32.286  33.166  43.400  1.00  0.00    -0.237 OA
ATOM     75  O   UNL A   1      33.198  31.790  45.237  1.00  0.00    -0.237 OA
ATOM     76  O   UNL A   1      33.516  34.236  45.251  1.00  0.00    -0.744 OA
ENDBRANCH  72  73
ENDBRANCH  53  67
BRANCH  54  77
ATOM     77  C   UNL A   1      45.017  31.526  35.894  1.00  0.00    -0.014 A 
ATOM     78  C   UNL A   1      45.632  30.271  35.742  1.00  0.00     0.010 A 
ATOM     79  C   UNL A   1      45.527  32.626  35.180  1.00  0.00     0.010 A 
ATOM     80  C   UNL A   1      46.743  30.123  34.907  1.00  0.00     0.020 A 
ATOM     81  C   UNL A   1      46.619  32.476  34.320  1.00  0.00     0.020 A 
ATOM     82  C   UNL A   1      47.226  31.226  34.197  1.00  0.00     0.054 A 
BRANCH  82  83
ATOM     83  S   UNL A   1      48.640  30.994  33.083  1.00  0.00     0.124 S 
ATOM     84  O   UNL A   1      48.375  31.983  32.043  1.00  0.00    -0.237 OA
ATOM     85  O   UNL A   1      49.775  31.282  33.956  1.00  0.00    -0.237 OA
ATOM     86  O   UNL A   1      48.523  29.599  32.665  1.00  0.00    -0.744 OA
ENDBRANCH  82  83
ENDBRANCH  54  77
BRANCH  66  87
ATOM     87  C   UNL A   1      44.211  31.282  42.831  1.00  0.00    -0.014 A 
ATOM     88  C   UNL A   1      44.503  29.979  43.270  1.00  0.00     0.010 A 
ATOM     89  C   UNL A   1      44.898  32.368  43.406  1.00  0.00     0.010 A 
ATOM     90  C   UNL A   1      45.446  29.768  44.280  1.00  0.00     0.020 A 
ATOM     91  C   UNL A   1      45.865  32.160  44.393  1.00  0.00     0.020 A 
ATOM     92  C   UNL A   1      46.125  30.860  44.831  1.00  0.00     0.054 A 
BRANCH  92  93
ATOM     93  S   UNL A   1      47.382  30.549  46.099  1.00  0.00     0.124 S 
ATOM     94  O   UNL A   1      46.716  29.575  46.957  1.00  0.00    -0.237 OA
ATOM     95  O   UNL A   1      48.503  30.035  45.316  1.00  0.00    -0.237 OA
ATOM     96  O   UNL A   1      47.601  31.863  46.703  1.00  0.00    -0.744 OA
ENDBRANCH  92  93
ENDBRANCH  66  87
ENDBRANCH  40  41
ENDBRANCH  33  35
ENDBRANCH  32  33
ENDBRANCH  31  32
ENDBRANCH  30  31
ENDBRANCH  29  30
ENDBRANCH  28  29
ENDBRANCH   1  28
TORSDOF 24
ENDMDL
