MODEL 1
REMARK VINA RESULT:      -9.9      0.000      0.000
REMARK SMILES CSc1nc(O)nc(C)c1C(=O)N1C[C@@H](O)C[C@@H]1C(=O)OCCOCCOCCOCCOC(=O)c1ccc(-c2c3nc(c(-c4ccc(S(=O)(=O)[O-])cc4)c4ccc([nH]4)c(-c4ccc(S(=O)(=O)[O-])cc4)c4nc(c(-c5ccc(S(=O)(=O)[O-])cc5)c5ccc2[nH]5)C=C4)C=C3)cc1
REMARK SMILES IDX 27 1 26 2 25 3 24 4 23 5 22 6 21 7 19 8 20 9 18 10 13 11
REMARK SMILES IDX 14 12 15 13 17 14 11 15 12 16 10 17 3 18 4 19 5 20 8 21 7 22
REMARK SMILES IDX 9 23 2 24 1 25 6 26 16 28 28 30 29 31 30 32 31 33 32 34
REMARK SMILES IDX 33 35 34 36 35 37 36 38 37 39 95 40 38 41 94 42 39 43 40 44
REMARK SMILES IDX 41 45 88 46 42 47 93 48 87 49 89 50 43 51 92 52 86 53 85 54
REMARK SMILES IDX 44 56 74 57 55 58 73 59 56 60 59 61 72 62 90 63 57 64 58 65
REMARK SMILES IDX 71 67 91 68 60 69 45 70 46 71 54 72 47 73 53 74 48 75 49 76
REMARK SMILES IDX 50 77 51 78 52 79 75 80 76 81 84 82 77 83 83 84 78 85 79 86
REMARK SMILES IDX 80 87 81 88 82 89 61 90 62 91 70 92 63 93 69 94 64 95 65 96
REMARK SMILES IDX 66 97 67 98 68 99
REMARK H PARENT 6 27 16 29 89 55 59 66
REMARK Flexibility Score: inf
ROOT
ATOM      1  O   UNL A   1      39.278  21.379  25.773  1.00  0.00    -0.377 OA
ENDROOT
BRANCH   1   2
ATOM      2  C   UNL A   1      37.988  21.805  25.389  1.00  0.00     0.188 C 
BRANCH   2   3
ATOM      3  C   UNL A   1      37.715  23.271  25.769  1.00  0.00     0.188 C 
BRANCH   3   4
ATOM      4  O   UNL A   1      36.437  23.672  26.236  1.00  0.00    -0.376 OA
BRANCH   4   5
ATOM      5  C   UNL A   1      35.252  23.467  25.478  1.00  0.00     0.202 C 
BRANCH   5   6
ATOM      6  C   UNL A   1      34.954  24.093  24.098  1.00  0.00     0.261 C 
BRANCH   6   7
ATOM      7  O   UNL A   1      33.904  25.060  24.042  1.00  0.00    -0.462 OA
BRANCH   7   8
ATOM      8  C   UNL A   1      32.937  24.863  23.112  1.00  0.00     0.329 C 
ATOM      9  O   UNL A   1      33.112  24.915  21.904  1.00  0.00    -0.250 OA
BRANCH   8  10
ATOM     10  C   UNL A   1      31.608  24.538  23.801  1.00  0.00     0.198 C 
ATOM     11  N   UNL A   1      31.531  25.040  25.193  1.00  0.00    -0.322 N 
ATOM     12  C   UNL A   1      31.060  23.953  26.029  1.00  0.00     0.152 C 
ATOM     13  C   UNL A   1      31.653  22.720  25.356  1.00  0.00     0.136 C 
ATOM     14  C   UNL A   1      31.419  23.025  23.880  1.00  0.00     0.071 C 
BRANCH  11  15
ATOM     15  C   UNL A   1      31.148  26.339  25.493  1.00  0.00     0.259 C 
ATOM     16  O   UNL A   1      30.842  26.602  26.653  1.00  0.00    -0.269 OA
BRANCH  15  17
ATOM     17  C   UNL A   1      31.003  27.374  24.392  1.00  0.00     0.093 A 
ATOM     18  C   UNL A   1      32.008  28.266  23.975  1.00  0.00     0.116 A 
ATOM     19  N   UNL A   1      31.870  29.128  22.935  1.00  0.00    -0.188 NA
ATOM     20  C   UNL A   1      30.715  29.104  22.301  1.00  0.00     0.315 A 
ATOM     21  C   UNL A   1      29.823  27.458  23.619  1.00  0.00     0.058 A 
ATOM     22  N   UNL A   1      29.679  28.335  22.582  1.00  0.00    -0.200 NA
ATOM     23  C   UNL A   1      28.550  26.677  23.794  1.00  0.00     0.068 C 
BRANCH  18  24
ATOM     24  S   UNL A   1      33.593  28.539  24.747  1.00  0.00    -0.109 SA
ATOM     25  C   UNL A   1      33.081  29.613  26.107  1.00  0.00     0.092 C 
ENDBRANCH  18  24
BRANCH  20  26
ATOM     26  O   UNL A   1      30.532  29.968  21.272  1.00  0.00    -0.479 OA
ATOM     27  H   UNL A   1      29.989  30.723  21.385  1.00  0.00     0.297 HD
ENDBRANCH  20  26
ENDBRANCH  15  17
ENDBRANCH  11  15
BRANCH  13  28
ATOM     28  O   UNL A   1      31.037  21.515  25.763  1.00  0.00    -0.391 OA
ATOM     29  H   UNL A   1      30.088  21.555  25.567  1.00  0.00     0.211 HD
ENDBRANCH  13  28
ENDBRANCH   8  10
ENDBRANCH   7   8
ENDBRANCH   6   7
ENDBRANCH   5   6
ENDBRANCH   4   5
ENDBRANCH   3   4
ENDBRANCH   2   3
ENDBRANCH   1   2
BRANCH   1  30
ATOM     30  C   UNL A   1      40.022  22.316  26.537  1.00  0.00     0.188 C 
BRANCH  30  31
ATOM     31  C   UNL A   1      40.996  21.777  27.610  1.00  0.00     0.188 C 
BRANCH  31  32
ATOM     32  O   UNL A   1      40.857  20.386  27.885  1.00  0.00    -0.376 OA
BRANCH  32  33
ATOM     33  C   UNL A   1      41.945  19.526  27.583  1.00  0.00     0.202 C 
BRANCH  33  34
ATOM     34  C   UNL A   1      41.927  18.819  26.217  1.00  0.00     0.261 C 
BRANCH  34  35
ATOM     35  O   UNL A   1      42.552  19.512  25.128  1.00  0.00    -0.460 OA
BRANCH  35  36
ATOM     36  C   UNL A   1      43.900  19.580  25.111  1.00  0.00     0.338 C 
ATOM     37  O   UNL A   1      44.679  18.668  24.896  1.00  0.00    -0.246 OA
BRANCH  36  38
ATOM     38  C   UNL A   1      44.267  21.010  25.189  1.00  0.00     0.060 A 
ATOM     39  C   UNL A   1      45.466  21.374  25.818  1.00  0.00     0.016 A 
ATOM     40  C   UNL A   1      43.444  21.983  24.616  1.00  0.00     0.016 A 
ATOM     41  C   UNL A   1      45.838  22.715  25.894  1.00  0.00     0.010 A 
ATOM     42  C   UNL A   1      43.788  23.330  24.741  1.00  0.00     0.010 A 
ATOM     43  C   UNL A   1      44.967  23.700  25.412  1.00  0.00    -0.014 A 
BRANCH  43  44
ATOM     44  C   UNL A   1      45.131  25.093  25.881  1.00  0.00     0.031 A 
ATOM     45  C   UNL A   1      46.508  25.692  25.789  1.00  0.00     0.074 A 
ATOM     46  C   UNL A   1      44.104  25.817  26.354  1.00  0.00     0.049 A 
ATOM     47  N   UNL A   1      46.930  26.863  26.182  1.00  0.00    -0.248 NA
ATOM     48  C   UNL A   1      47.547  24.854  25.163  1.00  0.00     0.031 C 
ATOM     49  C   UNL A   1      42.712  25.378  26.421  1.00  0.00     0.029 A 
ATOM     50  N   UNL A   1      44.085  27.090  26.870  1.00  0.00    -0.354 N 
ATOM     51  C   UNL A   1      48.278  26.905  25.847  1.00  0.00     0.074 A 
ATOM     52  C   UNL A   1      48.611  25.635  25.243  1.00  0.00     0.031 C 
ATOM     53  C   UNL A   1      41.974  26.365  26.960  1.00  0.00     0.029 A 
ATOM     54  C   UNL A   1      42.846  27.488  27.305  1.00  0.00     0.049 A 
ATOM     55  H   UNL A   1      44.886  27.661  26.924  1.00  0.00     0.167 HD
ATOM     56  C   UNL A   1      49.162  27.911  26.024  1.00  0.00     0.031 A 
ATOM     57  C   UNL A   1      42.465  28.621  27.928  1.00  0.00     0.031 A 
ATOM     58  C   UNL A   1      48.842  29.156  26.661  1.00  0.00     0.049 A 
ATOM     59  C   UNL A   1      43.488  29.685  28.227  1.00  0.00     0.074 A 
ATOM     60  C   UNL A   1      49.676  30.230  26.911  1.00  0.00     0.029 A 
ATOM     61  N   UNL A   1      47.593  29.489  27.158  1.00  0.00    -0.354 N 
ATOM     62  N   UNL A   1      44.765  29.703  27.928  1.00  0.00    -0.248 NA
ATOM     63  C   UNL A   1      43.021  30.879  28.948  1.00  0.00     0.031 C 
ATOM     64  C   UNL A   1      48.941  31.193  27.608  1.00  0.00     0.029 A 
ATOM     65  C   UNL A   1      47.636  30.743  27.738  1.00  0.00     0.049 A 
ATOM     66  H   UNL A   1      46.793  28.917  27.105  1.00  0.00     0.167 HD
ATOM     67  C   UNL A   1      45.253  30.914  28.412  1.00  0.00     0.074 A 
ATOM     68  C   UNL A   1      44.131  31.603  29.017  1.00  0.00     0.031 C 
ATOM     69  C   UNL A   1      46.515  31.408  28.353  1.00  0.00     0.031 A 
BRANCH  56  70
ATOM     70  C   UNL A   1      50.569  27.679  25.551  1.00  0.00    -0.014 A 
ATOM     71  C   UNL A   1      50.967  28.055  24.255  1.00  0.00     0.010 A 
ATOM     72  C   UNL A   1      51.508  27.092  26.417  1.00  0.00     0.010 A 
ATOM     73  C   UNL A   1      52.274  27.821  23.825  1.00  0.00     0.020 A 
ATOM     74  C   UNL A   1      52.823  26.878  25.998  1.00  0.00     0.020 A 
ATOM     75  C   UNL A   1      53.195  27.237  24.701  1.00  0.00     0.054 A 
BRANCH  75  76
ATOM     76  S   UNL A   1      54.886  26.952  24.110  1.00  0.00     0.124 S 
ATOM     77  O   UNL A   1      55.588  28.128  24.617  1.00  0.00    -0.237 OA
ATOM     78  O   UNL A   1      55.231  25.687  24.752  1.00  0.00    -0.237 OA
ATOM     79  O   UNL A   1      54.743  26.896  22.658  1.00  0.00    -0.744 OA
ENDBRANCH  75  76
ENDBRANCH  56  70
BRANCH  57  80
ATOM     80  C   UNL A   1      41.039  28.788  28.314  1.00  0.00    -0.014 A 
ATOM     81  C   UNL A   1      40.639  28.610  29.649  1.00  0.00     0.010 A 
ATOM     82  C   UNL A   1      40.091  29.212  27.364  1.00  0.00     0.010 A 
ATOM     83  C   UNL A   1      39.323  28.885  30.034  1.00  0.00     0.020 A 
ATOM     84  C   UNL A   1      38.779  29.506  27.748  1.00  0.00     0.020 A 
ATOM     85  C   UNL A   1      38.408  29.353  29.085  1.00  0.00     0.054 A 
BRANCH  85  86
ATOM     86  S   UNL A   1      36.741  29.811  29.638  1.00  0.00     0.124 S 
ATOM     87  O   UNL A   1      35.902  29.279  28.569  1.00  0.00    -0.237 OA
ATOM     88  O   UNL A   1      36.646  29.118  30.922  1.00  0.00    -0.237 OA
ATOM     89  O   UNL A   1      36.795  31.268  29.724  1.00  0.00    -0.744 OA
ENDBRANCH  85  86
ENDBRANCH  57  80
BRANCH  69  90
ATOM     90  C   UNL A   1      46.771  32.765  28.951  1.00  0.00    -0.014 A 
ATOM     91  C   UNL A   1      47.454  32.899  30.172  1.00  0.00     0.010 A 
ATOM     92  C   UNL A   1      46.425  33.921  28.226  1.00  0.00     0.010 A 
ATOM     93  C   UNL A   1      47.776  34.167  30.663  1.00  0.00     0.020 A 
ATOM     94  C   UNL A   1      46.767  35.189  28.701  1.00  0.00     0.020 A 
ATOM     95  C   UNL A   1      47.439  35.304  29.919  1.00  0.00     0.054 A 
BRANCH  95  96
ATOM     96  S   UNL A   1      47.913  36.932  30.563  1.00  0.00     0.124 S 
ATOM     97  O   UNL A   1      48.733  37.465  29.479  1.00  0.00    -0.237 OA
ATOM     98  O   UNL A   1      46.620  37.583  30.751  1.00  0.00    -0.237 OA
ATOM     99  O   UNL A   1      48.638  36.623  31.794  1.00  0.00    -0.744 OA
ENDBRANCH  95  96
ENDBRANCH  69  90
ENDBRANCH  43  44
ENDBRANCH  36  38
ENDBRANCH  35  36
ENDBRANCH  34  35
ENDBRANCH  33  34
ENDBRANCH  32  33
ENDBRANCH  31  32
ENDBRANCH  30  31
ENDBRANCH   1  30
TORSDOF 28
ENDMDL
MODEL 2
REMARK VINA RESULT:      -9.4      2.832      3.450
REMARK SMILES CSc1nc(O)nc(C)c1C(=O)N1C[C@@H](O)C[C@@H]1C(=O)OCCOCCOCCOCCOC(=O)c1ccc(-c2c3nc(c(-c4ccc(S(=O)(=O)[O-])cc4)c4ccc([nH]4)c(-c4ccc(S(=O)(=O)[O-])cc4)c4nc(c(-c5ccc(S(=O)(=O)[O-])cc5)c5ccc2[nH]5)C=C4)C=C3)cc1
REMARK SMILES IDX 27 1 26 2 25 3 24 4 23 5 22 6 21 7 19 8 20 9 18 10 13 11
REMARK SMILES IDX 14 12 15 13 17 14 11 15 12 16 10 17 3 18 4 19 5 20 8 21 7 22
REMARK SMILES IDX 9 23 2 24 1 25 6 26 16 28 28 30 29 31 30 32 31 33 32 34
REMARK SMILES IDX 33 35 34 36 35 37 36 38 37 39 95 40 38 41 94 42 39 43 40 44
REMARK SMILES IDX 41 45 88 46 42 47 93 48 87 49 89 50 43 51 92 52 86 53 85 54
REMARK SMILES IDX 44 56 74 57 55 58 73 59 56 60 59 61 72 62 90 63 57 64 58 65
REMARK SMILES IDX 71 67 91 68 60 69 45 70 46 71 54 72 47 73 53 74 48 75 49 76
REMARK SMILES IDX 50 77 51 78 52 79 75 80 76 81 84 82 77 83 83 84 78 85 79 86
REMARK SMILES IDX 80 87 81 88 82 89 61 90 62 91 70 92 63 93 69 94 64 95 65 96
REMARK SMILES IDX 66 97 67 98 68 99
REMARK H PARENT 6 27 16 29 89 55 59 66
REMARK Flexibility Score: inf
ROOT
ATOM      1  O   UNL A   1      39.030  21.263  25.841  1.00  0.00    -0.377 OA
ENDROOT
BRANCH   1   2
ATOM      2  C   UNL A   1      37.824  21.684  25.237  1.00  0.00     0.188 C 
BRANCH   2   3
ATOM      3  C   UNL A   1      37.210  22.906  25.941  1.00  0.00     0.188 C 
BRANCH   3   4
ATOM      4  O   UNL A   1      35.807  23.120  25.929  1.00  0.00    -0.376 OA
BRANCH   4   5
ATOM      5  C   UNL A   1      35.042  23.077  24.731  1.00  0.00     0.202 C 
BRANCH   5   6
ATOM      6  C   UNL A   1      34.852  24.253  23.750  1.00  0.00     0.261 C 
BRANCH   6   7
ATOM      7  O   UNL A   1      33.684  25.056  23.925  1.00  0.00    -0.462 OA
BRANCH   7   8
ATOM      8  C   UNL A   1      32.668  24.862  23.049  1.00  0.00     0.329 C 
ATOM      9  O   UNL A   1      32.773  24.935  21.834  1.00  0.00    -0.250 OA
BRANCH   8  10
ATOM     10  C   UNL A   1      31.383  24.511  23.807  1.00  0.00     0.198 C 
ATOM     11  N   UNL A   1      31.356  25.041  25.191  1.00  0.00    -0.322 N 
ATOM     12  C   UNL A   1      30.961  23.958  26.070  1.00  0.00     0.152 C 
ATOM     13  C   UNL A   1      31.561  22.729  25.394  1.00  0.00     0.136 C 
ATOM     14  C   UNL A   1      31.247  22.994  23.926  1.00  0.00     0.071 C 
BRANCH  11  15
ATOM     15  C   UNL A   1      30.946  26.333  25.483  1.00  0.00     0.259 C 
ATOM     16  O   UNL A   1      30.659  26.603  26.646  1.00  0.00    -0.269 OA
BRANCH  15  17
ATOM     17  C   UNL A   1      30.751  27.349  24.372  1.00  0.00     0.093 A 
ATOM     18  C   UNL A   1      31.733  28.238  23.900  1.00  0.00     0.116 A 
ATOM     19  N   UNL A   1      31.548  29.083  22.853  1.00  0.00    -0.188 NA
ATOM     20  C   UNL A   1      30.369  29.043  22.268  1.00  0.00     0.315 A 
ATOM     21  C   UNL A   1      29.540  27.416  23.648  1.00  0.00     0.058 A 
ATOM     22  N   UNL A   1      29.348  28.275  22.604  1.00  0.00    -0.200 NA
ATOM     23  C   UNL A   1      28.279  26.632  23.888  1.00  0.00     0.068 C 
BRANCH  18  24
ATOM     24  S   UNL A   1      33.347  28.531  24.601  1.00  0.00    -0.109 SA
ATOM     25  C   UNL A   1      34.309  28.695  23.080  1.00  0.00     0.092 C 
ENDBRANCH  18  24
BRANCH  20  26
ATOM     26  O   UNL A   1      30.139  29.890  21.234  1.00  0.00    -0.479 OA
ATOM     27  H   UNL A   1      30.560  30.727  21.210  1.00  0.00     0.297 HD
ENDBRANCH  20  26
ENDBRANCH  15  17
ENDBRANCH  11  15
BRANCH  13  28
ATOM     28  O   UNL A   1      31.004  21.515  25.855  1.00  0.00    -0.391 OA
ATOM     29  H   UNL A   1      30.037  21.551  25.774  1.00  0.00     0.211 HD
ENDBRANCH  13  28
ENDBRANCH   8  10
ENDBRANCH   7   8
ENDBRANCH   6   7
ENDBRANCH   5   6
ENDBRANCH   4   5
ENDBRANCH   3   4
ENDBRANCH   2   3
ENDBRANCH   1   2
BRANCH   1  30
ATOM     30  C   UNL A   1      39.778  22.288  26.477  1.00  0.00     0.188 C 
BRANCH  30  31
ATOM     31  C   UNL A   1      40.773  21.885  27.589  1.00  0.00     0.188 C 
BRANCH  31  32
ATOM     32  O   UNL A   1      40.715  20.511  27.960  1.00  0.00    -0.376 OA
BRANCH  32  33
ATOM     33  C   UNL A   1      41.821  19.678  27.643  1.00  0.00     0.202 C 
BRANCH  33  34
ATOM     34  C   UNL A   1      41.759  18.900  26.319  1.00  0.00     0.261 C 
BRANCH  34  35
ATOM     35  O   UNL A   1      42.330  19.542  25.170  1.00  0.00    -0.460 OA
BRANCH  35  36
ATOM     36  C   UNL A   1      43.661  19.427  24.976  1.00  0.00     0.338 C 
ATOM     37  O   UNL A   1      44.256  18.468  24.516  1.00  0.00    -0.246 OA
BRANCH  36  38
ATOM     38  C   UNL A   1      44.256  20.757  25.222  1.00  0.00     0.060 A 
ATOM     39  C   UNL A   1      45.641  20.861  25.412  1.00  0.00     0.016 A 
ATOM     40  C   UNL A   1      43.452  21.899  25.235  1.00  0.00     0.016 A 
ATOM     41  C   UNL A   1      46.226  22.106  25.635  1.00  0.00     0.010 A 
ATOM     42  C   UNL A   1      44.029  23.140  25.513  1.00  0.00     0.010 A 
ATOM     43  C   UNL A   1      45.411  23.239  25.751  1.00  0.00    -0.014 A 
BRANCH  43  44
ATOM     44  C   UNL A   1      45.951  24.445  26.417  1.00  0.00     0.031 A 
ATOM     45  C   UNL A   1      47.071  25.171  25.723  1.00  0.00     0.074 A 
ATOM     46  C   UNL A   1      45.462  24.900  27.582  1.00  0.00     0.049 A 
ATOM     47  N   UNL A   1      47.754  26.211  26.118  1.00  0.00    -0.248 NA
ATOM     48  C   UNL A   1      47.469  24.653  24.402  1.00  0.00     0.031 C 
ATOM     49  C   UNL A   1      44.332  24.332  28.311  1.00  0.00     0.029 A 
ATOM     50  N   UNL A   1      45.869  25.959  28.355  1.00  0.00    -0.354 N 
ATOM     51  C   UNL A   1      48.655  26.474  25.095  1.00  0.00     0.074 A 
ATOM     52  C   UNL A   1      48.453  25.473  24.073  1.00  0.00     0.031 C 
ATOM     53  C   UNL A   1      44.141  25.045  29.435  1.00  0.00     0.029 A 
ATOM     54  C   UNL A   1      45.156  26.096  29.519  1.00  0.00     0.049 A 
ATOM     55  H   UNL A   1      46.604  26.563  28.098  1.00  0.00     0.167 HD
ATOM     56  C   UNL A   1      49.572  27.464  25.009  1.00  0.00     0.031 A 
ATOM     57  C   UNL A   1      45.318  26.958  30.543  1.00  0.00     0.031 A 
ATOM     58  C   UNL A   1      49.802  28.434  26.040  1.00  0.00     0.049 A 
ATOM     59  C   UNL A   1      46.422  27.980  30.488  1.00  0.00     0.074 A 
ATOM     60  C   UNL A   1      50.727  29.462  26.060  1.00  0.00     0.029 A 
ATOM     61  N   UNL A   1      49.110  28.489  27.239  1.00  0.00    -0.354 N 
ATOM     62  N   UNL A   1      47.285  28.204  29.525  1.00  0.00    -0.248 NA
ATOM     63  C   UNL A   1      46.577  28.862  31.653  1.00  0.00     0.031 C 
ATOM     64  C   UNL A   1      50.627  30.107  27.296  1.00  0.00     0.029 A 
ATOM     65  C   UNL A   1      49.602  29.519  28.020  1.00  0.00     0.049 A 
ATOM     66  H   UNL A   1      48.375  27.885  27.496  1.00  0.00     0.167 HD
ATOM     67  C   UNL A   1      48.078  29.261  29.963  1.00  0.00     0.074 A 
ATOM     68  C   UNL A   1      47.586  29.636  31.273  1.00  0.00     0.031 C 
ATOM     69  C   UNL A   1      49.114  29.867  29.331  1.00  0.00     0.031 A 
BRANCH  56  70
ATOM     70  C   UNL A   1      50.415  27.513  23.767  1.00  0.00    -0.014 A 
ATOM     71  C   UNL A   1      49.904  28.037  22.566  1.00  0.00     0.010 A 
ATOM     72  C   UNL A   1      51.739  27.042  23.804  1.00  0.00     0.010 A 
ATOM     73  C   UNL A   1      50.695  28.064  21.416  1.00  0.00     0.020 A 
ATOM     74  C   UNL A   1      52.542  27.089  22.662  1.00  0.00     0.020 A 
ATOM     75  C   UNL A   1      52.010  27.593  21.473  1.00  0.00     0.054 A 
BRANCH  75  76
ATOM     76  S   UNL A   1      53.011  27.647  19.962  1.00  0.00     0.124 S 
ATOM     77  O   UNL A   1      53.227  26.228  19.688  1.00  0.00    -0.237 OA
ATOM     78  O   UNL A   1      52.130  28.341  19.028  1.00  0.00    -0.237 OA
ATOM     79  O   UNL A   1      54.205  28.387  20.361  1.00  0.00    -0.744 OA
ENDBRANCH  75  76
ENDBRANCH  56  70
BRANCH  57  80
ATOM     80  C   UNL A   1      44.402  26.871  31.711  1.00  0.00    -0.014 A 
ATOM     81  C   UNL A   1      44.689  25.999  32.775  1.00  0.00     0.010 A 
ATOM     82  C   UNL A   1      43.286  27.724  31.804  1.00  0.00     0.010 A 
ATOM     83  C   UNL A   1      43.894  26.005  33.926  1.00  0.00     0.020 A 
ATOM     84  C   UNL A   1      42.501  27.746  32.961  1.00  0.00     0.020 A 
ATOM     85  C   UNL A   1      42.820  26.894  34.020  1.00  0.00     0.054 A 
BRANCH  85  86
ATOM     86  S   UNL A   1      41.880  26.960  35.571  1.00  0.00     0.124 S 
ATOM     87  O   UNL A   1      42.938  26.946  36.577  1.00  0.00    -0.237 OA
ATOM     88  O   UNL A   1      41.154  28.221  35.434  1.00  0.00    -0.237 OA
ATOM     89  O   UNL A   1      41.049  25.759  35.522  1.00  0.00    -0.744 OA
ENDBRANCH  85  86
ENDBRANCH  57  80
BRANCH  69  90
ATOM     90  C   UNL A   1      49.799  31.009  30.032  1.00  0.00    -0.014 A 
ATOM     91  C   UNL A   1      50.821  30.773  30.968  1.00  0.00     0.010 A 
ATOM     92  C   UNL A   1      49.496  32.334  29.664  1.00  0.00     0.010 A 
ATOM     93  C   UNL A   1      51.519  31.845  31.532  1.00  0.00     0.020 A 
ATOM     94  C   UNL A   1      50.208  33.405  30.207  1.00  0.00     0.020 A 
ATOM     95  C   UNL A   1      51.214  33.153  31.141  1.00  0.00     0.054 A 
BRANCH  95  96
ATOM     96  S   UNL A   1      52.171  34.517  31.859  1.00  0.00     0.124 S 
ATOM     97  O   UNL A   1      51.518  34.703  33.153  1.00  0.00    -0.237 OA
ATOM     98  O   UNL A   1      53.520  33.960  31.911  1.00  0.00    -0.237 OA
ATOM     99  O   UNL A   1      51.985  35.611  30.909  1.00  0.00    -0.744 OA
ENDBRANCH  95  96
ENDBRANCH  69  90
ENDBRANCH  43  44
ENDBRANCH  36  38
ENDBRANCH  35  36
ENDBRANCH  34  35
ENDBRANCH  33  34
ENDBRANCH  32  33
ENDBRANCH  31  32
ENDBRANCH  30  31
ENDBRANCH   1  30
TORSDOF 28
ENDMDL
MODEL 3
REMARK VINA RESULT:      -8.6      1.510      2.089
REMARK SMILES CSc1nc(O)nc(C)c1C(=O)N1C[C@@H](O)C[C@@H]1C(=O)OCCOCCOCCOCCOC(=O)c1ccc(-c2c3nc(c(-c4ccc(S(=O)(=O)[O-])cc4)c4ccc([nH]4)c(-c4ccc(S(=O)(=O)[O-])cc4)c4nc(c(-c5ccc(S(=O)(=O)[O-])cc5)c5ccc2[nH]5)C=C4)C=C3)cc1
REMARK SMILES IDX 27 1 26 2 25 3 24 4 23 5 22 6 21 7 19 8 20 9 18 10 13 11
REMARK SMILES IDX 14 12 15 13 17 14 11 15 12 16 10 17 3 18 4 19 5 20 8 21 7 22
REMARK SMILES IDX 9 23 2 24 1 25 6 26 16 28 28 30 29 31 30 32 31 33 32 34
REMARK SMILES IDX 33 35 34 36 35 37 36 38 37 39 95 40 38 41 94 42 39 43 40 44
REMARK SMILES IDX 41 45 88 46 42 47 93 48 87 49 89 50 43 51 92 52 86 53 85 54
REMARK SMILES IDX 44 56 74 57 55 58 73 59 56 60 59 61 72 62 90 63 57 64 58 65
REMARK SMILES IDX 71 67 91 68 60 69 45 70 46 71 54 72 47 73 53 74 48 75 49 76
REMARK SMILES IDX 50 77 51 78 52 79 75 80 76 81 84 82 77 83 83 84 78 85 79 86
REMARK SMILES IDX 80 87 81 88 82 89 61 90 62 91 70 92 63 93 69 94 64 95 65 96
REMARK SMILES IDX 66 97 67 98 68 99
REMARK H PARENT 6 27 16 29 89 55 59 66
REMARK Flexibility Score: inf
ROOT
ATOM      1  O   UNL A   1      38.803  20.849  25.650  1.00  0.00    -0.377 OA
ENDROOT
BRANCH   1   2
ATOM      2  C   UNL A   1      37.808  21.663  25.065  1.00  0.00     0.188 C 
BRANCH   2   3
ATOM      3  C   UNL A   1      37.617  22.991  25.819  1.00  0.00     0.188 C 
BRANCH   3   4
ATOM      4  O   UNL A   1      36.319  23.518  26.040  1.00  0.00    -0.376 OA
BRANCH   4   5
ATOM      5  C   UNL A   1      35.548  24.102  24.997  1.00  0.00     0.202 C 
BRANCH   5   6
ATOM      6  C   UNL A   1      34.896  23.331  23.829  1.00  0.00     0.261 C 
BRANCH   6   7
ATOM      7  O   UNL A   1      33.610  22.758  24.073  1.00  0.00    -0.462 OA
BRANCH   7   8
ATOM      8  C   UNL A   1      32.672  22.921  23.108  1.00  0.00     0.329 C 
ATOM      9  O   UNL A   1      32.802  22.569  21.945  1.00  0.00    -0.250 OA
BRANCH   8  10
ATOM     10  C   UNL A   1      31.423  23.581  23.698  1.00  0.00     0.198 C 
ATOM     11  N   UNL A   1      31.648  24.981  24.131  1.00  0.00    -0.322 N 
ATOM     12  C   UNL A   1      31.112  25.120  25.471  1.00  0.00     0.152 C 
ATOM     13  C   UNL A   1      31.357  23.746  26.085  1.00  0.00     0.136 C 
ATOM     14  C   UNL A   1      30.968  22.817  24.940  1.00  0.00     0.071 C 
BRANCH  11  15
ATOM     15  C   UNL A   1      31.564  26.051  23.253  1.00  0.00     0.259 C 
ATOM     16  O   UNL A   1      31.643  25.822  22.049  1.00  0.00    -0.269 OA
BRANCH  15  17
ATOM     17  C   UNL A   1      31.492  27.474  23.776  1.00  0.00     0.093 A 
ATOM     18  C   UNL A   1      30.332  28.269  23.817  1.00  0.00     0.116 A 
ATOM     19  N   UNL A   1      30.285  29.512  24.361  1.00  0.00    -0.188 NA
ATOM     20  C   UNL A   1      31.409  29.972  24.871  1.00  0.00     0.315 A 
ATOM     21  C   UNL A   1      32.618  28.096  24.360  1.00  0.00     0.058 A 
ATOM     22  N   UNL A   1      32.575  29.352  24.895  1.00  0.00    -0.200 NA
ATOM     23  C   UNL A   1      34.015  27.552  24.471  1.00  0.00     0.068 C 
BRANCH  18  24
ATOM     24  S   UNL A   1      28.742  27.891  23.100  1.00  0.00    -0.109 SA
ATOM     25  C   UNL A   1      28.282  29.536  22.510  1.00  0.00     0.092 C 
ENDBRANCH  18  24
BRANCH  20  26
ATOM     26  O   UNL A   1      31.407  31.220  25.401  1.00  0.00    -0.479 OA
ATOM     27  H   UNL A   1      31.957  31.885  25.037  1.00  0.00     0.297 HD
ENDBRANCH  20  26
ENDBRANCH  15  17
ENDBRANCH  11  15
BRANCH  13  28
ATOM     28  O   UNL A   1      30.594  23.515  27.251  1.00  0.00    -0.391 OA
ATOM     29  H   UNL A   1      30.893  22.696  27.677  1.00  0.00     0.211 HD
ENDBRANCH  13  28
ENDBRANCH   8  10
ENDBRANCH   7   8
ENDBRANCH   6   7
ENDBRANCH   5   6
ENDBRANCH   4   5
ENDBRANCH   3   4
ENDBRANCH   2   3
ENDBRANCH   1   2
BRANCH   1  30
ATOM     30  C   UNL A   1      39.864  21.549  26.281  1.00  0.00     0.188 C 
BRANCH  30  31
ATOM     31  C   UNL A   1      41.066  20.734  26.811  1.00  0.00     0.188 C 
BRANCH  31  32
ATOM     32  O   UNL A   1      41.186  19.431  26.248  1.00  0.00    -0.376 OA
BRANCH  32  33
ATOM     33  C   UNL A   1      42.447  18.782  26.312  1.00  0.00     0.202 C 
BRANCH  33  34
ATOM     34  C   UNL A   1      43.364  18.900  25.084  1.00  0.00     0.261 C 
BRANCH  34  35
ATOM     35  O   UNL A   1      43.954  20.185  24.845  1.00  0.00    -0.460 OA
BRANCH  35  36
ATOM     36  C   UNL A   1      45.298  20.258  24.752  1.00  0.00     0.338 C 
ATOM     37  O   UNL A   1      46.049  19.420  24.283  1.00  0.00    -0.246 OA
BRANCH  36  38
ATOM     38  C   UNL A   1      45.689  21.634  25.127  1.00  0.00     0.060 A 
ATOM     39  C   UNL A   1      45.671  22.004  26.479  1.00  0.00     0.016 A 
ATOM     40  C   UNL A   1      46.100  22.542  24.149  1.00  0.00     0.016 A 
ATOM     41  C   UNL A   1      46.046  23.292  26.857  1.00  0.00     0.010 A 
ATOM     42  C   UNL A   1      46.423  23.849  24.521  1.00  0.00     0.010 A 
ATOM     43  C   UNL A   1      46.360  24.235  25.871  1.00  0.00    -0.014 A 
BRANCH  43  44
ATOM     44  C   UNL A   1      46.315  25.674  26.215  1.00  0.00     0.031 A 
ATOM     45  C   UNL A   1      47.615  26.429  26.184  1.00  0.00     0.074 A 
ATOM     46  C   UNL A   1      45.170  26.302  26.526  1.00  0.00     0.049 A 
ATOM     47  N   UNL A   1      47.859  27.673  26.497  1.00  0.00    -0.248 NA
ATOM     48  C   UNL A   1      48.800  25.677  25.733  1.00  0.00     0.031 C 
ATOM     49  C   UNL A   1      43.839  25.700  26.517  1.00  0.00     0.029 A 
ATOM     50  N   UNL A   1      44.953  27.601  26.914  1.00  0.00    -0.354 N 
ATOM     51  C   UNL A   1      49.218  27.853  26.276  1.00  0.00     0.074 A 
ATOM     52  C   UNL A   1      49.754  26.588  25.828  1.00  0.00     0.031 C 
ATOM     53  C   UNL A   1      42.942  26.629  26.892  1.00  0.00     0.029 A 
ATOM     54  C   UNL A   1      43.640  27.878  27.200  1.00  0.00     0.049 A 
ATOM     55  H   UNL A   1      45.673  28.270  26.981  1.00  0.00     0.167 HD
ATOM     56  C   UNL A   1      49.958  28.973  26.429  1.00  0.00     0.031 A 
ATOM     57  C   UNL A   1      43.072  29.004  27.677  1.00  0.00     0.031 A 
ATOM     58  C   UNL A   1      49.436  30.219  26.913  1.00  0.00     0.049 A 
ATOM     59  C   UNL A   1      43.930  30.208  27.958  1.00  0.00     0.074 A 
ATOM     60  C   UNL A   1      50.111  31.406  27.130  1.00  0.00     0.029 A 
ATOM     61  N   UNL A   1      48.114  30.434  27.268  1.00  0.00    -0.354 N 
ATOM     62  N   UNL A   1      45.220  30.360  27.768  1.00  0.00    -0.248 NA
ATOM     63  C   UNL A   1      43.260  31.392  28.518  1.00  0.00     0.031 C 
ATOM     64  C   UNL A   1      49.205  32.326  27.664  1.00  0.00     0.029 A 
ATOM     65  C   UNL A   1      47.955  31.730  27.725  1.00  0.00     0.049 A 
ATOM     66  H   UNL A   1      47.395  29.765  27.201  1.00  0.00     0.167 HD
ATOM     67  C   UNL A   1      45.514  31.658  28.174  1.00  0.00     0.074 A 
ATOM     68  C   UNL A   1      44.267  32.251  28.611  1.00  0.00     0.031 C 
ATOM     69  C   UNL A   1      46.710  32.300  28.175  1.00  0.00     0.031 A 
BRANCH  56  70
ATOM     70  C   UNL A   1      51.421  28.879  26.103  1.00  0.00    -0.014 A 
ATOM     71  C   UNL A   1      51.894  29.173  24.812  1.00  0.00     0.010 A 
ATOM     72  C   UNL A   1      52.336  28.506  27.104  1.00  0.00     0.010 A 
ATOM     73  C   UNL A   1      53.255  29.068  24.519  1.00  0.00     0.020 A 
ATOM     74  C   UNL A   1      53.702  28.424  26.821  1.00  0.00     0.020 A 
ATOM     75  C   UNL A   1      54.151  28.697  25.527  1.00  0.00     0.054 A 
BRANCH  75  76
ATOM     76  S   UNL A   1      55.912  28.576  25.114  1.00  0.00     0.124 S 
ATOM     77  O   UNL A   1      56.170  29.872  24.492  1.00  0.00    -0.237 OA
ATOM     78  O   UNL A   1      56.526  28.372  26.422  1.00  0.00    -0.237 OA
ATOM     79  O   UNL A   1      55.979  27.432  24.208  1.00  0.00    -0.744 OA
ENDBRANCH  75  76
ENDBRANCH  56  70
BRANCH  57  80
ATOM     80  C   UNL A   1      41.605  29.024  27.921  1.00  0.00    -0.014 A 
ATOM     81  C   UNL A   1      41.104  29.006  29.233  1.00  0.00     0.010 A 
ATOM     82  C   UNL A   1      40.707  29.150  26.845  1.00  0.00     0.010 A 
ATOM     83  C   UNL A   1      39.732  29.147  29.467  1.00  0.00     0.020 A 
ATOM     84  C   UNL A   1      39.338  29.310  27.075  1.00  0.00     0.020 A 
ATOM     85  C   UNL A   1      38.862  29.321  28.387  1.00  0.00     0.054 A 
BRANCH  85  86
ATOM     86  S   UNL A   1      37.104  29.618  28.728  1.00  0.00     0.124 S 
ATOM     87  O   UNL A   1      36.928  28.985  30.031  1.00  0.00    -0.237 OA
ATOM     88  O   UNL A   1      37.035  31.078  28.719  1.00  0.00    -0.237 OA
ATOM     89  O   UNL A   1      36.421  28.960  27.617  1.00  0.00    -0.744 OA
ENDBRANCH  85  86
ENDBRANCH  57  80
BRANCH  69  90
ATOM     90  C   UNL A   1      46.747  33.724  28.659  1.00  0.00    -0.014 A 
ATOM     91  C   UNL A   1      46.581  34.796  27.766  1.00  0.00     0.010 A 
ATOM     92  C   UNL A   1      46.835  33.986  30.040  1.00  0.00     0.010 A 
ATOM     93  C   UNL A   1      46.513  36.107  28.245  1.00  0.00     0.020 A 
ATOM     94  C   UNL A   1      46.744  35.293  30.524  1.00  0.00     0.020 A 
ATOM     95  C   UNL A   1      46.585  36.346  29.622  1.00  0.00     0.054 A 
BRANCH  95  96
ATOM     96  S   UNL A   1      46.448  38.056  30.212  1.00  0.00     0.124 S 
ATOM     97  O   UNL A   1      45.064  38.386  29.883  1.00  0.00    -0.237 OA
ATOM     98  O   UNL A   1      46.740  37.920  31.637  1.00  0.00    -0.237 OA
ATOM     99  O   UNL A   1      47.457  38.774  29.437  1.00  0.00    -0.744 OA
ENDBRANCH  95  96
ENDBRANCH  69  90
ENDBRANCH  43  44
ENDBRANCH  36  38
ENDBRANCH  35  36
ENDBRANCH  34  35
ENDBRANCH  33  34
ENDBRANCH  32  33
ENDBRANCH  31  32
ENDBRANCH  30  31
ENDBRANCH   1  30
TORSDOF 28
ENDMDL
