MODEL 1
REMARK VINA RESULT:      -8.5      0.000      0.000
REMARK SMILES COc1ccc(/C=C2/SC(=S)N([C@H](C)C(=O)OCCOCCOCCOCCOC(=O)c3ccc(-c4c5nc(c(-c6ccc(S(=O)(=O)[O-])cc6)c6ccc([nH]6)c(-c6ccc(S(=O)(=O)[O-])cc6)c6nc(c(-c7ccc(S(=O)(=O)[O-])cc7)c7ccc4[nH]7)C=C6)C=C5)cc3)C2=O)cc1OC
REMARK SMILES IDX 23 1 22 2 21 3 20 4 19 5 18 6 17 7 15 8 16 9 13 10 14 11
REMARK SMILES IDX 12 12 7 13 8 14 9 15 92 16 10 17 93 18 11 19 6 20 3 21 4 22
REMARK SMILES IDX 95 23 5 24 94 25 2 26 1 27 96 28 97 29 24 30 25 31 26 32
REMARK SMILES IDX 27 33 28 34 29 35 30 36 31 37 32 38 33 39 91 40 34 41 90 42
REMARK SMILES IDX 35 43 36 44 37 45 84 46 38 47 89 48 83 49 85 50 39 51 88 52
REMARK SMILES IDX 82 53 81 54 40 56 70 57 51 58 69 59 52 60 55 61 68 62 86 63
REMARK SMILES IDX 53 64 54 65 67 67 87 68 56 69 41 70 42 71 50 72 43 73 49 74
REMARK SMILES IDX 44 75 45 76 46 77 47 78 48 79 71 80 72 81 80 82 73 83 79 84
REMARK SMILES IDX 74 85 75 86 76 87 77 88 78 89 57 90 58 91 66 92 59 93 65 94
REMARK SMILES IDX 60 95 61 96 62 97 63 98 64 99
REMARK H PARENT 85 55 55 66
REMARK Flexibility Score: inf
ROOT
ATOM      1  O   UNL A   1      42.562  20.740  25.272  1.00  0.00    -0.377 OA
ENDROOT
BRANCH   1   2
ATOM      2  C   UNL A   1      41.871  21.078  26.455  1.00  0.00     0.188 C 
BRANCH   2   3
ATOM      3  C   UNL A   1      40.343  21.199  26.308  1.00  0.00     0.188 C 
BRANCH   3   4
ATOM      4  O   UNL A   1      39.594  22.214  26.962  1.00  0.00    -0.376 OA
BRANCH   4   5
ATOM      5  C   UNL A   1      38.695  23.062  26.261  1.00  0.00     0.202 C 
BRANCH   5   6
ATOM      6  C   UNL A   1      37.571  22.489  25.396  1.00  0.00     0.261 C 
BRANCH   6   7
ATOM      7  O   UNL A   1      36.520  23.393  25.043  1.00  0.00    -0.462 OA
BRANCH   7   8
ATOM      8  C   UNL A   1      36.029  23.300  23.781  1.00  0.00     0.329 C 
ATOM      9  O   UNL A   1      36.641  22.853  22.817  1.00  0.00    -0.250 OA
BRANCH   8  10
ATOM     10  C   UNL A   1      34.640  23.929  23.668  1.00  0.00     0.199 C 
ATOM     11  C   UNL A   1      34.002  23.902  22.260  1.00  0.00     0.044 C 
BRANCH  10  12
ATOM     12  N   UNL A   1      33.663  23.568  24.717  1.00  0.00    -0.279 N 
ATOM     13  C   UNL A   1      31.102  25.202  26.616  1.00  0.00     0.029 C 
ATOM     14  C   UNL A   1      32.017  24.308  26.219  1.00  0.00     0.081 C 
ATOM     15  S   UNL A   1      31.745  22.619  26.170  1.00  0.00    -0.054 SA
ATOM     16  C   UNL A   1      33.315  24.607  25.568  1.00  0.00     0.266 C 
ATOM     17  C   UNL A   1      32.949  22.396  24.891  1.00  0.00     0.149 C 
ATOM     18  O   UNL A   1      33.963  25.628  25.746  1.00  0.00    -0.268 OA
ATOM     19  S   UNL A   1      33.081  20.913  24.149  1.00  0.00    -0.052 S 
BRANCH  13  20
ATOM     20  C   UNL A   1      31.244  26.644  26.403  1.00  0.00    -0.020 A 
ATOM     21  C   UNL A   1      31.635  29.375  25.924  1.00  0.00     0.160 A 
ATOM     22  C   UNL A   1      31.911  28.826  27.185  1.00  0.00     0.051 A 
ATOM     23  C   UNL A   1      31.170  28.561  24.886  1.00  0.00     0.161 A 
ATOM     24  C   UNL A   1      31.712  27.465  27.427  1.00  0.00     0.012 A 
ATOM     25  C   UNL A   1      30.967  27.199  25.145  1.00  0.00     0.058 A 
BRANCH  21  26
ATOM     26  O   UNL A   1      31.954  30.691  25.720  1.00  0.00    -0.493 OA
ATOM     27  C   UNL A   1      32.443  31.303  26.913  1.00  0.00     0.278 C 
ENDBRANCH  21  26
BRANCH  23  28
ATOM     28  O   UNL A   1      30.915  28.897  23.585  1.00  0.00    -0.493 OA
ATOM     29  C   UNL A   1      29.817  29.751  23.313  1.00  0.00     0.278 C 
ENDBRANCH  23  28
ENDBRANCH  13  20
ENDBRANCH  10  12
ENDBRANCH   8  10
ENDBRANCH   7   8
ENDBRANCH   6   7
ENDBRANCH   5   6
ENDBRANCH   4   5
ENDBRANCH   3   4
ENDBRANCH   2   3
ENDBRANCH   1   2
BRANCH   1  30
ATOM     30  C   UNL A   1      43.940  20.407  25.417  1.00  0.00     0.188 C 
BRANCH  30  31
ATOM     31  C   UNL A   1      44.860  20.656  24.205  1.00  0.00     0.188 C 
BRANCH  31  32
ATOM     32  O   UNL A   1      44.848  22.003  23.747  1.00  0.00    -0.376 OA
BRANCH  32  33
ATOM     33  C   UNL A   1      44.953  23.045  24.705  1.00  0.00     0.202 C 
BRANCH  33  34
ATOM     34  C   UNL A   1      46.256  23.134  25.519  1.00  0.00     0.261 C 
BRANCH  34  35
ATOM     35  O   UNL A   1      46.651  24.439  25.965  1.00  0.00    -0.460 OA
BRANCH  35  36
ATOM     36  C   UNL A   1      47.236  25.269  25.070  1.00  0.00     0.338 C 
ATOM     37  O   UNL A   1      47.590  24.997  23.944  1.00  0.00    -0.246 OA
BRANCH  36  38
ATOM     38  C   UNL A   1      47.174  26.637  25.635  1.00  0.00     0.060 A 
ATOM     39  C   UNL A   1      47.764  26.885  26.882  1.00  0.00     0.016 A 
ATOM     40  C   UNL A   1      46.552  27.670  24.931  1.00  0.00     0.016 A 
ATOM     41  C   UNL A   1      47.709  28.161  27.442  1.00  0.00     0.010 A 
ATOM     42  C   UNL A   1      46.473  28.942  25.506  1.00  0.00     0.010 A 
ATOM     43  C   UNL A   1      47.024  29.185  26.777  1.00  0.00    -0.014 A 
BRANCH  43  44
ATOM     44  C   UNL A   1      46.716  30.453  27.482  1.00  0.00     0.031 A 
ATOM     45  C   UNL A   1      45.455  30.521  28.301  1.00  0.00     0.074 A 
ATOM     46  C   UNL A   1      47.529  31.520  27.400  1.00  0.00     0.049 A 
ATOM     47  N   UNL A   1      44.935  31.536  28.938  1.00  0.00    -0.248 NA
ATOM     48  C   UNL A   1      44.677  29.275  28.412  1.00  0.00     0.031 C 
ATOM     49  C   UNL A   1      48.802  31.561  26.682  1.00  0.00     0.029 A 
ATOM     50  N   UNL A   1      47.392  32.784  27.918  1.00  0.00    -0.354 N 
ATOM     51  C   UNL A   1      43.759  31.059  29.510  1.00  0.00     0.074 A 
ATOM     52  C   UNL A   1      43.635  29.670  29.126  1.00  0.00     0.031 C 
ATOM     53  C   UNL A   1      49.321  32.798  26.789  1.00  0.00     0.029 A 
ATOM     54  C   UNL A   1      48.398  33.643  27.545  1.00  0.00     0.049 A 
ATOM     55  H   UNL A   1      46.643  33.049  28.499  1.00  0.00     0.167 HD
ATOM     56  C   UNL A   1      42.865  31.720  30.282  1.00  0.00     0.031 A 
ATOM     57  C   UNL A   1      48.541  34.967  27.762  1.00  0.00     0.031 A 
ATOM     58  C   UNL A   1      42.987  33.107  30.643  1.00  0.00     0.049 A 
ATOM     59  C   UNL A   1      47.489  35.704  28.552  1.00  0.00     0.074 A 
ATOM     60  C   UNL A   1      42.146  33.862  31.440  1.00  0.00     0.029 A 
ATOM     61  N   UNL A   1      44.002  33.949  30.219  1.00  0.00    -0.354 N 
ATOM     62  N   UNL A   1      46.401  35.234  29.116  1.00  0.00    -0.248 NA
ATOM     63  C   UNL A   1      47.685  37.149  28.738  1.00  0.00     0.031 C 
ATOM     64  C   UNL A   1      42.612  35.180  31.438  1.00  0.00     0.029 A 
ATOM     65  C   UNL A   1      43.786  35.230  30.703  1.00  0.00     0.049 A 
ATOM     66  H   UNL A   1      44.764  33.680  29.657  1.00  0.00     0.167 HD
ATOM     67  C   UNL A   1      45.796  36.320  29.743  1.00  0.00     0.074 A 
ATOM     68  C   UNL A   1      46.648  37.466  29.503  1.00  0.00     0.031 C 
ATOM     69  C   UNL A   1      44.641  36.364  30.453  1.00  0.00     0.031 A 
BRANCH  56  70
ATOM     70  C   UNL A   1      41.648  30.961  30.742  1.00  0.00    -0.014 A 
ATOM     71  C   UNL A   1      41.629  30.272  31.969  1.00  0.00     0.010 A 
ATOM     72  C   UNL A   1      40.489  30.966  29.944  1.00  0.00     0.010 A 
ATOM     73  C   UNL A   1      40.489  29.571  32.368  1.00  0.00     0.020 A 
ATOM     74  C   UNL A   1      39.336  30.292  30.355  1.00  0.00     0.020 A 
ATOM     75  C   UNL A   1      39.350  29.584  31.557  1.00  0.00     0.054 A 
BRANCH  75  76
ATOM     76  S   UNL A   1      37.877  28.682  32.112  1.00  0.00     0.124 S 
ATOM     77  O   UNL A   1      38.227  27.303  31.781  1.00  0.00    -0.237 OA
ATOM     78  O   UNL A   1      37.831  28.993  33.539  1.00  0.00    -0.237 OA
ATOM     79  O   UNL A   1      36.796  29.258  31.316  1.00  0.00    -0.744 OA
ENDBRANCH  75  76
ENDBRANCH  56  70
BRANCH  57  80
ATOM     80  C   UNL A   1      49.709  35.692  27.186  1.00  0.00    -0.014 A 
ATOM     81  C   UNL A   1      50.824  36.009  27.981  1.00  0.00     0.010 A 
ATOM     82  C   UNL A   1      49.712  36.063  25.829  1.00  0.00     0.010 A 
ATOM     83  C   UNL A   1      51.914  36.693  27.432  1.00  0.00     0.020 A 
ATOM     84  C   UNL A   1      50.811  36.719  25.268  1.00  0.00     0.020 A 
ATOM     85  C   UNL A   1      51.903  37.037  26.077  1.00  0.00     0.054 A 
BRANCH  85  86
ATOM     86  S   UNL A   1      53.355  37.867  25.372  1.00  0.00     0.124 S 
ATOM     87  O   UNL A   1      53.039  37.878  23.947  1.00  0.00    -0.237 OA
ATOM     88  O   UNL A   1      53.324  39.168  26.037  1.00  0.00    -0.237 OA
ATOM     89  O   UNL A   1      54.466  37.002  25.760  1.00  0.00    -0.744 OA
ENDBRANCH  85  86
ENDBRANCH  57  80
BRANCH  69  90
ATOM     90  C   UNL A   1      44.235  37.686  31.051  1.00  0.00    -0.014 A 
ATOM     91  C   UNL A   1      44.497  37.990  32.399  1.00  0.00     0.010 A 
ATOM     92  C   UNL A   1      43.654  38.671  30.229  1.00  0.00     0.010 A 
ATOM     93  C   UNL A   1      44.165  39.245  32.918  1.00  0.00     0.020 A 
ATOM     94  C   UNL A   1      43.350  39.936  30.736  1.00  0.00     0.020 A 
ATOM     95  C   UNL A   1      43.598  40.213  32.082  1.00  0.00     0.054 A 
BRANCH  95  96
ATOM     96  S   UNL A   1      43.234  41.852  32.767  1.00  0.00     0.124 S 
ATOM     97  O   UNL A   1      44.518  42.534  32.625  1.00  0.00    -0.237 OA
ATOM     98  O   UNL A   1      42.166  42.332  31.894  1.00  0.00    -0.237 OA
ATOM     99  O   UNL A   1      42.827  41.570  34.143  1.00  0.00    -0.744 OA
ENDBRANCH  95  96
ENDBRANCH  69  90
ENDBRANCH  43  44
ENDBRANCH  36  38
ENDBRANCH  35  36
ENDBRANCH  34  35
ENDBRANCH  33  34
ENDBRANCH  32  33
ENDBRANCH  31  32
ENDBRANCH  30  31
ENDBRANCH   1  30
TORSDOF 27
ENDMDL
MODEL 2
REMARK VINA RESULT:      -8.0      7.219     10.666
REMARK SMILES COc1ccc(/C=C2/SC(=S)N([C@H](C)C(=O)OCCOCCOCCOCCOC(=O)c3ccc(-c4c5nc(c(-c6ccc(S(=O)(=O)[O-])cc6)c6ccc([nH]6)c(-c6ccc(S(=O)(=O)[O-])cc6)c6nc(c(-c7ccc(S(=O)(=O)[O-])cc7)c7ccc4[nH]7)C=C6)C=C5)cc3)C2=O)cc1OC
REMARK SMILES IDX 23 1 22 2 21 3 20 4 19 5 18 6 17 7 15 8 16 9 13 10 14 11
REMARK SMILES IDX 12 12 7 13 8 14 9 15 92 16 10 17 93 18 11 19 6 20 3 21 4 22
REMARK SMILES IDX 95 23 5 24 94 25 2 26 1 27 96 28 97 29 24 30 25 31 26 32
REMARK SMILES IDX 27 33 28 34 29 35 30 36 31 37 32 38 33 39 91 40 34 41 90 42
REMARK SMILES IDX 35 43 36 44 37 45 84 46 38 47 89 48 83 49 85 50 39 51 88 52
REMARK SMILES IDX 82 53 81 54 40 56 70 57 51 58 69 59 52 60 55 61 68 62 86 63
REMARK SMILES IDX 53 64 54 65 67 67 87 68 56 69 41 70 42 71 50 72 43 73 49 74
REMARK SMILES IDX 44 75 45 76 46 77 47 78 48 79 71 80 72 81 80 82 73 83 79 84
REMARK SMILES IDX 74 85 75 86 76 87 77 88 78 89 57 90 58 91 66 92 59 93 65 94
REMARK SMILES IDX 60 95 61 96 62 97 63 98 64 99
REMARK H PARENT 85 55 55 66
REMARK Flexibility Score: inf
ROOT
ATOM      1  O   UNL A   1      40.568  27.611  29.406  1.00  0.00    -0.377 OA
ENDROOT
BRANCH   1   2
ATOM      2  C   UNL A   1      40.403  26.999  28.146  1.00  0.00     0.188 C 
BRANCH   2   3
ATOM      3  C   UNL A   1      39.815  25.576  28.181  1.00  0.00     0.188 C 
BRANCH   3   4
ATOM      4  O   UNL A   1      39.373  24.907  27.008  1.00  0.00    -0.376 OA
BRANCH   4   5
ATOM      5  C   UNL A   1      38.018  24.526  26.819  1.00  0.00     0.202 C 
BRANCH   5   6
ATOM      6  C   UNL A   1      37.647  23.282  26.009  1.00  0.00     0.261 C 
BRANCH   6   7
ATOM      7  O   UNL A   1      36.284  22.853  26.097  1.00  0.00    -0.462 OA
BRANCH   7   8
ATOM      8  C   UNL A   1      35.708  22.403  24.953  1.00  0.00     0.329 C 
ATOM      9  O   UNL A   1      36.106  21.451  24.290  1.00  0.00    -0.250 OA
BRANCH   8  10
ATOM     10  C   UNL A   1      34.551  23.300  24.513  1.00  0.00     0.199 C 
ATOM     11  C   UNL A   1      34.366  23.459  22.987  1.00  0.00     0.044 C 
BRANCH  10  12
ATOM     12  N   UNL A   1      33.258  23.096  25.202  1.00  0.00    -0.279 N 
ATOM     13  C   UNL A   1      30.463  25.095  26.215  1.00  0.00     0.029 C 
ATOM     14  C   UNL A   1      31.335  24.083  26.118  1.00  0.00     0.081 C 
ATOM     15  S   UNL A   1      30.879  22.439  25.974  1.00  0.00    -0.054 SA
ATOM     16  C   UNL A   1      32.798  24.198  25.908  1.00  0.00     0.266 C 
ATOM     17  C   UNL A   1      32.383  22.028  25.135  1.00  0.00     0.149 C 
ATOM     18  O   UNL A   1      33.483  25.137  26.288  1.00  0.00    -0.268 OA
ATOM     19  S   UNL A   1      32.549  20.516  24.460  1.00  0.00    -0.052 S 
BRANCH  13  20
ATOM     20  C   UNL A   1      30.847  26.500  26.069  1.00  0.00    -0.020 A 
ATOM     21  C   UNL A   1      31.708  29.145  25.741  1.00  0.00     0.160 A 
ATOM     22  C   UNL A   1      31.635  28.573  27.020  1.00  0.00     0.051 A 
ATOM     23  C   UNL A   1      31.361  28.397  24.612  1.00  0.00     0.161 A 
ATOM     24  C   UNL A   1      31.201  27.256  27.185  1.00  0.00     0.012 A 
ATOM     25  C   UNL A   1      30.920  27.079  24.793  1.00  0.00     0.058 A 
BRANCH  21  26
ATOM     26  O   UNL A   1      32.244  30.402  25.636  1.00  0.00    -0.493 OA
ATOM     27  C   UNL A   1      31.560  31.333  26.475  1.00  0.00     0.278 C 
ENDBRANCH  21  26
BRANCH  23  28
ATOM     28  O   UNL A   1      31.432  28.756  23.294  1.00  0.00    -0.493 OA
ATOM     29  C   UNL A   1      30.242  28.740  22.524  1.00  0.00     0.278 C 
ENDBRANCH  23  28
ENDBRANCH  13  20
ENDBRANCH  10  12
ENDBRANCH   8  10
ENDBRANCH   7   8
ENDBRANCH   6   7
ENDBRANCH   5   6
ENDBRANCH   4   5
ENDBRANCH   3   4
ENDBRANCH   2   3
ENDBRANCH   1   2
BRANCH   1  30
ATOM     30  C   UNL A   1      40.786  29.019  29.402  1.00  0.00     0.188 C 
BRANCH  30  31
ATOM     31  C   UNL A   1      39.547  29.927  29.262  1.00  0.00     0.188 C 
BRANCH  31  32
ATOM     32  O   UNL A   1      38.626  29.805  30.341  1.00  0.00    -0.376 OA
BRANCH  32  33
ATOM     33  C   UNL A   1      37.376  29.180  30.097  1.00  0.00     0.202 C 
BRANCH  33  34
ATOM     34  C   UNL A   1      36.214  30.073  29.628  1.00  0.00     0.261 C 
BRANCH  34  35
ATOM     35  O   UNL A   1      36.387  31.490  29.780  1.00  0.00    -0.460 OA
BRANCH  35  36
ATOM     36  C   UNL A   1      35.749  32.104  30.803  1.00  0.00     0.338 C 
ATOM     37  O   UNL A   1      34.557  32.289  30.915  1.00  0.00    -0.246 OA
BRANCH  36  38
ATOM     38  C   UNL A   1      36.748  32.323  31.875  1.00  0.00     0.060 A 
ATOM     39  C   UNL A   1      37.945  32.981  31.564  1.00  0.00     0.016 A 
ATOM     40  C   UNL A   1      36.496  31.895  33.181  1.00  0.00     0.016 A 
ATOM     41  C   UNL A   1      38.908  33.188  32.552  1.00  0.00     0.010 A 
ATOM     42  C   UNL A   1      37.473  32.079  34.164  1.00  0.00     0.010 A 
ATOM     43  C   UNL A   1      38.695  32.699  33.846  1.00  0.00    -0.014 A 
BRANCH  43  44
ATOM     44  C   UNL A   1      39.814  32.660  34.819  1.00  0.00     0.031 A 
ATOM     45  C   UNL A   1      40.699  31.443  34.836  1.00  0.00     0.074 A 
ATOM     46  C   UNL A   1      40.042  33.676  35.670  1.00  0.00     0.049 A 
ATOM     47  N   UNL A   1      41.683  31.145  35.642  1.00  0.00    -0.248 NA
ATOM     48  C   UNL A   1      40.433  30.425  33.805  1.00  0.00     0.031 C 
ATOM     49  C   UNL A   1      39.288  34.928  35.715  1.00  0.00     0.029 A 
ATOM     50  N   UNL A   1      40.972  33.803  36.672  1.00  0.00    -0.354 N 
ATOM     51  C   UNL A   1      42.142  29.898  35.230  1.00  0.00     0.074 A 
ATOM     52  C   UNL A   1      41.315  29.489  34.116  1.00  0.00     0.031 C 
ATOM     53  C   UNL A   1      39.775  35.691  36.711  1.00  0.00     0.029 A 
ATOM     54  C   UNL A   1      40.843  34.964  37.398  1.00  0.00     0.049 A 
ATOM     55  H   UNL A   1      41.663  33.127  36.855  1.00  0.00     0.167 HD
ATOM     56  C   UNL A   1      43.158  29.161  35.736  1.00  0.00     0.031 A 
ATOM     57  C   UNL A   1      41.489  35.377  38.507  1.00  0.00     0.031 A 
ATOM     58  C   UNL A   1      43.964  29.567  36.856  1.00  0.00     0.049 A 
ATOM     59  C   UNL A   1      42.561  34.502  39.106  1.00  0.00     0.074 A 
ATOM     60  C   UNL A   1      45.032  28.902  37.429  1.00  0.00     0.029 A 
ATOM     61  N   UNL A   1      43.780  30.733  37.582  1.00  0.00    -0.354 N 
ATOM     62  N   UNL A   1      43.009  33.342  38.687  1.00  0.00    -0.248 NA
ATOM     63  C   UNL A   1      43.216  34.992  40.328  1.00  0.00     0.031 C 
ATOM     64  C   UNL A   1      45.448  29.629  38.548  1.00  0.00     0.029 A 
ATOM     65  C   UNL A   1      44.689  30.787  38.627  1.00  0.00     0.049 A 
ATOM     66  H   UNL A   1      43.105  31.421  37.386  1.00  0.00     0.167 HD
ATOM     67  C   UNL A   1      44.014  32.975  39.577  1.00  0.00     0.074 A 
ATOM     68  C   UNL A   1      44.119  34.045  40.549  1.00  0.00     0.031 C 
ATOM     69  C   UNL A   1      44.780  31.856  39.590  1.00  0.00     0.031 A 
BRANCH  56  70
ATOM     70  C   UNL A   1      43.420  27.815  35.112  1.00  0.00    -0.014 A 
ATOM     71  C   UNL A   1      44.392  27.643  34.110  1.00  0.00     0.010 A 
ATOM     72  C   UNL A   1      42.700  26.693  35.564  1.00  0.00     0.010 A 
ATOM     73  C   UNL A   1      44.610  26.385  33.544  1.00  0.00     0.020 A 
ATOM     74  C   UNL A   1      42.936  25.428  35.022  1.00  0.00     0.020 A 
ATOM     75  C   UNL A   1      43.879  25.285  34.003  1.00  0.00     0.054 A 
BRANCH  75  76
ATOM     76  S   UNL A   1      44.198  23.659  33.264  1.00  0.00     0.124 S 
ATOM     77  O   UNL A   1      43.098  22.863  33.803  1.00  0.00    -0.237 OA
ATOM     78  O   UNL A   1      44.127  23.941  31.832  1.00  0.00    -0.237 OA
ATOM     79  O   UNL A   1      45.525  23.305  33.763  1.00  0.00    -0.744 OA
ENDBRANCH  75  76
ENDBRANCH  56  70
BRANCH  57  80
ATOM     80  C   UNL A   1      41.112  36.668  39.149  1.00  0.00    -0.014 A 
ATOM     81  C   UNL A   1      42.083  37.643  39.435  1.00  0.00     0.010 A 
ATOM     82  C   UNL A   1      39.767  36.930  39.473  1.00  0.00     0.010 A 
ATOM     83  C   UNL A   1      41.718  38.850  40.041  1.00  0.00     0.020 A 
ATOM     84  C   UNL A   1      39.393  38.146  40.050  1.00  0.00     0.020 A 
ATOM     85  C   UNL A   1      40.374  39.096  40.338  1.00  0.00     0.054 A 
BRANCH  85  86
ATOM     86  S   UNL A   1      39.917  40.695  41.066  1.00  0.00     0.124 S 
ATOM     87  O   UNL A   1      39.145  41.310  39.991  1.00  0.00    -0.237 OA
ATOM     88  O   UNL A   1      39.152  40.293  42.245  1.00  0.00    -0.237 OA
ATOM     89  O   UNL A   1      41.205  41.323  41.350  1.00  0.00    -0.744 OA
ENDBRANCH  85  86
ENDBRANCH  57  80
BRANCH  69  90
ATOM     90  C   UNL A   1      45.825  31.733  40.669  1.00  0.00    -0.014 A 
ATOM     91  C   UNL A   1      45.550  31.075  41.881  1.00  0.00     0.010 A 
ATOM     92  C   UNL A   1      47.128  32.212  40.432  1.00  0.00     0.010 A 
ATOM     93  C   UNL A   1      46.551  30.920  42.844  1.00  0.00     0.020 A 
ATOM     94  C   UNL A   1      48.139  32.031  41.379  1.00  0.00     0.020 A 
ATOM     95  C   UNL A   1      47.841  31.394  42.585  1.00  0.00     0.054 A 
BRANCH  95  96
ATOM     96  S   UNL A   1      49.135  31.124  43.827  1.00  0.00     0.124 S 
ATOM     97  O   UNL A   1      50.320  31.649  43.152  1.00  0.00    -0.237 OA
ATOM     98  O   UNL A   1      48.656  31.910  44.961  1.00  0.00    -0.237 OA
ATOM     99  O   UNL A   1      49.125  29.676  44.030  1.00  0.00    -0.744 OA
ENDBRANCH  95  96
ENDBRANCH  69  90
ENDBRANCH  43  44
ENDBRANCH  36  38
ENDBRANCH  35  36
ENDBRANCH  34  35
ENDBRANCH  33  34
ENDBRANCH  32  33
ENDBRANCH  31  32
ENDBRANCH  30  31
ENDBRANCH   1  30
TORSDOF 27
ENDMDL
MODEL 3
REMARK VINA RESULT:      -7.8      3.701     10.004
REMARK SMILES COc1ccc(/C=C2/SC(=S)N([C@H](C)C(=O)OCCOCCOCCOCCOC(=O)c3ccc(-c4c5nc(c(-c6ccc(S(=O)(=O)[O-])cc6)c6ccc([nH]6)c(-c6ccc(S(=O)(=O)[O-])cc6)c6nc(c(-c7ccc(S(=O)(=O)[O-])cc7)c7ccc4[nH]7)C=C6)C=C5)cc3)C2=O)cc1OC
REMARK SMILES IDX 23 1 22 2 21 3 20 4 19 5 18 6 17 7 15 8 16 9 13 10 14 11
REMARK SMILES IDX 12 12 7 13 8 14 9 15 92 16 10 17 93 18 11 19 6 20 3 21 4 22
REMARK SMILES IDX 95 23 5 24 94 25 2 26 1 27 96 28 97 29 24 30 25 31 26 32
REMARK SMILES IDX 27 33 28 34 29 35 30 36 31 37 32 38 33 39 91 40 34 41 90 42
REMARK SMILES IDX 35 43 36 44 37 45 84 46 38 47 89 48 83 49 85 50 39 51 88 52
REMARK SMILES IDX 82 53 81 54 40 56 70 57 51 58 69 59 52 60 55 61 68 62 86 63
REMARK SMILES IDX 53 64 54 65 67 67 87 68 56 69 41 70 42 71 50 72 43 73 49 74
REMARK SMILES IDX 44 75 45 76 46 77 47 78 48 79 71 80 72 81 80 82 73 83 79 84
REMARK SMILES IDX 74 85 75 86 76 87 77 88 78 89 57 90 58 91 66 92 59 93 65 94
REMARK SMILES IDX 60 95 61 96 62 97 63 98 64 99
REMARK H PARENT 85 55 55 66
REMARK Flexibility Score: inf
ROOT
ATOM      1  O   UNL A   1      32.537  29.386  27.540  1.00  0.00    -0.377 OA
ENDROOT
BRANCH   1   2
ATOM      2  C   UNL A   1      32.027  28.752  26.387  1.00  0.00     0.188 C 
BRANCH   2   3
ATOM      3  C   UNL A   1      31.915  29.650  25.141  1.00  0.00     0.188 C 
BRANCH   3   4
ATOM      4  O   UNL A   1      31.662  29.125  23.845  1.00  0.00    -0.376 OA
BRANCH   4   5
ATOM      5  C   UNL A   1      32.613  29.212  22.795  1.00  0.00     0.202 C 
BRANCH   5   6
ATOM      6  C   UNL A   1      33.922  28.420  22.837  1.00  0.00     0.261 C 
BRANCH   6   7
ATOM      7  O   UNL A   1      33.890  27.110  22.262  1.00  0.00    -0.462 OA
BRANCH   7   8
ATOM      8  C   UNL A   1      33.610  26.079  23.100  1.00  0.00     0.329 C 
ATOM      9  O   UNL A   1      34.295  25.745  24.060  1.00  0.00    -0.250 OA
BRANCH   8  10
ATOM     10  C   UNL A   1      32.381  25.296  22.639  1.00  0.00     0.199 C 
ATOM     11  C   UNL A   1      32.562  24.455  21.354  1.00  0.00     0.044 C 
BRANCH  10  12
ATOM     12  N   UNL A   1      31.644  24.549  23.681  1.00  0.00    -0.279 N 
ATOM     13  C   UNL A   1      32.341  21.981  26.080  1.00  0.00     0.029 C 
ATOM     14  C   UNL A   1      31.683  22.819  25.267  1.00  0.00     0.081 C 
ATOM     15  S   UNL A   1      30.310  23.727  25.739  1.00  0.00    -0.054 SA
ATOM     16  C   UNL A   1      32.122  23.270  23.926  1.00  0.00     0.266 C 
ATOM     17  C   UNL A   1      30.645  24.981  24.534  1.00  0.00     0.149 C 
ATOM     18  O   UNL A   1      32.819  22.613  23.165  1.00  0.00    -0.268 OA
ATOM     19  S   UNL A   1      29.759  26.389  24.561  1.00  0.00    -0.052 S 
BRANCH  13  20
ATOM     20  C   UNL A   1      33.655  21.421  25.759  1.00  0.00    -0.020 A 
ATOM     21  C   UNL A   1      36.175  20.435  25.036  1.00  0.00     0.160 A 
ATOM     22  C   UNL A   1      35.017  19.686  24.782  1.00  0.00     0.051 A 
ATOM     23  C   UNL A   1      36.083  21.691  25.646  1.00  0.00     0.161 A 
ATOM     24  C   UNL A   1      33.760  20.173  25.147  1.00  0.00     0.012 A 
ATOM     25  C   UNL A   1      34.817  22.165  26.014  1.00  0.00     0.058 A 
BRANCH  21  26
ATOM     26  O   UNL A   1      37.363  19.952  24.557  1.00  0.00    -0.493 OA
ATOM     27  C   UNL A   1      37.667  18.670  25.108  1.00  0.00     0.278 C 
ENDBRANCH  21  26
BRANCH  23  28
ATOM     28  O   UNL A   1      37.082  22.588  25.908  1.00  0.00    -0.493 OA
ATOM     29  C   UNL A   1      36.858  23.955  25.607  1.00  0.00     0.278 C 
ENDBRANCH  23  28
ENDBRANCH  13  20
ENDBRANCH  10  12
ENDBRANCH   8  10
ENDBRANCH   7   8
ENDBRANCH   6   7
ENDBRANCH   5   6
ENDBRANCH   4   5
ENDBRANCH   3   4
ENDBRANCH   2   3
ENDBRANCH   1   2
BRANCH   1  30
ATOM     30  C   UNL A   1      33.289  30.577  27.326  1.00  0.00     0.188 C 
BRANCH  30  31
ATOM     31  C   UNL A   1      34.827  30.455  27.340  1.00  0.00     0.188 C 
BRANCH  31  32
ATOM     32  O   UNL A   1      35.410  30.744  28.606  1.00  0.00    -0.376 OA
BRANCH  32  33
ATOM     33  C   UNL A   1      34.759  31.676  29.455  1.00  0.00     0.202 C 
BRANCH  33  34
ATOM     34  C   UNL A   1      35.569  32.260  30.624  1.00  0.00     0.261 C 
BRANCH  34  35
ATOM     35  O   UNL A   1      36.982  32.009  30.619  1.00  0.00    -0.460 OA
BRANCH  35  36
ATOM     36  C   UNL A   1      37.471  31.094  31.489  1.00  0.00     0.338 C 
ATOM     37  O   UNL A   1      36.846  30.463  32.314  1.00  0.00    -0.246 OA
BRANCH  36  38
ATOM     38  C   UNL A   1      38.880  30.837  31.110  1.00  0.00     0.060 A 
ATOM     39  C   UNL A   1      39.465  31.614  30.101  1.00  0.00     0.016 A 
ATOM     40  C   UNL A   1      39.621  29.845  31.757  1.00  0.00     0.016 A 
ATOM     41  C   UNL A   1      40.785  31.383  29.716  1.00  0.00     0.010 A 
ATOM     42  C   UNL A   1      40.935  29.597  31.351  1.00  0.00     0.010 A 
ATOM     43  C   UNL A   1      41.513  30.344  30.309  1.00  0.00    -0.014 A 
BRANCH  43  44
ATOM     44  C   UNL A   1      42.802  29.908  29.719  1.00  0.00     0.031 A 
ATOM     45  C   UNL A   1      42.884  28.523  29.136  1.00  0.00     0.074 A 
ATOM     46  C   UNL A   1      43.875  30.717  29.699  1.00  0.00     0.049 A 
ATOM     47  N   UNL A   1      43.915  27.893  28.640  1.00  0.00    -0.248 NA
ATOM     48  C   UNL A   1      41.633  27.745  29.115  1.00  0.00     0.031 C 
ATOM     49  C   UNL A   1      43.906  32.096  30.184  1.00  0.00     0.029 A 
ATOM     50  N   UNL A   1      45.156  30.483  29.262  1.00  0.00    -0.354 N 
ATOM     51  C   UNL A   1      43.445  26.638  28.265  1.00  0.00     0.074 A 
ATOM     52  C   UNL A   1      42.041  26.592  28.610  1.00  0.00     0.031 C 
ATOM     53  C   UNL A   1      45.153  32.580  30.035  1.00  0.00     0.029 A 
ATOM     54  C   UNL A   1      46.014  31.534  29.486  1.00  0.00     0.049 A 
ATOM     55  H   UNL A   1      45.433  29.642  28.832  1.00  0.00     0.167 HD
ATOM     56  C   UNL A   1      44.122  25.618  27.688  1.00  0.00     0.031 A 
ATOM     57  C   UNL A   1      47.347  31.628  29.300  1.00  0.00     0.031 A 
ATOM     58  C   UNL A   1      45.523  25.666  27.365  1.00  0.00     0.049 A 
ATOM     59  C   UNL A   1      48.099  30.449  28.735  1.00  0.00     0.074 A 
ATOM     60  C   UNL A   1      46.296  24.693  26.758  1.00  0.00     0.029 A 
ATOM     61  N   UNL A   1      46.362  26.735  27.638  1.00  0.00    -0.354 N 
ATOM     62  N   UNL A   1      47.636  29.282  28.353  1.00  0.00    -0.248 NA
ATOM     63  C   UNL A   1      49.552  30.600  28.574  1.00  0.00     0.031 C 
ATOM     64  C   UNL A   1      47.619  25.145  26.730  1.00  0.00     0.029 A 
ATOM     65  C   UNL A   1      47.657  26.429  27.249  1.00  0.00     0.049 A 
ATOM     66  H   UNL A   1      46.082  27.585  28.046  1.00  0.00     0.167 HD
ATOM     67  C   UNL A   1      48.736  28.570  27.884  1.00  0.00     0.074 A 
ATOM     68  C   UNL A   1      49.884  29.443  28.016  1.00  0.00     0.031 C 
ATOM     69  C   UNL A   1      48.792  27.308  27.390  1.00  0.00     0.031 A 
BRANCH  56  70
ATOM     70  C   UNL A   1      43.365  24.344  27.419  1.00  0.00    -0.014 A 
ATOM     71  C   UNL A   1      42.776  24.087  26.167  1.00  0.00     0.010 A 
ATOM     72  C   UNL A   1      43.271  23.370  28.430  1.00  0.00     0.010 A 
ATOM     73  C   UNL A   1      42.074  22.900  25.947  1.00  0.00     0.020 A 
ATOM     74  C   UNL A   1      42.597  22.168  28.204  1.00  0.00     0.020 A 
ATOM     75  C   UNL A   1      41.987  21.948  26.968  1.00  0.00     0.054 A 
BRANCH  75  76
ATOM     76  S   UNL A   1      41.087  20.407  26.646  1.00  0.00     0.124 S 
ATOM     77  O   UNL A   1      41.960  19.746  25.678  1.00  0.00    -0.237 OA
ATOM     78  O   UNL A   1      41.031  19.788  27.968  1.00  0.00    -0.237 OA
ATOM     79  O   UNL A   1      39.802  20.858  26.117  1.00  0.00    -0.744 OA
ENDBRANCH  75  76
ENDBRANCH  56  70
BRANCH  57  80
ATOM     80  C   UNL A   1      48.064  32.874  29.689  1.00  0.00    -0.014 A 
ATOM     81  C   UNL A   1      48.227  33.929  28.774  1.00  0.00     0.010 A 
ATOM     82  C   UNL A   1      48.586  33.013  30.989  1.00  0.00     0.010 A 
ATOM     83  C   UNL A   1      48.906  35.094  29.150  1.00  0.00     0.020 A 
ATOM     84  C   UNL A   1      49.238  34.186  31.378  1.00  0.00     0.020 A 
ATOM     85  C   UNL A   1      49.400  35.217  30.451  1.00  0.00     0.054 A 
BRANCH  85  86
ATOM     86  S   UNL A   1      50.222  36.762  30.934  1.00  0.00     0.124 S 
ATOM     87  O   UNL A   1      49.155  37.467  31.638  1.00  0.00    -0.237 OA
ATOM     88  O   UNL A   1      51.322  36.284  31.767  1.00  0.00    -0.237 OA
ATOM     89  O   UNL A   1      50.624  37.349  29.657  1.00  0.00    -0.744 OA
ENDBRANCH  85  86
ENDBRANCH  57  80
BRANCH  69  90
ATOM     90  C   UNL A   1      50.130  26.794  26.924  1.00  0.00    -0.014 A 
ATOM     91  C   UNL A   1      51.041  26.209  27.821  1.00  0.00     0.010 A 
ATOM     92  C   UNL A   1      50.445  26.825  25.551  1.00  0.00     0.010 A 
ATOM     93  C   UNL A   1      52.252  25.686  27.357  1.00  0.00     0.020 A 
ATOM     94  C   UNL A   1      51.640  26.275  25.081  1.00  0.00     0.020 A 
ATOM     95  C   UNL A   1      52.542  25.717  25.989  1.00  0.00     0.054 A 
BRANCH  95  96
ATOM     96  S   UNL A   1      54.092  24.975  25.409  1.00  0.00     0.124 S 
ATOM     97  O   UNL A   1      54.834  24.807  26.655  1.00  0.00    -0.237 OA
ATOM     98  O   UNL A   1      53.637  23.741  24.774  1.00  0.00    -0.237 OA
ATOM     99  O   UNL A   1      54.634  25.977  24.492  1.00  0.00    -0.744 OA
ENDBRANCH  95  96
ENDBRANCH  69  90
ENDBRANCH  43  44
ENDBRANCH  36  38
ENDBRANCH  35  36
ENDBRANCH  34  35
ENDBRANCH  33  34
ENDBRANCH  32  33
ENDBRANCH  31  32
ENDBRANCH  30  31
ENDBRANCH   1  30
TORSDOF 27
ENDMDL
