MODEL 1
REMARK VINA RESULT:      -8.8      0.000      0.000
REMARK SMILES Cc1cc(C[N@@H+]2C[C@@H](C(=O)OCCOCCOCCOCCOC(=O)c3ccc(-c4c5nc(c(-c6ccc(S(=O)(=O)[O-])cc6)c6ccc([nH]6)c(-c6ccc(S(=O)(=O)[O-])cc6)c6nc(c(-c7ccc(S(=O)(=O)[O-])cc7)c7ccc4[nH]7)C=C6)C=C5)cc3)[C@H](C3CC3)C2)on1
REMARK SMILES IDX 18 1 17 2 16 3 15 4 14 5 13 6 12 7 11 8 9 9 10 10 8 11 6 12
REMARK SMILES IDX 7 13 90 14 86 16 5 17 4 18 1 19 2 20 3 21 92 22 91 23 87 24
REMARK SMILES IDX 88 25 89 26 19 27 20 28 21 29 22 30 23 31 24 32 25 33 26 34
REMARK SMILES IDX 27 35 85 36 28 37 84 38 29 39 30 40 31 41 78 42 32 43 83 44
REMARK SMILES IDX 77 45 79 46 33 47 82 48 76 49 75 50 34 52 64 53 45 54 63 55
REMARK SMILES IDX 46 56 49 57 62 58 80 59 47 60 48 61 61 63 81 64 50 65 35 66
REMARK SMILES IDX 36 67 44 68 37 69 43 70 38 71 39 72 40 73 41 74 42 75 65 76
REMARK SMILES IDX 66 77 74 78 67 79 73 80 68 81 69 82 70 83 71 84 72 85 51 86
REMARK SMILES IDX 52 87 60 88 53 89 59 90 54 91 55 92 56 93 57 94 58 95
REMARK H PARENT 6 15 79 51 49 62
REMARK Flexibility Score: inf
ROOT
ATOM      1  C   UNL A   1      34.967  33.236  30.062  1.00  0.00     0.188 C 
ENDROOT
BRANCH   1   2
ATOM      2  O   UNL A   1      35.066  32.109  29.207  1.00  0.00    -0.377 OA
BRANCH   2   3
ATOM      3  C   UNL A   1      34.387  32.250  27.977  1.00  0.00     0.188 C 
BRANCH   3   4
ATOM      4  C   UNL A   1      34.145  30.921  27.228  1.00  0.00     0.188 C 
BRANCH   4   5
ATOM      5  O   UNL A   1      33.292  29.908  27.744  1.00  0.00    -0.376 OA
BRANCH   5   6
ATOM      6  C   UNL A   1      32.868  28.845  26.906  1.00  0.00     0.202 C 
BRANCH   6   7
ATOM      7  C   UNL A   1      33.905  27.868  26.328  1.00  0.00     0.261 C 
BRANCH   7   8
ATOM      8  O   UNL A   1      33.495  26.497  26.209  1.00  0.00    -0.463 OA
BRANCH   8   9
ATOM      9  C   UNL A   1      33.522  25.969  24.957  1.00  0.00     0.315 C 
ATOM     10  O   UNL A   1      33.482  26.642  23.933  1.00  0.00    -0.252 OA
BRANCH   9  11
ATOM     11  C   UNL A   1      33.651  24.454  24.935  1.00  0.00     0.163 C 
ATOM     12  N   UNL A   1      32.811  22.306  25.575  1.00  0.00    -0.328 N 
ATOM     13  C   UNL A   1      32.382  23.692  25.319  1.00  0.00     0.278 C 
ATOM     14  C   UNL A   1      34.185  22.382  26.087  1.00  0.00     0.267 C 
ATOM     15  H   UNL A   1      32.208  21.866  26.269  1.00  0.00     0.348 HD
ATOM     16  C   UNL A   1      34.715  23.815  25.840  1.00  0.00     0.067 C 
BRANCH  12  17
ATOM     17  C   UNL A   1      32.648  21.413  24.409  1.00  0.00     0.341 C 
BRANCH  17  18
ATOM     18  C   UNL A   1      32.964  19.981  24.660  1.00  0.00     0.191 A 
ATOM     19  C   UNL A   1      34.076  16.528  24.307  1.00  0.00     0.070 C 
ATOM     20  C   UNL A   1      33.502  17.849  24.639  1.00  0.00     0.081 A 
ATOM     21  C   UNL A   1      33.953  19.126  24.236  1.00  0.00     0.078 A 
ATOM     22  N   UNL A   1      32.377  17.935  25.356  1.00  0.00    -0.085 NA
ATOM     23  O   UNL A   1      32.046  19.277  25.378  1.00  0.00    -0.355 OA
ENDBRANCH  17  18
ENDBRANCH  12  17
BRANCH  16  24
ATOM     24  C   UNL A   1      36.155  23.805  25.371  1.00  0.00    -0.001 C 
ATOM     25  C   UNL A   1      37.051  22.591  25.339  1.00  0.00     0.004 C 
ATOM     26  C   UNL A   1      36.515  23.147  24.056  1.00  0.00     0.004 C 
ENDBRANCH  16  24
ENDBRANCH   9  11
ENDBRANCH   8   9
ENDBRANCH   7   8
ENDBRANCH   6   7
ENDBRANCH   5   6
ENDBRANCH   4   5
ENDBRANCH   3   4
ENDBRANCH   2   3
ENDBRANCH   1   2
BRANCH   1  27
ATOM     27  C   UNL A   1      36.085  34.279  29.908  1.00  0.00     0.188 C 
BRANCH  27  28
ATOM     28  O   UNL A   1      37.131  34.103  30.864  1.00  0.00    -0.376 OA
BRANCH  28  29
ATOM     29  C   UNL A   1      36.807  33.528  32.120  1.00  0.00     0.202 C 
BRANCH  29  30
ATOM     30  C   UNL A   1      37.893  32.645  32.751  1.00  0.00     0.261 C 
BRANCH  30  31
ATOM     31  O   UNL A   1      37.506  31.303  33.084  1.00  0.00    -0.460 OA
BRANCH  31  32
ATOM     32  C   UNL A   1      37.166  30.467  32.079  1.00  0.00     0.338 C 
ATOM     33  O   UNL A   1      36.040  30.192  31.707  1.00  0.00    -0.246 OA
BRANCH  32  34
ATOM     34  C   UNL A   1      38.411  30.133  31.347  1.00  0.00     0.060 A 
ATOM     35  C   UNL A   1      39.451  29.501  32.045  1.00  0.00     0.016 A 
ATOM     36  C   UNL A   1      38.517  30.349  29.971  1.00  0.00     0.016 A 
ATOM     37  C   UNL A   1      40.594  29.078  31.364  1.00  0.00     0.010 A 
ATOM     38  C   UNL A   1      39.679  29.960  29.298  1.00  0.00     0.010 A 
ATOM     39  C   UNL A   1      40.728  29.336  29.993  1.00  0.00    -0.014 A 
BRANCH  39  40
ATOM     40  C   UNL A   1      42.040  29.138  29.332  1.00  0.00     0.031 A 
ATOM     41  C   UNL A   1      42.348  27.776  28.775  1.00  0.00     0.074 A 
ATOM     42  C   UNL A   1      42.933  30.138  29.216  1.00  0.00     0.049 A 
ATOM     43  N   UNL A   1      43.433  27.346  28.188  1.00  0.00    -0.248 NA
ATOM     44  C   UNL A   1      41.284  26.764  28.896  1.00  0.00     0.031 C 
ATOM     45  C   UNL A   1      42.733  31.514  29.669  1.00  0.00     0.029 A 
ATOM     46  N   UNL A   1      44.198  30.139  28.681  1.00  0.00    -0.354 N 
ATOM     47  C   UNL A   1      43.185  26.016  27.870  1.00  0.00     0.074 A 
ATOM     48  C   UNL A   1      41.857  25.702  28.351  1.00  0.00     0.031 C 
ATOM     49  C   UNL A   1      43.845  32.225  29.404  1.00  0.00     0.029 A 
ATOM     50  C   UNL A   1      44.845  31.348  28.795  1.00  0.00     0.049 A 
ATOM     51  H   UNL A   1      44.604  29.349  28.258  1.00  0.00     0.167 HD
ATOM     52  C   UNL A   1      43.989  25.133  27.235  1.00  0.00     0.031 A 
ATOM     53  C   UNL A   1      46.106  31.696  28.468  1.00  0.00     0.031 A 
ATOM     54  C   UNL A   1      45.322  25.436  26.789  1.00  0.00     0.049 A 
ATOM     55  C   UNL A   1      47.020  30.665  27.852  1.00  0.00     0.074 A 
ATOM     56  C   UNL A   1      46.216  24.610  26.131  1.00  0.00     0.029 A 
ATOM     57  N   UNL A   1      45.958  26.654  26.969  1.00  0.00    -0.354 N 
ATOM     58  N   UNL A   1      46.763  29.419  27.530  1.00  0.00    -0.248 NA
ATOM     59  C   UNL A   1      48.397  31.089  27.555  1.00  0.00     0.031 C 
ATOM     60  C   UNL A   1      47.416  25.309  25.970  1.00  0.00     0.029 A 
ATOM     61  C   UNL A   1      47.248  26.592  26.467  1.00  0.00     0.049 A 
ATOM     62  H   UNL A   1      45.554  27.447  27.391  1.00  0.00     0.167 HD
ATOM     63  C   UNL A   1      47.936  28.919  26.972  1.00  0.00     0.074 A 
ATOM     64  C   UNL A   1      48.898  30.002  26.984  1.00  0.00     0.031 C 
ATOM     65  C   UNL A   1      48.196  27.677  26.494  1.00  0.00     0.031 A 
BRANCH  52  66
ATOM     66  C   UNL A   1      43.460  23.741  27.028  1.00  0.00    -0.014 A 
ATOM     67  C   UNL A   1      43.434  22.806  28.079  1.00  0.00     0.010 A 
ATOM     68  C   UNL A   1      42.954  23.371  25.769  1.00  0.00     0.010 A 
ATOM     69  C   UNL A   1      42.944  21.516  27.865  1.00  0.00     0.020 A 
ATOM     70  C   UNL A   1      42.437  22.089  25.558  1.00  0.00     0.020 A 
ATOM     71  C   UNL A   1      42.448  21.166  26.605  1.00  0.00     0.054 A 
BRANCH  71  72
ATOM     72  S   UNL A   1      41.793  19.492  26.362  1.00  0.00     0.124 S 
ATOM     73  O   UNL A   1      40.361  19.746  26.221  1.00  0.00    -0.237 OA
ATOM     74  O   UNL A   1      42.476  19.054  25.148  1.00  0.00    -0.237 OA
ATOM     75  O   UNL A   1      42.181  18.787  27.581  1.00  0.00    -0.744 OA
ENDBRANCH  71  72
ENDBRANCH  52  66
BRANCH  53  76
ATOM     76  C   UNL A   1      46.599  33.075  28.746  1.00  0.00    -0.014 A 
ATOM     77  C   UNL A   1      47.273  33.372  29.945  1.00  0.00     0.010 A 
ATOM     78  C   UNL A   1      46.379  34.107  27.816  1.00  0.00     0.010 A 
ATOM     79  C   UNL A   1      47.702  34.676  30.213  1.00  0.00     0.020 A 
ATOM     80  C   UNL A   1      46.830  35.406  28.068  1.00  0.00     0.020 A 
ATOM     81  C   UNL A   1      47.480  35.685  29.271  1.00  0.00     0.054 A 
BRANCH  81  82
ATOM     82  S   UNL A   1      48.087  37.359  29.622  1.00  0.00     0.124 S 
ATOM     83  O   UNL A   1      48.284  37.899  28.281  1.00  0.00    -0.237 OA
ATOM     84  O   UNL A   1      46.983  37.940  30.383  1.00  0.00    -0.237 OA
ATOM     85  O   UNL A   1      49.308  37.125  30.390  1.00  0.00    -0.744 OA
ENDBRANCH  81  82
ENDBRANCH  53  76
BRANCH  65  86
ATOM     86  C   UNL A   1      49.566  27.420  25.920  1.00  0.00    -0.014 A 
ATOM     87  C   UNL A   1      50.631  27.003  26.737  1.00  0.00     0.010 A 
ATOM     88  C   UNL A   1      49.772  27.538  24.533  1.00  0.00     0.010 A 
ATOM     89  C   UNL A   1      51.886  26.738  26.182  1.00  0.00     0.020 A 
ATOM     90  C   UNL A   1      51.017  27.245  23.970  1.00  0.00     0.020 A 
ATOM     91  C   UNL A   1      52.071  26.860  24.800  1.00  0.00     0.054 A 
BRANCH  91  92
ATOM     92  S   UNL A   1      53.697  26.467  24.099  1.00  0.00     0.124 S 
ATOM     93  O   UNL A   1      53.581  27.000  22.744  1.00  0.00    -0.237 OA
ATOM     94  O   UNL A   1      54.610  27.187  24.983  1.00  0.00    -0.237 OA
ATOM     95  O   UNL A   1      53.771  25.011  24.189  1.00  0.00    -0.744 OA
ENDBRANCH  91  92
ENDBRANCH  65  86
ENDBRANCH  39  40
ENDBRANCH  32  34
ENDBRANCH  31  32
ENDBRANCH  30  31
ENDBRANCH  29  30
ENDBRANCH  28  29
ENDBRANCH  27  28
ENDBRANCH   1  27
TORSDOF 26
ENDMDL
MODEL 2
REMARK VINA RESULT:      -8.4      5.767     10.926
REMARK SMILES Cc1cc(C[N@@H+]2C[C@@H](C(=O)OCCOCCOCCOCCOC(=O)c3ccc(-c4c5nc(c(-c6ccc(S(=O)(=O)[O-])cc6)c6ccc([nH]6)c(-c6ccc(S(=O)(=O)[O-])cc6)c6nc(c(-c7ccc(S(=O)(=O)[O-])cc7)c7ccc4[nH]7)C=C6)C=C5)cc3)[C@H](C3CC3)C2)on1
REMARK SMILES IDX 18 1 17 2 16 3 15 4 14 5 13 6 12 7 11 8 9 9 10 10 8 11 6 12
REMARK SMILES IDX 7 13 90 14 86 16 5 17 4 18 1 19 2 20 3 21 92 22 91 23 87 24
REMARK SMILES IDX 88 25 89 26 19 27 20 28 21 29 22 30 23 31 24 32 25 33 26 34
REMARK SMILES IDX 27 35 85 36 28 37 84 38 29 39 30 40 31 41 78 42 32 43 83 44
REMARK SMILES IDX 77 45 79 46 33 47 82 48 76 49 75 50 34 52 64 53 45 54 63 55
REMARK SMILES IDX 46 56 49 57 62 58 80 59 47 60 48 61 61 63 81 64 50 65 35 66
REMARK SMILES IDX 36 67 44 68 37 69 43 70 38 71 39 72 40 73 41 74 42 75 65 76
REMARK SMILES IDX 66 77 74 78 67 79 73 80 68 81 69 82 70 83 71 84 72 85 51 86
REMARK SMILES IDX 52 87 60 88 53 89 59 90 54 91 55 92 56 93 57 94 58 95
REMARK H PARENT 6 15 79 51 49 62
REMARK Flexibility Score: inf
ROOT
ATOM      1  C   UNL A   1      35.264  21.796  25.314  1.00  0.00     0.188 C 
ENDROOT
BRANCH   1   2
ATOM      2  O   UNL A   1      33.857  21.926  25.195  1.00  0.00    -0.377 OA
BRANCH   2   3
ATOM      3  C   UNL A   1      33.129  21.364  26.267  1.00  0.00     0.188 C 
BRANCH   3   4
ATOM      4  C   UNL A   1      33.126  22.219  27.553  1.00  0.00     0.188 C 
BRANCH   4   5
ATOM      5  O   UNL A   1      31.974  22.936  27.979  1.00  0.00    -0.376 OA
BRANCH   5   6
ATOM      6  C   UNL A   1      30.904  23.157  27.076  1.00  0.00     0.202 C 
BRANCH   6   7
ATOM      7  C   UNL A   1      31.034  24.231  25.984  1.00  0.00     0.261 C 
BRANCH   7   8
ATOM      8  O   UNL A   1      31.313  25.568  26.432  1.00  0.00    -0.463 OA
BRANCH   8   9
ATOM      9  C   UNL A   1      32.285  26.236  25.758  1.00  0.00     0.315 C 
ATOM     10  O   UNL A   1      33.485  26.051  25.932  1.00  0.00    -0.252 OA
BRANCH   9  11
ATOM     11  C   UNL A   1      31.750  27.215  24.725  1.00  0.00     0.163 C 
ATOM     12  N   UNL A   1      29.914  28.456  23.820  1.00  0.00    -0.328 N 
ATOM     13  C   UNL A   1      30.399  27.844  25.070  1.00  0.00     0.278 C 
ATOM     14  C   UNL A   1      30.440  27.635  22.722  1.00  0.00     0.267 C 
ATOM     15  H   UNL A   1      28.895  28.456  23.794  1.00  0.00     0.348 HD
ATOM     16  C   UNL A   1      31.525  26.694  23.298  1.00  0.00     0.067 C 
BRANCH  12  17
ATOM     17  C   UNL A   1      30.229  29.895  23.706  1.00  0.00     0.341 C 
BRANCH  17  18
ATOM     18  C   UNL A   1      29.299  30.681  22.853  1.00  0.00     0.191 A 
ATOM     19  C   UNL A   1      27.730  32.412  20.055  1.00  0.00     0.070 C 
ATOM     20  C   UNL A   1      28.217  31.837  21.327  1.00  0.00     0.081 A 
ATOM     21  C   UNL A   1      28.944  30.642  21.526  1.00  0.00     0.078 A 
ATOM     22  N   UNL A   1      28.044  32.499  22.476  1.00  0.00    -0.085 NA
ATOM     23  O   UNL A   1      28.716  31.765  23.437  1.00  0.00    -0.355 OA
ENDBRANCH  17  18
ENDBRANCH  12  17
BRANCH  16  24
ATOM     24  C   UNL A   1      32.716  26.581  22.369  1.00  0.00    -0.001 C 
ATOM     25  C   UNL A   1      33.642  25.393  22.282  1.00  0.00     0.004 C 
ATOM     26  C   UNL A   1      32.660  25.646  21.180  1.00  0.00     0.004 C 
ENDBRANCH  16  24
ENDBRANCH   9  11
ENDBRANCH   8   9
ENDBRANCH   7   8
ENDBRANCH   6   7
ENDBRANCH   5   6
ENDBRANCH   4   5
ENDBRANCH   3   4
ENDBRANCH   2   3
ENDBRANCH   1   2
BRANCH   1  27
ATOM     27  C   UNL A   1      36.053  23.114  25.261  1.00  0.00     0.188 C 
BRANCH  27  28
ATOM     28  O   UNL A   1      37.462  22.903  25.161  1.00  0.00    -0.376 OA
BRANCH  28  29
ATOM     29  C   UNL A   1      37.942  21.570  25.114  1.00  0.00     0.202 C 
BRANCH  29  30
ATOM     30  C   UNL A   1      39.095  21.239  26.072  1.00  0.00     0.261 C 
BRANCH  30  31
ATOM     31  O   UNL A   1      40.252  22.085  25.990  1.00  0.00    -0.460 OA
BRANCH  31  32
ATOM     32  C   UNL A   1      41.453  21.560  26.320  1.00  0.00     0.338 C 
ATOM     33  O   UNL A   1      41.988  20.588  25.819  1.00  0.00    -0.246 OA
BRANCH  32  34
ATOM     34  C   UNL A   1      42.115  22.522  27.233  1.00  0.00     0.060 A 
ATOM     35  C   UNL A   1      43.516  22.581  27.246  1.00  0.00     0.016 A 
ATOM     36  C   UNL A   1      41.366  23.424  27.993  1.00  0.00     0.016 A 
ATOM     37  C   UNL A   1      44.168  23.547  28.015  1.00  0.00     0.010 A 
ATOM     38  C   UNL A   1      42.021  24.366  28.792  1.00  0.00     0.010 A 
ATOM     39  C   UNL A   1      43.425  24.422  28.818  1.00  0.00    -0.014 A 
BRANCH  39  40
ATOM     40  C   UNL A   1      44.114  25.254  29.832  1.00  0.00     0.031 A 
ATOM     41  C   UNL A   1      44.434  26.678  29.472  1.00  0.00     0.074 A 
ATOM     42  C   UNL A   1      44.439  24.769  31.044  1.00  0.00     0.049 A 
ATOM     43  N   UNL A   1      45.060  27.589  30.169  1.00  0.00    -0.248 NA
ATOM     44  C   UNL A   1      43.984  27.135  28.146  1.00  0.00     0.031 C 
ATOM     45  C   UNL A   1      44.138  23.424  31.531  1.00  0.00     0.029 A 
ATOM     46  N   UNL A   1      45.106  25.365  32.088  1.00  0.00    -0.354 N 
ATOM     47  C   UNL A   1      45.079  28.725  29.369  1.00  0.00     0.074 A 
ATOM     48  C   UNL A   1      44.426  28.383  28.125  1.00  0.00     0.031 C 
ATOM     49  C   UNL A   1      44.632  23.292  32.776  1.00  0.00     0.029 A 
ATOM     50  C   UNL A   1      45.312  24.529  33.160  1.00  0.00     0.049 A 
ATOM     51  H   UNL A   1      45.409  26.301  32.068  1.00  0.00     0.167 HD
ATOM     52  C   UNL A   1      45.595  29.946  29.643  1.00  0.00     0.031 A 
ATOM     53  C   UNL A   1      45.991  24.734  34.307  1.00  0.00     0.031 A 
ATOM     54  C   UNL A   1      46.275  30.275  30.867  1.00  0.00     0.049 A 
ATOM     55  C   UNL A   1      46.646  26.072  34.549  1.00  0.00     0.074 A 
ATOM     56  C   UNL A   1      46.830  31.486  31.242  1.00  0.00     0.029 A 
ATOM     57  N   UNL A   1      46.508  29.387  31.905  1.00  0.00    -0.354 N 
ATOM     58  N   UNL A   1      46.631  27.147  33.796  1.00  0.00    -0.248 NA
ATOM     59  C   UNL A   1      47.409  26.224  35.797  1.00  0.00     0.031 C 
ATOM     60  C   UNL A   1      47.454  31.312  32.481  1.00  0.00     0.029 A 
ATOM     61  C   UNL A   1      47.231  30.012  32.908  1.00  0.00     0.049 A 
ATOM     62  H   UNL A   1      46.204  28.451  31.928  1.00  0.00     0.167 HD
ATOM     63  C   UNL A   1      47.362  28.108  34.490  1.00  0.00     0.074 A 
ATOM     64  C   UNL A   1      47.789  27.493  35.729  1.00  0.00     0.031 C 
ATOM     65  C   UNL A   1      47.655  29.384  34.134  1.00  0.00     0.031 A 
BRANCH  52  66
ATOM     66  C   UNL A   1      45.480  31.000  28.578  1.00  0.00    -0.014 A 
ATOM     67  C   UNL A   1      44.337  31.815  28.476  1.00  0.00     0.010 A 
ATOM     68  C   UNL A   1      46.545  31.198  27.680  1.00  0.00     0.010 A 
ATOM     69  C   UNL A   1      44.248  32.784  27.475  1.00  0.00     0.020 A 
ATOM     70  C   UNL A   1      46.470  32.187  26.694  1.00  0.00     0.020 A 
ATOM     71  C   UNL A   1      45.315  32.964  26.590  1.00  0.00     0.054 A 
BRANCH  71  72
ATOM     72  S   UNL A   1      45.182  34.248  25.316  1.00  0.00     0.124 S 
ATOM     73  O   UNL A   1      44.542  33.522  24.221  1.00  0.00    -0.237 OA
ATOM     74  O   UNL A   1      44.353  35.259  25.968  1.00  0.00    -0.237 OA
ATOM     75  O   UNL A   1      46.566  34.643  25.075  1.00  0.00    -0.744 OA
ENDBRANCH  71  72
ENDBRANCH  52  66
BRANCH  53  76
ATOM     76  C   UNL A   1      46.123  23.636  35.307  1.00  0.00    -0.014 A 
ATOM     77  C   UNL A   1      45.481  23.716  36.556  1.00  0.00     0.010 A 
ATOM     78  C   UNL A   1      46.912  22.507  35.019  1.00  0.00     0.010 A 
ATOM     79  C   UNL A   1      45.638  22.697  37.501  1.00  0.00     0.020 A 
ATOM     80  C   UNL A   1      47.049  21.473  35.950  1.00  0.00     0.020 A 
ATOM     81  C   UNL A   1      46.419  21.580  37.190  1.00  0.00     0.054 A 
BRANCH  81  82
ATOM     82  S   UNL A   1      46.571  20.249  38.415  1.00  0.00     0.124 S 
ATOM     83  O   UNL A   1      45.895  20.822  39.574  1.00  0.00    -0.237 OA
ATOM     84  O   UNL A   1      45.879  19.141  37.761  1.00  0.00    -0.237 OA
ATOM     85  O   UNL A   1      48.016  20.076  38.554  1.00  0.00    -0.744 OA
ENDBRANCH  81  82
ENDBRANCH  53  76
BRANCH  65  86
ATOM     86  C   UNL A   1      48.455  30.214  35.103  1.00  0.00    -0.014 A 
ATOM     87  C   UNL A   1      49.860  30.245  35.049  1.00  0.00     0.010 A 
ATOM     88  C   UNL A   1      47.788  31.025  36.040  1.00  0.00     0.010 A 
ATOM     89  C   UNL A   1      50.584  31.047  35.936  1.00  0.00     0.020 A 
ATOM     90  C   UNL A   1      48.507  31.851  36.909  1.00  0.00     0.020 A 
ATOM     91  C   UNL A   1      49.902  31.847  36.860  1.00  0.00     0.054 A 
BRANCH  91  92
ATOM     92  S   UNL A   1      50.863  32.913  37.968  1.00  0.00     0.124 S 
ATOM     93  O   UNL A   1      50.236  32.652  39.261  1.00  0.00    -0.237 OA
ATOM     94  O   UNL A   1      52.221  32.396  37.813  1.00  0.00    -0.237 OA
ATOM     95  O   UNL A   1      50.649  34.255  37.432  1.00  0.00    -0.744 OA
ENDBRANCH  91  92
ENDBRANCH  65  86
ENDBRANCH  39  40
ENDBRANCH  32  34
ENDBRANCH  31  32
ENDBRANCH  30  31
ENDBRANCH  29  30
ENDBRANCH  28  29
ENDBRANCH  27  28
ENDBRANCH   1  27
TORSDOF 26
ENDMDL
MODEL 3
REMARK VINA RESULT:      -8.3      5.254      9.576
REMARK SMILES Cc1cc(C[N@@H+]2C[C@@H](C(=O)OCCOCCOCCOCCOC(=O)c3ccc(-c4c5nc(c(-c6ccc(S(=O)(=O)[O-])cc6)c6ccc([nH]6)c(-c6ccc(S(=O)(=O)[O-])cc6)c6nc(c(-c7ccc(S(=O)(=O)[O-])cc7)c7ccc4[nH]7)C=C6)C=C5)cc3)[C@H](C3CC3)C2)on1
REMARK SMILES IDX 18 1 17 2 16 3 15 4 14 5 13 6 12 7 11 8 9 9 10 10 8 11 6 12
REMARK SMILES IDX 7 13 90 14 86 16 5 17 4 18 1 19 2 20 3 21 92 22 91 23 87 24
REMARK SMILES IDX 88 25 89 26 19 27 20 28 21 29 22 30 23 31 24 32 25 33 26 34
REMARK SMILES IDX 27 35 85 36 28 37 84 38 29 39 30 40 31 41 78 42 32 43 83 44
REMARK SMILES IDX 77 45 79 46 33 47 82 48 76 49 75 50 34 52 64 53 45 54 63 55
REMARK SMILES IDX 46 56 49 57 62 58 80 59 47 60 48 61 61 63 81 64 50 65 35 66
REMARK SMILES IDX 36 67 44 68 37 69 43 70 38 71 39 72 40 73 41 74 42 75 65 76
REMARK SMILES IDX 66 77 74 78 67 79 73 80 68 81 69 82 70 83 71 84 72 85 51 86
REMARK SMILES IDX 52 87 60 88 53 89 59 90 54 91 55 92 56 93 57 94 58 95
REMARK H PARENT 6 15 79 51 49 62
REMARK Flexibility Score: inf
ROOT
ATOM      1  C   UNL A   1      34.115  36.419  33.364  1.00  0.00     0.188 C 
ENDROOT
BRANCH   1   2
ATOM      2  O   UNL A   1      32.986  36.258  32.521  1.00  0.00    -0.377 OA
BRANCH   2   3
ATOM      3  C   UNL A   1      33.004  37.067  31.363  1.00  0.00     0.188 C 
BRANCH   3   4
ATOM      4  C   UNL A   1      32.926  36.280  30.036  1.00  0.00     0.188 C 
BRANCH   4   5
ATOM      5  O   UNL A   1      32.835  34.862  30.004  1.00  0.00    -0.376 OA
BRANCH   5   6
ATOM      6  C   UNL A   1      33.919  34.095  29.506  1.00  0.00     0.202 C 
BRANCH   6   7
ATOM      7  C   UNL A   1      33.877  33.561  28.064  1.00  0.00     0.261 C 
BRANCH   7   8
ATOM      8  O   UNL A   1      35.067  32.910  27.589  1.00  0.00    -0.463 OA
BRANCH   8   9
ATOM      9  C   UNL A   1      35.184  31.589  27.878  1.00  0.00     0.315 C 
ATOM     10  O   UNL A   1      34.227  30.831  28.004  1.00  0.00    -0.252 OA
BRANCH   9  11
ATOM     11  C   UNL A   1      36.623  31.112  27.991  1.00  0.00     0.163 C 
ATOM     12  N   UNL A   1      38.182  29.375  28.525  1.00  0.00    -0.328 N 
ATOM     13  C   UNL A   1      36.796  29.595  28.072  1.00  0.00     0.278 C 
ATOM     14  C   UNL A   1      38.528  30.517  29.379  1.00  0.00     0.267 C 
ATOM     15  H   UNL A   1      38.251  28.510  29.059  1.00  0.00     0.348 HD
ATOM     16  C   UNL A   1      37.447  31.610  29.188  1.00  0.00     0.067 C 
BRANCH  12  17
ATOM     17  C   UNL A   1      39.132  29.135  27.420  1.00  0.00     0.341 C 
BRANCH  17  18
ATOM     18  C   UNL A   1      40.416  28.496  27.816  1.00  0.00     0.191 A 
ATOM     19  C   UNL A   1      43.580  26.686  27.793  1.00  0.00     0.070 C 
ATOM     20  C   UNL A   1      42.303  27.390  28.039  1.00  0.00     0.081 A 
ATOM     21  C   UNL A   1      41.622  28.291  27.191  1.00  0.00     0.078 A 
ATOM     22  N   UNL A   1      41.608  27.156  29.158  1.00  0.00    -0.085 NA
ATOM     23  O   UNL A   1      40.426  27.860  29.020  1.00  0.00    -0.355 OA
ENDBRANCH  17  18
ENDBRANCH  12  17
BRANCH  16  24
ATOM     24  C   UNL A   1      38.058  32.994  29.123  1.00  0.00    -0.001 C 
ATOM     25  C   UNL A   1      37.597  34.186  29.925  1.00  0.00     0.004 C 
ATOM     26  C   UNL A   1      38.883  33.509  30.283  1.00  0.00     0.004 C 
ENDBRANCH  16  24
ENDBRANCH   9  11
ENDBRANCH   8   9
ENDBRANCH   7   8
ENDBRANCH   6   7
ENDBRANCH   5   6
ENDBRANCH   4   5
ENDBRANCH   3   4
ENDBRANCH   2   3
ENDBRANCH   1   2
BRANCH   1  27
ATOM     27  C   UNL A   1      35.073  35.217  33.418  1.00  0.00     0.188 C 
BRANCH  27  28
ATOM     28  O   UNL A   1      35.110  34.607  34.708  1.00  0.00    -0.376 OA
BRANCH  28  29
ATOM     29  C   UNL A   1      36.235  33.814  35.047  1.00  0.00     0.202 C 
BRANCH  29  30
ATOM     30  C   UNL A   1      36.655  33.843  36.523  1.00  0.00     0.261 C 
BRANCH  30  31
ATOM     31  O   UNL A   1      36.823  32.569  37.162  1.00  0.00    -0.460 OA
BRANCH  31  32
ATOM     32  C   UNL A   1      37.989  32.320  37.798  1.00  0.00     0.338 C 
ATOM     33  O   UNL A   1      38.147  32.142  38.992  1.00  0.00    -0.246 OA
BRANCH  32  34
ATOM     34  C   UNL A   1      39.010  32.060  36.754  1.00  0.00     0.060 A 
ATOM     35  C   UNL A   1      38.653  31.278  35.646  1.00  0.00     0.016 A 
ATOM     36  C   UNL A   1      40.271  32.659  36.816  1.00  0.00     0.016 A 
ATOM     37  C   UNL A   1      39.556  31.101  34.595  1.00  0.00     0.010 A 
ATOM     38  C   UNL A   1      41.187  32.449  35.781  1.00  0.00     0.010 A 
ATOM     39  C   UNL A   1      40.839  31.657  34.673  1.00  0.00    -0.014 A 
BRANCH  39  40
ATOM     40  C   UNL A   1      41.879  31.247  33.701  1.00  0.00     0.031 A 
ATOM     41  C   UNL A   1      42.204  32.193  32.579  1.00  0.00     0.074 A 
ATOM     42  C   UNL A   1      42.529  30.074  33.812  1.00  0.00     0.049 A 
ATOM     43  N   UNL A   1      43.043  32.047  31.588  1.00  0.00    -0.248 NA
ATOM     44  C   UNL A   1      41.483  33.477  32.576  1.00  0.00     0.031 C 
ATOM     45  C   UNL A   1      42.343  29.095  34.881  1.00  0.00     0.029 A 
ATOM     46  N   UNL A   1      43.482  29.508  32.999  1.00  0.00    -0.354 N 
ATOM     47  C   UNL A   1      42.953  33.219  30.845  1.00  0.00     0.074 A 
ATOM     48  C   UNL A   1      41.960  34.054  31.484  1.00  0.00     0.031 C 
ATOM     49  C   UNL A   1      43.146  28.041  34.651  1.00  0.00     0.029 A 
ATOM     50  C   UNL A   1      43.878  28.254  33.402  1.00  0.00     0.049 A 
ATOM     51  H   UNL A   1      43.845  29.957  32.202  1.00  0.00     0.167 HD
ATOM     52  C   UNL A   1      43.635  33.570  29.730  1.00  0.00     0.031 A 
ATOM     53  C   UNL A   1      44.715  27.374  32.817  1.00  0.00     0.031 A 
ATOM     54  C   UNL A   1      44.597  32.724  29.077  1.00  0.00     0.049 A 
ATOM     55  C   UNL A   1      45.389  27.747  31.519  1.00  0.00     0.074 A 
ATOM     56  C   UNL A   1      45.344  32.990  27.944  1.00  0.00     0.029 A 
ATOM     57  N   UNL A   1      44.931  31.443  29.487  1.00  0.00    -0.354 N 
ATOM     58  N   UNL A   1      45.317  28.870  30.843  1.00  0.00    -0.248 NA
ATOM     59  C   UNL A   1      46.258  26.732  30.904  1.00  0.00     0.031 C 
ATOM     60  C   UNL A   1      46.084  31.845  27.632  1.00  0.00     0.029 A 
ATOM     61  C   UNL A   1      45.848  30.890  28.609  1.00  0.00     0.049 A 
ATOM     62  H   UNL A   1      44.571  30.992  30.285  1.00  0.00     0.167 HD
ATOM     63  C   UNL A   1      46.147  28.704  29.739  1.00  0.00     0.074 A 
ATOM     64  C   UNL A   1      46.725  27.380  29.846  1.00  0.00     0.031 C 
ATOM     65  C   UNL A   1      46.409  29.567  28.726  1.00  0.00     0.031 A 
BRANCH  52  66
ATOM     66  C   UNL A   1      43.327  34.911  29.125  1.00  0.00    -0.014 A 
ATOM     67  C   UNL A   1      42.074  35.179  28.542  1.00  0.00     0.010 A 
ATOM     68  C   UNL A   1      44.296  35.929  29.165  1.00  0.00     0.010 A 
ATOM     69  C   UNL A   1      41.810  36.429  27.981  1.00  0.00     0.020 A 
ATOM     70  C   UNL A   1      44.025  37.191  28.628  1.00  0.00     0.020 A 
ATOM     71  C   UNL A   1      42.788  37.428  28.026  1.00  0.00     0.054 A 
BRANCH  71  72
ATOM     72  S   UNL A   1      42.407  39.051  27.312  1.00  0.00     0.124 S 
ATOM     73  O   UNL A   1      41.690  39.701  28.407  1.00  0.00    -0.237 OA
ATOM     74  O   UNL A   1      43.733  39.591  27.022  1.00  0.00    -0.237 OA
ATOM     75  O   UNL A   1      41.597  38.733  26.140  1.00  0.00    -0.744 OA
ENDBRANCH  71  72
ENDBRANCH  52  66
BRANCH  53  76
ATOM     76  C   UNL A   1      44.942  26.034  33.430  1.00  0.00    -0.014 A 
ATOM     77  C   UNL A   1      46.004  25.822  34.328  1.00  0.00     0.010 A 
ATOM     78  C   UNL A   1      44.104  24.953  33.099  1.00  0.00     0.010 A 
ATOM     79  C   UNL A   1      46.230  24.553  34.871  1.00  0.00     0.020 A 
ATOM     80  C   UNL A   1      44.310  23.690  33.662  1.00  0.00     0.020 A 
ATOM     81  C   UNL A   1      45.380  23.496  34.537  1.00  0.00     0.054 A 
BRANCH  81  82
ATOM     82  S   UNL A   1      45.666  21.869  35.291  1.00  0.00     0.124 S 
ATOM     83  O   UNL A   1      44.573  21.079  34.735  1.00  0.00    -0.237 OA
ATOM     84  O   UNL A   1      47.003  21.531  34.808  1.00  0.00    -0.237 OA
ATOM     85  O   UNL A   1      45.580  22.139  36.725  1.00  0.00    -0.744 OA
ENDBRANCH  81  82
ENDBRANCH  53  76
BRANCH  65  86
ATOM     86  C   UNL A   1      47.379  29.124  27.661  1.00  0.00    -0.014 A 
ATOM     87  C   UNL A   1      48.756  29.385  27.776  1.00  0.00     0.010 A 
ATOM     88  C   UNL A   1      46.913  28.380  26.562  1.00  0.00     0.010 A 
ATOM     89  C   UNL A   1      49.644  28.936  26.795  1.00  0.00     0.020 A 
ATOM     90  C   UNL A   1      47.801  27.904  25.594  1.00  0.00     0.020 A 
ATOM     91  C   UNL A   1      49.161  28.197  25.710  1.00  0.00     0.054 A 
BRANCH  91  92
ATOM     92  S   UNL A   1      50.341  27.588  24.473  1.00  0.00     0.124 S 
ATOM     93  O   UNL A   1      51.599  28.158  24.947  1.00  0.00    -0.237 OA
ATOM     94  O   UNL A   1      50.219  26.138  24.601  1.00  0.00    -0.237 OA
ATOM     95  O   UNL A   1      49.842  28.141  23.216  1.00  0.00    -0.744 OA
ENDBRANCH  91  92
ENDBRANCH  65  86
ENDBRANCH  39  40
ENDBRANCH  32  34
ENDBRANCH  31  32
ENDBRANCH  30  31
ENDBRANCH  29  30
ENDBRANCH  28  29
ENDBRANCH  27  28
ENDBRANCH   1  27
TORSDOF 26
ENDMDL
