MODEL 1
REMARK VINA RESULT:      -7.9      0.000      0.000
REMARK SMILES O=C(OCCOCCOCCOCCOC(=O)c1nccnc1C(=O)Nc1ccc2c(c1)OCO2)c1ccc(-c2c3nc(c(-c4ccc(S(=O)(=O)[O-])cc4)c4ccc([nH]4)c(-c4ccc(S(=O)(=O)[O-])cc4)c4nc(c(-c5ccc(S(=O)(=O)[O-])cc5)c5ccc2[nH]5)C=C4)C=C3)cc1
REMARK SMILES IDX 8 1 7 2 6 3 5 4 4 5 3 6 2 7 1 8 36 9 37 10 95 11 38 12 94 13
REMARK SMILES IDX 39 14 40 15 41 16 88 17 42 18 93 19 87 20 89 21 43 22 92 23
REMARK SMILES IDX 86 24 85 25 44 27 74 28 55 29 73 30 56 31 59 32 72 33 90 34
REMARK SMILES IDX 57 35 58 36 71 38 91 39 60 40 45 41 46 42 54 43 47 44 53 45
REMARK SMILES IDX 48 46 49 47 50 48 51 49 52 50 75 51 76 52 84 53 77 54 83 55
REMARK SMILES IDX 78 56 79 57 80 58 81 59 82 60 61 61 62 62 70 63 63 64 69 65
REMARK SMILES IDX 64 66 65 67 66 68 67 69 68 70 9 71 10 72 11 73 12 74 13 75
REMARK SMILES IDX 14 76 15 77 16 78 17 79 18 80 19 81 23 82 20 83 22 84 21 85
REMARK SMILES IDX 24 86 25 87 26 88 27 90 28 91 32 92 29 93 31 94 30 95 33 96
REMARK SMILES IDX 35 97 34 98
REMARK H PARENT 89 26 59 37 26 89
REMARK Flexibility Score: inf
ROOT
ATOM      1  C   UNL A   1      47.758  17.928  42.883  1.00  0.00     0.188 C 
ENDROOT
BRANCH   1   2
ATOM      2  C   UNL A   1      47.702  18.719  41.581  1.00  0.00     0.188 C 
BRANCH   2   3
ATOM      3  O   UNL A   1      48.634  19.786  41.554  1.00  0.00    -0.376 OA
BRANCH   3   4
ATOM      4  C   UNL A   1      49.435  19.892  40.388  1.00  0.00     0.202 C 
BRANCH   4   5
ATOM      5  C   UNL A   1      48.768  19.114  39.257  1.00  0.00     0.261 C 
BRANCH   5   6
ATOM      6  O   UNL A   1      48.350  20.004  38.206  1.00  0.00    -0.460 OA
BRANCH   6   7
ATOM      7  C   UNL A   1      47.225  20.762  38.174  1.00  0.00     0.338 C 
ATOM      8  O   UNL A   1      46.399  20.612  39.076  1.00  0.00    -0.246 OA
BRANCH   7   9
ATOM      9  C   UNL A   1      46.964  21.847  37.171  1.00  0.00     0.060 A 
ATOM     10  C   UNL A   1      47.851  22.305  36.190  1.00  0.00     0.016 A 
ATOM     11  C   UNL A   1      45.663  22.378  37.171  1.00  0.00     0.016 A 
ATOM     12  C   UNL A   1      47.471  23.250  35.239  1.00  0.00     0.010 A 
ATOM     13  C   UNL A   1      45.277  23.343  36.237  1.00  0.00     0.010 A 
ATOM     14  C   UNL A   1      46.190  23.787  35.274  1.00  0.00    -0.014 A 
BRANCH  14  15
ATOM     15  C   UNL A   1      45.882  24.951  34.425  1.00  0.00     0.031 A 
ATOM     16  C   UNL A   1      45.220  24.679  33.109  1.00  0.00     0.074 A 
ATOM     17  C   UNL A   1      46.142  26.201  34.846  1.00  0.00     0.049 A 
ATOM     18  N   UNL A   1      44.989  25.492  32.117  1.00  0.00    -0.248 NA
ATOM     19  C   UNL A   1      44.750  23.300  32.882  1.00  0.00     0.031 C 
ATOM     20  C   UNL A   1      46.667  26.560  36.166  1.00  0.00     0.029 A 
ATOM     21  N   UNL A   1      46.007  27.402  34.201  1.00  0.00    -0.354 N 
ATOM     22  C   UNL A   1      44.398  24.714  31.130  1.00  0.00     0.074 A 
ATOM     23  C   UNL A   1      44.280  23.371  31.646  1.00  0.00     0.031 C 
ATOM     24  C   UNL A   1      46.832  27.893  36.221  1.00  0.00     0.029 A 
ATOM     25  C   UNL A   1      46.494  28.468  34.922  1.00  0.00     0.049 A 
ATOM     26  H   UNL A   1      45.603  27.494  33.308  1.00  0.00     0.167 HD
ATOM     27  C   UNL A   1      44.017  25.094  29.891  1.00  0.00     0.031 A 
ATOM     28  C   UNL A   1      46.700  29.745  34.539  1.00  0.00     0.031 A 
ATOM     29  C   UNL A   1      44.156  26.439  29.411  1.00  0.00     0.049 A 
ATOM     30  C   UNL A   1      46.356  30.119  33.118  1.00  0.00     0.074 A 
ATOM     31  C   UNL A   1      43.818  26.951  28.173  1.00  0.00     0.029 A 
ATOM     32  N   UNL A   1      44.688  27.484  30.153  1.00  0.00    -0.354 N 
ATOM     33  N   UNL A   1      45.804  29.381  32.181  1.00  0.00    -0.248 NA
ATOM     34  C   UNL A   1      46.679  31.488  32.691  1.00  0.00     0.031 C 
ATOM     35  C   UNL A   1      44.209  28.292  28.144  1.00  0.00     0.029 A 
ATOM     36  C   UNL A   1      44.731  28.631  29.385  1.00  0.00     0.049 A 
ATOM     37  H   UNL A   1      44.991  27.418  31.087  1.00  0.00     0.167 HD
ATOM     38  C   UNL A   1      45.708  30.196  31.060  1.00  0.00     0.074 A 
ATOM     39  C   UNL A   1      46.229  31.493  31.443  1.00  0.00     0.031 C 
ATOM     40  C   UNL A   1      45.248  29.905  29.818  1.00  0.00     0.031 A 
BRANCH  27  41
ATOM     41  C   UNL A   1      43.510  24.034  28.956  1.00  0.00    -0.014 A 
ATOM     42  C   UNL A   1      44.345  23.418  28.009  1.00  0.00     0.010 A 
ATOM     43  C   UNL A   1      42.168  23.620  29.061  1.00  0.00     0.010 A 
ATOM     44  C   UNL A   1      43.843  22.414  27.174  1.00  0.00     0.020 A 
ATOM     45  C   UNL A   1      41.670  22.603  28.245  1.00  0.00     0.020 A 
ATOM     46  C   UNL A   1      42.511  22.009  27.303  1.00  0.00     0.054 A 
BRANCH  46  47
ATOM     47  S   UNL A   1      41.904  20.661  26.251  1.00  0.00     0.124 S 
ATOM     48  O   UNL A   1      40.530  21.079  25.985  1.00  0.00    -0.237 OA
ATOM     49  O   UNL A   1      42.810  20.719  25.107  1.00  0.00    -0.237 OA
ATOM     50  O   UNL A   1      42.041  19.474  27.092  1.00  0.00    -0.744 OA
ENDBRANCH  46  47
ENDBRANCH  27  41
BRANCH  28  51
ATOM     51  C   UNL A   1      47.354  30.723  35.456  1.00  0.00    -0.014 A 
ATOM     52  C   UNL A   1      46.596  31.620  36.229  1.00  0.00     0.010 A 
ATOM     53  C   UNL A   1      48.759  30.792  35.527  1.00  0.00     0.010 A 
ATOM     54  C   UNL A   1      47.227  32.582  37.026  1.00  0.00     0.020 A 
ATOM     55  C   UNL A   1      49.395  31.728  36.348  1.00  0.00     0.020 A 
ATOM     56  C   UNL A   1      48.623  32.630  37.079  1.00  0.00     0.054 A 
BRANCH  56  57
ATOM     57  S   UNL A   1      49.419  33.869  38.139  1.00  0.00     0.124 S 
ATOM     58  O   UNL A   1      48.802  33.603  39.435  1.00  0.00    -0.237 OA
ATOM     59  O   UNL A   1      50.832  33.518  38.022  1.00  0.00    -0.237 OA
ATOM     60  O   UNL A   1      49.049  35.139  37.517  1.00  0.00    -0.744 OA
ENDBRANCH  56  57
ENDBRANCH  28  51
BRANCH  40  61
ATOM     61  C   UNL A   1      45.267  31.007  28.797  1.00  0.00    -0.014 A 
ATOM     62  C   UNL A   1      46.357  31.157  27.922  1.00  0.00     0.010 A 
ATOM     63  C   UNL A   1      44.137  31.829  28.646  1.00  0.00     0.010 A 
ATOM     64  C   UNL A   1      46.317  32.122  26.916  1.00  0.00     0.020 A 
ATOM     65  C   UNL A   1      44.082  32.774  27.621  1.00  0.00     0.020 A 
ATOM     66  C   UNL A   1      45.176  32.918  26.766  1.00  0.00     0.054 A 
BRANCH  66  67
ATOM     67  S   UNL A   1      45.118  34.105  25.397  1.00  0.00     0.124 S 
ATOM     68  O   UNL A   1      44.159  35.089  25.889  1.00  0.00    -0.237 OA
ATOM     69  O   UNL A   1      46.503  34.563  25.313  1.00  0.00    -0.237 OA
ATOM     70  O   UNL A   1      44.664  33.304  24.263  1.00  0.00    -0.744 OA
ENDBRANCH  66  67
ENDBRANCH  40  61
ENDBRANCH  14  15
ENDBRANCH   7   9
ENDBRANCH   6   7
ENDBRANCH   5   6
ENDBRANCH   4   5
ENDBRANCH   3   4
ENDBRANCH   2   3
ENDBRANCH   1   2
BRANCH   1  71
ATOM     71  O   UNL A   1      46.562  17.306  43.329  1.00  0.00    -0.377 OA
BRANCH  71  72
ATOM     72  C   UNL A   1      45.773  17.955  44.322  1.00  0.00     0.188 C 
BRANCH  72  73
ATOM     73  C   UNL A   1      45.823  17.572  45.811  1.00  0.00     0.188 C 
BRANCH  73  74
ATOM     74  O   UNL A   1      45.235  16.328  46.163  1.00  0.00    -0.376 OA
BRANCH  74  75
ATOM     75  C   UNL A   1      46.118  15.441  46.849  1.00  0.00     0.202 C 
BRANCH  75  76
ATOM     76  C   UNL A   1      45.666  13.985  46.775  1.00  0.00     0.261 C 
BRANCH  76  77
ATOM     77  O   UNL A   1      44.707  13.786  45.715  1.00  0.00    -0.458 OA
BRANCH  77  78
ATOM     78  C   UNL A   1      43.804  12.820  45.998  1.00  0.00     0.359 C 
ATOM     79  O   UNL A   1      43.539  12.468  47.142  1.00  0.00    -0.244 OA
BRANCH  78  80
ATOM     80  C   UNL A   1      43.148  12.163  44.817  1.00  0.00     0.179 A 
ATOM     81  N   UNL A   1      43.698  10.904  44.641  1.00  0.00    -0.245 NA
ATOM     82  C   UNL A   1      42.137  12.605  43.960  1.00  0.00     0.161 A 
ATOM     83  C   UNL A   1      43.292  10.162  43.596  1.00  0.00     0.132 A 
ATOM     84  N   UNL A   1      41.718  11.790  42.920  1.00  0.00    -0.247 NA
ATOM     85  C   UNL A   1      42.320  10.603  42.741  1.00  0.00     0.132 A 
BRANCH  82  86
ATOM     86  C   UNL A   1      41.461  13.930  43.796  1.00  0.00     0.276 C 
ATOM     87  O   UNL A   1      40.583  14.205  44.633  1.00  0.00    -0.267 OA
ATOM     88  N   UNL A   1      41.636  14.906  42.853  1.00  0.00    -0.320 N 
ATOM     89  H   UNL A   1      41.088  15.700  43.046  1.00  0.00     0.170 HD
BRANCH  88  90
ATOM     90  C   UNL A   1      42.387  15.070  41.693  1.00  0.00     0.045 A 
ATOM     91  C   UNL A   1      42.144  14.399  40.492  1.00  0.00     0.030 A 
ATOM     92  C   UNL A   1      43.369  16.073  41.752  1.00  0.00     0.076 A 
ATOM     93  C   UNL A   1      42.709  14.869  39.300  1.00  0.00     0.053 A 
ATOM     94  C   UNL A   1      43.940  16.489  40.572  1.00  0.00     0.167 A 
ATOM     95  C   UNL A   1      43.585  15.931  39.372  1.00  0.00     0.165 A 
ATOM     96  O   UNL A   1      44.817  17.515  40.435  1.00  0.00    -0.454 OA
ATOM     97  O   UNL A   1      44.169  16.560  38.319  1.00  0.00    -0.454 OA
ATOM     98  C   UNL A   1      45.019  17.514  39.004  1.00  0.00     0.468 C 
ENDBRANCH  88  90
ENDBRANCH  82  86
ENDBRANCH  78  80
ENDBRANCH  77  78
ENDBRANCH  76  77
ENDBRANCH  75  76
ENDBRANCH  74  75
ENDBRANCH  73  74
ENDBRANCH  72  73
ENDBRANCH  71  72
ENDBRANCH   1  71
TORSDOF 25
ENDMDL
MODEL 2
REMARK VINA RESULT:      -7.5     10.987     20.720
REMARK SMILES O=C(OCCOCCOCCOCCOC(=O)c1nccnc1C(=O)Nc1ccc2c(c1)OCO2)c1ccc(-c2c3nc(c(-c4ccc(S(=O)(=O)[O-])cc4)c4ccc([nH]4)c(-c4ccc(S(=O)(=O)[O-])cc4)c4nc(c(-c5ccc(S(=O)(=O)[O-])cc5)c5ccc2[nH]5)C=C4)C=C3)cc1
REMARK SMILES IDX 8 1 7 2 6 3 5 4 4 5 3 6 2 7 1 8 36 9 37 10 95 11 38 12 94 13
REMARK SMILES IDX 39 14 40 15 41 16 88 17 42 18 93 19 87 20 89 21 43 22 92 23
REMARK SMILES IDX 86 24 85 25 44 27 74 28 55 29 73 30 56 31 59 32 72 33 90 34
REMARK SMILES IDX 57 35 58 36 71 38 91 39 60 40 45 41 46 42 54 43 47 44 53 45
REMARK SMILES IDX 48 46 49 47 50 48 51 49 52 50 75 51 76 52 84 53 77 54 83 55
REMARK SMILES IDX 78 56 79 57 80 58 81 59 82 60 61 61 62 62 70 63 63 64 69 65
REMARK SMILES IDX 64 66 65 67 66 68 67 69 68 70 9 71 10 72 11 73 12 74 13 75
REMARK SMILES IDX 14 76 15 77 16 78 17 79 18 80 19 81 23 82 20 83 22 84 21 85
REMARK SMILES IDX 24 86 25 87 26 88 27 90 28 91 32 92 29 93 31 94 30 95 33 96
REMARK SMILES IDX 35 97 34 98
REMARK H PARENT 89 26 59 37 26 89
REMARK Flexibility Score: inf
ROOT
ATOM      1  C   UNL A   1      44.254  39.474  32.791  1.00  0.00     0.188 C 
ENDROOT
BRANCH   1   2
ATOM      2  C   UNL A   1      44.717  39.424  34.242  1.00  0.00     0.188 C 
BRANCH   2   3
ATOM      3  O   UNL A   1      45.994  38.827  34.383  1.00  0.00    -0.376 OA
BRANCH   3   4
ATOM      4  C   UNL A   1      46.264  37.713  33.547  1.00  0.00     0.202 C 
BRANCH   4   5
ATOM      5  C   UNL A   1      47.616  37.920  32.868  1.00  0.00     0.261 C 
BRANCH   5   6
ATOM      6  O   UNL A   1      48.107  36.680  32.327  1.00  0.00    -0.460 OA
BRANCH   6   7
ATOM      7  C   UNL A   1      48.319  36.384  31.020  1.00  0.00     0.338 C 
ATOM      8  O   UNL A   1      49.007  37.160  30.354  1.00  0.00    -0.246 OA
BRANCH   7   9
ATOM      9  C   UNL A   1      47.862  35.120  30.354  1.00  0.00     0.060 A 
ATOM     10  C   UNL A   1      47.459  34.980  29.020  1.00  0.00     0.016 A 
ATOM     11  C   UNL A   1      47.942  33.954  31.135  1.00  0.00     0.016 A 
ATOM     12  C   UNL A   1      47.149  33.736  28.473  1.00  0.00     0.010 A 
ATOM     13  C   UNL A   1      47.612  32.705  30.603  1.00  0.00     0.010 A 
ATOM     14  C   UNL A   1      47.205  32.599  29.269  1.00  0.00    -0.014 A 
BRANCH  14  15
ATOM     15  C   UNL A   1      46.646  31.339  28.751  1.00  0.00     0.031 A 
ATOM     16  C   UNL A   1      45.200  31.068  29.033  1.00  0.00     0.074 A 
ATOM     17  C   UNL A   1      47.396  30.500  28.015  1.00  0.00     0.049 A 
ATOM     18  N   UNL A   1      44.509  29.981  28.835  1.00  0.00    -0.248 NA
ATOM     19  C   UNL A   1      44.424  32.179  29.617  1.00  0.00     0.031 C 
ATOM     20  C   UNL A   1      48.775  30.750  27.586  1.00  0.00     0.029 A 
ATOM     21  N   UNL A   1      47.104  29.263  27.504  1.00  0.00    -0.354 N 
ATOM     22  C   UNL A   1      43.236  30.258  29.318  1.00  0.00     0.074 A 
ATOM     23  C   UNL A   1      43.237  31.620  29.795  1.00  0.00     0.031 C 
ATOM     24  C   UNL A   1      49.216  29.683  26.896  1.00  0.00     0.029 A 
ATOM     25  C   UNL A   1      48.180  28.654  26.899  1.00  0.00     0.049 A 
ATOM     26  H   UNL A   1      46.214  28.849  27.565  1.00  0.00     0.167 HD
ATOM     27  C   UNL A   1      42.172  29.426  29.378  1.00  0.00     0.031 A 
ATOM     28  C   UNL A   1      48.317  27.386  26.461  1.00  0.00     0.031 A 
ATOM     29  C   UNL A   1      42.212  28.075  28.898  1.00  0.00     0.049 A 
ATOM     30  C   UNL A   1      47.145  26.450  26.630  1.00  0.00     0.074 A 
ATOM     31  C   UNL A   1      41.206  27.128  28.911  1.00  0.00     0.029 A 
ATOM     32  N   UNL A   1      43.327  27.479  28.328  1.00  0.00    -0.354 N 
ATOM     33  N   UNL A   1      45.944  26.710  27.095  1.00  0.00    -0.248 NA
ATOM     34  C   UNL A   1      47.348  25.048  26.239  1.00  0.00     0.031 C 
ATOM     35  C   UNL A   1      41.736  25.936  28.408  1.00  0.00     0.029 A 
ATOM     36  C   UNL A   1      43.050  26.160  28.023  1.00  0.00     0.049 A 
ATOM     37  H   UNL A   1      44.187  27.928  28.164  1.00  0.00     0.167 HD
ATOM     38  C   UNL A   1      45.247  25.508  27.044  1.00  0.00     0.074 A 
ATOM     39  C   UNL A   1      46.151  24.528  26.475  1.00  0.00     0.031 C 
ATOM     40  C   UNL A   1      43.982  25.226  27.444  1.00  0.00     0.031 A 
BRANCH  27  41
ATOM     41  C   UNL A   1      40.930  29.924  30.060  1.00  0.00    -0.014 A 
ATOM     42  C   UNL A   1      40.800  29.924  31.459  1.00  0.00     0.010 A 
ATOM     43  C   UNL A   1      39.884  30.441  29.273  1.00  0.00     0.010 A 
ATOM     44  C   UNL A   1      39.639  30.421  32.059  1.00  0.00     0.020 A 
ATOM     45  C   UNL A   1      38.733  30.960  29.869  1.00  0.00     0.020 A 
ATOM     46  C   UNL A   1      38.616  30.942  31.260  1.00  0.00     0.054 A 
BRANCH  46  47
ATOM     47  S   UNL A   1      37.148  31.639  32.067  1.00  0.00     0.124 S 
ATOM     48  O   UNL A   1      36.397  30.437  32.418  1.00  0.00    -0.237 OA
ATOM     49  O   UNL A   1      37.723  32.370  33.193  1.00  0.00    -0.237 OA
ATOM     50  O   UNL A   1      36.542  32.471  31.030  1.00  0.00    -0.744 OA
ENDBRANCH  46  47
ENDBRANCH  27  41
BRANCH  28  51
ATOM     51  C   UNL A   1      49.625  26.895  25.936  1.00  0.00    -0.014 A 
ATOM     52  C   UNL A   1      50.597  26.347  26.792  1.00  0.00     0.010 A 
ATOM     53  C   UNL A   1      49.924  27.015  24.565  1.00  0.00     0.010 A 
ATOM     54  C   UNL A   1      51.847  25.962  26.295  1.00  0.00     0.020 A 
ATOM     55  C   UNL A   1      51.159  26.600  24.057  1.00  0.00     0.020 A 
ATOM     56  C   UNL A   1      52.119  26.091  24.930  1.00  0.00     0.054 A 
BRANCH  56  57
ATOM     57  S   UNL A   1      53.738  25.562  24.305  1.00  0.00     0.124 S 
ATOM     58  O   UNL A   1      53.695  24.121  24.530  1.00  0.00    -0.237 OA
ATOM     59  O   UNL A   1      53.688  25.990  22.909  1.00  0.00    -0.237 OA
ATOM     60  O   UNL A   1      54.685  26.299  25.138  1.00  0.00    -0.744 OA
ENDBRANCH  56  57
ENDBRANCH  28  51
BRANCH  40  61
ATOM     61  C   UNL A   1      43.497  23.816  27.260  1.00  0.00    -0.014 A 
ATOM     62  C   UNL A   1      43.310  22.971  28.367  1.00  0.00     0.010 A 
ATOM     63  C   UNL A   1      43.126  23.373  25.978  1.00  0.00     0.010 A 
ATOM     64  C   UNL A   1      42.766  21.698  28.192  1.00  0.00     0.020 A 
ATOM     65  C   UNL A   1      42.554  22.113  25.805  1.00  0.00     0.020 A 
ATOM     66  C   UNL A   1      42.383  21.281  26.912  1.00  0.00     0.054 A 
BRANCH  66  67
ATOM     67  S   UNL A   1      41.601  19.657  26.726  1.00  0.00     0.124 S 
ATOM     68  O   UNL A   1      40.224  19.937  27.122  1.00  0.00    -0.237 OA
ATOM     69  O   UNL A   1      41.801  19.367  25.308  1.00  0.00    -0.237 OA
ATOM     70  O   UNL A   1      42.352  18.803  27.643  1.00  0.00    -0.744 OA
ENDBRANCH  66  67
ENDBRANCH  40  61
ENDBRANCH  14  15
ENDBRANCH   7   9
ENDBRANCH   6   7
ENDBRANCH   5   6
ENDBRANCH   4   5
ENDBRANCH   3   4
ENDBRANCH   2   3
ENDBRANCH   1   2
BRANCH   1  71
ATOM     71  O   UNL A   1      42.995  40.074  32.520  1.00  0.00    -0.377 OA
BRANCH  71  72
ATOM     72  C   UNL A   1      42.958  41.348  31.882  1.00  0.00     0.188 C 
BRANCH  72  73
ATOM     73  C   UNL A   1      43.607  42.605  32.487  1.00  0.00     0.188 C 
BRANCH  73  74
ATOM     74  O   UNL A   1      44.232  43.494  31.573  1.00  0.00    -0.376 OA
BRANCH  74  75
ATOM     75  C   UNL A   1      44.634  42.883  30.348  1.00  0.00     0.202 C 
BRANCH  75  76
ATOM     76  C   UNL A   1      45.127  43.894  29.317  1.00  0.00     0.261 C 
BRANCH  76  77
ATOM     77  O   UNL A   1      46.078  43.296  28.410  1.00  0.00    -0.458 OA
BRANCH  77  78
ATOM     78  C   UNL A   1      45.709  43.407  27.114  1.00  0.00     0.359 C 
ATOM     79  O   UNL A   1      45.185  44.415  26.652  1.00  0.00    -0.244 OA
BRANCH  78  80
ATOM     80  C   UNL A   1      45.950  42.201  26.252  1.00  0.00     0.179 A 
ATOM     81  N   UNL A   1      45.856  41.062  27.035  1.00  0.00    -0.245 NA
ATOM     82  C   UNL A   1      46.216  42.082  24.885  1.00  0.00     0.161 A 
ATOM     83  C   UNL A   1      46.098  39.867  26.471  1.00  0.00     0.132 A 
ATOM     84  N   UNL A   1      46.416  40.827  24.335  1.00  0.00    -0.247 NA
ATOM     85  C   UNL A   1      46.382  39.751  25.138  1.00  0.00     0.132 A 
BRANCH  82  86
ATOM     86  C   UNL A   1      46.518  43.094  23.825  1.00  0.00     0.276 C 
ATOM     87  O   UNL A   1      47.603  43.693  23.931  1.00  0.00    -0.267 OA
ATOM     88  N   UNL A   1      45.783  43.493  22.742  1.00  0.00    -0.320 N 
ATOM     89  H   UNL A   1      46.276  44.135  22.184  1.00  0.00     0.170 HD
BRANCH  88  90
ATOM     90  C   UNL A   1      44.518  43.227  22.224  1.00  0.00     0.045 A 
ATOM     91  C   UNL A   1      43.353  43.137  22.988  1.00  0.00     0.030 A 
ATOM     92  C   UNL A   1      44.446  43.170  20.822  1.00  0.00     0.076 A 
ATOM     93  C   UNL A   1      42.100  43.216  22.368  1.00  0.00     0.053 A 
ATOM     94  C   UNL A   1      43.202  43.207  20.237  1.00  0.00     0.167 A 
ATOM     95  C   UNL A   1      42.060  43.274  20.992  1.00  0.00     0.165 A 
ATOM     96  O   UNL A   1      42.955  43.272  18.904  1.00  0.00    -0.454 OA
ATOM     97  O   UNL A   1      40.947  43.425  20.228  1.00  0.00    -0.454 OA
ATOM     98  C   UNL A   1      41.511  43.338  18.896  1.00  0.00     0.468 C 
ENDBRANCH  88  90
ENDBRANCH  82  86
ENDBRANCH  78  80
ENDBRANCH  77  78
ENDBRANCH  76  77
ENDBRANCH  75  76
ENDBRANCH  74  75
ENDBRANCH  73  74
ENDBRANCH  72  73
ENDBRANCH  71  72
ENDBRANCH   1  71
TORSDOF 25
ENDMDL
MODEL 3
REMARK VINA RESULT:      -7.5     10.949     18.652
REMARK SMILES O=C(OCCOCCOCCOCCOC(=O)c1nccnc1C(=O)Nc1ccc2c(c1)OCO2)c1ccc(-c2c3nc(c(-c4ccc(S(=O)(=O)[O-])cc4)c4ccc([nH]4)c(-c4ccc(S(=O)(=O)[O-])cc4)c4nc(c(-c5ccc(S(=O)(=O)[O-])cc5)c5ccc2[nH]5)C=C4)C=C3)cc1
REMARK SMILES IDX 8 1 7 2 6 3 5 4 4 5 3 6 2 7 1 8 36 9 37 10 95 11 38 12 94 13
REMARK SMILES IDX 39 14 40 15 41 16 88 17 42 18 93 19 87 20 89 21 43 22 92 23
REMARK SMILES IDX 86 24 85 25 44 27 74 28 55 29 73 30 56 31 59 32 72 33 90 34
REMARK SMILES IDX 57 35 58 36 71 38 91 39 60 40 45 41 46 42 54 43 47 44 53 45
REMARK SMILES IDX 48 46 49 47 50 48 51 49 52 50 75 51 76 52 84 53 77 54 83 55
REMARK SMILES IDX 78 56 79 57 80 58 81 59 82 60 61 61 62 62 70 63 63 64 69 65
REMARK SMILES IDX 64 66 65 67 66 68 67 69 68 70 9 71 10 72 11 73 12 74 13 75
REMARK SMILES IDX 14 76 15 77 16 78 17 79 18 80 19 81 23 82 20 83 22 84 21 85
REMARK SMILES IDX 24 86 25 87 26 88 27 90 28 91 32 92 29 93 31 94 30 95 33 96
REMARK SMILES IDX 35 97 34 98
REMARK H PARENT 89 26 59 37 26 89
REMARK Flexibility Score: inf
ROOT
ATOM      1  C   UNL A   1      46.653  41.965  31.740  1.00  0.00     0.188 C 
ENDROOT
BRANCH   1   2
ATOM      2  C   UNL A   1      47.560  42.114  30.524  1.00  0.00     0.188 C 
BRANCH   2   3
ATOM      3  O   UNL A   1      48.302  40.937  30.253  1.00  0.00    -0.376 OA
BRANCH   3   4
ATOM      4  C   UNL A   1      47.988  39.800  31.043  1.00  0.00     0.202 C 
BRANCH   4   5
ATOM      5  C   UNL A   1      49.154  38.816  30.978  1.00  0.00     0.261 C 
BRANCH   5   6
ATOM      6  O   UNL A   1      48.677  37.480  30.738  1.00  0.00    -0.460 OA
BRANCH   6   7
ATOM      7  C   UNL A   1      48.909  36.711  29.645  1.00  0.00     0.338 C 
ATOM      8  O   UNL A   1      49.670  37.148  28.780  1.00  0.00    -0.246 OA
BRANCH   7   9
ATOM      9  C   UNL A   1      48.384  35.317  29.463  1.00  0.00     0.060 A 
ATOM     10  C   UNL A   1      47.884  34.764  28.279  1.00  0.00     0.016 A 
ATOM     11  C   UNL A   1      48.502  34.471  30.579  1.00  0.00     0.016 A 
ATOM     12  C   UNL A   1      47.516  33.422  28.194  1.00  0.00     0.010 A 
ATOM     13  C   UNL A   1      48.114  33.130  30.511  1.00  0.00     0.010 A 
ATOM     14  C   UNL A   1      47.610  32.608  29.316  1.00  0.00    -0.014 A 
BRANCH  14  15
ATOM     15  C   UNL A   1      46.995  31.270  29.279  1.00  0.00     0.031 A 
ATOM     16  C   UNL A   1      47.833  30.148  28.748  1.00  0.00     0.074 A 
ATOM     17  C   UNL A   1      45.752  31.068  29.751  1.00  0.00     0.049 A 
ATOM     18  N   UNL A   1      47.489  28.924  28.460  1.00  0.00    -0.248 NA
ATOM     19  C   UNL A   1      49.258  30.447  28.511  1.00  0.00     0.031 C 
ATOM     20  C   UNL A   1      44.916  32.080  30.403  1.00  0.00     0.029 A 
ATOM     21  N   UNL A   1      44.973  29.941  29.747  1.00  0.00    -0.354 N 
ATOM     22  C   UNL A   1      48.638  28.325  27.960  1.00  0.00     0.074 A 
ATOM     23  C   UNL A   1      49.696  29.305  28.004  1.00  0.00     0.031 C 
ATOM     24  C   UNL A   1      43.729  31.531  30.713  1.00  0.00     0.029 A 
ATOM     25  C   UNL A   1      43.698  30.156  30.219  1.00  0.00     0.049 A 
ATOM     26  H   UNL A   1      45.292  29.064  29.436  1.00  0.00     0.167 HD
ATOM     27  C   UNL A   1      48.777  27.069  27.480  1.00  0.00     0.031 A 
ATOM     28  C   UNL A   1      42.620  29.347  30.188  1.00  0.00     0.031 A 
ATOM     29  C   UNL A   1      47.698  26.124  27.447  1.00  0.00     0.049 A 
ATOM     30  C   UNL A   1      42.778  27.985  29.557  1.00  0.00     0.074 A 
ATOM     31  C   UNL A   1      47.706  24.825  26.977  1.00  0.00     0.029 A 
ATOM     32  N   UNL A   1      46.412  26.387  27.895  1.00  0.00    -0.354 N 
ATOM     33  N   UNL A   1      43.863  27.421  29.076  1.00  0.00    -0.248 NA
ATOM     34  C   UNL A   1      41.570  27.157  29.443  1.00  0.00     0.031 C 
ATOM     35  C   UNL A   1      46.405  24.325  27.080  1.00  0.00     0.029 A 
ATOM     36  C   UNL A   1      45.603  25.290  27.674  1.00  0.00     0.049 A 
ATOM     37  H   UNL A   1      46.120  27.230  28.311  1.00  0.00     0.167 HD
ATOM     38  C   UNL A   1      43.469  26.172  28.610  1.00  0.00     0.074 A 
ATOM     39  C   UNL A   1      42.053  26.050  28.895  1.00  0.00     0.031 C 
ATOM     40  C   UNL A   1      44.199  25.213  27.988  1.00  0.00     0.031 A 
BRANCH  27  41
ATOM     41  C   UNL A   1      50.099  26.690  26.877  1.00  0.00    -0.014 A 
ATOM     42  C   UNL A   1      51.127  26.116  27.644  1.00  0.00     0.010 A 
ATOM     43  C   UNL A   1      50.296  26.880  25.497  1.00  0.00     0.010 A 
ATOM     44  C   UNL A   1      52.335  25.750  27.041  1.00  0.00     0.020 A 
ATOM     45  C   UNL A   1      51.492  26.495  24.887  1.00  0.00     0.020 A 
ATOM     46  C   UNL A   1      52.506  25.936  25.666  1.00  0.00     0.054 A 
BRANCH  46  47
ATOM     47  S   UNL A   1      54.058  25.394  24.899  1.00  0.00     0.124 S 
ATOM     48  O   UNL A   1      54.043  26.124  23.634  1.00  0.00    -0.237 OA
ATOM     49  O   UNL A   1      55.061  25.835  25.865  1.00  0.00    -0.237 OA
ATOM     50  O   UNL A   1      53.903  23.946  24.783  1.00  0.00    -0.744 OA
ENDBRANCH  46  47
ENDBRANCH  27  41
BRANCH  28  51
ATOM     51  C   UNL A   1      41.287  29.829  30.655  1.00  0.00    -0.014 A 
ATOM     52  C   UNL A   1      40.828  29.558  31.956  1.00  0.00     0.010 A 
ATOM     53  C   UNL A   1      40.442  30.531  29.774  1.00  0.00     0.010 A 
ATOM     54  C   UNL A   1      39.545  29.951  32.354  1.00  0.00     0.020 A 
ATOM     55  C   UNL A   1      39.173  30.956  30.177  1.00  0.00     0.020 A 
ATOM     56  C   UNL A   1      38.725  30.647  31.461  1.00  0.00     0.054 A 
BRANCH  56  57
ATOM     57  S   UNL A   1      37.075  31.167  32.007  1.00  0.00     0.124 S 
ATOM     58  O   UNL A   1      37.388  32.254  32.929  1.00  0.00    -0.237 OA
ATOM     59  O   UNL A   1      36.441  31.559  30.751  1.00  0.00    -0.237 OA
ATOM     60  O   UNL A   1      36.523  29.962  32.622  1.00  0.00    -0.744 OA
ENDBRANCH  56  57
ENDBRANCH  28  51
BRANCH  40  61
ATOM     61  C   UNL A   1      43.489  23.949  27.597  1.00  0.00    -0.014 A 
ATOM     62  C   UNL A   1      43.199  22.961  28.554  1.00  0.00     0.010 A 
ATOM     63  C   UNL A   1      43.014  23.801  26.282  1.00  0.00     0.010 A 
ATOM     64  C   UNL A   1      42.453  21.838  28.197  1.00  0.00     0.020 A 
ATOM     65  C   UNL A   1      42.241  22.694  25.930  1.00  0.00     0.020 A 
ATOM     66  C   UNL A   1      41.971  21.716  26.889  1.00  0.00     0.054 A 
BRANCH  66  67
ATOM     67  S   UNL A   1      40.932  20.289  26.475  1.00  0.00     0.124 S 
ATOM     68  O   UNL A   1      40.835  19.603  27.760  1.00  0.00    -0.237 OA
ATOM     69  O   UNL A   1      39.701  20.918  26.002  1.00  0.00    -0.237 OA
ATOM     70  O   UNL A   1      41.701  19.587  25.451  1.00  0.00    -0.744 OA
ENDBRANCH  66  67
ENDBRANCH  40  61
ENDBRANCH  14  15
ENDBRANCH   7   9
ENDBRANCH   6   7
ENDBRANCH   5   6
ENDBRANCH   4   5
ENDBRANCH   3   4
ENDBRANCH   2   3
ENDBRANCH   1   2
BRANCH   1  71
ATOM     71  O   UNL A   1      46.498  43.093  32.588  1.00  0.00    -0.377 OA
BRANCH  71  72
ATOM     72  C   UNL A   1      45.726  42.963  33.779  1.00  0.00     0.188 C 
BRANCH  72  73
ATOM     73  C   UNL A   1      44.189  42.895  33.775  1.00  0.00     0.188 C 
BRANCH  73  74
ATOM     74  O   UNL A   1      43.529  43.593  32.728  1.00  0.00    -0.376 OA
BRANCH  74  75
ATOM     75  C   UNL A   1      42.496  42.844  32.089  1.00  0.00     0.202 C 
BRANCH  75  76
ATOM     76  C   UNL A   1      42.751  42.638  30.599  1.00  0.00     0.261 C 
BRANCH  76  77
ATOM     77  O   UNL A   1      43.439  41.394  30.351  1.00  0.00    -0.458 OA
BRANCH  77  78
ATOM     78  C   UNL A   1      42.842  40.644  29.398  1.00  0.00     0.359 C 
ATOM     79  O   UNL A   1      41.868  39.933  29.620  1.00  0.00    -0.244 OA
BRANCH  78  80
ATOM     80  C   UNL A   1      43.459  40.701  28.029  1.00  0.00     0.179 A 
ATOM     81  N   UNL A   1      44.541  41.566  28.059  1.00  0.00    -0.245 NA
ATOM     82  C   UNL A   1      43.127  40.046  26.840  1.00  0.00     0.161 A 
ATOM     83  C   UNL A   1      45.205  41.811  26.916  1.00  0.00     0.132 A 
ATOM     84  N   UNL A   1      43.866  40.294  25.694  1.00  0.00    -0.247 NA
ATOM     85  C   UNL A   1      44.867  41.188  25.747  1.00  0.00     0.132 A 
BRANCH  82  86
ATOM     86  C   UNL A   1      41.963  39.190  26.451  1.00  0.00     0.276 C 
ATOM     87  O   UNL A   1      40.950  39.790  26.051  1.00  0.00    -0.267 OA
ATOM     88  N   UNL A   1      41.813  37.830  26.474  1.00  0.00    -0.320 N 
ATOM     89  H   UNL A   1      40.950  37.552  26.093  1.00  0.00     0.170 HD
BRANCH  88  90
ATOM     90  C   UNL A   1      42.564  36.735  26.895  1.00  0.00     0.045 A 
ATOM     91  C   UNL A   1      42.716  36.346  28.228  1.00  0.00     0.030 A 
ATOM     92  C   UNL A   1      43.086  35.936  25.865  1.00  0.00     0.076 A 
ATOM     93  C   UNL A   1      43.184  35.063  28.534  1.00  0.00     0.053 A 
ATOM     94  C   UNL A   1      43.578  34.695  26.196  1.00  0.00     0.167 A 
ATOM     95  C   UNL A   1      43.584  34.253  27.493  1.00  0.00     0.165 A 
ATOM     96  O   UNL A   1      44.015  33.757  25.319  1.00  0.00    -0.454 OA
ATOM     97  O   UNL A   1      43.995  32.962  27.595  1.00  0.00    -0.454 OA
ATOM     98  C   UNL A   1      44.350  32.675  26.219  1.00  0.00     0.468 C 
ENDBRANCH  88  90
ENDBRANCH  82  86
ENDBRANCH  78  80
ENDBRANCH  77  78
ENDBRANCH  76  77
ENDBRANCH  75  76
ENDBRANCH  74  75
ENDBRANCH  73  74
ENDBRANCH  72  73
ENDBRANCH  71  72
ENDBRANCH   1  71
TORSDOF 25
ENDMDL
