MODEL 1
REMARK VINA RESULT:      -9.9      0.000      0.000
REMARK SMILES COc1ccc(NC(=O)N[C@@H]2C=C[C@H](C(=O)OCCOCCOCCOCCOC(=O)c3ccc(-c4c5nc(c(-c6ccc(S(=O)(=O)[O-])cc6)c6ccc([nH]6)c(-c6ccc(S(=O)(=O)[O-])cc6)c6nc(c(-c7ccc(S(=O)(=O)[O-])cc7)c7ccc4[nH]7)C=C6)C=C5)cc3)C2)c(C)c1
REMARK SMILES IDX 23 1 22 2 21 3 20 4 19 5 18 6 17 7 15 8 16 9 14 10 11 11
REMARK SMILES IDX 12 12 92 13 13 14 10 15 7 16 8 17 9 19 6 21 3 22 4 23 95 24
REMARK SMILES IDX 5 25 93 26 94 27 2 28 1 29 24 30 25 31 26 32 27 33 28 34
REMARK SMILES IDX 29 35 30 36 31 37 32 38 33 39 91 40 34 41 90 42 35 43 36 44
REMARK SMILES IDX 37 45 84 46 38 47 89 48 83 49 85 50 39 51 88 52 82 53 81 54
REMARK SMILES IDX 40 56 70 57 51 58 69 59 52 60 55 61 68 62 86 63 53 64 54 65
REMARK SMILES IDX 67 67 87 68 56 69 41 70 42 71 50 72 43 73 49 74 44 75 45 76
REMARK SMILES IDX 46 77 47 78 48 79 71 80 72 81 80 82 73 83 79 84 74 85 75 86
REMARK SMILES IDX 76 87 77 88 78 89 57 90 58 91 66 92 59 93 65 94 60 95 61 96
REMARK SMILES IDX 62 97 63 98 64 99
REMARK H PARENT 7 18 10 20 85 55 55 66
REMARK Flexibility Score: inf
ROOT
ATOM      1  O   UNL A   1      41.785  22.883  28.247  1.00  0.00    -0.377 OA
ENDROOT
BRANCH   1   2
ATOM      2  C   UNL A   1      40.651  22.164  27.832  1.00  0.00     0.188 C 
BRANCH   2   3
ATOM      3  C   UNL A   1      40.651  21.321  26.557  1.00  0.00     0.188 C 
BRANCH   3   4
ATOM      4  O   UNL A   1      39.435  20.938  25.938  1.00  0.00    -0.376 OA
BRANCH   4   5
ATOM      5  C   UNL A   1      38.426  21.909  25.759  1.00  0.00     0.202 C 
BRANCH   5   6
ATOM      6  C   UNL A   1      37.416  21.397  24.748  1.00  0.00     0.261 C 
BRANCH   6   7
ATOM      7  O   UNL A   1      36.366  20.775  25.497  1.00  0.00    -0.463 OA
BRANCH   7   8
ATOM      8  C   UNL A   1      35.301  20.313  24.824  1.00  0.00     0.312 C 
ATOM      9  O   UNL A   1      35.017  19.131  24.655  1.00  0.00    -0.252 OA
BRANCH   8  10
ATOM     10  C   UNL A   1      34.303  21.444  24.630  1.00  0.00     0.124 C 
ATOM     11  C   UNL A   1      32.167  22.225  25.558  1.00  0.00     0.107 C 
ATOM     12  C   UNL A   1      32.100  20.863  24.982  1.00  0.00    -0.006 C 
ATOM     13  C   UNL A   1      33.688  22.239  25.845  1.00  0.00     0.048 C 
ATOM     14  C   UNL A   1      33.152  20.568  24.233  1.00  0.00    -0.014 C 
BRANCH  11  15
ATOM     15  N   UNL A   1      31.129  22.278  26.553  1.00  0.00    -0.332 N 
ATOM     16  N   UNL A   1      30.350  24.595  26.522  1.00  0.00    -0.308 N 
ATOM     17  C   UNL A   1      30.278  23.282  26.900  1.00  0.00     0.319 C 
ATOM     18  H   UNL A   1      29.618  25.133  26.900  1.00  0.00     0.171 HD
ATOM     19  O   UNL A   1      29.363  23.001  27.685  1.00  0.00    -0.248 OA
ATOM     20  H   UNL A   1      31.014  21.448  27.069  1.00  0.00     0.165 HD
BRANCH  16  21
ATOM     21  C   UNL A   1      31.220  25.362  25.721  1.00  0.00     0.046 A 
ATOM     22  C   UNL A   1      32.399  27.640  24.669  1.00  0.00     0.119 A 
ATOM     23  C   UNL A   1      32.959  27.003  25.748  1.00  0.00     0.048 A 
ATOM     24  C   UNL A   1      31.525  26.876  23.890  1.00  0.00     0.052 A 
ATOM     25  C   UNL A   1      32.454  25.773  26.132  1.00  0.00     0.030 A 
ATOM     26  C   UNL A   1      30.980  25.667  24.394  1.00  0.00    -0.024 A 
ATOM     27  C   UNL A   1      30.482  24.611  23.450  1.00  0.00     0.047 C 
BRANCH  22  28
ATOM     28  O   UNL A   1      32.765  28.886  24.250  1.00  0.00    -0.497 OA
ATOM     29  C   UNL A   1      33.611  28.906  23.091  1.00  0.00     0.278 C 
ENDBRANCH  22  28
ENDBRANCH  16  21
ENDBRANCH  11  15
ENDBRANCH   8  10
ENDBRANCH   7   8
ENDBRANCH   6   7
ENDBRANCH   5   6
ENDBRANCH   4   5
ENDBRANCH   3   4
ENDBRANCH   2   3
ENDBRANCH   1   2
BRANCH   1  30
ATOM     30  C   UNL A   1      43.045  22.329  28.001  1.00  0.00     0.188 C 
BRANCH  30  31
ATOM     31  C   UNL A   1      44.024  23.092  27.102  1.00  0.00     0.188 C 
BRANCH  31  32
ATOM     32  O   UNL A   1      43.963  22.923  25.704  1.00  0.00    -0.376 OA
BRANCH  32  33
ATOM     33  C   UNL A   1      43.124  23.836  24.995  1.00  0.00     0.202 C 
BRANCH  33  34
ATOM     34  C   UNL A   1      43.078  25.349  25.356  1.00  0.00     0.261 C 
BRANCH  34  35
ATOM     35  O   UNL A   1      41.886  26.093  25.002  1.00  0.00    -0.460 OA
BRANCH  35  36
ATOM     36  C   UNL A   1      40.751  25.964  25.758  1.00  0.00     0.338 C 
ATOM     37  O   UNL A   1      40.029  24.982  25.883  1.00  0.00    -0.246 OA
BRANCH  36  38
ATOM     38  C   UNL A   1      40.719  27.126  26.695  1.00  0.00     0.060 A 
ATOM     39  C   UNL A   1      41.570  28.220  26.558  1.00  0.00     0.016 A 
ATOM     40  C   UNL A   1      40.141  26.875  27.930  1.00  0.00     0.016 A 
ATOM     41  C   UNL A   1      42.142  28.786  27.706  1.00  0.00     0.010 A 
ATOM     42  C   UNL A   1      40.816  27.318  29.056  1.00  0.00     0.010 A 
ATOM     43  C   UNL A   1      41.933  28.150  28.935  1.00  0.00    -0.014 A 
BRANCH  43  44
ATOM     44  C   UNL A   1      43.029  27.953  29.926  1.00  0.00     0.031 A 
ATOM     45  C   UNL A   1      44.297  27.216  29.565  1.00  0.00     0.074 A 
ATOM     46  C   UNL A   1      42.948  28.718  31.055  1.00  0.00     0.049 A 
ATOM     47  N   UNL A   1      45.223  26.859  30.393  1.00  0.00    -0.248 NA
ATOM     48  C   UNL A   1      44.669  26.854  28.194  1.00  0.00     0.031 C 
ATOM     49  C   UNL A   1      43.948  28.958  32.080  1.00  0.00     0.029 A 
ATOM     50  N   UNL A   1      41.857  29.435  31.555  1.00  0.00    -0.354 N 
ATOM     51  C   UNL A   1      46.364  26.464  29.689  1.00  0.00     0.074 A 
ATOM     52  C   UNL A   1      45.949  26.479  28.312  1.00  0.00     0.031 C 
ATOM     53  C   UNL A   1      43.448  29.649  33.115  1.00  0.00     0.029 A 
ATOM     54  C   UNL A   1      42.026  29.656  32.935  1.00  0.00     0.049 A 
ATOM     55  H   UNL A   1      41.086  29.740  31.022  1.00  0.00     0.167 HD
ATOM     56  C   UNL A   1      47.552  26.260  30.349  1.00  0.00     0.031 A 
ATOM     57  C   UNL A   1      41.237  28.948  33.791  1.00  0.00     0.031 A 
ATOM     58  C   UNL A   1      47.338  26.244  31.818  1.00  0.00     0.049 A 
ATOM     59  C   UNL A   1      41.947  27.676  34.351  1.00  0.00     0.074 A 
ATOM     60  C   UNL A   1      47.914  26.863  32.918  1.00  0.00     0.029 A 
ATOM     61  N   UNL A   1      46.182  25.634  32.318  1.00  0.00    -0.354 N 
ATOM     62  N   UNL A   1      43.042  27.162  33.806  1.00  0.00    -0.248 NA
ATOM     63  C   UNL A   1      41.628  26.952  35.585  1.00  0.00     0.031 C 
ATOM     64  C   UNL A   1      46.954  26.834  33.984  1.00  0.00     0.029 A 
ATOM     65  C   UNL A   1      45.849  26.096  33.577  1.00  0.00     0.049 A 
ATOM     66  H   UNL A   1      45.664  24.955  31.828  1.00  0.00     0.167 HD
ATOM     67  C   UNL A   1      43.573  26.145  34.559  1.00  0.00     0.074 A 
ATOM     68  C   UNL A   1      42.627  26.042  35.660  1.00  0.00     0.031 C 
ATOM     69  C   UNL A   1      44.745  25.463  34.306  1.00  0.00     0.031 A 
BRANCH  56  70
ATOM     70  C   UNL A   1      48.955  26.227  29.692  1.00  0.00    -0.014 A 
ATOM     71  C   UNL A   1      49.877  27.274  29.935  1.00  0.00     0.010 A 
ATOM     72  C   UNL A   1      49.420  25.252  28.776  1.00  0.00     0.010 A 
ATOM     73  C   UNL A   1      51.155  27.343  29.333  1.00  0.00     0.020 A 
ATOM     74  C   UNL A   1      50.710  25.288  28.187  1.00  0.00     0.020 A 
ATOM     75  C   UNL A   1      51.576  26.336  28.473  1.00  0.00     0.054 A 
BRANCH  75  76
ATOM     76  S   UNL A   1      53.262  26.395  27.787  1.00  0.00     0.124 S 
ATOM     77  O   UNL A   1      54.095  26.139  28.960  1.00  0.00    -0.237 OA
ATOM     78  O   UNL A   1      53.236  25.327  26.790  1.00  0.00    -0.237 OA
ATOM     79  O   UNL A   1      53.369  27.746  27.238  1.00  0.00    -0.744 OA
ENDBRANCH  75  76
ENDBRANCH  56  70
BRANCH  57  80
ATOM     80  C   UNL A   1      39.864  29.593  33.705  1.00  0.00    -0.014 A 
ATOM     81  C   UNL A   1      39.896  31.019  33.706  1.00  0.00     0.010 A 
ATOM     82  C   UNL A   1      38.876  29.009  32.872  1.00  0.00     0.010 A 
ATOM     83  C   UNL A   1      39.181  31.790  32.760  1.00  0.00     0.020 A 
ATOM     84  C   UNL A   1      38.144  29.786  31.933  1.00  0.00     0.020 A 
ATOM     85  C   UNL A   1      38.336  31.165  31.850  1.00  0.00     0.054 A 
BRANCH  85  86
ATOM     86  S   UNL A   1      37.639  32.132  30.462  1.00  0.00     0.124 S 
ATOM     87  O   UNL A   1      37.925  33.504  30.867  1.00  0.00    -0.237 OA
ATOM     88  O   UNL A   1      38.401  31.651  29.312  1.00  0.00    -0.237 OA
ATOM     89  O   UNL A   1      36.229  31.755  30.467  1.00  0.00    -0.744 OA
ENDBRANCH  85  86
ENDBRANCH  57  80
BRANCH  69  90
ATOM     90  C   UNL A   1      45.016  24.022  34.734  1.00  0.00    -0.014 A 
ATOM     91  C   UNL A   1      44.213  22.941  34.357  1.00  0.00     0.010 A 
ATOM     92  C   UNL A   1      46.261  23.697  35.349  1.00  0.00     0.010 A 
ATOM     93  C   UNL A   1      44.604  21.620  34.615  1.00  0.00     0.020 A 
ATOM     94  C   UNL A   1      46.693  22.385  35.550  1.00  0.00     0.020 A 
ATOM     95  C   UNL A   1      45.842  21.351  35.205  1.00  0.00     0.054 A 
BRANCH  95  96
ATOM     96  S   UNL A   1      46.339  19.635  35.474  1.00  0.00     0.124 S 
ATOM     97  O   UNL A   1      45.082  18.926  35.249  1.00  0.00    -0.237 OA
ATOM     98  O   UNL A   1      47.365  19.434  34.453  1.00  0.00    -0.237 OA
ATOM     99  O   UNL A   1      46.828  19.624  36.850  1.00  0.00    -0.744 OA
ENDBRANCH  95  96
ENDBRANCH  69  90
ENDBRANCH  43  44
ENDBRANCH  36  38
ENDBRANCH  35  36
ENDBRANCH  34  35
ENDBRANCH  33  34
ENDBRANCH  32  33
ENDBRANCH  31  32
ENDBRANCH  30  31
ENDBRANCH   1  30
TORSDOF 26
ENDMDL
MODEL 2
REMARK VINA RESULT:      -9.8      6.312     12.574
REMARK SMILES COc1ccc(NC(=O)N[C@@H]2C=C[C@H](C(=O)OCCOCCOCCOCCOC(=O)c3ccc(-c4c5nc(c(-c6ccc(S(=O)(=O)[O-])cc6)c6ccc([nH]6)c(-c6ccc(S(=O)(=O)[O-])cc6)c6nc(c(-c7ccc(S(=O)(=O)[O-])cc7)c7ccc4[nH]7)C=C6)C=C5)cc3)C2)c(C)c1
REMARK SMILES IDX 23 1 22 2 21 3 20 4 19 5 18 6 17 7 15 8 16 9 14 10 11 11
REMARK SMILES IDX 12 12 92 13 13 14 10 15 7 16 8 17 9 19 6 21 3 22 4 23 95 24
REMARK SMILES IDX 5 25 93 26 94 27 2 28 1 29 24 30 25 31 26 32 27 33 28 34
REMARK SMILES IDX 29 35 30 36 31 37 32 38 33 39 91 40 34 41 90 42 35 43 36 44
REMARK SMILES IDX 37 45 84 46 38 47 89 48 83 49 85 50 39 51 88 52 82 53 81 54
REMARK SMILES IDX 40 56 70 57 51 58 69 59 52 60 55 61 68 62 86 63 53 64 54 65
REMARK SMILES IDX 67 67 87 68 56 69 41 70 42 71 50 72 43 73 49 74 44 75 45 76
REMARK SMILES IDX 46 77 47 78 48 79 71 80 72 81 80 82 73 83 79 84 74 85 75 86
REMARK SMILES IDX 76 87 77 88 78 89 57 90 58 91 66 92 59 93 65 94 60 95 61 96
REMARK SMILES IDX 62 97 63 98 64 99
REMARK H PARENT 7 18 10 20 85 55 55 66
REMARK Flexibility Score: inf
ROOT
ATOM      1  O   UNL A   1      35.008  32.478  28.319  1.00  0.00    -0.377 OA
ENDROOT
BRANCH   1   2
ATOM      2  C   UNL A   1      34.653  31.288  27.660  1.00  0.00     0.188 C 
BRANCH   2   3
ATOM      3  C   UNL A   1      33.198  30.939  27.351  1.00  0.00     0.188 C 
BRANCH   3   4
ATOM      4  O   UNL A   1      32.837  29.638  26.918  1.00  0.00    -0.376 OA
BRANCH   4   5
ATOM      5  C   UNL A   1      33.487  29.091  25.791  1.00  0.00     0.202 C 
BRANCH   5   6
ATOM      6  C   UNL A   1      32.685  29.422  24.546  1.00  0.00     0.261 C 
BRANCH   6   7
ATOM      7  O   UNL A   1      32.729  28.260  23.710  1.00  0.00    -0.463 OA
BRANCH   7   8
ATOM      8  C   UNL A   1      31.564  27.739  23.295  1.00  0.00     0.312 C 
ATOM      9  O   UNL A   1      30.695  28.337  22.666  1.00  0.00    -0.252 OA
BRANCH   8  10
ATOM     10  C   UNL A   1      31.636  26.222  23.375  1.00  0.00     0.124 C 
ATOM     11  C   UNL A   1      30.865  24.392  24.820  1.00  0.00     0.107 C 
ATOM     12  C   UNL A   1      31.736  25.369  25.514  1.00  0.00    -0.006 C 
ATOM     13  C   UNL A   1      30.372  25.337  23.698  1.00  0.00     0.048 C 
ATOM     14  C   UNL A   1      32.377  26.172  24.678  1.00  0.00    -0.014 C 
BRANCH  11  15
ATOM     15  N   UNL A   1      30.038  23.811  25.845  1.00  0.00    -0.332 N 
ATOM     16  N   UNL A   1      31.556  22.411  27.152  1.00  0.00    -0.308 N 
ATOM     17  C   UNL A   1      30.360  23.029  26.912  1.00  0.00     0.319 C 
ATOM     18  H   UNL A   1      31.549  21.898  27.992  1.00  0.00     0.171 HD
ATOM     19  O   UNL A   1      29.466  22.803  27.737  1.00  0.00    -0.248 OA
ATOM     20  H   UNL A   1      29.079  24.015  25.761  1.00  0.00     0.165 HD
BRANCH  16  21
ATOM     21  C   UNL A   1      32.796  22.329  26.486  1.00  0.00     0.046 A 
ATOM     22  C   UNL A   1      34.912  23.150  24.894  1.00  0.00     0.119 A 
ATOM     23  C   UNL A   1      34.957  23.328  26.255  1.00  0.00     0.048 A 
ATOM     24  C   UNL A   1      34.015  22.183  24.429  1.00  0.00     0.052 A 
ATOM     25  C   UNL A   1      33.974  22.744  27.035  1.00  0.00     0.030 A 
ATOM     26  C   UNL A   1      32.977  21.701  25.268  1.00  0.00    -0.024 A 
ATOM     27  C   UNL A   1      32.353  20.362  25.004  1.00  0.00     0.047 C 
BRANCH  22  28
ATOM     28  O   UNL A   1      35.782  23.740  24.024  1.00  0.00    -0.497 OA
ATOM     29  C   UNL A   1      36.620  22.826  23.300  1.00  0.00     0.278 C 
ENDBRANCH  22  28
ENDBRANCH  16  21
ENDBRANCH  11  15
ENDBRANCH   8  10
ENDBRANCH   7   8
ENDBRANCH   6   7
ENDBRANCH   5   6
ENDBRANCH   4   5
ENDBRANCH   3   4
ENDBRANCH   2   3
ENDBRANCH   1   2
BRANCH   1  30
ATOM     30  C   UNL A   1      34.394  33.666  27.913  1.00  0.00     0.188 C 
BRANCH  30  31
ATOM     31  C   UNL A   1      33.452  34.381  28.887  1.00  0.00     0.188 C 
BRANCH  31  32
ATOM     32  O   UNL A   1      33.898  35.528  29.574  1.00  0.00    -0.376 OA
BRANCH  32  33
ATOM     33  C   UNL A   1      33.332  35.749  30.866  1.00  0.00     0.202 C 
BRANCH  33  34
ATOM     34  C   UNL A   1      34.111  35.399  32.167  1.00  0.00     0.261 C 
BRANCH  34  35
ATOM     35  O   UNL A   1      35.333  34.631  32.038  1.00  0.00    -0.460 OA
BRANCH  35  36
ATOM     36  C   UNL A   1      35.275  33.264  31.962  1.00  0.00     0.338 C 
ATOM     37  O   UNL A   1      34.289  32.541  32.031  1.00  0.00    -0.246 OA
BRANCH  36  38
ATOM     38  C   UNL A   1      36.592  32.803  31.429  1.00  0.00     0.060 A 
ATOM     39  C   UNL A   1      37.332  31.792  32.036  1.00  0.00     0.016 A 
ATOM     40  C   UNL A   1      37.240  33.703  30.597  1.00  0.00     0.016 A 
ATOM     41  C   UNL A   1      38.723  31.931  32.135  1.00  0.00     0.010 A 
ATOM     42  C   UNL A   1      38.588  33.931  30.824  1.00  0.00     0.010 A 
ATOM     43  C   UNL A   1      39.300  33.140  31.730  1.00  0.00    -0.014 A 
BRANCH  43  44
ATOM     44  C   UNL A   1      40.363  33.820  32.524  1.00  0.00     0.031 A 
ATOM     45  C   UNL A   1      40.043  34.568  33.797  1.00  0.00     0.074 A 
ATOM     46  C   UNL A   1      41.647  33.480  32.204  1.00  0.00     0.049 A 
ATOM     47  N   UNL A   1      40.864  35.316  34.459  1.00  0.00    -0.248 NA
ATOM     48  C   UNL A   1      38.751  34.494  34.484  1.00  0.00     0.031 C 
ATOM     49  C   UNL A   1      42.880  33.751  32.921  1.00  0.00     0.029 A 
ATOM     50  N   UNL A   1      42.125  32.823  31.064  1.00  0.00    -0.354 N 
ATOM     51  C   UNL A   1      40.330  35.610  35.716  1.00  0.00     0.074 A 
ATOM     52  C   UNL A   1      38.999  35.069  35.668  1.00  0.00     0.031 C 
ATOM     53  C   UNL A   1      43.961  33.386  32.216  1.00  0.00     0.029 A 
ATOM     54  C   UNL A   1      43.491  33.111  30.889  1.00  0.00     0.049 A 
ATOM     55  H   UNL A   1      41.586  32.247  30.475  1.00  0.00     0.167 HD
ATOM     56  C   UNL A   1      41.111  36.198  36.682  1.00  0.00     0.031 A 
ATOM     57  C   UNL A   1      43.837  33.943  29.867  1.00  0.00     0.031 A 
ATOM     58  C   UNL A   1      42.389  36.679  36.101  1.00  0.00     0.049 A 
ATOM     59  C   UNL A   1      44.035  35.419  30.335  1.00  0.00     0.074 A 
ATOM     60  C   UNL A   1      43.736  36.561  36.412  1.00  0.00     0.029 A 
ATOM     61  N   UNL A   1      42.369  37.246  34.821  1.00  0.00    -0.354 N 
ATOM     62  N   UNL A   1      43.592  35.872  31.502  1.00  0.00    -0.248 NA
ATOM     63  C   UNL A   1      44.820  36.464  29.671  1.00  0.00     0.031 C 
ATOM     64  C   UNL A   1      44.483  36.809  35.212  1.00  0.00     0.029 A 
ATOM     65  C   UNL A   1      43.605  37.196  34.206  1.00  0.00     0.049 A 
ATOM     66  H   UNL A   1      41.565  37.636  34.407  1.00  0.00     0.167 HD
ATOM     67  C   UNL A   1      44.018  37.151  31.762  1.00  0.00     0.074 A 
ATOM     68  C   UNL A   1      44.772  37.481  30.562  1.00  0.00     0.031 C 
ATOM     69  C   UNL A   1      43.795  37.869  32.917  1.00  0.00     0.031 A 
BRANCH  56  70
ATOM     70  C   UNL A   1      40.809  36.211  38.202  1.00  0.00    -0.014 A 
ATOM     71  C   UNL A   1      39.829  37.090  38.724  1.00  0.00     0.010 A 
ATOM     72  C   UNL A   1      41.482  35.449  39.189  1.00  0.00     0.010 A 
ATOM     73  C   UNL A   1      39.532  37.198  40.102  1.00  0.00     0.020 A 
ATOM     74  C   UNL A   1      41.176  35.521  40.572  1.00  0.00     0.020 A 
ATOM     75  C   UNL A   1      40.196  36.397  41.023  1.00  0.00     0.054 A 
BRANCH  75  76
ATOM     76  S   UNL A   1      39.729  36.482  42.781  1.00  0.00     0.124 S 
ATOM     77  O   UNL A   1      40.845  35.812  43.443  1.00  0.00    -0.237 OA
ATOM     78  O   UNL A   1      39.631  37.920  43.014  1.00  0.00    -0.237 OA
ATOM     79  O   UNL A   1      38.457  35.762  42.839  1.00  0.00    -0.744 OA
ENDBRANCH  75  76
ENDBRANCH  56  70
BRANCH  57  80
ATOM     80  C   UNL A   1      43.697  33.114  28.603  1.00  0.00    -0.014 A 
ATOM     81  C   UNL A   1      44.662  33.425  27.599  1.00  0.00     0.010 A 
ATOM     82  C   UNL A   1      43.352  31.742  28.709  1.00  0.00     0.010 A 
ATOM     83  C   UNL A   1      45.412  32.424  26.939  1.00  0.00     0.020 A 
ATOM     84  C   UNL A   1      44.095  30.737  28.031  1.00  0.00     0.020 A 
ATOM     85  C   UNL A   1      45.151  31.081  27.188  1.00  0.00     0.054 A 
BRANCH  85  86
ATOM     86  S   UNL A   1      46.301  29.810  26.550  1.00  0.00     0.124 S 
ATOM     87  O   UNL A   1      47.416  30.616  26.066  1.00  0.00    -0.237 OA
ATOM     88  O   UNL A   1      46.585  29.001  27.733  1.00  0.00    -0.237 OA
ATOM     89  O   UNL A   1      45.517  29.138  25.517  1.00  0.00    -0.744 OA
ENDBRANCH  85  86
ENDBRANCH  57  80
BRANCH  69  90
ATOM     90  C   UNL A   1      43.716  39.394  32.986  1.00  0.00    -0.014 A 
ATOM     91  C   UNL A   1      42.824  40.154  32.223  1.00  0.00     0.010 A 
ATOM     92  C   UNL A   1      44.402  40.084  34.028  1.00  0.00     0.010 A 
ATOM     93  C   UNL A   1      42.657  41.527  32.456  1.00  0.00     0.020 A 
ATOM     94  C   UNL A   1      44.195  41.434  34.313  1.00  0.00     0.020 A 
ATOM     95  C   UNL A   1      43.339  42.156  33.500  1.00  0.00     0.054 A 
BRANCH  95  96
ATOM     96  S   UNL A   1      43.061  43.914  33.807  1.00  0.00     0.124 S 
ATOM     97  O   UNL A   1      41.959  43.875  34.765  1.00  0.00    -0.237 OA
ATOM     98  O   UNL A   1      44.345  44.354  34.345  1.00  0.00    -0.237 OA
ATOM     99  O   UNL A   1      42.727  44.451  32.490  1.00  0.00    -0.744 OA
ENDBRANCH  95  96
ENDBRANCH  69  90
ENDBRANCH  43  44
ENDBRANCH  36  38
ENDBRANCH  35  36
ENDBRANCH  34  35
ENDBRANCH  33  34
ENDBRANCH  32  33
ENDBRANCH  31  32
ENDBRANCH  30  31
ENDBRANCH   1  30
TORSDOF 26
ENDMDL
MODEL 3
REMARK VINA RESULT:      -9.2      6.042     12.397
REMARK SMILES COc1ccc(NC(=O)N[C@@H]2C=C[C@H](C(=O)OCCOCCOCCOCCOC(=O)c3ccc(-c4c5nc(c(-c6ccc(S(=O)(=O)[O-])cc6)c6ccc([nH]6)c(-c6ccc(S(=O)(=O)[O-])cc6)c6nc(c(-c7ccc(S(=O)(=O)[O-])cc7)c7ccc4[nH]7)C=C6)C=C5)cc3)C2)c(C)c1
REMARK SMILES IDX 23 1 22 2 21 3 20 4 19 5 18 6 17 7 15 8 16 9 14 10 11 11
REMARK SMILES IDX 12 12 92 13 13 14 10 15 7 16 8 17 9 19 6 21 3 22 4 23 95 24
REMARK SMILES IDX 5 25 93 26 94 27 2 28 1 29 24 30 25 31 26 32 27 33 28 34
REMARK SMILES IDX 29 35 30 36 31 37 32 38 33 39 91 40 34 41 90 42 35 43 36 44
REMARK SMILES IDX 37 45 84 46 38 47 89 48 83 49 85 50 39 51 88 52 82 53 81 54
REMARK SMILES IDX 40 56 70 57 51 58 69 59 52 60 55 61 68 62 86 63 53 64 54 65
REMARK SMILES IDX 67 67 87 68 56 69 41 70 42 71 50 72 43 73 49 74 44 75 45 76
REMARK SMILES IDX 46 77 47 78 48 79 71 80 72 81 80 82 73 83 79 84 74 85 75 86
REMARK SMILES IDX 76 87 77 88 78 89 57 90 58 91 66 92 59 93 65 94 60 95 61 96
REMARK SMILES IDX 62 97 63 98 64 99
REMARK H PARENT 7 18 10 20 85 55 55 66
REMARK Flexibility Score: inf
ROOT
ATOM      1  O   UNL A   1      34.368  32.357  28.644  1.00  0.00    -0.377 OA
ENDROOT
BRANCH   1   2
ATOM      2  C   UNL A   1      34.310  31.343  27.673  1.00  0.00     0.188 C 
BRANCH   2   3
ATOM      3  C   UNL A   1      32.993  30.675  27.280  1.00  0.00     0.188 C 
BRANCH   3   4
ATOM      4  O   UNL A   1      32.978  29.535  26.437  1.00  0.00    -0.376 OA
BRANCH   4   5
ATOM      5  C   UNL A   1      32.725  29.710  25.059  1.00  0.00     0.202 C 
BRANCH   5   6
ATOM      6  C   UNL A   1      31.230  29.635  24.814  1.00  0.00     0.261 C 
BRANCH   6   7
ATOM      7  O   UNL A   1      31.057  29.119  23.490  1.00  0.00    -0.463 OA
BRANCH   7   8
ATOM      8  C   UNL A   1      30.527  27.893  23.357  1.00  0.00     0.312 C 
ATOM      9  O   UNL A   1      29.435  27.635  22.860  1.00  0.00    -0.252 OA
BRANCH   8  10
ATOM     10  C   UNL A   1      31.618  26.852  23.555  1.00  0.00     0.124 C 
ATOM     11  C   UNL A   1      31.996  24.454  23.183  1.00  0.00     0.107 C 
ATOM     12  C   UNL A   1      30.858  24.741  24.086  1.00  0.00    -0.006 C 
ATOM     13  C   UNL A   1      31.996  25.808  22.435  1.00  0.00     0.048 C 
ATOM     14  C   UNL A   1      30.842  25.995  24.511  1.00  0.00    -0.014 C 
BRANCH  11  15
ATOM     15  N   UNL A   1      31.710  23.173  22.592  1.00  0.00    -0.332 N 
ATOM     16  N   UNL A   1      33.434  21.680  23.469  1.00  0.00    -0.308 N 
ATOM     17  C   UNL A   1      32.277  21.952  22.793  1.00  0.00     0.319 C 
ATOM     18  H   UNL A   1      33.641  20.718  23.483  1.00  0.00     0.171 HD
ATOM     19  O   UNL A   1      31.722  20.978  22.269  1.00  0.00    -0.248 OA
ATOM     20  H   UNL A   1      30.980  23.182  21.931  1.00  0.00     0.165 HD
BRANCH  16  21
ATOM     21  C   UNL A   1      34.403  22.445  24.151  1.00  0.00     0.046 A 
ATOM     22  C   UNL A   1      36.830  23.025  25.357  1.00  0.00     0.119 A 
ATOM     23  C   UNL A   1      36.619  23.337  24.037  1.00  0.00     0.048 A 
ATOM     24  C   UNL A   1      35.684  22.836  26.136  1.00  0.00     0.052 A 
ATOM     25  C   UNL A   1      35.343  23.205  23.518  1.00  0.00     0.030 A 
ATOM     26  C   UNL A   1      34.424  22.618  25.522  1.00  0.00    -0.024 A 
ATOM     27  C   UNL A   1      33.157  22.918  26.269  1.00  0.00     0.047 C 
BRANCH  22  28
ATOM     28  O   UNL A   1      38.058  23.045  25.954  1.00  0.00    -0.497 OA
ATOM     29  C   UNL A   1      38.787  21.812  25.868  1.00  0.00     0.278 C 
ENDBRANCH  22  28
ENDBRANCH  16  21
ENDBRANCH  11  15
ENDBRANCH   8  10
ENDBRANCH   7   8
ENDBRANCH   6   7
ENDBRANCH   5   6
ENDBRANCH   4   5
ENDBRANCH   3   4
ENDBRANCH   2   3
ENDBRANCH   1   2
BRANCH   1  30
ATOM     30  C   UNL A   1      34.408  33.685  28.211  1.00  0.00     0.188 C 
BRANCH  30  31
ATOM     31  C   UNL A   1      33.250  34.618  28.584  1.00  0.00     0.188 C 
BRANCH  31  32
ATOM     32  O   UNL A   1      33.515  35.815  29.280  1.00  0.00    -0.376 OA
BRANCH  32  33
ATOM     33  C   UNL A   1      32.905  35.944  30.565  1.00  0.00     0.202 C 
BRANCH  33  34
ATOM     34  C   UNL A   1      33.710  35.707  31.876  1.00  0.00     0.261 C 
BRANCH  34  35
ATOM     35  O   UNL A   1      34.836  34.795  31.824  1.00  0.00    -0.460 OA
BRANCH  35  36
ATOM     36  C   UNL A   1      34.679  33.494  32.225  1.00  0.00     0.338 C 
ATOM     37  O   UNL A   1      33.653  32.927  32.579  1.00  0.00    -0.246 OA
BRANCH  36  38
ATOM     38  C   UNL A   1      35.921  32.766  31.828  1.00  0.00     0.060 A 
ATOM     39  C   UNL A   1      36.370  31.632  32.501  1.00  0.00     0.016 A 
ATOM     40  C   UNL A   1      36.824  33.502  31.076  1.00  0.00     0.016 A 
ATOM     41  C   UNL A   1      37.742  31.484  32.747  1.00  0.00     0.010 A 
ATOM     42  C   UNL A   1      38.158  33.451  31.444  1.00  0.00     0.010 A 
ATOM     43  C   UNL A   1      38.594  32.544  32.414  1.00  0.00    -0.014 A 
BRANCH  43  44
ATOM     44  C   UNL A   1      39.686  33.001  33.320  1.00  0.00     0.031 A 
ATOM     45  C   UNL A   1      39.394  33.791  34.574  1.00  0.00     0.074 A 
ATOM     46  C   UNL A   1      40.906  32.420  33.114  1.00  0.00     0.049 A 
ATOM     47  N   UNL A   1      40.274  34.363  35.328  1.00  0.00    -0.248 NA
ATOM     48  C   UNL A   1      38.050  33.966  35.134  1.00  0.00     0.031 C 
ATOM     49  C   UNL A   1      42.092  32.444  33.951  1.00  0.00     0.029 A 
ATOM     50  N   UNL A   1      41.356  31.689  32.011  1.00  0.00    -0.354 N 
ATOM     51  C   UNL A   1      39.688  34.751  36.535  1.00  0.00     0.074 A 
ATOM     52  C   UNL A   1      38.289  34.477  36.349  1.00  0.00     0.031 C 
ATOM     53  C   UNL A   1      43.145  31.880  33.343  1.00  0.00     0.029 A 
ATOM     54  C   UNL A   1      42.763  31.707  31.972  1.00  0.00     0.049 A 
ATOM     55  H   UNL A   1      40.777  31.230  31.360  1.00  0.00     0.167 HD
ATOM     56  C   UNL A   1      40.470  35.172  37.584  1.00  0.00     0.031 A 
ATOM     57  C   UNL A   1      43.360  32.461  31.007  1.00  0.00     0.031 A 
ATOM     58  C   UNL A   1      41.867  35.399  37.137  1.00  0.00     0.049 A 
ATOM     59  C   UNL A   1      43.792  33.869  31.526  1.00  0.00     0.074 A 
ATOM     60  C   UNL A   1      43.129  35.020  37.572  1.00  0.00     0.029 A 
ATOM     61  N   UNL A   1      42.080  35.964  35.875  1.00  0.00    -0.354 N 
ATOM     62  N   UNL A   1      43.333  34.394  32.655  1.00  0.00    -0.248 NA
ATOM     63  C   UNL A   1      44.824  34.744  30.962  1.00  0.00     0.031 C 
ATOM     64  C   UNL A   1      44.022  35.124  36.453  1.00  0.00     0.029 A 
ATOM     65  C   UNL A   1      43.338  35.678  35.378  1.00  0.00     0.049 A 
ATOM     66  H   UNL A   1      41.411  36.504  35.395  1.00  0.00     0.167 HD
ATOM     67  C   UNL A   1      43.970  35.564  32.983  1.00  0.00     0.074 A 
ATOM     68  C   UNL A   1      44.886  35.748  31.868  1.00  0.00     0.031 C 
ATOM     69  C   UNL A   1      43.778  36.308  34.129  1.00  0.00     0.031 A 
BRANCH  56  70
ATOM     70  C   UNL A   1      40.029  35.236  39.068  1.00  0.00    -0.014 A 
ATOM     71  C   UNL A   1      38.990  34.396  39.537  1.00  0.00     0.010 A 
ATOM     72  C   UNL A   1      40.529  36.132  40.045  1.00  0.00     0.010 A 
ATOM     73  C   UNL A   1      38.496  34.432  40.862  1.00  0.00     0.020 A 
ATOM     74  C   UNL A   1      40.068  36.161  41.386  1.00  0.00     0.020 A 
ATOM     75  C   UNL A   1      39.052  35.304  41.790  1.00  0.00     0.054 A 
BRANCH  75  76
ATOM     76  S   UNL A   1      38.469  35.263  43.515  1.00  0.00     0.124 S 
ATOM     77  O   UNL A   1      37.018  35.190  43.362  1.00  0.00    -0.237 OA
ATOM     78  O   UNL A   1      39.106  34.057  44.036  1.00  0.00    -0.237 OA
ATOM     79  O   UNL A   1      38.967  36.516  44.082  1.00  0.00    -0.744 OA
ENDBRANCH  75  76
ENDBRANCH  56  70
BRANCH  57  80
ATOM     80  C   UNL A   1      43.187  31.680  29.716  1.00  0.00    -0.014 A 
ATOM     81  C   UNL A   1      43.522  32.421  28.544  1.00  0.00     0.010 A 
ATOM     82  C   UNL A   1      43.536  30.306  29.685  1.00  0.00     0.010 A 
ATOM     83  C   UNL A   1      44.368  31.899  27.539  1.00  0.00     0.020 A 
ATOM     84  C   UNL A   1      44.372  29.777  28.665  1.00  0.00     0.020 A 
ATOM     85  C   UNL A   1      44.823  30.588  27.624  1.00  0.00     0.054 A 
BRANCH  85  86
ATOM     86  S   UNL A   1      46.129  30.014  26.478  1.00  0.00     0.124 S 
ATOM     87  O   UNL A   1      45.525  28.822  25.893  1.00  0.00    -0.237 OA
ATOM     88  O   UNL A   1      46.284  31.145  25.566  1.00  0.00    -0.237 OA
ATOM     89  O   UNL A   1      47.266  29.774  27.361  1.00  0.00    -0.744 OA
ENDBRANCH  85  86
ENDBRANCH  57  80
BRANCH  69  90
ATOM     90  C   UNL A   1      43.987  37.818  34.224  1.00  0.00    -0.014 A 
ATOM     91  C   UNL A   1      43.497  38.726  33.280  1.00  0.00     0.010 A 
ATOM     92  C   UNL A   1      44.497  38.379  35.432  1.00  0.00     0.010 A 
ATOM     93  C   UNL A   1      43.550  40.108  33.506  1.00  0.00     0.020 A 
ATOM     94  C   UNL A   1      44.494  39.749  35.697  1.00  0.00     0.020 A 
ATOM     95  C   UNL A   1      44.043  40.610  34.713  1.00  0.00     0.054 A 
BRANCH  95  96
ATOM     96  S   UNL A   1      44.048  42.394  34.994  1.00  0.00     0.124 S 
ATOM     97  O   UNL A   1      45.434  42.626  35.391  1.00  0.00    -0.237 OA
ATOM     98  O   UNL A   1      43.672  42.927  33.686  1.00  0.00    -0.237 OA
ATOM     99  O   UNL A   1      43.053  42.586  36.046  1.00  0.00    -0.744 OA
ENDBRANCH  95  96
ENDBRANCH  69  90
ENDBRANCH  43  44
ENDBRANCH  36  38
ENDBRANCH  35  36
ENDBRANCH  34  35
ENDBRANCH  33  34
ENDBRANCH  32  33
ENDBRANCH  31  32
ENDBRANCH  30  31
ENDBRANCH   1  30
TORSDOF 26
ENDMDL
