MODEL 1
REMARK VINA RESULT:      -8.6      0.000      0.000
REMARK SMILES C[N@H+]1CCO[C@H](c2noc(-c3ccccc3C(=O)OCCOCCOCCOCCOC(=O)c3ccc(-c4c5nc(c(-c6ccc(S(=O)(=O)[O-])cc6)c6ccc([nH]6)c(-c6ccc(S(=O)(=O)[O-])cc6)c6nc(c(-c7ccc(S(=O)(=O)[O-])cc7)c7ccc4[nH]7)C=C6)C=C5)cc3)n2)C1
REMARK SMILES IDX 26 1 25 2 24 3 23 4 22 5 21 6 20 7 19 8 17 9 18 10 16 11
REMARK SMILES IDX 11 12 12 13 13 14 15 15 14 16 10 17 7 18 8 19 94 20 9 21
REMARK SMILES IDX 6 22 1 23 2 24 3 25 95 26 4 28 5 29 27 30 28 31 29 32 30 33
REMARK SMILES IDX 31 34 32 35 33 36 34 37 35 38 93 39 36 40 92 41 37 42 38 43
REMARK SMILES IDX 39 44 86 45 40 46 91 47 85 48 87 49 41 50 90 51 84 52 83 53
REMARK SMILES IDX 42 55 72 56 53 57 71 58 54 59 57 60 70 61 88 62 55 63 56 64
REMARK SMILES IDX 69 66 89 67 58 68 43 69 44 70 52 71 45 72 51 73 46 74 47 75
REMARK SMILES IDX 48 76 49 77 50 78 73 79 74 80 82 81 75 82 81 83 76 84 77 85
REMARK SMILES IDX 78 86 79 87 80 88 59 89 60 90 68 91 61 92 67 93 62 94 63 95
REMARK SMILES IDX 64 96 65 97 66 98
REMARK H PARENT 2 27 87 54 57 65
REMARK Flexibility Score: inf
ROOT
ATOM      1  C   UNL A   1      42.116  20.845  26.199  1.00  0.00     0.188 C 
ENDROOT
BRANCH   1   2
ATOM      2  O   UNL A   1      42.465  22.226  26.242  1.00  0.00    -0.377 OA
BRANCH   2   3
ATOM      3  C   UNL A   1      42.872  22.907  25.069  1.00  0.00     0.188 C 
BRANCH   3   4
ATOM      4  C   UNL A   1      43.967  23.990  25.190  1.00  0.00     0.188 C 
BRANCH   4   5
ATOM      5  O   UNL A   1      45.041  23.846  24.281  1.00  0.00    -0.376 OA
BRANCH   5   6
ATOM      6  C   UNL A   1      46.355  23.619  24.760  1.00  0.00     0.202 C 
BRANCH   6   7
ATOM      7  C   UNL A   1      47.245  24.760  25.271  1.00  0.00     0.261 C 
BRANCH   7   8
ATOM      8  O   UNL A   1      47.832  24.559  26.558  1.00  0.00    -0.460 OA
BRANCH   8   9
ATOM      9  C   UNL A   1      48.357  25.613  27.211  1.00  0.00     0.339 C 
ATOM     10  O   UNL A   1      47.993  26.052  28.288  1.00  0.00    -0.246 OA
BRANCH   9  11
ATOM     11  C   UNL A   1      49.634  26.006  26.546  1.00  0.00     0.072 A 
ATOM     12  C   UNL A   1      49.819  27.198  25.813  1.00  0.00     0.054 A 
ATOM     13  C   UNL A   1      51.070  27.443  25.219  1.00  0.00     0.015 A 
ATOM     14  C   UNL A   1      52.097  26.499  25.302  1.00  0.00     0.001 A 
ATOM     15  C   UNL A   1      50.666  25.057  26.604  1.00  0.00     0.016 A 
ATOM     16  C   UNL A   1      51.886  25.297  25.972  1.00  0.00     0.001 A 
BRANCH  12  17
ATOM     17  C   UNL A   1      48.741  28.148  25.638  1.00  0.00     0.258 A 
ATOM     18  C   UNL A   1      47.106  29.407  25.931  1.00  0.00     0.206 A 
ATOM     19  N   UNL A   1      46.847  28.858  24.733  1.00  0.00    -0.059 NA
ATOM     20  N   UNL A   1      48.326  29.074  26.463  1.00  0.00    -0.189 NA
ATOM     21  O   UNL A   1      47.934  27.991  24.546  1.00  0.00    -0.334 OA
BRANCH  18  22
ATOM     22  C   UNL A   1      46.180  30.337  26.647  1.00  0.00     0.245 C 
ATOM     23  C   UNL A   1      44.707  30.816  29.396  1.00  0.00     0.332 C 
ATOM     24  N   UNL A   1      44.095  30.366  28.141  1.00  0.00    -0.333 N 
ATOM     25  C   UNL A   1      43.636  31.484  27.299  1.00  0.00     0.290 C 
ATOM     26  C   UNL A   1      45.051  29.540  27.371  1.00  0.00     0.303 C 
ATOM     27  H   UNL A   1      43.276  29.815  28.400  1.00  0.00     0.348 HD
ATOM     28  C   UNL A   1      44.756  32.195  26.536  1.00  0.00     0.222 C 
ATOM     29  O   UNL A   1      45.553  31.292  25.759  1.00  0.00    -0.358 OA
ENDBRANCH  18  22
ENDBRANCH  12  17
ENDBRANCH   9  11
ENDBRANCH   8   9
ENDBRANCH   7   8
ENDBRANCH   6   7
ENDBRANCH   5   6
ENDBRANCH   4   5
ENDBRANCH   3   4
ENDBRANCH   2   3
ENDBRANCH   1   2
BRANCH   1  30
ATOM     30  C   UNL A   1      40.709  20.327  26.581  1.00  0.00     0.188 C 
BRANCH  30  31
ATOM     31  O   UNL A   1      39.654  20.780  25.750  1.00  0.00    -0.376 OA
BRANCH  31  32
ATOM     32  C   UNL A   1      38.804  21.800  26.236  1.00  0.00     0.202 C 
BRANCH  32  33
ATOM     33  C   UNL A   1      39.132  23.249  25.850  1.00  0.00     0.261 C 
BRANCH  33  34
ATOM     34  O   UNL A   1      39.564  24.109  26.912  1.00  0.00    -0.460 OA
BRANCH  34  35
ATOM     35  C   UNL A   1      40.259  25.212  26.569  1.00  0.00     0.338 C 
ATOM     36  O   UNL A   1      40.617  25.534  25.444  1.00  0.00    -0.246 OA
BRANCH  35  37
ATOM     37  C   UNL A   1      40.381  26.065  27.767  1.00  0.00     0.060 A 
ATOM     38  C   UNL A   1      39.422  25.966  28.783  1.00  0.00     0.016 A 
ATOM     39  C   UNL A   1      41.440  26.969  27.878  1.00  0.00     0.016 A 
ATOM     40  C   UNL A   1      39.500  26.804  29.898  1.00  0.00     0.010 A 
ATOM     41  C   UNL A   1      41.504  27.819  28.984  1.00  0.00     0.010 A 
ATOM     42  C   UNL A   1      40.515  27.767  29.983  1.00  0.00    -0.014 A 
BRANCH  42  43
ATOM     43  C   UNL A   1      40.446  28.829  31.017  1.00  0.00     0.031 A 
ATOM     44  C   UNL A   1      41.376  28.751  32.194  1.00  0.00     0.074 A 
ATOM     45  C   UNL A   1      39.577  29.851  30.926  1.00  0.00     0.049 A 
ATOM     46  N   UNL A   1      41.451  29.539  33.232  1.00  0.00    -0.248 NA
ATOM     47  C   UNL A   1      42.337  27.636  32.207  1.00  0.00     0.031 C 
ATOM     48  C   UNL A   1      38.628  30.041  29.837  1.00  0.00     0.029 A 
ATOM     49  N   UNL A   1      39.344  30.915  31.768  1.00  0.00    -0.354 N 
ATOM     50  C   UNL A   1      42.445  29.003  34.039  1.00  0.00     0.074 A 
ATOM     51  C   UNL A   1      42.939  27.817  33.373  1.00  0.00     0.031 C 
ATOM     52  C   UNL A   1      37.921  31.157  30.080  1.00  0.00     0.029 A 
ATOM     53  C   UNL A   1      38.332  31.742  31.344  1.00  0.00     0.049 A 
ATOM     54  H   UNL A   1      39.855  31.069  32.594  1.00  0.00     0.167 HD
ATOM     55  C   UNL A   1      42.897  29.456  35.230  1.00  0.00     0.031 A 
ATOM     56  C   UNL A   1      37.766  32.832  31.902  1.00  0.00     0.031 A 
ATOM     57  C   UNL A   1      42.401  30.634  35.891  1.00  0.00     0.049 A 
ATOM     58  C   UNL A   1      38.267  33.296  33.239  1.00  0.00     0.074 A 
ATOM     59  C   UNL A   1      42.826  31.184  37.087  1.00  0.00     0.029 A 
ATOM     60  N   UNL A   1      41.371  31.437  35.426  1.00  0.00    -0.354 N 
ATOM     61  N   UNL A   1      39.237  32.798  33.966  1.00  0.00    -0.248 NA
ATOM     62  C   UNL A   1      37.600  34.461  33.836  1.00  0.00     0.031 C 
ATOM     63  C   UNL A   1      42.009  32.279  37.381  1.00  0.00     0.029 A 
ATOM     64  C   UNL A   1      41.127  32.459  36.329  1.00  0.00     0.049 A 
ATOM     65  H   UNL A   1      40.886  31.301  34.580  1.00  0.00     0.167 HD
ATOM     66  C   UNL A   1      39.310  33.602  35.096  1.00  0.00     0.074 A 
ATOM     67  C   UNL A   1      38.308  34.636  34.943  1.00  0.00     0.031 C 
ATOM     68  C   UNL A   1      40.131  33.486  36.168  1.00  0.00     0.031 A 
BRANCH  55  69
ATOM     69  C   UNL A   1      43.959  28.653  35.927  1.00  0.00    -0.014 A 
ATOM     70  C   UNL A   1      45.309  29.041  35.896  1.00  0.00     0.010 A 
ATOM     71  C   UNL A   1      43.580  27.537  36.696  1.00  0.00     0.010 A 
ATOM     72  C   UNL A   1      46.264  28.323  36.621  1.00  0.00     0.020 A 
ATOM     73  C   UNL A   1      44.527  26.836  37.444  1.00  0.00     0.020 A 
ATOM     74  C   UNL A   1      45.864  27.232  37.398  1.00  0.00     0.054 A 
BRANCH  74  75
ATOM     75  S   UNL A   1      47.113  26.372  38.393  1.00  0.00     0.124 S 
ATOM     76  O   UNL A   1      46.904  26.961  39.714  1.00  0.00    -0.237 OA
ATOM     77  O   UNL A   1      46.717  24.974  38.258  1.00  0.00    -0.237 OA
ATOM     78  O   UNL A   1      48.375  26.725  37.748  1.00  0.00    -0.744 OA
ENDBRANCH  74  75
ENDBRANCH  55  69
BRANCH  56  79
ATOM     79  C   UNL A   1      36.635  33.541  31.229  1.00  0.00    -0.014 A 
ATOM     80  C   UNL A   1      35.437  33.813  31.916  1.00  0.00     0.010 A 
ATOM     81  C   UNL A   1      36.738  33.916  29.876  1.00  0.00     0.010 A 
ATOM     82  C   UNL A   1      34.357  34.409  31.255  1.00  0.00     0.020 A 
ATOM     83  C   UNL A   1      35.677  34.551  29.224  1.00  0.00     0.020 A 
ATOM     84  C   UNL A   1      34.484  34.772  29.912  1.00  0.00     0.054 A 
BRANCH  84  85
ATOM     85  S   UNL A   1      33.082  35.563  29.076  1.00  0.00     0.124 S 
ATOM     86  O   UNL A   1      32.265  36.002  30.203  1.00  0.00    -0.237 OA
ATOM     87  O   UNL A   1      33.732  36.623  28.308  1.00  0.00    -0.237 OA
ATOM     88  O   UNL A   1      32.517  34.483  28.271  1.00  0.00    -0.744 OA
ENDBRANCH  84  85
ENDBRANCH  56  79
BRANCH  68  89
ATOM     89  C   UNL A   1      40.014  34.532  37.242  1.00  0.00    -0.014 A 
ATOM     90  C   UNL A   1      40.649  35.781  37.123  1.00  0.00     0.010 A 
ATOM     91  C   UNL A   1      39.218  34.270  38.371  1.00  0.00     0.010 A 
ATOM     92  C   UNL A   1      40.518  36.736  38.133  1.00  0.00     0.020 A 
ATOM     93  C   UNL A   1      39.056  35.236  39.367  1.00  0.00     0.020 A 
ATOM     94  C   UNL A   1      39.721  36.458  39.249  1.00  0.00     0.054 A 
BRANCH  94  95
ATOM     95  S   UNL A   1      39.533  37.731  40.525  1.00  0.00     0.124 S 
ATOM     96  O   UNL A   1      38.917  36.979  41.616  1.00  0.00    -0.237 OA
ATOM     97  O   UNL A   1      40.912  38.157  40.755  1.00  0.00    -0.237 OA
ATOM     98  O   UNL A   1      38.673  38.731  39.896  1.00  0.00    -0.744 OA
ENDBRANCH  94  95
ENDBRANCH  68  89
ENDBRANCH  42  43
ENDBRANCH  35  37
ENDBRANCH  34  35
ENDBRANCH  33  34
ENDBRANCH  32  33
ENDBRANCH  31  32
ENDBRANCH  30  31
ENDBRANCH   1  30
TORSDOF 25
ENDMDL
MODEL 2
REMARK VINA RESULT:      -8.2      6.326     10.918
REMARK SMILES C[N@H+]1CCO[C@H](c2noc(-c3ccccc3C(=O)OCCOCCOCCOCCOC(=O)c3ccc(-c4c5nc(c(-c6ccc(S(=O)(=O)[O-])cc6)c6ccc([nH]6)c(-c6ccc(S(=O)(=O)[O-])cc6)c6nc(c(-c7ccc(S(=O)(=O)[O-])cc7)c7ccc4[nH]7)C=C6)C=C5)cc3)n2)C1
REMARK SMILES IDX 26 1 25 2 24 3 23 4 22 5 21 6 20 7 19 8 17 9 18 10 16 11
REMARK SMILES IDX 11 12 12 13 13 14 15 15 14 16 10 17 7 18 8 19 94 20 9 21
REMARK SMILES IDX 6 22 1 23 2 24 3 25 95 26 4 28 5 29 27 30 28 31 29 32 30 33
REMARK SMILES IDX 31 34 32 35 33 36 34 37 35 38 93 39 36 40 92 41 37 42 38 43
REMARK SMILES IDX 39 44 86 45 40 46 91 47 85 48 87 49 41 50 90 51 84 52 83 53
REMARK SMILES IDX 42 55 72 56 53 57 71 58 54 59 57 60 70 61 88 62 55 63 56 64
REMARK SMILES IDX 69 66 89 67 58 68 43 69 44 70 52 71 45 72 51 73 46 74 47 75
REMARK SMILES IDX 48 76 49 77 50 78 73 79 74 80 82 81 75 82 81 83 76 84 77 85
REMARK SMILES IDX 78 86 79 87 80 88 59 89 60 90 68 91 61 92 67 93 62 94 63 95
REMARK SMILES IDX 64 96 65 97 66 98
REMARK H PARENT 2 27 87 54 57 65
REMARK Flexibility Score: inf
ROOT
ATOM      1  C   UNL A   1      39.891  26.307  27.890  1.00  0.00     0.188 C 
ENDROOT
BRANCH   1   2
ATOM      2  O   UNL A   1      41.115  25.584  27.990  1.00  0.00    -0.377 OA
BRANCH   2   3
ATOM      3  C   UNL A   1      41.120  24.169  28.032  1.00  0.00     0.188 C 
BRANCH   3   4
ATOM      4  C   UNL A   1      40.882  23.393  26.718  1.00  0.00     0.188 C 
BRANCH   4   5
ATOM      5  O   UNL A   1      40.056  22.253  26.846  1.00  0.00    -0.376 OA
BRANCH   5   6
ATOM      6  C   UNL A   1      38.837  22.171  26.128  1.00  0.00     0.202 C 
BRANCH   6   7
ATOM      7  C   UNL A   1      37.922  23.388  25.934  1.00  0.00     0.261 C 
BRANCH   7   8
ATOM      8  O   UNL A   1      36.570  23.095  25.578  1.00  0.00    -0.460 OA
BRANCH   8   9
ATOM      9  C   UNL A   1      36.280  22.795  24.298  1.00  0.00     0.339 C 
ATOM     10  O   UNL A   1      37.026  22.904  23.341  1.00  0.00    -0.246 OA
BRANCH   9  11
ATOM     11  C   UNL A   1      34.986  22.051  24.258  1.00  0.00     0.072 A 
ATOM     12  C   UNL A   1      33.773  22.582  23.772  1.00  0.00     0.054 A 
ATOM     13  C   UNL A   1      32.618  21.781  23.805  1.00  0.00     0.015 A 
ATOM     14  C   UNL A   1      32.654  20.500  24.363  1.00  0.00     0.001 A 
ATOM     15  C   UNL A   1      35.004  20.771  24.835  1.00  0.00     0.016 A 
ATOM     16  C   UNL A   1      33.839  20.006  24.899  1.00  0.00     0.001 A 
BRANCH  12  17
ATOM     17  C   UNL A   1      33.693  23.939  23.273  1.00  0.00     0.258 A 
ATOM     18  C   UNL A   1      33.136  25.914  22.906  1.00  0.00     0.206 A 
ATOM     19  N   UNL A   1      33.433  25.457  21.679  1.00  0.00    -0.059 NA
ATOM     20  N   UNL A   1      33.397  25.032  23.925  1.00  0.00    -0.189 NA
ATOM     21  O   UNL A   1      33.783  24.120  21.921  1.00  0.00    -0.334 OA
BRANCH  18  22
ATOM     22  C   UNL A   1      32.596  27.279  23.187  1.00  0.00     0.245 C 
ATOM     23  C   UNL A   1      32.753  29.692  25.213  1.00  0.00     0.332 C 
ATOM     24  N   UNL A   1      31.650  28.734  25.076  1.00  0.00    -0.333 N 
ATOM     25  C   UNL A   1      30.639  29.166  24.096  1.00  0.00     0.290 C 
ATOM     26  C   UNL A   1      32.171  27.407  24.682  1.00  0.00     0.303 C 
ATOM     27  H   UNL A   1      31.197  28.683  25.988  1.00  0.00     0.348 HD
ATOM     28  C   UNL A   1      31.050  28.954  22.636  1.00  0.00     0.222 C 
ATOM     29  O   UNL A   1      31.446  27.602  22.367  1.00  0.00    -0.358 OA
ENDBRANCH  18  22
ENDBRANCH  12  17
ENDBRANCH   9  11
ENDBRANCH   8   9
ENDBRANCH   7   8
ENDBRANCH   6   7
ENDBRANCH   5   6
ENDBRANCH   4   5
ENDBRANCH   3   4
ENDBRANCH   2   3
ENDBRANCH   1   2
BRANCH   1  30
ATOM     30  C   UNL A   1      39.654  27.654  28.614  1.00  0.00     0.188 C 
BRANCH  30  31
ATOM     31  O   UNL A   1      39.718  27.597  30.028  1.00  0.00    -0.376 OA
BRANCH  31  32
ATOM     32  C   UNL A   1      38.529  27.334  30.747  1.00  0.00     0.202 C 
BRANCH  32  33
ATOM     33  C   UNL A   1      38.553  27.538  32.269  1.00  0.00     0.261 C 
BRANCH  33  34
ATOM     34  O   UNL A   1      37.420  28.203  32.841  1.00  0.00    -0.460 OA
BRANCH  34  35
ATOM     35  C   UNL A   1      37.081  29.401  32.322  1.00  0.00     0.338 C 
ATOM     36  O   UNL A   1      36.277  29.612  31.423  1.00  0.00    -0.246 OA
BRANCH  35  37
ATOM     37  C   UNL A   1      37.726  30.448  33.135  1.00  0.00     0.060 A 
ATOM     38  C   UNL A   1      38.988  30.206  33.696  1.00  0.00     0.016 A 
ATOM     39  C   UNL A   1      37.078  31.666  33.352  1.00  0.00     0.016 A 
ATOM     40  C   UNL A   1      39.586  31.172  34.509  1.00  0.00     0.010 A 
ATOM     41  C   UNL A   1      37.669  32.622  34.182  1.00  0.00     0.010 A 
ATOM     42  C   UNL A   1      38.909  32.366  34.794  1.00  0.00    -0.014 A 
BRANCH  42  43
ATOM     43  C   UNL A   1      39.411  33.267  35.862  1.00  0.00     0.031 A 
ATOM     44  C   UNL A   1      40.450  34.292  35.512  1.00  0.00     0.074 A 
ATOM     45  C   UNL A   1      38.959  33.186  37.126  1.00  0.00     0.049 A 
ATOM     46  N   UNL A   1      41.061  35.141  36.294  1.00  0.00    -0.248 NA
ATOM     47  C   UNL A   1      40.864  34.361  34.101  1.00  0.00     0.031 C 
ATOM     48  C   UNL A   1      37.953  32.240  37.591  1.00  0.00     0.029 A 
ATOM     49  N   UNL A   1      39.295  33.904  38.252  1.00  0.00    -0.354 N 
ATOM     50  C   UNL A   1      41.951  35.826  35.481  1.00  0.00     0.074 A 
ATOM     51  C   UNL A   1      41.809  35.289  34.145  1.00  0.00     0.031 C 
ATOM     52  C   UNL A   1      37.755  32.442  38.905  1.00  0.00     0.029 A 
ATOM     53  C   UNL A   1      38.633  33.496  39.385  1.00  0.00     0.049 A 
ATOM     54  H   UNL A   1      39.949  34.639  38.246  1.00  0.00     0.167 HD
ATOM     55  C   UNL A   1      42.815  36.810  35.822  1.00  0.00     0.031 A 
ATOM     56  C   UNL A   1      38.722  33.889  40.671  1.00  0.00     0.031 A 
ATOM     57  C   UNL A   1      42.957  37.339  37.153  1.00  0.00     0.049 A 
ATOM     58  C   UNL A   1      39.710  34.962  41.027  1.00  0.00     0.074 A 
ATOM     59  C   UNL A   1      43.787  38.361  37.579  1.00  0.00     0.029 A 
ATOM     60  N   UNL A   1      42.268  36.892  38.268  1.00  0.00    -0.354 N 
ATOM     61  N   UNL A   1      40.515  35.627  40.235  1.00  0.00    -0.248 NA
ATOM     62  C   UNL A   1      39.811  35.336  42.444  1.00  0.00     0.031 C 
ATOM     63  C   UNL A   1      43.651  38.485  38.964  1.00  0.00     0.029 A 
ATOM     64  C   UNL A   1      42.678  37.595  39.389  1.00  0.00     0.049 A 
ATOM     65  H   UNL A   1      41.588  36.180  38.265  1.00  0.00     0.167 HD
ATOM     66  C   UNL A   1      41.201  36.513  41.054  1.00  0.00     0.074 A 
ATOM     67  C   UNL A   1      40.697  36.321  42.398  1.00  0.00     0.031 C 
ATOM     68  C   UNL A   1      42.169  37.401  40.722  1.00  0.00     0.031 A 
BRANCH  55  69
ATOM     69  C   UNL A   1      43.713  37.356  34.748  1.00  0.00    -0.014 A 
ATOM     70  C   UNL A   1      43.339  38.470  33.977  1.00  0.00     0.010 A 
ATOM     71  C   UNL A   1      44.989  36.792  34.569  1.00  0.00     0.010 A 
ATOM     72  C   UNL A   1      44.226  39.008  33.042  1.00  0.00     0.020 A 
ATOM     73  C   UNL A   1      45.889  37.344  33.657  1.00  0.00     0.020 A 
ATOM     74  C   UNL A   1      45.499  38.448  32.895  1.00  0.00     0.054 A 
BRANCH  74  75
ATOM     75  S   UNL A   1      46.659  39.220  31.734  1.00  0.00     0.124 S 
ATOM     76  O   UNL A   1      46.662  38.264  30.630  1.00  0.00    -0.237 OA
ATOM     77  O   UNL A   1      46.019  40.502  31.455  1.00  0.00    -0.237 OA
ATOM     78  O   UNL A   1      47.906  39.301  32.490  1.00  0.00    -0.744 OA
ENDBRANCH  74  75
ENDBRANCH  55  69
BRANCH  56  79
ATOM     79  C   UNL A   1      37.889  33.244  41.732  1.00  0.00    -0.014 A 
ATOM     80  C   UNL A   1      38.318  32.068  42.376  1.00  0.00     0.010 A 
ATOM     81  C   UNL A   1      36.638  33.787  42.079  1.00  0.00     0.010 A 
ATOM     82  C   UNL A   1      37.497  31.430  43.313  1.00  0.00     0.020 A 
ATOM     83  C   UNL A   1      35.833  33.177  43.046  1.00  0.00     0.020 A 
ATOM     84  C   UNL A   1      36.258  31.989  43.641  1.00  0.00     0.054 A 
BRANCH  84  85
ATOM     85  S   UNL A   1      35.216  31.161  44.873  1.00  0.00     0.124 S 
ATOM     86  O   UNL A   1      35.049  32.204  45.880  1.00  0.00    -0.237 OA
ATOM     87  O   UNL A   1      34.023  30.826  44.099  1.00  0.00    -0.237 OA
ATOM     88  O   UNL A   1      36.023  30.014  45.281  1.00  0.00    -0.744 OA
ENDBRANCH  84  85
ENDBRANCH  56  79
BRANCH  68  89
ATOM     89  C   UNL A   1      42.716  38.269  41.821  1.00  0.00    -0.014 A 
ATOM     90  C   UNL A   1      42.189  39.546  42.080  1.00  0.00     0.010 A 
ATOM     91  C   UNL A   1      43.752  37.775  42.634  1.00  0.00     0.010 A 
ATOM     92  C   UNL A   1      42.712  40.328  43.112  1.00  0.00     0.020 A 
ATOM     93  C   UNL A   1      44.254  38.539  43.689  1.00  0.00     0.020 A 
ATOM     94  C   UNL A   1      43.742  39.819  43.911  1.00  0.00     0.054 A 
BRANCH  94  95
ATOM     95  S   UNL A   1      44.374  40.837  45.270  1.00  0.00     0.124 S 
ATOM     96  O   UNL A   1      45.819  40.743  45.074  1.00  0.00    -0.237 OA
ATOM     97  O   UNL A   1      43.785  42.145  44.990  1.00  0.00    -0.237 OA
ATOM     98  O   UNL A   1      43.865  40.174  46.468  1.00  0.00    -0.744 OA
ENDBRANCH  94  95
ENDBRANCH  68  89
ENDBRANCH  42  43
ENDBRANCH  35  37
ENDBRANCH  34  35
ENDBRANCH  33  34
ENDBRANCH  32  33
ENDBRANCH  31  32
ENDBRANCH  30  31
ENDBRANCH   1  30
TORSDOF 25
ENDMDL
MODEL 3
REMARK VINA RESULT:      -8.0      9.771     17.117
REMARK SMILES C[N@H+]1CCO[C@H](c2noc(-c3ccccc3C(=O)OCCOCCOCCOCCOC(=O)c3ccc(-c4c5nc(c(-c6ccc(S(=O)(=O)[O-])cc6)c6ccc([nH]6)c(-c6ccc(S(=O)(=O)[O-])cc6)c6nc(c(-c7ccc(S(=O)(=O)[O-])cc7)c7ccc4[nH]7)C=C6)C=C5)cc3)n2)C1
REMARK SMILES IDX 26 1 25 2 24 3 23 4 22 5 21 6 20 7 19 8 17 9 18 10 16 11
REMARK SMILES IDX 11 12 12 13 13 14 15 15 14 16 10 17 7 18 8 19 94 20 9 21
REMARK SMILES IDX 6 22 1 23 2 24 3 25 95 26 4 28 5 29 27 30 28 31 29 32 30 33
REMARK SMILES IDX 31 34 32 35 33 36 34 37 35 38 93 39 36 40 92 41 37 42 38 43
REMARK SMILES IDX 39 44 86 45 40 46 91 47 85 48 87 49 41 50 90 51 84 52 83 53
REMARK SMILES IDX 42 55 72 56 53 57 71 58 54 59 57 60 70 61 88 62 55 63 56 64
REMARK SMILES IDX 69 66 89 67 58 68 43 69 44 70 52 71 45 72 51 73 46 74 47 75
REMARK SMILES IDX 48 76 49 77 50 78 73 79 74 80 82 81 75 82 81 83 76 84 77 85
REMARK SMILES IDX 78 86 79 87 80 88 59 89 60 90 68 91 61 92 67 93 62 94 63 95
REMARK SMILES IDX 64 96 65 97 66 98
REMARK H PARENT 2 27 87 54 57 65
REMARK Flexibility Score: inf
ROOT
ATOM      1  C   UNL A   1      44.163  42.311  26.125  1.00  0.00     0.188 C 
ENDROOT
BRANCH   1   2
ATOM      2  O   UNL A   1      43.951  41.954  24.762  1.00  0.00    -0.377 OA
BRANCH   2   3
ATOM      3  C   UNL A   1      44.862  42.357  23.756  1.00  0.00     0.188 C 
BRANCH   3   4
ATOM      4  C   UNL A   1      44.339  43.236  22.599  1.00  0.00     0.188 C 
BRANCH   4   5
ATOM      5  O   UNL A   1      43.817  42.515  21.500  1.00  0.00    -0.376 OA
BRANCH   5   6
ATOM      6  C   UNL A   1      43.916  43.044  20.189  1.00  0.00     0.202 C 
BRANCH   6   7
ATOM      7  C   UNL A   1      42.708  43.112  19.245  1.00  0.00     0.261 C 
BRANCH   7   8
ATOM      8  O   UNL A   1      42.558  44.333  18.519  1.00  0.00    -0.460 OA
BRANCH   8   9
ATOM      9  C   UNL A   1      43.147  44.456  17.314  1.00  0.00     0.339 C 
ATOM     10  O   UNL A   1      43.386  43.555  16.529  1.00  0.00    -0.246 OA
BRANCH   9  11
ATOM     11  C   UNL A   1      43.226  45.904  16.961  1.00  0.00     0.072 A 
ATOM     12  C   UNL A   1      44.406  46.675  17.009  1.00  0.00     0.054 A 
ATOM     13  C   UNL A   1      44.342  48.038  16.667  1.00  0.00     0.015 A 
ATOM     14  C   UNL A   1      43.123  48.635  16.338  1.00  0.00     0.001 A 
ATOM     15  C   UNL A   1      42.003  46.520  16.649  1.00  0.00     0.016 A 
ATOM     16  C   UNL A   1      41.952  47.882  16.353  1.00  0.00     0.001 A 
BRANCH  12  17
ATOM     17  C   UNL A   1      45.664  46.099  17.435  1.00  0.00     0.258 A 
ATOM     18  C   UNL A   1      47.286  45.422  18.556  1.00  0.00     0.206 A 
ATOM     19  N   UNL A   1      47.876  45.976  17.484  1.00  0.00    -0.059 NA
ATOM     20  N   UNL A   1      45.916  45.382  18.498  1.00  0.00    -0.189 NA
ATOM     21  O   UNL A   1      46.787  46.455  16.741  1.00  0.00    -0.334 OA
BRANCH  18  22
ATOM     22  C   UNL A   1      48.027  44.854  19.723  1.00  0.00     0.245 C 
ATOM     23  C   UNL A   1      48.200  44.904  22.873  1.00  0.00     0.332 C 
ATOM     24  N   UNL A   1      49.142  45.523  21.934  1.00  0.00    -0.333 N 
ATOM     25  C   UNL A   1      50.232  44.614  21.539  1.00  0.00     0.290 C 
ATOM     26  C   UNL A   1      48.430  45.983  20.722  1.00  0.00     0.303 C 
ATOM     27  H   UNL A   1      49.560  46.315  22.424  1.00  0.00     0.348 HD
ATOM     28  C   UNL A   1      49.828  43.569  20.496  1.00  0.00     0.222 C 
ATOM     29  O   UNL A   1      49.232  44.154  19.331  1.00  0.00    -0.358 OA
ENDBRANCH  18  22
ENDBRANCH  12  17
ENDBRANCH   9  11
ENDBRANCH   8   9
ENDBRANCH   7   8
ENDBRANCH   6   7
ENDBRANCH   5   6
ENDBRANCH   4   5
ENDBRANCH   3   4
ENDBRANCH   2   3
ENDBRANCH   1   2
BRANCH   1  30
ATOM     30  C   UNL A   1      44.470  41.266  27.224  1.00  0.00     0.188 C 
BRANCH  30  31
ATOM     31  O   UNL A   1      43.613  40.138  27.240  1.00  0.00    -0.376 OA
BRANCH  31  32
ATOM     32  C   UNL A   1      43.680  39.255  28.342  1.00  0.00     0.202 C 
BRANCH  32  33
ATOM     33  C   UNL A   1      42.885  37.944  28.258  1.00  0.00     0.261 C 
BRANCH  33  34
ATOM     34  O   UNL A   1      43.203  37.075  27.163  1.00  0.00    -0.460 OA
BRANCH  34  35
ATOM     35  C   UNL A   1      42.437  35.977  27.005  1.00  0.00     0.338 C 
ATOM     36  O   UNL A   1      41.230  35.947  26.802  1.00  0.00    -0.246 OA
BRANCH  35  37
ATOM     37  C   UNL A   1      43.328  34.803  26.953  1.00  0.00     0.060 A 
ATOM     38  C   UNL A   1      43.682  34.154  28.143  1.00  0.00     0.016 A 
ATOM     39  C   UNL A   1      43.821  34.352  25.727  1.00  0.00     0.016 A 
ATOM     40  C   UNL A   1      44.565  33.072  28.110  1.00  0.00     0.010 A 
ATOM     41  C   UNL A   1      44.720  33.283  25.699  1.00  0.00     0.010 A 
ATOM     42  C   UNL A   1      45.125  32.660  26.893  1.00  0.00    -0.014 A 
BRANCH  42  43
ATOM     43  C   UNL A   1      46.259  31.702  26.884  1.00  0.00     0.031 A 
ATOM     44  C   UNL A   1      47.659  32.242  26.928  1.00  0.00     0.074 A 
ATOM     45  C   UNL A   1      46.062  30.372  26.838  1.00  0.00     0.049 A 
ATOM     46  N   UNL A   1      48.790  31.591  26.878  1.00  0.00    -0.248 NA
ATOM     47  C   UNL A   1      47.804  33.703  27.029  1.00  0.00     0.031 C 
ATOM     48  C   UNL A   1      44.757  29.725  26.796  1.00  0.00     0.029 A 
ATOM     49  N   UNL A   1      46.959  29.328  26.808  1.00  0.00    -0.354 N 
ATOM     50  C   UNL A   1      49.782  32.561  26.912  1.00  0.00     0.074 A 
ATOM     51  C   UNL A   1      49.120  33.846  26.978  1.00  0.00     0.031 C 
ATOM     52  C   UNL A   1      44.944  28.396  26.749  1.00  0.00     0.029 A 
ATOM     53  C   UNL A   1      46.364  28.092  26.723  1.00  0.00     0.049 A 
ATOM     54  H   UNL A   1      47.934  29.456  26.845  1.00  0.00     0.167 HD
ATOM     55  C   UNL A   1      51.123  32.392  26.883  1.00  0.00     0.031 A 
ATOM     56  C   UNL A   1      46.879  26.851  26.610  1.00  0.00     0.031 A 
ATOM     57  C   UNL A   1      51.779  31.113  26.813  1.00  0.00     0.049 A 
ATOM     58  C   UNL A   1      48.371  26.695  26.550  1.00  0.00     0.074 A 
ATOM     59  C   UNL A   1      53.138  30.850  26.813  1.00  0.00     0.029 A 
ATOM     60  N   UNL A   1      51.136  29.889  26.724  1.00  0.00    -0.354 N 
ATOM     61  N   UNL A   1      49.293  27.623  26.625  1.00  0.00    -0.248 NA
ATOM     62  C   UNL A   1      48.895  25.333  26.384  1.00  0.00     0.031 C 
ATOM     63  C   UNL A   1      53.317  29.474  26.653  1.00  0.00     0.029 A 
ATOM     64  C   UNL A   1      52.070  28.871  26.635  1.00  0.00     0.049 A 
ATOM     65  H   UNL A   1      50.159  29.763  26.724  1.00  0.00     0.167 HD
ATOM     66  C   UNL A   1      50.507  26.955  26.538  1.00  0.00     0.074 A 
ATOM     67  C   UNL A   1      50.203  25.542  26.435  1.00  0.00     0.031 C 
ATOM     68  C   UNL A   1      51.760  27.468  26.536  1.00  0.00     0.031 A 
BRANCH  55  69
ATOM     69  C   UNL A   1      51.983  33.625  26.882  1.00  0.00    -0.014 A 
ATOM     70  C   UNL A   1      52.477  34.174  28.077  1.00  0.00     0.010 A 
ATOM     71  C   UNL A   1      52.371  34.189  25.653  1.00  0.00     0.010 A 
ATOM     72  C   UNL A   1      53.342  35.271  28.043  1.00  0.00     0.020 A 
ATOM     73  C   UNL A   1      53.257  35.266  25.613  1.00  0.00     0.020 A 
ATOM     74  C   UNL A   1      53.734  35.803  26.810  1.00  0.00     0.054 A 
BRANCH  74  75
ATOM     75  S   UNL A   1      54.923  37.173  26.796  1.00  0.00     0.124 S 
ATOM     76  O   UNL A   1      56.200  36.464  26.792  1.00  0.00    -0.237 OA
ATOM     77  O   UNL A   1      54.587  37.870  25.558  1.00  0.00    -0.237 OA
ATOM     78  O   UNL A   1      54.623  37.907  28.022  1.00  0.00    -0.744 OA
ENDBRANCH  74  75
ENDBRANCH  55  69
BRANCH  56  79
ATOM     79  C   UNL A   1      45.987  25.656  26.502  1.00  0.00    -0.014 A 
ATOM     80  C   UNL A   1      45.739  24.833  27.617  1.00  0.00     0.010 A 
ATOM     81  C   UNL A   1      45.408  25.313  25.266  1.00  0.00     0.010 A 
ATOM     82  C   UNL A   1      44.964  23.674  27.487  1.00  0.00     0.020 A 
ATOM     83  C   UNL A   1      44.599  24.180  25.142  1.00  0.00     0.020 A 
ATOM     84  C   UNL A   1      44.400  23.355  26.249  1.00  0.00     0.054 A 
BRANCH  84  85
ATOM     85  S   UNL A   1      43.381  21.861  26.104  1.00  0.00     0.124 S 
ATOM     86  O   UNL A   1      42.835  21.734  27.451  1.00  0.00    -0.237 OA
ATOM     87  O   UNL A   1      42.427  22.233  25.061  1.00  0.00    -0.237 OA
ATOM     88  O   UNL A   1      44.344  20.833  25.714  1.00  0.00    -0.744 OA
ENDBRANCH  84  85
ENDBRANCH  56  79
BRANCH  68  89
ATOM     89  C   UNL A   1      52.904  26.495  26.466  1.00  0.00    -0.014 A 
ATOM     90  C   UNL A   1      53.040  25.596  25.394  1.00  0.00     0.010 A 
ATOM     91  C   UNL A   1      53.884  26.513  27.476  1.00  0.00     0.010 A 
ATOM     92  C   UNL A   1      54.117  24.708  25.351  1.00  0.00     0.020 A 
ATOM     93  C   UNL A   1      54.981  25.651  27.418  1.00  0.00     0.020 A 
ATOM     94  C   UNL A   1      55.081  24.742  26.364  1.00  0.00     0.054 A 
BRANCH  94  95
ATOM     95  S   UNL A   1      56.491  23.608  26.262  1.00  0.00     0.124 S 
ATOM     96  O   UNL A   1      55.847  22.307  26.425  1.00  0.00    -0.237 OA
ATOM     97  O   UNL A   1      57.027  23.882  24.931  1.00  0.00    -0.237 OA
ATOM     98  O   UNL A   1      57.350  24.019  27.371  1.00  0.00    -0.744 OA
ENDBRANCH  94  95
ENDBRANCH  68  89
ENDBRANCH  42  43
ENDBRANCH  35  37
ENDBRANCH  34  35
ENDBRANCH  33  34
ENDBRANCH  32  33
ENDBRANCH  31  32
ENDBRANCH  30  31
ENDBRANCH   1  30
TORSDOF 25
ENDMDL
