MODEL 1
REMARK VINA RESULT:      -9.1      0.000      0.000
REMARK SMILES Cc1ccc2ncc(/C=C/c3cc(C(=O)OCCOCCOCCOCCOC(=O)c4ccc(-c5c6nc(c(-c7ccc(S(=O)(=O)[O-])cc7)c7ccc([nH]7)c(-c7ccc(S(=O)(=O)[O-])cc7)c7nc(c(-c8ccc(S(=O)(=O)[O-])cc8)c8ccc5[nH]8)C=C7)C=C6)cc4)ncn3)n2c1
REMARK SMILES IDX 23 1 22 2 21 3 20 4 19 5 18 6 17 7 16 8 14 9 15 10 13 11
REMARK SMILES IDX 11 12 12 13 93 14 92 15 91 16 10 17 9 18 8 19 1 20 2 21 3 22
REMARK SMILES IDX 95 23 4 24 94 25 5 26 6 27 7 28 24 29 25 30 26 31 27 32
REMARK SMILES IDX 28 33 29 34 30 35 31 36 32 37 90 38 33 39 89 40 34 41 35 42
REMARK SMILES IDX 36 43 83 44 37 45 88 46 82 47 84 48 38 49 87 50 81 51 80 52
REMARK SMILES IDX 39 54 69 55 50 56 68 57 51 58 54 59 67 60 85 61 52 62 53 63
REMARK SMILES IDX 66 65 86 66 55 67 40 68 41 69 49 70 42 71 48 72 43 73 44 74
REMARK SMILES IDX 45 75 46 76 47 77 70 78 71 79 79 80 72 81 78 82 73 83 74 84
REMARK SMILES IDX 75 85 76 86 77 87 56 88 57 89 65 90 58 91 64 92 59 93 60 94
REMARK SMILES IDX 61 95 62 96 63 97
REMARK H PARENT 84 53 54 64
REMARK Flexibility Score: inf
ROOT
ATOM      1  C   UNL A   1      38.504  29.491  28.207  1.00  0.00     0.188 C 
ENDROOT
BRANCH   1   2
ATOM      2  O   UNL A   1      38.521  28.117  28.588  1.00  0.00    -0.377 OA
BRANCH   2   3
ATOM      3  C   UNL A   1      39.761  27.449  28.666  1.00  0.00     0.188 C 
BRANCH   3   4
ATOM      4  C   UNL A   1      40.817  27.906  27.648  1.00  0.00     0.188 C 
BRANCH   4   5
ATOM      5  O   UNL A   1      41.772  26.913  27.329  1.00  0.00    -0.376 OA
BRANCH   5   6
ATOM      6  C   UNL A   1      41.962  26.445  26.005  1.00  0.00     0.202 C 
BRANCH   6   7
ATOM      7  C   UNL A   1      41.583  25.035  25.526  1.00  0.00     0.261 C 
BRANCH   7   8
ATOM      8  O   UNL A   1      41.966  23.948  26.357  1.00  0.00    -0.459 OA
BRANCH   8   9
ATOM      9  C   UNL A   1      41.023  23.446  27.187  1.00  0.00     0.357 C 
ATOM     10  O   UNL A   1      40.459  24.045  28.092  1.00  0.00    -0.244 OA
BRANCH   9  11
ATOM     11  C   UNL A   1      40.584  22.167  26.565  1.00  0.00     0.152 A 
ATOM     12  C   UNL A   1      38.940  20.790  25.662  1.00  0.00     0.067 A 
ATOM     13  C   UNL A   1      39.287  22.036  26.131  1.00  0.00     0.064 A 
ATOM     14  N   UNL A   1      39.764  19.723  25.720  1.00  0.00    -0.237 NA
ATOM     15  C   UNL A   1      40.999  19.964  26.183  1.00  0.00     0.223 A 
ATOM     16  N   UNL A   1      41.471  21.141  26.604  1.00  0.00    -0.229 NA
BRANCH  12  17
ATOM     17  C   UNL A   1      37.641  20.551  25.021  1.00  0.00     0.030 C 
ATOM     18  C   UNL A   1      36.539  21.133  25.515  1.00  0.00     0.030 C 
BRANCH  18  19
ATOM     19  C   UNL A   1      35.210  21.088  25.025  1.00  0.00     0.065 A 
ATOM     20  C   UNL A   1      34.047  16.242  24.187  1.00  0.00     0.046 C 
ATOM     21  C   UNL A   1      33.835  17.723  24.183  1.00  0.00    -0.034 A 
ATOM     22  C   UNL A   1      32.570  18.233  23.671  1.00  0.00     0.009 A 
ATOM     23  C   UNL A   1      34.755  18.604  24.619  1.00  0.00     0.096 A 
ATOM     24  C   UNL A   1      32.307  19.551  23.645  1.00  0.00     0.048 A 
ATOM     25  N   UNL A   1      34.479  19.979  24.624  1.00  0.00    -0.300 N 
ATOM     26  C   UNL A   1      33.263  20.480  24.140  1.00  0.00     0.137 A 
ATOM     27  N   UNL A   1      33.197  21.788  24.204  1.00  0.00    -0.236 NA
ATOM     28  C   UNL A   1      34.395  22.172  24.732  1.00  0.00     0.140 A 
ENDBRANCH  18  19
ENDBRANCH  12  17
ENDBRANCH   9  11
ENDBRANCH   8   9
ENDBRANCH   7   8
ENDBRANCH   6   7
ENDBRANCH   5   6
ENDBRANCH   4   5
ENDBRANCH   3   4
ENDBRANCH   2   3
ENDBRANCH   1   2
BRANCH   1  29
ATOM     29  C   UNL A   1      37.222  30.363  28.203  1.00  0.00     0.188 C 
BRANCH  29  30
ATOM     30  O   UNL A   1      36.026  29.609  28.244  1.00  0.00    -0.376 OA
BRANCH  30  31
ATOM     31  C   UNL A   1      34.878  30.139  27.609  1.00  0.00     0.202 C 
BRANCH  31  32
ATOM     32  C   UNL A   1      34.609  31.659  27.626  1.00  0.00     0.261 C 
BRANCH  32  33
ATOM     33  O   UNL A   1      33.915  32.151  28.786  1.00  0.00    -0.460 OA
BRANCH  33  34
ATOM     34  C   UNL A   1      34.012  33.448  29.153  1.00  0.00     0.338 C 
ATOM     35  O   UNL A   1      33.216  34.341  28.897  1.00  0.00    -0.246 OA
BRANCH  34  36
ATOM     36  C   UNL A   1      35.053  33.496  30.219  1.00  0.00     0.060 A 
ATOM     37  C   UNL A   1      36.276  34.151  30.028  1.00  0.00     0.016 A 
ATOM     38  C   UNL A   1      34.912  32.575  31.269  1.00  0.00     0.016 A 
ATOM     39  C   UNL A   1      37.382  33.766  30.793  1.00  0.00     0.010 A 
ATOM     40  C   UNL A   1      36.025  32.182  32.019  1.00  0.00     0.010 A 
ATOM     41  C   UNL A   1      37.277  32.736  31.752  1.00  0.00    -0.014 A 
BRANCH  41  42
ATOM     42  C   UNL A   1      38.451  32.454  32.602  1.00  0.00     0.031 A 
ATOM     43  C   UNL A   1      38.302  33.047  33.959  1.00  0.00     0.074 A 
ATOM     44  C   UNL A   1      39.507  31.643  32.357  1.00  0.00     0.049 A 
ATOM     45  N   UNL A   1      39.022  33.960  34.520  1.00  0.00    -0.248 NA
ATOM     46  C   UNL A   1      37.099  32.668  34.717  1.00  0.00     0.031 C 
ATOM     47  C   UNL A   1      39.681  30.711  31.244  1.00  0.00     0.029 A 
ATOM     48  N   UNL A   1      40.630  31.413  33.118  1.00  0.00    -0.354 N 
ATOM     49  C   UNL A   1      38.460  34.160  35.777  1.00  0.00     0.074 A 
ATOM     50  C   UNL A   1      37.201  33.460  35.781  1.00  0.00     0.031 C 
ATOM     51  C   UNL A   1      40.733  29.895  31.491  1.00  0.00     0.029 A 
ATOM     52  C   UNL A   1      41.367  30.291  32.737  1.00  0.00     0.049 A 
ATOM     53  H   UNL A   1      40.891  31.993  33.870  1.00  0.00     0.167 HD
ATOM     54  C   UNL A   1      39.151  34.729  36.801  1.00  0.00     0.031 A 
ATOM     55  C   UNL A   1      42.372  29.672  33.417  1.00  0.00     0.031 A 
ATOM     56  C   UNL A   1      40.331  35.407  36.343  1.00  0.00     0.049 A 
ATOM     57  C   UNL A   1      42.914  30.631  34.405  1.00  0.00     0.074 A 
ATOM     58  C   UNL A   1      40.574  36.501  35.542  1.00  0.00     0.029 A 
ATOM     59  N   UNL A   1      41.519  34.728  36.449  1.00  0.00    -0.354 N 
ATOM     60  N   UNL A   1      43.569  31.710  34.086  1.00  0.00    -0.248 NA
ATOM     61  C   UNL A   1      42.371  30.600  35.752  1.00  0.00     0.031 C 
ATOM     62  C   UNL A   1      41.776  36.189  34.848  1.00  0.00     0.029 A 
ATOM     63  C   UNL A   1      42.238  34.951  35.305  1.00  0.00     0.049 A 
ATOM     64  H   UNL A   1      41.805  34.178  37.214  1.00  0.00     0.167 HD
ATOM     65  C   UNL A   1      43.151  32.656  35.009  1.00  0.00     0.074 A 
ATOM     66  C   UNL A   1      42.491  31.891  36.064  1.00  0.00     0.031 C 
ATOM     67  C   UNL A   1      43.137  33.986  34.699  1.00  0.00     0.031 A 
BRANCH  54  68
ATOM     68  C   UNL A   1      38.933  34.383  38.250  1.00  0.00    -0.014 A 
ATOM     69  C   UNL A   1      39.105  35.311  39.297  1.00  0.00     0.010 A 
ATOM     70  C   UNL A   1      38.295  33.168  38.572  1.00  0.00     0.010 A 
ATOM     71  C   UNL A   1      38.683  35.045  40.599  1.00  0.00     0.020 A 
ATOM     72  C   UNL A   1      37.824  32.909  39.867  1.00  0.00     0.020 A 
ATOM     73  C   UNL A   1      38.029  33.850  40.874  1.00  0.00     0.054 A 
BRANCH  73  74
ATOM     74  S   UNL A   1      37.395  33.594  42.547  1.00  0.00     0.124 S 
ATOM     75  O   UNL A   1      38.559  33.028  43.225  1.00  0.00    -0.237 OA
ATOM     76  O   UNL A   1      37.027  34.948  42.951  1.00  0.00    -0.237 OA
ATOM     77  O   UNL A   1      36.276  32.676  42.353  1.00  0.00    -0.744 OA
ENDBRANCH  73  74
ENDBRANCH  54  68
BRANCH  55  78
ATOM     78  C   UNL A   1      42.606  28.203  33.546  1.00  0.00    -0.014 A 
ATOM     79  C   UNL A   1      41.748  27.442  34.365  1.00  0.00     0.010 A 
ATOM     80  C   UNL A   1      43.815  27.598  33.139  1.00  0.00     0.010 A 
ATOM     81  C   UNL A   1      42.103  26.170  34.823  1.00  0.00     0.020 A 
ATOM     82  C   UNL A   1      44.182  26.315  33.597  1.00  0.00     0.020 A 
ATOM     83  C   UNL A   1      43.336  25.627  34.469  1.00  0.00     0.054 A 
BRANCH  83  84
ATOM     84  S   UNL A   1      43.832  24.063  35.252  1.00  0.00     0.124 S 
ATOM     85  O   UNL A   1      42.571  23.328  35.285  1.00  0.00    -0.237 OA
ATOM     86  O   UNL A   1      44.831  23.546  34.319  1.00  0.00    -0.237 OA
ATOM     87  O   UNL A   1      44.353  24.473  36.552  1.00  0.00    -0.744 OA
ENDBRANCH  83  84
ENDBRANCH  55  78
BRANCH  67  88
ATOM     88  C   UNL A   1      43.892  34.473  33.478  1.00  0.00    -0.014 A 
ATOM     89  C   UNL A   1      43.203  34.441  32.250  1.00  0.00     0.010 A 
ATOM     90  C   UNL A   1      45.276  34.732  33.461  1.00  0.00     0.010 A 
ATOM     91  C   UNL A   1      43.882  34.572  31.037  1.00  0.00     0.020 A 
ATOM     92  C   UNL A   1      45.956  34.904  32.244  1.00  0.00     0.020 A 
ATOM     93  C   UNL A   1      45.263  34.772  31.041  1.00  0.00     0.054 A 
BRANCH  93  94
ATOM     94  S   UNL A   1      46.135  34.784  29.449  1.00  0.00     0.124 S 
ATOM     95  O   UNL A   1      45.039  34.925  28.491  1.00  0.00    -0.237 OA
ATOM     96  O   UNL A   1      47.014  35.943  29.572  1.00  0.00    -0.237 OA
ATOM     97  O   UNL A   1      46.808  33.487  29.400  1.00  0.00    -0.744 OA
ENDBRANCH  93  94
ENDBRANCH  67  88
ENDBRANCH  41  42
ENDBRANCH  34  36
ENDBRANCH  33  34
ENDBRANCH  32  33
ENDBRANCH  31  32
ENDBRANCH  30  31
ENDBRANCH  29  30
ENDBRANCH   1  29
TORSDOF 25
ENDMDL
MODEL 2
REMARK VINA RESULT:      -8.5      4.917     11.544
REMARK SMILES Cc1ccc2ncc(/C=C/c3cc(C(=O)OCCOCCOCCOCCOC(=O)c4ccc(-c5c6nc(c(-c7ccc(S(=O)(=O)[O-])cc7)c7ccc([nH]7)c(-c7ccc(S(=O)(=O)[O-])cc7)c7nc(c(-c8ccc(S(=O)(=O)[O-])cc8)c8ccc5[nH]8)C=C7)C=C6)cc4)ncn3)n2c1
REMARK SMILES IDX 23 1 22 2 21 3 20 4 19 5 18 6 17 7 16 8 14 9 15 10 13 11
REMARK SMILES IDX 11 12 12 13 93 14 92 15 91 16 10 17 9 18 8 19 1 20 2 21 3 22
REMARK SMILES IDX 95 23 4 24 94 25 5 26 6 27 7 28 24 29 25 30 26 31 27 32
REMARK SMILES IDX 28 33 29 34 30 35 31 36 32 37 90 38 33 39 89 40 34 41 35 42
REMARK SMILES IDX 36 43 83 44 37 45 88 46 82 47 84 48 38 49 87 50 81 51 80 52
REMARK SMILES IDX 39 54 69 55 50 56 68 57 51 58 54 59 67 60 85 61 52 62 53 63
REMARK SMILES IDX 66 65 86 66 55 67 40 68 41 69 49 70 42 71 48 72 43 73 44 74
REMARK SMILES IDX 45 75 46 76 47 77 70 78 71 79 79 80 72 81 78 82 73 83 74 84
REMARK SMILES IDX 75 85 76 86 77 87 56 88 57 89 65 90 58 91 64 92 59 93 60 94
REMARK SMILES IDX 61 95 62 96 63 97
REMARK H PARENT 84 53 54 64
REMARK Flexibility Score: inf
ROOT
ATOM      1  C   UNL A   1      40.491  25.911  28.273  1.00  0.00     0.188 C 
ENDROOT
BRANCH   1   2
ATOM      2  O   UNL A   1      39.231  25.919  28.940  1.00  0.00    -0.377 OA
BRANCH   2   3
ATOM      3  C   UNL A   1      39.088  26.693  30.112  1.00  0.00     0.188 C 
BRANCH   3   4
ATOM      4  C   UNL A   1      39.897  27.998  30.138  1.00  0.00     0.188 C 
BRANCH   4   5
ATOM      5  O   UNL A   1      39.428  28.943  31.079  1.00  0.00    -0.376 OA
BRANCH   5   6
ATOM      6  C   UNL A   1      38.181  29.602  30.931  1.00  0.00     0.202 C 
BRANCH   6   7
ATOM      7  C   UNL A   1      38.023  31.123  30.775  1.00  0.00     0.261 C 
BRANCH   7   8
ATOM      8  O   UNL A   1      38.259  31.665  29.483  1.00  0.00    -0.459 OA
BRANCH   8   9
ATOM      9  C   UNL A   1      37.835  30.939  28.423  1.00  0.00     0.357 C 
ATOM     10  O   UNL A   1      38.436  30.018  27.887  1.00  0.00    -0.244 OA
BRANCH   9  11
ATOM     11  C   UNL A   1      36.388  31.257  28.276  1.00  0.00     0.152 A 
ATOM     12  C   UNL A   1      34.230  30.701  27.609  1.00  0.00     0.067 A 
ATOM     13  C   UNL A   1      35.528  30.293  27.809  1.00  0.00     0.064 A 
ATOM     14  N   UNL A   1      33.829  31.982  27.745  1.00  0.00    -0.237 NA
ATOM     15  C   UNL A   1      34.760  32.841  28.185  1.00  0.00     0.223 A 
ATOM     16  N   UNL A   1      36.031  32.550  28.475  1.00  0.00    -0.229 NA
BRANCH  12  17
ATOM     17  C   UNL A   1      33.173  29.740  27.267  1.00  0.00     0.030 C 
ATOM     18  C   UNL A   1      33.498  28.478  26.955  1.00  0.00     0.030 C 
BRANCH  18  19
ATOM     19  C   UNL A   1      32.646  27.386  26.654  1.00  0.00     0.065 A 
ATOM     20  C   UNL A   1      35.479  23.758  24.567  1.00  0.00     0.046 C 
ATOM     21  C   UNL A   1      34.219  24.415  25.034  1.00  0.00    -0.034 A 
ATOM     22  C   UNL A   1      32.966  23.690  24.870  1.00  0.00     0.009 A 
ATOM     23  C   UNL A   1      34.183  25.642  25.588  1.00  0.00     0.096 A 
ATOM     24  C   UNL A   1      31.796  24.213  25.273  1.00  0.00     0.048 A 
ATOM     25  N   UNL A   1      32.972  26.185  26.040  1.00  0.00    -0.300 N 
ATOM     26  C   UNL A   1      31.763  25.493  25.892  1.00  0.00     0.137 A 
ATOM     27  N   UNL A   1      30.737  26.168  26.353  1.00  0.00    -0.236 NA
ATOM     28  C   UNL A   1      31.267  27.340  26.808  1.00  0.00     0.140 A 
ENDBRANCH  18  19
ENDBRANCH  12  17
ENDBRANCH   9  11
ENDBRANCH   8   9
ENDBRANCH   7   8
ENDBRANCH   6   7
ENDBRANCH   5   6
ENDBRANCH   4   5
ENDBRANCH   3   4
ENDBRANCH   2   3
ENDBRANCH   1   2
BRANCH   1  29
ATOM     29  C   UNL A   1      41.493  24.731  28.350  1.00  0.00     0.188 C 
BRANCH  29  30
ATOM     30  O   UNL A   1      41.888  24.242  27.083  1.00  0.00    -0.376 OA
BRANCH  30  31
ATOM     31  C   UNL A   1      41.243  23.087  26.579  1.00  0.00     0.202 C 
BRANCH  31  32
ATOM     32  C   UNL A   1      42.062  21.977  25.885  1.00  0.00     0.261 C 
BRANCH  32  33
ATOM     33  O   UNL A   1      42.886  22.409  24.789  1.00  0.00    -0.460 OA
BRANCH  33  34
ATOM     34  C   UNL A   1      44.207  22.122  24.759  1.00  0.00     0.338 C 
ATOM     35  O   UNL A   1      44.761  21.312  24.029  1.00  0.00    -0.246 OA
BRANCH  34  36
ATOM     36  C   UNL A   1      44.884  23.224  25.502  1.00  0.00     0.060 A 
ATOM     37  C   UNL A   1      45.312  23.066  26.826  1.00  0.00     0.016 A 
ATOM     38  C   UNL A   1      44.756  24.512  24.959  1.00  0.00     0.016 A 
ATOM     39  C   UNL A   1      45.462  24.200  27.632  1.00  0.00     0.010 A 
ATOM     40  C   UNL A   1      44.891  25.639  25.774  1.00  0.00     0.010 A 
ATOM     41  C   UNL A   1      45.193  25.490  27.127  1.00  0.00    -0.014 A 
BRANCH  41  42
ATOM     42  C   UNL A   1      45.478  26.650  27.995  1.00  0.00     0.031 A 
ATOM     43  C   UNL A   1      46.919  26.723  28.360  1.00  0.00     0.074 A 
ATOM     44  C   UNL A   1      44.663  27.673  28.346  1.00  0.00     0.049 A 
ATOM     45  N   UNL A   1      47.456  26.634  29.531  1.00  0.00    -0.248 NA
ATOM     46  C   UNL A   1      47.882  26.749  27.248  1.00  0.00     0.031 C 
ATOM     47  C   UNL A   1      43.329  27.975  27.828  1.00  0.00     0.029 A 
ATOM     48  N   UNL A   1      44.901  28.730  29.194  1.00  0.00    -0.354 N 
ATOM     49  C   UNL A   1      48.827  26.756  29.324  1.00  0.00     0.074 A 
ATOM     50  C   UNL A   1      49.038  26.667  27.902  1.00  0.00     0.031 C 
ATOM     51  C   UNL A   1      42.955  29.214  28.224  1.00  0.00     0.029 A 
ATOM     52  C   UNL A   1      43.977  29.771  29.094  1.00  0.00     0.049 A 
ATOM     53  H   UNL A   1      45.661  28.750  29.821  1.00  0.00     0.167 HD
ATOM     54  C   UNL A   1      49.683  27.113  30.318  1.00  0.00     0.031 A 
ATOM     55  C   UNL A   1      44.064  31.028  29.612  1.00  0.00     0.031 A 
ATOM     56  C   UNL A   1      49.086  26.981  31.616  1.00  0.00     0.049 A 
ATOM     57  C   UNL A   1      45.056  31.003  30.709  1.00  0.00     0.074 A 
ATOM     58  C   UNL A   1      48.619  25.927  32.369  1.00  0.00     0.029 A 
ATOM     59  N   UNL A   1      48.581  28.123  32.188  1.00  0.00    -0.354 N 
ATOM     60  N   UNL A   1      44.879  30.372  31.834  1.00  0.00    -0.248 NA
ATOM     61  C   UNL A   1      46.431  31.349  30.391  1.00  0.00     0.031 C 
ATOM     62  C   UNL A   1      47.506  26.449  33.084  1.00  0.00     0.029 A 
ATOM     63  C   UNL A   1      47.387  27.808  32.779  1.00  0.00     0.049 A 
ATOM     64  H   UNL A   1      49.004  29.012  32.175  1.00  0.00     0.167 HD
ATOM     65  C   UNL A   1      46.128  29.857  32.144  1.00  0.00     0.074 A 
ATOM     66  C   UNL A   1      47.060  30.570  31.274  1.00  0.00     0.031 C 
ATOM     67  C   UNL A   1      46.256  28.712  32.877  1.00  0.00     0.031 A 
BRANCH  54  68
ATOM     68  C   UNL A   1      50.947  27.900  30.088  1.00  0.00    -0.014 A 
ATOM     69  C   UNL A   1      50.993  29.309  30.123  1.00  0.00     0.010 A 
ATOM     70  C   UNL A   1      52.182  27.221  30.086  1.00  0.00     0.010 A 
ATOM     71  C   UNL A   1      52.197  30.011  30.137  1.00  0.00     0.020 A 
ATOM     72  C   UNL A   1      53.399  27.914  30.147  1.00  0.00     0.020 A 
ATOM     73  C   UNL A   1      53.395  29.308  30.165  1.00  0.00     0.054 A 
BRANCH  73  74
ATOM     74  S   UNL A   1      54.931  30.253  30.300  1.00  0.00     0.124 S 
ATOM     75  O   UNL A   1      55.003  30.502  31.738  1.00  0.00    -0.237 OA
ATOM     76  O   UNL A   1      55.919  29.317  29.771  1.00  0.00    -0.237 OA
ATOM     77  O   UNL A   1      54.682  31.430  29.473  1.00  0.00    -0.744 OA
ENDBRANCH  73  74
ENDBRANCH  54  68
BRANCH  55  78
ATOM     78  C   UNL A   1      43.659  32.307  28.955  1.00  0.00    -0.014 A 
ATOM     79  C   UNL A   1      44.182  32.620  27.684  1.00  0.00     0.010 A 
ATOM     80  C   UNL A   1      43.028  33.349  29.669  1.00  0.00     0.010 A 
ATOM     81  C   UNL A   1      44.150  33.922  27.175  1.00  0.00     0.020 A 
ATOM     82  C   UNL A   1      42.992  34.665  29.163  1.00  0.00     0.020 A 
ATOM     83  C   UNL A   1      43.590  34.947  27.933  1.00  0.00     0.054 A 
BRANCH  83  84
ATOM     84  S   UNL A   1      43.755  36.649  27.315  1.00  0.00     0.124 S 
ATOM     85  O   UNL A   1      42.640  36.738  26.376  1.00  0.00    -0.237 OA
ATOM     86  O   UNL A   1      43.609  37.443  28.533  1.00  0.00    -0.237 OA
ATOM     87  O   UNL A   1      45.085  36.675  26.714  1.00  0.00    -0.744 OA
ENDBRANCH  83  84
ENDBRANCH  55  78
BRANCH  67  88
ATOM     88  C   UNL A   1      45.061  28.183  33.645  1.00  0.00    -0.014 A 
ATOM     89  C   UNL A   1      44.975  28.531  35.007  1.00  0.00     0.010 A 
ATOM     90  C   UNL A   1      44.180  27.202  33.150  1.00  0.00     0.010 A 
ATOM     91  C   UNL A   1      44.104  27.863  35.870  1.00  0.00     0.020 A 
ATOM     92  C   UNL A   1      43.274  26.556  34.007  1.00  0.00     0.020 A 
ATOM     93  C   UNL A   1      43.279  26.856  35.369  1.00  0.00     0.054 A 
BRANCH  93  94
ATOM     94  S   UNL A   1      42.273  25.906  36.543  1.00  0.00     0.124 S 
ATOM     95  O   UNL A   1      42.722  26.424  37.835  1.00  0.00    -0.237 OA
ATOM     96  O   UNL A   1      40.909  26.265  36.162  1.00  0.00    -0.237 OA
ATOM     97  O   UNL A   1      42.649  24.516  36.293  1.00  0.00    -0.744 OA
ENDBRANCH  93  94
ENDBRANCH  67  88
ENDBRANCH  41  42
ENDBRANCH  34  36
ENDBRANCH  33  34
ENDBRANCH  32  33
ENDBRANCH  31  32
ENDBRANCH  30  31
ENDBRANCH  29  30
ENDBRANCH   1  29
TORSDOF 25
ENDMDL
MODEL 3
REMARK VINA RESULT:      -8.5      2.806      9.035
REMARK SMILES Cc1ccc2ncc(/C=C/c3cc(C(=O)OCCOCCOCCOCCOC(=O)c4ccc(-c5c6nc(c(-c7ccc(S(=O)(=O)[O-])cc7)c7ccc([nH]7)c(-c7ccc(S(=O)(=O)[O-])cc7)c7nc(c(-c8ccc(S(=O)(=O)[O-])cc8)c8ccc5[nH]8)C=C7)C=C6)cc4)ncn3)n2c1
REMARK SMILES IDX 23 1 22 2 21 3 20 4 19 5 18 6 17 7 16 8 14 9 15 10 13 11
REMARK SMILES IDX 11 12 12 13 93 14 92 15 91 16 10 17 9 18 8 19 1 20 2 21 3 22
REMARK SMILES IDX 95 23 4 24 94 25 5 26 6 27 7 28 24 29 25 30 26 31 27 32
REMARK SMILES IDX 28 33 29 34 30 35 31 36 32 37 90 38 33 39 89 40 34 41 35 42
REMARK SMILES IDX 36 43 83 44 37 45 88 46 82 47 84 48 38 49 87 50 81 51 80 52
REMARK SMILES IDX 39 54 69 55 50 56 68 57 51 58 54 59 67 60 85 61 52 62 53 63
REMARK SMILES IDX 66 65 86 66 55 67 40 68 41 69 49 70 42 71 48 72 43 73 44 74
REMARK SMILES IDX 45 75 46 76 47 77 70 78 71 79 79 80 72 81 78 82 73 83 74 84
REMARK SMILES IDX 75 85 76 86 77 87 56 88 57 89 65 90 58 91 64 92 59 93 60 94
REMARK SMILES IDX 61 95 62 96 63 97
REMARK H PARENT 84 53 54 64
REMARK Flexibility Score: inf
ROOT
ATOM      1  C   UNL A   1      43.817  25.856  27.176  1.00  0.00     0.188 C 
ENDROOT
BRANCH   1   2
ATOM      2  O   UNL A   1      43.471  24.520  26.817  1.00  0.00    -0.377 OA
BRANCH   2   3
ATOM      3  C   UNL A   1      44.232  23.864  25.826  1.00  0.00     0.188 C 
BRANCH   3   4
ATOM      4  C   UNL A   1      44.527  22.382  26.100  1.00  0.00     0.188 C 
BRANCH   4   5
ATOM      5  O   UNL A   1      43.491  21.509  25.693  1.00  0.00    -0.376 OA
BRANCH   5   6
ATOM      6  C   UNL A   1      42.569  20.950  26.614  1.00  0.00     0.202 C 
BRANCH   6   7
ATOM      7  C   UNL A   1      41.163  20.460  26.236  1.00  0.00     0.261 C 
BRANCH   7   8
ATOM      8  O   UNL A   1      40.071  21.020  26.953  1.00  0.00    -0.459 OA
BRANCH   8   9
ATOM      9  C   UNL A   1      39.625  22.231  26.547  1.00  0.00     0.357 C 
ATOM     10  O   UNL A   1      40.281  23.261  26.479  1.00  0.00    -0.244 OA
BRANCH   9  11
ATOM     11  C   UNL A   1      38.311  21.973  25.896  1.00  0.00     0.152 A 
ATOM     12  C   UNL A   1      36.062  22.468  25.563  1.00  0.00     0.067 A 
ATOM     13  C   UNL A   1      37.265  22.836  26.120  1.00  0.00     0.064 A 
ATOM     14  N   UNL A   1      35.868  21.292  24.933  1.00  0.00    -0.237 NA
ATOM     15  C   UNL A   1      36.956  20.520  24.792  1.00  0.00     0.223 A 
ATOM     16  N   UNL A   1      38.186  20.798  25.231  1.00  0.00    -0.229 NA
BRANCH  12  17
ATOM     17  C   UNL A   1      34.904  23.371  25.587  1.00  0.00     0.030 C 
ATOM     18  C   UNL A   1      33.684  22.881  25.843  1.00  0.00     0.030 C 
BRANCH  18  19
ATOM     19  C   UNL A   1      32.453  23.572  25.970  1.00  0.00     0.065 A 
ATOM     20  C   UNL A   1      31.716  26.191  21.711  1.00  0.00     0.046 C 
ATOM     21  C   UNL A   1      31.423  25.726  23.102  1.00  0.00    -0.034 A 
ATOM     22  C   UNL A   1      30.227  26.237  23.759  1.00  0.00     0.009 A 
ATOM     23  C   UNL A   1      32.211  24.869  23.779  1.00  0.00     0.096 A 
ATOM     24  C   UNL A   1      29.896  25.858  25.005  1.00  0.00     0.048 A 
ATOM     25  N   UNL A   1      31.858  24.443  25.068  1.00  0.00    -0.300 N 
ATOM     26  C   UNL A   1      30.708  24.924  25.705  1.00  0.00     0.137 A 
ATOM     27  N   UNL A   1      30.557  24.430  26.911  1.00  0.00    -0.236 NA
ATOM     28  C   UNL A   1      31.633  23.611  27.089  1.00  0.00     0.140 A 
ENDBRANCH  18  19
ENDBRANCH  12  17
ENDBRANCH   9  11
ENDBRANCH   8   9
ENDBRANCH   7   8
ENDBRANCH   6   7
ENDBRANCH   5   6
ENDBRANCH   4   5
ENDBRANCH   3   4
ENDBRANCH   2   3
ENDBRANCH   1   2
BRANCH   1  29
ATOM     29  C   UNL A   1      44.387  26.250  28.562  1.00  0.00     0.188 C 
BRANCH  29  30
ATOM     30  O   UNL A   1      45.150  25.226  29.171  1.00  0.00    -0.376 OA
BRANCH  30  31
ATOM     31  C   UNL A   1      44.578  24.518  30.254  1.00  0.00     0.202 C 
BRANCH  31  32
ATOM     32  C   UNL A   1      45.082  24.755  31.694  1.00  0.00     0.261 C 
BRANCH  32  33
ATOM     33  O   UNL A   1      44.061  24.808  32.706  1.00  0.00    -0.460 OA
BRANCH  33  34
ATOM     34  C   UNL A   1      44.320  25.329  33.926  1.00  0.00     0.338 C 
ATOM     35  O   UNL A   1      44.997  24.818  34.808  1.00  0.00    -0.246 OA
BRANCH  34  36
ATOM     36  C   UNL A   1      43.945  26.770  33.846  1.00  0.00     0.060 A 
ATOM     37  C   UNL A   1      44.023  27.615  34.959  1.00  0.00     0.016 A 
ATOM     38  C   UNL A   1      43.185  27.154  32.730  1.00  0.00     0.016 A 
ATOM     39  C   UNL A   1      43.222  28.761  35.002  1.00  0.00     0.010 A 
ATOM     40  C   UNL A   1      42.375  28.292  32.785  1.00  0.00     0.010 A 
ATOM     41  C   UNL A   1      42.348  29.074  33.939  1.00  0.00    -0.014 A 
BRANCH  41  42
ATOM     42  C   UNL A   1      41.614  30.354  33.996  1.00  0.00     0.031 A 
ATOM     43  C   UNL A   1      42.537  31.520  33.937  1.00  0.00     0.074 A 
ATOM     44  C   UNL A   1      40.279  30.576  33.943  1.00  0.00     0.049 A 
ATOM     45  N   UNL A   1      42.740  32.429  34.830  1.00  0.00    -0.248 NA
ATOM     46  C   UNL A   1      43.453  31.580  32.787  1.00  0.00     0.031 C 
ATOM     47  C   UNL A   1      39.221  29.607  33.659  1.00  0.00     0.029 A 
ATOM     48  N   UNL A   1      39.583  31.758  34.047  1.00  0.00    -0.354 N 
ATOM     49  C   UNL A   1      43.700  33.279  34.288  1.00  0.00     0.074 A 
ATOM     50  C   UNL A   1      44.210  32.625  33.110  1.00  0.00     0.031 C 
ATOM     51  C   UNL A   1      38.055  30.258  33.432  1.00  0.00     0.029 A 
ATOM     52  C   UNL A   1      38.251  31.683  33.636  1.00  0.00     0.049 A 
ATOM     53  H   UNL A   1      39.991  32.589  34.384  1.00  0.00     0.167 HD
ATOM     54  C   UNL A   1      43.881  34.551  34.734  1.00  0.00     0.031 A 
ATOM     55  C   UNL A   1      37.384  32.706  33.398  1.00  0.00     0.031 A 
ATOM     56  C   UNL A   1      43.261  34.767  36.010  1.00  0.00     0.049 A 
ATOM     57  C   UNL A   1      37.892  33.908  34.095  1.00  0.00     0.074 A 
ATOM     58  C   UNL A   1      43.454  34.272  37.281  1.00  0.00     0.029 A 
ATOM     59  N   UNL A   1      42.028  35.370  36.009  1.00  0.00    -0.354 N 
ATOM     60  N   UNL A   1      37.940  34.030  35.391  1.00  0.00    -0.248 NA
ATOM     61  C   UNL A   1      38.732  34.826  33.345  1.00  0.00     0.031 C 
ATOM     62  C   UNL A   1      42.153  34.212  37.854  1.00  0.00     0.029 A 
ATOM     63  C   UNL A   1      41.242  34.729  36.929  1.00  0.00     0.049 A 
ATOM     64  H   UNL A   1      41.756  36.131  35.445  1.00  0.00     0.167 HD
ATOM     65  C   UNL A   1      39.120  34.716  35.632  1.00  0.00     0.074 A 
ATOM     66  C   UNL A   1      39.512  35.263  34.335  1.00  0.00     0.031 C 
ATOM     67  C   UNL A   1      39.808  34.547  36.799  1.00  0.00     0.031 A 
BRANCH  54  68
ATOM     68  C   UNL A   1      44.333  35.687  33.854  1.00  0.00    -0.014 A 
ATOM     69  C   UNL A   1      43.912  35.841  32.518  1.00  0.00     0.010 A 
ATOM     70  C   UNL A   1      44.999  36.781  34.443  1.00  0.00     0.010 A 
ATOM     71  C   UNL A   1      44.152  37.008  31.795  1.00  0.00     0.020 A 
ATOM     72  C   UNL A   1      45.204  37.977  33.742  1.00  0.00     0.020 A 
ATOM     73  C   UNL A   1      44.784  38.078  32.417  1.00  0.00     0.054 A 
BRANCH  73  74
ATOM     74  S   UNL A   1      44.972  39.613  31.482  1.00  0.00     0.124 S 
ATOM     75  O   UNL A   1      43.707  39.678  30.755  1.00  0.00    -0.237 OA
ATOM     76  O   UNL A   1      45.143  40.604  32.541  1.00  0.00    -0.237 OA
ATOM     77  O   UNL A   1      46.155  39.370  30.659  1.00  0.00    -0.744 OA
ENDBRANCH  73  74
ENDBRANCH  54  68
BRANCH  55  78
ATOM     78  C   UNL A   1      36.390  32.810  32.287  1.00  0.00    -0.014 A 
ATOM     79  C   UNL A   1      36.811  32.555  30.966  1.00  0.00     0.010 A 
ATOM     80  C   UNL A   1      35.140  33.444  32.457  1.00  0.00     0.010 A 
ATOM     81  C   UNL A   1      36.064  32.976  29.862  1.00  0.00     0.020 A 
ATOM     82  C   UNL A   1      34.381  33.872  31.348  1.00  0.00     0.020 A 
ATOM     83  C   UNL A   1      34.871  33.668  30.057  1.00  0.00     0.054 A 
BRANCH  83  84
ATOM     84  S   UNL A   1      34.045  34.366  28.596  1.00  0.00     0.124 S 
ATOM     85  O   UNL A   1      34.693  33.641  27.506  1.00  0.00    -0.237 OA
ATOM     86  O   UNL A   1      32.645  34.020  28.829  1.00  0.00    -0.237 OA
ATOM     87  O   UNL A   1      34.352  35.792  28.669  1.00  0.00    -0.744 OA
ENDBRANCH  83  84
ENDBRANCH  55  78
BRANCH  67  88
ATOM     88  C   UNL A   1      39.125  33.878  37.975  1.00  0.00    -0.014 A 
ATOM     89  C   UNL A   1      38.515  32.632  37.732  1.00  0.00     0.010 A 
ATOM     90  C   UNL A   1      38.873  34.516  39.205  1.00  0.00     0.010 A 
ATOM     91  C   UNL A   1      37.612  32.080  38.642  1.00  0.00     0.020 A 
ATOM     92  C   UNL A   1      37.995  33.944  40.141  1.00  0.00     0.020 A 
ATOM     93  C   UNL A   1      37.333  32.756  39.830  1.00  0.00     0.054 A 
BRANCH  93  94
ATOM     94  S   UNL A   1      36.043  32.089  40.917  1.00  0.00     0.124 S 
ATOM     95  O   UNL A   1      36.736  30.991  41.591  1.00  0.00    -0.237 OA
ATOM     96  O   UNL A   1      35.710  33.233  41.761  1.00  0.00    -0.237 OA
ATOM     97  O   UNL A   1      34.990  31.657  40.000  1.00  0.00    -0.744 OA
ENDBRANCH  93  94
ENDBRANCH  67  88
ENDBRANCH  41  42
ENDBRANCH  34  36
ENDBRANCH  33  34
ENDBRANCH  32  33
ENDBRANCH  31  32
ENDBRANCH  30  31
ENDBRANCH  29  30
ENDBRANCH   1  29
TORSDOF 25
ENDMDL
