MODEL 1
REMARK VINA RESULT:     -11.3      0.000      0.000
REMARK SMILES Cc1cccc(O[C@H](C)C(=O)NNC(=O)[C@H]2[C@@H]3CC[C@@H](C3)[C@@H]2C(=O)OCCOCCOCCOCCOC(=O)c2ccc(-c3c4nc(c(-c5ccc(S(=O)(=O)[O-])cc5)c5ccc([nH]5)c(-c5ccc(S(=O)(=O)[O-])cc5)c5nc(c(-c6ccc(S(=O)(=O)[O-])cc6)c6ccc3[nH]6)C=C5)C=C4)cc2)c1
REMARK SMILES IDX 30 1 29 2 28 3 27 4 26 5 25 6 23 7 24 8 22 9 16 10 17 11
REMARK SMILES IDX 18 12 21 13 20 14 19 15 14 16 13 17 15 19 12 20 10 21 11 22
REMARK SMILES IDX 8 24 9 25 7 26 6 27 1 28 2 29 3 30 100 31 4 32 5 33 31 34
REMARK SMILES IDX 32 35 33 36 34 37 35 38 36 39 37 40 38 41 39 42 40 43 41 44
REMARK SMILES IDX 99 45 42 46 98 47 43 48 44 49 45 50 92 51 46 52 97 53 91 54
REMARK SMILES IDX 93 55 47 56 96 57 90 58 89 59 48 61 78 62 59 63 77 64 60 65
REMARK SMILES IDX 63 66 76 67 94 68 61 69 62 70 75 72 95 73 64 74 49 75 50 76
REMARK SMILES IDX 58 77 51 78 57 79 52 80 53 81 54 82 55 83 56 84 79 85 80 86
REMARK SMILES IDX 88 87 81 88 87 89 82 90 83 91 84 92 85 93 86 94 65 95 66 96
REMARK SMILES IDX 74 97 67 98 73 99 68 100 69 101 70 102 71 103 72 104
REMARK H PARENT 13 18 12 23 93 60 63 71
REMARK Flexibility Score: inf
ROOT
ATOM      1  C   UNL A   1      36.647  31.412  33.078  1.00  0.00     0.188 C 
ENDROOT
BRANCH   1   2
ATOM      2  C   UNL A   1      37.790  32.105  34.141  1.00  0.00     0.188 C 
BRANCH   2   3
ATOM      3  O   UNL A   1      39.040  31.510  35.220  1.00  0.00    -0.376 OA
BRANCH   3   4
ATOM      4  C   UNL A   1      40.318  30.286  35.148  1.00  0.00     0.202 C 
BRANCH   4   5
ATOM      5  C   UNL A   1      42.117  30.361  34.512  1.00  0.00     0.261 C 
BRANCH   5   6
ATOM      6  O   UNL A   1      43.399  29.129  34.690  1.00  0.00    -0.463 OA
BRANCH   6   7
ATOM      7  C   UNL A   1      43.850  28.036  35.488  1.00  0.00     0.310 C 
ATOM      8  O   UNL A   1      44.981  27.552  35.554  1.00  0.00    -0.252 OA
BRANCH   7   9
ATOM      9  C   UNL A   1      42.971  27.443  36.643  1.00  0.00     0.115 C 
ATOM     10  C   UNL A   1      43.576  26.104  37.246  1.00  0.00     0.098 C 
ATOM     11  C   UNL A   1      42.396  25.102  37.150  1.00  0.00     0.003 C 
ATOM     12  C   UNL A   1      42.199  24.703  35.674  1.00  0.00     0.005 C 
ATOM     13  C   UNL A   1      41.181  25.997  37.371  1.00  0.00     0.009 C 
ATOM     14  C   UNL A   1      41.549  26.956  36.226  1.00  0.00     0.004 C 
ATOM     15  C   UNL A   1      41.543  25.951  35.070  1.00  0.00     0.005 C 
BRANCH  10  16
ATOM     16  C   UNL A   1      44.271  25.990  38.621  1.00  0.00     0.242 C 
ATOM     17  N   UNL A   1      44.759  24.855  39.204  1.00  0.00    -0.267 N 
ATOM     18  H   UNL A   1      45.134  24.961  40.108  1.00  0.00     0.191 HD
ATOM     19  O   UNL A   1      44.487  27.038  39.256  1.00  0.00    -0.273 OA
BRANCH  17  20
ATOM     20  N   UNL A   1      44.792  23.587  38.686  1.00  0.00    -0.264 N 
ATOM     21  C   UNL A   1      45.884  22.845  38.354  1.00  0.00     0.279 C 
ATOM     22  O   UNL A   1      45.655  21.639  38.155  1.00  0.00    -0.269 OA
ATOM     23  H   UNL A   1      43.919  23.160  38.535  1.00  0.00     0.191 HD
BRANCH  21  24
ATOM     24  C   UNL A   1      47.317  23.391  38.081  1.00  0.00     0.260 C 
ATOM     25  C   UNL A   1      48.285  22.900  39.168  1.00  0.00     0.064 C 
BRANCH  24  26
ATOM     26  O   UNL A   1      47.918  23.669  36.835  1.00  0.00    -0.481 OA
BRANCH  26  27
ATOM     27  C   UNL A   1      48.694  22.829  36.109  1.00  0.00     0.120 A 
ATOM     28  C   UNL A   1      50.684  23.363  32.889  1.00  0.00     0.044 C 
ATOM     29  C   UNL A   1      50.062  22.708  34.084  1.00  0.00    -0.047 A 
ATOM     30  C   UNL A   1      50.126  21.322  34.230  1.00  0.00     0.003 A 
ATOM     31  C   UNL A   1      49.357  23.448  35.040  1.00  0.00     0.049 A 
ATOM     32  C   UNL A   1      49.532  20.706  35.331  1.00  0.00     0.004 A 
ATOM     33  C   UNL A   1      48.830  21.457  36.276  1.00  0.00     0.046 A 
ENDBRANCH  26  27
ENDBRANCH  24  26
ENDBRANCH  21  24
ENDBRANCH  17  20
ENDBRANCH  10  16
ENDBRANCH   7   9
ENDBRANCH   6   7
ENDBRANCH   5   6
ENDBRANCH   4   5
ENDBRANCH   3   4
ENDBRANCH   2   3
ENDBRANCH   1   2
BRANCH   1  34
ATOM     34  O   UNL A   1      35.517  31.911  32.317  1.00  0.00    -0.377 OA
BRANCH  34  35
ATOM     35  C   UNL A   1      34.707  33.072  32.535  1.00  0.00     0.188 C 
BRANCH  35  36
ATOM     36  C   UNL A   1      34.588  34.054  31.406  1.00  0.00     0.188 C 
BRANCH  36  37
ATOM     37  O   UNL A   1      35.830  34.041  30.730  1.00  0.00    -0.376 OA
BRANCH  37  38
ATOM     38  C   UNL A   1      35.729  33.897  29.334  1.00  0.00     0.202 C 
BRANCH  38  39
ATOM     39  C   UNL A   1      36.850  33.024  28.789  1.00  0.00     0.261 C 
BRANCH  39  40
ATOM     40  O   UNL A   1      36.695  31.684  29.305  1.00  0.00    -0.460 OA
BRANCH  40  41
ATOM     41  C   UNL A   1      36.432  30.733  28.352  1.00  0.00     0.338 C 
ATOM     42  O   UNL A   1      35.440  30.739  27.658  1.00  0.00    -0.246 OA
BRANCH  41  43
ATOM     43  C   UNL A   1      37.520  29.710  28.343  1.00  0.00     0.060 A 
ATOM     44  C   UNL A   1      37.824  28.916  29.430  1.00  0.00     0.016 A 
ATOM     45  C   UNL A   1      38.356  29.574  27.270  1.00  0.00     0.016 A 
ATOM     46  C   UNL A   1      39.137  28.356  29.582  1.00  0.00     0.010 A 
ATOM     47  C   UNL A   1      39.592  28.902  27.434  1.00  0.00     0.010 A 
ATOM     48  C   UNL A   1      40.213  28.605  28.706  1.00  0.00    -0.014 A 
BRANCH  48  49
ATOM     49  C   UNL A   1      41.978  28.753  29.243  1.00  0.00     0.031 A 
ATOM     50  C   UNL A   1      43.202  30.299  29.205  1.00  0.00     0.074 A 
ATOM     51  C   UNL A   1      42.398  27.460  29.470  1.00  0.00     0.049 A 
ATOM     52  N   UNL A   1      44.067  30.498  28.162  1.00  0.00    -0.248 NA
ATOM     53  C   UNL A   1      43.193  31.803  29.680  1.00  0.00     0.031 C 
ATOM     54  C   UNL A   1      43.459  26.982  30.301  1.00  0.00     0.029 A 
ATOM     55  N   UNL A   1      42.128  26.300  28.730  1.00  0.00    -0.354 N 
ATOM     56  C   UNL A   1      44.625  31.721  27.897  1.00  0.00     0.074 A 
ATOM     57  C   UNL A   1      43.896  32.550  28.790  1.00  0.00     0.031 C 
ATOM     58  C   UNL A   1      44.082  25.929  29.743  1.00  0.00     0.029 A 
ATOM     59  C   UNL A   1      43.324  25.599  28.570  1.00  0.00     0.049 A 
ATOM     60  H   UNL A   1      41.248  26.028  28.383  1.00  0.00     0.167 HD
ATOM     61  C   UNL A   1      45.666  31.950  27.015  1.00  0.00     0.031 A 
ATOM     62  C   UNL A   1      43.653  24.625  27.706  1.00  0.00     0.031 A 
ATOM     63  C   UNL A   1      46.495  30.771  26.662  1.00  0.00     0.049 A 
ATOM     64  C   UNL A   1      44.808  25.048  26.830  1.00  0.00     0.074 A 
ATOM     65  C   UNL A   1      47.697  30.352  27.222  1.00  0.00     0.029 A 
ATOM     66  N   UNL A   1      46.135  29.741  25.795  1.00  0.00    -0.354 N 
ATOM     67  N   UNL A   1      45.300  26.261  26.721  1.00  0.00    -0.248 NA
ATOM     68  C   UNL A   1      45.522  24.077  26.008  1.00  0.00     0.031 C 
ATOM     69  C   UNL A   1      47.877  28.980  26.950  1.00  0.00     0.029 A 
ATOM     70  C   UNL A   1      46.905  28.598  26.044  1.00  0.00     0.049 A 
ATOM     71  H   UNL A   1      45.438  29.809  25.104  1.00  0.00     0.167 HD
ATOM     72  C   UNL A   1      46.275  26.267  25.733  1.00  0.00     0.074 A 
ATOM     73  C   UNL A   1      46.423  24.859  25.394  1.00  0.00     0.031 C 
ATOM     74  C   UNL A   1      46.891  27.387  25.222  1.00  0.00     0.031 A 
BRANCH  61  75
ATOM     75  C   UNL A   1      46.218  33.369  26.842  1.00  0.00    -0.014 A 
ATOM     76  C   UNL A   1      45.876  34.153  25.718  1.00  0.00     0.010 A 
ATOM     77  C   UNL A   1      47.118  33.954  27.754  1.00  0.00     0.010 A 
ATOM     78  C   UNL A   1      46.516  35.367  25.423  1.00  0.00     0.020 A 
ATOM     79  C   UNL A   1      47.775  35.171  27.466  1.00  0.00     0.020 A 
ATOM     80  C   UNL A   1      47.499  35.847  26.277  1.00  0.00     0.054 A 
BRANCH  80  81
ATOM     81  S   UNL A   1      48.445  37.313  25.770  1.00  0.00     0.124 S 
ATOM     82  O   UNL A   1      49.169  36.831  24.595  1.00  0.00    -0.237 OA
ATOM     83  O   UNL A   1      47.400  38.296  25.498  1.00  0.00    -0.237 OA
ATOM     84  O   UNL A   1      49.285  37.605  26.929  1.00  0.00    -0.744 OA
ENDBRANCH  80  81
ENDBRANCH  61  75
BRANCH  62  85
ATOM     85  C   UNL A   1      42.500  23.711  27.474  1.00  0.00    -0.014 A 
ATOM     86  C   UNL A   1      42.328  23.395  26.100  1.00  0.00     0.010 A 
ATOM     87  C   UNL A   1      42.130  22.752  28.434  1.00  0.00     0.010 A 
ATOM     88  C   UNL A   1      42.064  22.085  25.696  1.00  0.00     0.020 A 
ATOM     89  C   UNL A   1      41.837  21.437  28.026  1.00  0.00     0.020 A 
ATOM     90  C   UNL A   1      41.891  21.102  26.666  1.00  0.00     0.054 A 
BRANCH  90  91
ATOM     91  S   UNL A   1      42.022  19.369  26.126  1.00  0.00     0.124 S 
ATOM     92  O   UNL A   1      42.497  18.693  27.327  1.00  0.00    -0.237 OA
ATOM     93  O   UNL A   1      40.636  19.085  25.746  1.00  0.00    -0.237 OA
ATOM     94  O   UNL A   1      42.969  19.432  25.019  1.00  0.00    -0.744 OA
ENDBRANCH  90  91
ENDBRANCH  62  85
BRANCH  74  95
ATOM     95  C   UNL A   1      47.770  27.454  23.967  1.00  0.00    -0.014 A 
ATOM     96  C   UNL A   1      47.374  27.926  22.708  1.00  0.00     0.010 A 
ATOM     97  C   UNL A   1      49.140  27.087  24.080  1.00  0.00     0.010 A 
ATOM     98  C   UNL A   1      48.268  27.978  21.624  1.00  0.00     0.020 A 
ATOM     99  C   UNL A   1      50.050  27.170  23.024  1.00  0.00     0.020 A 
ATOM    100  C   UNL A   1      49.600  27.603  21.790  1.00  0.00     0.054 A 
BRANCH 100 101
ATOM    101  S   UNL A   1      50.753  27.767  20.408  1.00  0.00     0.124 S 
ATOM    102  O   UNL A   1      51.058  29.195  20.436  1.00  0.00    -0.237 OA
ATOM    103  O   UNL A   1      51.849  26.884  20.803  1.00  0.00    -0.237 OA
ATOM    104  O   UNL A   1      49.982  27.312  19.253  1.00  0.00    -0.744 OA
ENDBRANCH 100 101
ENDBRANCH  74  95
ENDBRANCH  48  49
ENDBRANCH  41  43
ENDBRANCH  40  41
ENDBRANCH  39  40
ENDBRANCH  38  39
ENDBRANCH  37  38
ENDBRANCH  36  37
ENDBRANCH  35  36
ENDBRANCH  34  35
ENDBRANCH   1  34
TORSDOF 28
ENDMDL
MODEL 2
REMARK VINA RESULT:     -11.0      4.222      6.328
REMARK SMILES Cc1cccc(O[C@H](C)C(=O)NNC(=O)[C@H]2[C@@H]3CC[C@@H](C3)[C@@H]2C(=O)OCCOCCOCCOCCOC(=O)c2ccc(-c3c4nc(c(-c5ccc(S(=O)(=O)[O-])cc5)c5ccc([nH]5)c(-c5ccc(S(=O)(=O)[O-])cc5)c5nc(c(-c6ccc(S(=O)(=O)[O-])cc6)c6ccc3[nH]6)C=C5)C=C4)cc2)c1
REMARK SMILES IDX 30 1 29 2 28 3 27 4 26 5 25 6 23 7 24 8 22 9 16 10 17 11
REMARK SMILES IDX 18 12 21 13 20 14 19 15 14 16 13 17 15 19 12 20 10 21 11 22
REMARK SMILES IDX 8 24 9 25 7 26 6 27 1 28 2 29 3 30 100 31 4 32 5 33 31 34
REMARK SMILES IDX 32 35 33 36 34 37 35 38 36 39 37 40 38 41 39 42 40 43 41 44
REMARK SMILES IDX 99 45 42 46 98 47 43 48 44 49 45 50 92 51 46 52 97 53 91 54
REMARK SMILES IDX 93 55 47 56 96 57 90 58 89 59 48 61 78 62 59 63 77 64 60 65
REMARK SMILES IDX 63 66 76 67 94 68 61 69 62 70 75 72 95 73 64 74 49 75 50 76
REMARK SMILES IDX 58 77 51 78 57 79 52 80 53 81 54 82 55 83 56 84 79 85 80 86
REMARK SMILES IDX 88 87 81 88 87 89 82 90 83 91 84 92 85 93 86 94 65 95 66 96
REMARK SMILES IDX 74 97 67 98 73 99 68 100 69 101 70 102 71 103 72 104
REMARK H PARENT 13 18 12 23 93 60 63 71
REMARK Flexibility Score: inf
ROOT
ATOM      1  C   UNL A   1      36.687  32.052  33.230  1.00  0.00     0.188 C 
ENDROOT
BRANCH   1   2
ATOM      2  C   UNL A   1      37.522  33.214  34.163  1.00  0.00     0.188 C 
BRANCH   2   3
ATOM      3  O   UNL A   1      37.339  33.929  35.755  1.00  0.00    -0.376 OA
BRANCH   3   4
ATOM      4  C   UNL A   1      36.684  33.420  37.320  1.00  0.00     0.202 C 
BRANCH   4   5
ATOM      5  C   UNL A   1      37.460  32.447  38.768  1.00  0.00     0.261 C 
BRANCH   5   6
ATOM      6  O   UNL A   1      39.175  32.392  39.263  1.00  0.00    -0.463 OA
BRANCH   6   7
ATOM      7  C   UNL A   1      40.380  33.153  39.345  1.00  0.00     0.310 C 
ATOM      8  O   UNL A   1      41.370  32.944  40.049  1.00  0.00    -0.252 OA
BRANCH   7   9
ATOM      9  C   UNL A   1      40.720  34.271  38.301  1.00  0.00     0.115 C 
ATOM     10  C   UNL A   1      42.184  34.857  38.488  1.00  0.00     0.098 C 
ATOM     11  C   UNL A   1      41.949  36.387  38.593  1.00  0.00     0.003 C 
ATOM     12  C   UNL A   1      41.324  36.702  39.966  1.00  0.00     0.005 C 
ATOM     13  C   UNL A   1      40.750  36.602  37.675  1.00  0.00     0.009 C 
ATOM     14  C   UNL A   1      39.871  35.575  38.408  1.00  0.00     0.004 C 
ATOM     15  C   UNL A   1      39.878  36.217  39.800  1.00  0.00     0.005 C 
BRANCH  10  16
ATOM     16  C   UNL A   1      43.380  34.558  37.557  1.00  0.00     0.242 C 
ATOM     17  N   UNL A   1      43.401  33.701  36.493  1.00  0.00    -0.267 N 
ATOM     18  H   UNL A   1      44.266  33.601  36.035  1.00  0.00     0.191 HD
ATOM     19  O   UNL A   1      44.429  35.205  37.726  1.00  0.00    -0.273 OA
BRANCH  17  20
ATOM     20  N   UNL A   1      42.364  32.964  35.982  1.00  0.00    -0.264 N 
ATOM     21  C   UNL A   1      41.856  32.993  34.720  1.00  0.00     0.279 C 
ATOM     22  O   UNL A   1      41.098  32.048  34.440  1.00  0.00    -0.269 OA
ATOM     23  H   UNL A   1      41.933  32.337  36.606  1.00  0.00     0.191 HD
BRANCH  21  24
ATOM     24  C   UNL A   1      42.034  34.143  33.684  1.00  0.00     0.260 C 
ATOM     25  C   UNL A   1      41.651  35.489  34.319  1.00  0.00     0.064 C 
BRANCH  24  26
ATOM     26  O   UNL A   1      42.973  34.229  32.635  1.00  0.00    -0.481 OA
BRANCH  26  27
ATOM     27  C   UNL A   1      42.838  34.938  31.488  1.00  0.00     0.120 A 
ATOM     28  C   UNL A   1      40.133  34.895  28.787  1.00  0.00     0.044 C 
ATOM     29  C   UNL A   1      41.387  35.222  29.538  1.00  0.00    -0.047 A 
ATOM     30  C   UNL A   1      42.375  36.002  28.938  1.00  0.00     0.003 A 
ATOM     31  C   UNL A   1      41.627  34.712  30.820  1.00  0.00     0.049 A 
ATOM     32  C   UNL A   1      43.552  36.294  29.626  1.00  0.00     0.004 A 
ATOM     33  C   UNL A   1      43.778  35.775  30.903  1.00  0.00     0.046 A 
ENDBRANCH  26  27
ENDBRANCH  24  26
ENDBRANCH  21  24
ENDBRANCH  17  20
ENDBRANCH  10  16
ENDBRANCH   7   9
ENDBRANCH   6   7
ENDBRANCH   5   6
ENDBRANCH   4   5
ENDBRANCH   3   4
ENDBRANCH   2   3
ENDBRANCH   1   2
BRANCH   1  34
ATOM     34  O   UNL A   1      35.547  32.080  32.334  1.00  0.00    -0.377 OA
BRANCH  34  35
ATOM     35  C   UNL A   1      34.518  33.066  32.192  1.00  0.00     0.188 C 
BRANCH  35  36
ATOM     36  C   UNL A   1      34.475  33.843  30.909  1.00  0.00     0.188 C 
BRANCH  36  37
ATOM     37  O   UNL A   1      35.818  34.025  30.505  1.00  0.00    -0.376 OA
BRANCH  37  38
ATOM     38  C   UNL A   1      36.024  33.930  29.117  1.00  0.00     0.202 C 
BRANCH  38  39
ATOM     39  C   UNL A   1      37.052  32.858  28.786  1.00  0.00     0.261 C 
BRANCH  39  40
ATOM     40  O   UNL A   1      36.591  31.590  29.304  1.00  0.00    -0.460 OA
BRANCH  40  41
ATOM     41  C   UNL A   1      36.333  30.642  28.348  1.00  0.00     0.338 C 
ATOM     42  O   UNL A   1      35.325  30.628  27.677  1.00  0.00    -0.246 OA
BRANCH  41  43
ATOM     43  C   UNL A   1      37.448  29.650  28.303  1.00  0.00     0.060 A 
ATOM     44  C   UNL A   1      37.785  28.840  29.368  1.00  0.00     0.016 A 
ATOM     45  C   UNL A   1      38.274  29.560  27.218  1.00  0.00     0.016 A 
ATOM     46  C   UNL A   1      39.114  28.312  29.492  1.00  0.00     0.010 A 
ATOM     47  C   UNL A   1      39.529  28.918  27.353  1.00  0.00     0.010 A 
ATOM     48  C   UNL A   1      40.173  28.610  28.611  1.00  0.00    -0.014 A 
BRANCH  48  49
ATOM     49  C   UNL A   1      41.940  28.793  29.131  1.00  0.00     0.031 A 
ATOM     50  C   UNL A   1      43.145  30.352  29.043  1.00  0.00     0.074 A 
ATOM     51  C   UNL A   1      42.376  27.512  29.390  1.00  0.00     0.049 A 
ATOM     52  N   UNL A   1      44.000  30.533  27.989  1.00  0.00    -0.248 NA
ATOM     53  C   UNL A   1      43.121  31.868  29.477  1.00  0.00     0.031 C 
ATOM     54  C   UNL A   1      43.448  27.069  30.226  1.00  0.00     0.029 A 
ATOM     55  N   UNL A   1      42.116  26.329  28.683  1.00  0.00    -0.354 N 
ATOM     56  C   UNL A   1      44.542  31.754  27.686  1.00  0.00     0.074 A 
ATOM     57  C   UNL A   1      43.809  32.598  28.561  1.00  0.00     0.031 C 
ATOM     58  C   UNL A   1      44.081  26.009  29.693  1.00  0.00     0.029 A 
ATOM     59  C   UNL A   1      43.319  25.638  28.534  1.00  0.00     0.049 A 
ATOM     60  H   UNL A   1      41.237  26.037  28.350  1.00  0.00     0.167 HD
ATOM     61  C   UNL A   1      45.574  31.972  26.791  1.00  0.00     0.031 A 
ATOM     62  C   UNL A   1      43.654  24.645  27.695  1.00  0.00     0.031 A 
ATOM     63  C   UNL A   1      46.414  30.793  26.464  1.00  0.00     0.049 A 
ATOM     64  C   UNL A   1      44.797  25.058  26.799  1.00  0.00     0.074 A 
ATOM     65  C   UNL A   1      47.625  30.404  27.027  1.00  0.00     0.029 A 
ATOM     66  N   UNL A   1      46.061  29.736  25.629  1.00  0.00    -0.354 N 
ATOM     67  N   UNL A   1      45.275  26.273  26.654  1.00  0.00    -0.248 NA
ATOM     68  C   UNL A   1      45.517  24.073  25.999  1.00  0.00     0.031 C 
ATOM     69  C   UNL A   1      47.820  29.027  26.791  1.00  0.00     0.029 A 
ATOM     70  C   UNL A   1      46.846  28.609  25.903  1.00  0.00     0.049 A 
ATOM     71  H   UNL A   1      45.358  29.777  24.941  1.00  0.00     0.167 HD
ATOM     72  C   UNL A   1      46.243  26.264  25.660  1.00  0.00     0.074 A 
ATOM     73  C   UNL A   1      46.405  24.849  25.357  1.00  0.00     0.031 C 
ATOM     74  C   UNL A   1      46.842  27.377  25.114  1.00  0.00     0.031 A 
BRANCH  61  75
ATOM     75  C   UNL A   1      46.107  33.392  26.575  1.00  0.00    -0.014 A 
ATOM     76  C   UNL A   1      47.494  33.650  26.518  1.00  0.00     0.010 A 
ATOM     77  C   UNL A   1      45.263  34.515  26.467  1.00  0.00     0.010 A 
ATOM     78  C   UNL A   1      48.019  34.952  26.528  1.00  0.00     0.020 A 
ATOM     79  C   UNL A   1      45.778  35.831  26.483  1.00  0.00     0.020 A 
ATOM     80  C   UNL A   1      47.155  36.038  26.559  1.00  0.00     0.054 A 
BRANCH  80  81
ATOM     81  S   UNL A   1      47.861  37.699  26.770  1.00  0.00     0.124 S 
ATOM     82  O   UNL A   1      48.941  37.464  27.726  1.00  0.00    -0.237 OA
ATOM     83  O   UNL A   1      48.290  38.043  25.417  1.00  0.00    -0.237 OA
ATOM     84  O   UNL A   1      46.746  38.489  27.287  1.00  0.00    -0.744 OA
ENDBRANCH  80  81
ENDBRANCH  61  75
BRANCH  62  85
ATOM     85  C   UNL A   1      42.510  23.711  27.496  1.00  0.00    -0.014 A 
ATOM     86  C   UNL A   1      42.274  23.430  26.124  1.00  0.00     0.010 A 
ATOM     87  C   UNL A   1      42.212  22.717  28.445  1.00  0.00     0.010 A 
ATOM     88  C   UNL A   1      42.018  22.126  25.696  1.00  0.00     0.020 A 
ATOM     89  C   UNL A   1      41.926  21.407  28.014  1.00  0.00     0.020 A 
ATOM     90  C   UNL A   1      41.916  21.113  26.644  1.00  0.00     0.054 A 
BRANCH  90  91
ATOM     91  S   UNL A   1      42.056  19.399  26.048  1.00  0.00     0.124 S 
ATOM     92  O   UNL A   1      40.684  19.073  25.678  1.00  0.00    -0.237 OA
ATOM     93  O   UNL A   1      42.992  19.562  24.933  1.00  0.00    -0.237 OA
ATOM     94  O   UNL A   1      42.587  18.684  27.203  1.00  0.00    -0.744 OA
ENDBRANCH  90  91
ENDBRANCH  62  85
BRANCH  74  95
ATOM     95  C   UNL A   1      47.711  27.420  23.851  1.00  0.00    -0.014 A 
ATOM     96  C   UNL A   1      47.410  28.106  22.666  1.00  0.00     0.010 A 
ATOM     97  C   UNL A   1      48.983  26.783  23.884  1.00  0.00     0.010 A 
ATOM     98  C   UNL A   1      48.292  28.111  21.572  1.00  0.00     0.020 A 
ATOM     99  C   UNL A   1      49.887  26.812  22.820  1.00  0.00     0.020 A 
ATOM    100  C   UNL A   1      49.526  27.467  21.656  1.00  0.00     0.054 A 
BRANCH 100 101
ATOM    101  S   UNL A   1      50.682  27.567  20.272  1.00  0.00     0.124 S 
ATOM    102  O   UNL A   1      50.827  29.010  20.102  1.00  0.00    -0.237 OA
ATOM    103  O   UNL A   1      51.861  26.875  20.793  1.00  0.00    -0.237 OA
ATOM    104  O   UNL A   1      49.991  26.872  19.188  1.00  0.00    -0.744 OA
ENDBRANCH 100 101
ENDBRANCH  74  95
ENDBRANCH  48  49
ENDBRANCH  41  43
ENDBRANCH  40  41
ENDBRANCH  39  40
ENDBRANCH  38  39
ENDBRANCH  37  38
ENDBRANCH  36  37
ENDBRANCH  35  36
ENDBRANCH  34  35
ENDBRANCH   1  34
TORSDOF 28
ENDMDL
MODEL 3
REMARK VINA RESULT:     -10.9      2.534      4.139
REMARK SMILES Cc1cccc(O[C@H](C)C(=O)NNC(=O)[C@H]2[C@@H]3CC[C@@H](C3)[C@@H]2C(=O)OCCOCCOCCOCCOC(=O)c2ccc(-c3c4nc(c(-c5ccc(S(=O)(=O)[O-])cc5)c5ccc([nH]5)c(-c5ccc(S(=O)(=O)[O-])cc5)c5nc(c(-c6ccc(S(=O)(=O)[O-])cc6)c6ccc3[nH]6)C=C5)C=C4)cc2)c1
REMARK SMILES IDX 30 1 29 2 28 3 27 4 26 5 25 6 23 7 24 8 22 9 16 10 17 11
REMARK SMILES IDX 18 12 21 13 20 14 19 15 14 16 13 17 15 19 12 20 10 21 11 22
REMARK SMILES IDX 8 24 9 25 7 26 6 27 1 28 2 29 3 30 100 31 4 32 5 33 31 34
REMARK SMILES IDX 32 35 33 36 34 37 35 38 36 39 37 40 38 41 39 42 40 43 41 44
REMARK SMILES IDX 99 45 42 46 98 47 43 48 44 49 45 50 92 51 46 52 97 53 91 54
REMARK SMILES IDX 93 55 47 56 96 57 90 58 89 59 48 61 78 62 59 63 77 64 60 65
REMARK SMILES IDX 63 66 76 67 94 68 61 69 62 70 75 72 95 73 64 74 49 75 50 76
REMARK SMILES IDX 58 77 51 78 57 79 52 80 53 81 54 82 55 83 56 84 79 85 80 86
REMARK SMILES IDX 88 87 81 88 87 89 82 90 83 91 84 92 85 93 86 94 65 95 66 96
REMARK SMILES IDX 74 97 67 98 73 99 68 100 69 101 70 102 71 103 72 104
REMARK H PARENT 13 18 12 23 93 60 63 71
REMARK Flexibility Score: inf
ROOT
ATOM      1  C   UNL A   1      36.639  32.083  33.258  1.00  0.00     0.188 C 
ENDROOT
BRANCH   1   2
ATOM      2  C   UNL A   1      37.620  33.238  34.046  1.00  0.00     0.188 C 
BRANCH   2   3
ATOM      3  O   UNL A   1      37.724  33.920  35.661  1.00  0.00    -0.376 OA
BRANCH   3   4
ATOM      4  C   UNL A   1      37.109  33.504  37.268  1.00  0.00     0.202 C 
BRANCH   4   5
ATOM      5  C   UNL A   1      37.962  32.749  38.800  1.00  0.00     0.261 C 
BRANCH   5   6
ATOM      6  O   UNL A   1      39.713  32.573  39.110  1.00  0.00    -0.463 OA
BRANCH   6   7
ATOM      7  C   UNL A   1      41.009  33.012  38.705  1.00  0.00     0.310 C 
ATOM      8  O   UNL A   1      42.070  32.941  39.327  1.00  0.00    -0.252 OA
BRANCH   7   9
ATOM      9  C   UNL A   1      41.310  33.431  37.225  1.00  0.00     0.115 C 
ATOM     10  C   UNL A   1      42.863  33.432  36.893  1.00  0.00     0.098 C 
ATOM     11  C   UNL A   1      43.107  34.851  36.317  1.00  0.00     0.003 C 
ATOM     12  C   UNL A   1      43.048  35.874  37.469  1.00  0.00     0.005 C 
ATOM     13  C   UNL A   1      41.795  35.149  35.599  1.00  0.00     0.009 C 
ATOM     14  C   UNL A   1      40.934  34.897  36.848  1.00  0.00     0.004 C 
ATOM     15  C   UNL A   1      41.546  35.959  37.769  1.00  0.00     0.005 C 
BRANCH  10  16
ATOM     16  C   UNL A   1      43.583  32.369  36.033  1.00  0.00     0.242 C 
ATOM     17  N   UNL A   1      43.076  31.173  35.608  1.00  0.00    -0.267 N 
ATOM     18  H   UNL A   1      43.694  30.598  35.102  1.00  0.00     0.191 HD
ATOM     19  O   UNL A   1      44.721  32.634  35.608  1.00  0.00    -0.273 OA
BRANCH  17  20
ATOM     20  N   UNL A   1      41.813  30.676  35.799  1.00  0.00    -0.264 N 
ATOM     21  C   UNL A   1      41.356  29.423  35.530  1.00  0.00     0.279 C 
ATOM     22  O   UNL A   1      40.253  29.150  36.034  1.00  0.00    -0.269 OA
ATOM     23  H   UNL A   1      41.156  31.303  36.177  1.00  0.00     0.191 HD
BRANCH  21  24
ATOM     24  C   UNL A   1      42.014  28.392  34.565  1.00  0.00     0.260 C 
ATOM     25  C   UNL A   1      41.139  28.203  33.317  1.00  0.00     0.064 C 
BRANCH  24  26
ATOM     26  O   UNL A   1      43.390  28.144  34.367  1.00  0.00    -0.481 OA
BRANCH  26  27
ATOM     27  C   UNL A   1      43.970  26.936  34.169  1.00  0.00     0.120 A 
ATOM     28  C   UNL A   1      47.029  25.900  32.123  1.00  0.00     0.044 C 
ATOM     29  C   UNL A   1      45.808  25.833  32.989  1.00  0.00    -0.047 A 
ATOM     30  C   UNL A   1      45.253  24.595  33.316  1.00  0.00     0.003 A 
ATOM     31  C   UNL A   1      45.165  26.992  33.438  1.00  0.00     0.049 A 
ATOM     32  C   UNL A   1      44.107  24.529  34.106  1.00  0.00     0.004 A 
ATOM     33  C   UNL A   1      43.473  25.695  34.543  1.00  0.00     0.046 A 
ENDBRANCH  26  27
ENDBRANCH  24  26
ENDBRANCH  21  24
ENDBRANCH  17  20
ENDBRANCH  10  16
ENDBRANCH   7   9
ENDBRANCH   6   7
ENDBRANCH   5   6
ENDBRANCH   4   5
ENDBRANCH   3   4
ENDBRANCH   2   3
ENDBRANCH   1   2
BRANCH   1  34
ATOM     34  O   UNL A   1      35.419  32.133  32.475  1.00  0.00    -0.377 OA
BRANCH  34  35
ATOM     35  C   UNL A   1      34.456  33.185  32.347  1.00  0.00     0.188 C 
BRANCH  35  36
ATOM     36  C   UNL A   1      34.411  33.928  31.044  1.00  0.00     0.188 C 
BRANCH  36  37
ATOM     37  O   UNL A   1      35.753  34.102  30.635  1.00  0.00    -0.376 OA
BRANCH  37  38
ATOM     38  C   UNL A   1      35.963  33.948  29.253  1.00  0.00     0.202 C 
BRANCH  38  39
ATOM     39  C   UNL A   1      37.029  32.899  28.973  1.00  0.00     0.261 C 
BRANCH  39  40
ATOM     40  O   UNL A   1      36.602  31.636  29.528  1.00  0.00    -0.460 OA
BRANCH  40  41
ATOM     41  C   UNL A   1      36.301  30.675  28.597  1.00  0.00     0.338 C 
ATOM     42  O   UNL A   1      35.267  30.657  27.967  1.00  0.00    -0.246 OA
BRANCH  41  43
ATOM     43  C   UNL A   1      37.408  29.676  28.523  1.00  0.00     0.060 A 
ATOM     44  C   UNL A   1      37.740  28.833  29.564  1.00  0.00     0.016 A 
ATOM     45  C   UNL A   1      38.234  29.612  27.435  1.00  0.00     0.016 A 
ATOM     46  C   UNL A   1      39.065  28.292  29.672  1.00  0.00     0.010 A 
ATOM     47  C   UNL A   1      39.484  28.956  27.551  1.00  0.00     0.010 A 
ATOM     48  C   UNL A   1      40.126  28.606  28.799  1.00  0.00    -0.014 A 
BRANCH  48  49
ATOM     49  C   UNL A   1      41.894  28.761  29.323  1.00  0.00     0.031 A 
ATOM     50  C   UNL A   1      43.109  30.314  29.286  1.00  0.00     0.074 A 
ATOM     51  C   UNL A   1      42.322  27.469  29.540  1.00  0.00     0.049 A 
ATOM     52  N   UNL A   1      43.965  30.524  28.238  1.00  0.00    -0.248 NA
ATOM     53  C   UNL A   1      43.095  31.815  29.769  1.00  0.00     0.031 C 
ATOM     54  C   UNL A   1      43.392  26.993  30.360  1.00  0.00     0.029 A 
ATOM     55  N   UNL A   1      42.053  26.312  28.794  1.00  0.00    -0.354 N 
ATOM     56  C   UNL A   1      44.514  31.752  27.975  1.00  0.00     0.074 A 
ATOM     57  C   UNL A   1      43.787  32.571  28.878  1.00  0.00     0.031 C 
ATOM     58  C   UNL A   1      44.017  25.947  29.791  1.00  0.00     0.029 A 
ATOM     59  C   UNL A   1      43.252  25.619  28.622  1.00  0.00     0.049 A 
ATOM     60  H   UNL A   1      41.172  26.037  28.453  1.00  0.00     0.167 HD
ATOM     61  C   UNL A   1      45.547  31.992  27.086  1.00  0.00     0.031 A 
ATOM     62  C   UNL A   1      43.580  24.652  27.750  1.00  0.00     0.031 A 
ATOM     63  C   UNL A   1      46.379  30.819  26.720  1.00  0.00     0.049 A 
ATOM     64  C   UNL A   1      44.725  25.086  26.867  1.00  0.00     0.074 A 
ATOM     65  C   UNL A   1      47.588  30.404  27.269  1.00  0.00     0.029 A 
ATOM     66  N   UNL A   1      46.019  29.793  25.851  1.00  0.00    -0.354 N 
ATOM     67  N   UNL A   1      45.211  26.303  26.761  1.00  0.00    -0.248 NA
ATOM     68  C   UNL A   1      45.439  24.124  26.035  1.00  0.00     0.031 C 
ATOM     69  C   UNL A   1      47.774  29.034  26.988  1.00  0.00     0.029 A 
ATOM     70  C   UNL A   1      46.797  28.653  26.087  1.00  0.00     0.049 A 
ATOM     71  H   UNL A   1      45.316  29.860  25.165  1.00  0.00     0.167 HD
ATOM     72  C   UNL A   1      46.178  26.320  25.767  1.00  0.00     0.074 A 
ATOM     73  C   UNL A   1      46.331  24.915  25.418  1.00  0.00     0.031 C 
ATOM     74  C   UNL A   1      46.784  27.446  25.258  1.00  0.00     0.031 A 
BRANCH  61  75
ATOM     75  C   UNL A   1      46.089  33.415  26.917  1.00  0.00    -0.014 A 
ATOM     76  C   UNL A   1      46.748  33.810  25.732  1.00  0.00     0.010 A 
ATOM     77  C   UNL A   1      46.005  34.388  27.933  1.00  0.00     0.010 A 
ATOM     78  C   UNL A   1      47.432  35.029  25.621  1.00  0.00     0.020 A 
ATOM     79  C   UNL A   1      46.695  35.617  27.837  1.00  0.00     0.020 A 
ATOM     80  C   UNL A   1      47.442  35.909  26.695  1.00  0.00     0.054 A 
BRANCH  80  81
ATOM     81  S   UNL A   1      48.496  37.386  26.594  1.00  0.00     0.124 S 
ATOM     82  O   UNL A   1      49.413  37.197  27.717  1.00  0.00    -0.237 OA
ATOM     83  O   UNL A   1      49.099  37.264  25.270  1.00  0.00    -0.237 OA
ATOM     84  O   UNL A   1      47.558  38.496  26.749  1.00  0.00    -0.744 OA
ENDBRANCH  80  81
ENDBRANCH  61  75
BRANCH  62  85
ATOM     85  C   UNL A   1      42.430  23.732  27.521  1.00  0.00    -0.014 A 
ATOM     86  C   UNL A   1      42.234  23.444  26.144  1.00  0.00     0.010 A 
ATOM     87  C   UNL A   1      42.087  22.750  28.467  1.00  0.00     0.010 A 
ATOM     88  C   UNL A   1      41.973  22.141  25.717  1.00  0.00     0.020 A 
ATOM     89  C   UNL A   1      41.797  21.441  28.037  1.00  0.00     0.020 A 
ATOM     90  C   UNL A   1      41.827  21.136  26.669  1.00  0.00     0.054 A 
BRANCH  90  91
ATOM     91  S   UNL A   1      41.962  19.416  26.090  1.00  0.00     0.124 S 
ATOM     92  O   UNL A   1      40.590  19.094  25.716  1.00  0.00    -0.237 OA
ATOM     93  O   UNL A   1      42.905  19.564  24.980  1.00  0.00    -0.237 OA
ATOM     94  O   UNL A   1      42.482  18.709  27.255  1.00  0.00    -0.744 OA
ENDBRANCH  90  91
ENDBRANCH  62  85
BRANCH  74  95
ATOM     95  C   UNL A   1      47.653  27.526  23.996  1.00  0.00    -0.014 A 
ATOM     96  C   UNL A   1      47.258  28.045  22.756  1.00  0.00     0.010 A 
ATOM     97  C   UNL A   1      49.013  27.118  24.085  1.00  0.00     0.010 A 
ATOM     98  C   UNL A   1      48.144  28.104  21.665  1.00  0.00     0.020 A 
ATOM     99  C   UNL A   1      49.916  27.206  23.023  1.00  0.00     0.020 A 
ATOM    100  C   UNL A   1      49.467  27.687  21.807  1.00  0.00     0.054 A 
BRANCH 100 101
ATOM    101  S   UNL A   1      50.611  27.860  20.419  1.00  0.00     0.124 S 
ATOM    102  O   UNL A   1      49.817  27.346  19.306  1.00  0.00    -0.237 OA
ATOM    103  O   UNL A   1      50.865  29.300  20.396  1.00  0.00    -0.237 OA
ATOM    104  O   UNL A   1      51.756  27.039  20.805  1.00  0.00    -0.744 OA
ENDBRANCH 100 101
ENDBRANCH  74  95
ENDBRANCH  48  49
ENDBRANCH  41  43
ENDBRANCH  40  41
ENDBRANCH  39  40
ENDBRANCH  38  39
ENDBRANCH  37  38
ENDBRANCH  36  37
ENDBRANCH  35  36
ENDBRANCH  34  35
ENDBRANCH   1  34
TORSDOF 28
ENDMDL
