MODEL 1
REMARK VINA RESULT:      -7.2      0.000      0.000
REMARK SMILES O=C(OCCOCCOCCOCCOC(=O)[C@H]1CC=CC[C@@H]1C(=O)NC1CCCCC1)c1ccc(-c2c3nc(c(-c4ccc(S(=O)(=O)[O-])cc4)c4ccc([nH]4)c(-c4ccc(S(=O)(=O)[O-])cc4)c4nc(c(-c5ccc(S(=O)(=O)[O-])cc5)c5ccc2[nH]5)C=C4)C=C3)cc1
REMARK SMILES IDX 8 1 7 2 6 3 5 4 4 5 3 6 2 7 1 8 33 9 34 10 92 11 35 12 91 13
REMARK SMILES IDX 36 14 37 15 38 16 85 17 39 18 90 19 84 20 86 21 40 22 89 23
REMARK SMILES IDX 83 24 82 25 41 27 71 28 52 29 70 30 53 31 56 32 69 33 87 34
REMARK SMILES IDX 54 35 55 36 68 38 88 39 57 40 42 41 43 42 51 43 44 44 50 45
REMARK SMILES IDX 45 46 46 47 47 48 48 49 49 50 72 51 73 52 81 53 74 54 80 55
REMARK SMILES IDX 75 56 76 57 77 58 78 59 79 60 58 61 59 62 67 63 60 64 66 65
REMARK SMILES IDX 61 66 62 67 63 68 64 69 65 70 9 71 10 72 11 73 12 74 13 75
REMARK SMILES IDX 14 76 15 77 16 78 17 79 18 80 19 81 23 82 20 83 22 84 21 85
REMARK SMILES IDX 24 86 25 87 26 88 27 90 28 91 32 92 29 93 31 94 30 95
REMARK H PARENT 86 26 56 37 26 89
REMARK Flexibility Score: inf
ROOT
ATOM      1  C   UNL A   1      52.862  19.688  35.499  1.00  0.00     0.188 C 
ENDROOT
BRANCH   1   2
ATOM      2  C   UNL A   1      52.607  19.456  34.012  1.00  0.00     0.188 C 
BRANCH   2   3
ATOM      3  O   UNL A   1      51.836  20.491  33.398  1.00  0.00    -0.376 OA
BRANCH   3   4
ATOM      4  C   UNL A   1      52.567  21.445  32.625  1.00  0.00     0.202 C 
BRANCH   4   5
ATOM      5  C   UNL A   1      52.483  22.887  33.126  1.00  0.00     0.261 C 
BRANCH   5   6
ATOM      6  O   UNL A   1      51.321  23.573  32.651  1.00  0.00    -0.460 OA
BRANCH   6   7
ATOM      7  C   UNL A   1      51.091  24.909  32.611  1.00  0.00     0.338 C 
ATOM      8  O   UNL A   1      52.043  25.650  32.859  1.00  0.00    -0.246 OA
BRANCH   7   9
ATOM      9  C   UNL A   1      49.759  25.554  32.334  1.00  0.00     0.060 A 
ATOM     10  C   UNL A   1      48.582  25.396  33.074  1.00  0.00     0.016 A 
ATOM     11  C   UNL A   1      49.719  26.440  31.241  1.00  0.00     0.016 A 
ATOM     12  C   UNL A   1      47.409  26.057  32.744  1.00  0.00     0.010 A 
ATOM     13  C   UNL A   1      48.537  27.090  30.877  1.00  0.00     0.010 A 
ATOM     14  C   UNL A   1      47.373  26.863  31.616  1.00  0.00    -0.014 A 
BRANCH  14  15
ATOM     15  C   UNL A   1      46.047  27.197  31.081  1.00  0.00     0.031 A 
ATOM     16  C   UNL A   1      45.541  28.580  31.360  1.00  0.00     0.074 A 
ATOM     17  C   UNL A   1      45.408  26.349  30.263  1.00  0.00     0.049 A 
ATOM     18  N   UNL A   1      44.395  29.120  31.059  1.00  0.00    -0.248 NA
ATOM     19  C   UNL A   1      46.469  29.487  32.064  1.00  0.00     0.031 C 
ATOM     20  C   UNL A   1      45.924  25.052  29.818  1.00  0.00     0.029 A 
ATOM     21  N   UNL A   1      44.191  26.459  29.648  1.00  0.00    -0.354 N 
ATOM     22  C   UNL A   1      44.450  30.411  31.571  1.00  0.00     0.074 A 
ATOM     23  C   UNL A   1      45.739  30.580  32.195  1.00  0.00     0.031 C 
ATOM     24  C   UNL A   1      45.015  24.478  29.012  1.00  0.00     0.029 A 
ATOM     25  C   UNL A   1      43.837  25.335  28.941  1.00  0.00     0.049 A 
ATOM     26  H   UNL A   1      43.627  27.263  29.706  1.00  0.00     0.167 HD
ATOM     27  C   UNL A   1      43.488  31.360  31.538  1.00  0.00     0.031 A 
ATOM     28  C   UNL A   1      42.664  25.029  28.356  1.00  0.00     0.031 A 
ATOM     29  C   UNL A   1      42.205  31.132  30.936  1.00  0.00     0.049 A 
ATOM     30  C   UNL A   1      41.560  26.051  28.429  1.00  0.00     0.074 A 
ATOM     31  C   UNL A   1      41.110  31.971  30.885  1.00  0.00     0.029 A 
ATOM     32  N   UNL A   1      41.848  29.955  30.288  1.00  0.00    -0.354 N 
ATOM     33  N   UNL A   1      41.587  27.252  28.967  1.00  0.00    -0.248 NA
ATOM     34  C   UNL A   1      40.272  25.686  27.831  1.00  0.00     0.031 C 
ATOM     35  C   UNL A   1      40.069  31.274  30.261  1.00  0.00     0.029 A 
ATOM     36  C   UNL A   1      40.540  30.031  29.856  1.00  0.00     0.049 A 
ATOM     37  H   UNL A   1      42.442  29.182  30.155  1.00  0.00     0.167 HD
ATOM     38  C   UNL A   1      40.325  27.793  28.759  1.00  0.00     0.074 A 
ATOM     39  C   UNL A   1      39.566  26.791  28.031  1.00  0.00     0.031 C 
ATOM     40  C   UNL A   1      39.832  29.001  29.131  1.00  0.00     0.031 A 
BRANCH  27  41
ATOM     41  C   UNL A   1      43.771  32.644  32.270  1.00  0.00    -0.014 A 
ATOM     42  C   UNL A   1      44.391  32.661  33.533  1.00  0.00     0.010 A 
ATOM     43  C   UNL A   1      43.335  33.858  31.708  1.00  0.00     0.010 A 
ATOM     44  C   UNL A   1      44.513  33.858  34.246  1.00  0.00     0.020 A 
ATOM     45  C   UNL A   1      43.482  35.061  32.404  1.00  0.00     0.020 A 
ATOM     46  C   UNL A   1      44.048  35.050  33.680  1.00  0.00     0.054 A 
BRANCH  46  47
ATOM     47  S   UNL A   1      44.191  36.585  34.636  1.00  0.00     0.124 S 
ATOM     48  O   UNL A   1      45.584  36.958  34.400  1.00  0.00    -0.237 OA
ATOM     49  O   UNL A   1      43.196  37.448  34.003  1.00  0.00    -0.237 OA
ATOM     50  O   UNL A   1      43.877  36.175  36.002  1.00  0.00    -0.744 OA
ENDBRANCH  46  47
ENDBRANCH  27  41
BRANCH  28  51
ATOM     51  C   UNL A   1      42.469  23.685  27.744  1.00  0.00    -0.014 A 
ATOM     52  C   UNL A   1      42.864  23.413  26.424  1.00  0.00     0.010 A 
ATOM     53  C   UNL A   1      41.912  22.643  28.512  1.00  0.00     0.010 A 
ATOM     54  C   UNL A   1      42.705  22.130  25.886  1.00  0.00     0.020 A 
ATOM     55  C   UNL A   1      41.777  21.354  27.990  1.00  0.00     0.020 A 
ATOM     56  C   UNL A   1      42.170  21.107  26.674  1.00  0.00     0.054 A 
BRANCH  56  57
ATOM     57  S   UNL A   1      42.033  19.436  25.977  1.00  0.00     0.124 S 
ATOM     58  O   UNL A   1      40.605  19.340  25.694  1.00  0.00    -0.237 OA
ATOM     59  O   UNL A   1      42.906  19.511  24.808  1.00  0.00    -0.237 OA
ATOM     60  O   UNL A   1      42.518  18.574  27.053  1.00  0.00    -0.744 OA
ENDBRANCH  56  57
ENDBRANCH  28  51
BRANCH  40  61
ATOM     61  C   UNL A   1      38.421  29.319  28.725  1.00  0.00    -0.014 A 
ATOM     62  C   UNL A   1      38.110  29.687  27.406  1.00  0.00     0.010 A 
ATOM     63  C   UNL A   1      37.385  29.143  29.661  1.00  0.00     0.010 A 
ATOM     64  C   UNL A   1      36.779  29.887  27.032  1.00  0.00     0.020 A 
ATOM     65  C   UNL A   1      36.055  29.312  29.282  1.00  0.00     0.020 A 
ATOM     66  C   UNL A   1      35.761  29.691  27.971  1.00  0.00     0.054 A 
BRANCH  66  67
ATOM     67  S   UNL A   1      34.039  29.880  27.440  1.00  0.00     0.124 S 
ATOM     68  O   UNL A   1      33.693  31.186  27.993  1.00  0.00    -0.237 OA
ATOM     69  O   UNL A   1      34.146  29.821  25.984  1.00  0.00    -0.237 OA
ATOM     70  O   UNL A   1      33.359  28.742  28.056  1.00  0.00    -0.744 OA
ENDBRANCH  66  67
ENDBRANCH  40  61
ENDBRANCH  14  15
ENDBRANCH   7   9
ENDBRANCH   6   7
ENDBRANCH   5   6
ENDBRANCH   4   5
ENDBRANCH   3   4
ENDBRANCH   2   3
ENDBRANCH   1   2
BRANCH   1  71
ATOM     71  O   UNL A   1      51.858  20.429  36.176  1.00  0.00    -0.377 OA
BRANCH  71  72
ATOM     72  C   UNL A   1      50.572  19.833  36.255  1.00  0.00     0.188 C 
BRANCH  72  73
ATOM     73  C   UNL A   1      49.317  20.671  35.889  1.00  0.00     0.188 C 
BRANCH  73  74
ATOM     74  O   UNL A   1      48.108  20.266  36.503  1.00  0.00    -0.376 OA
BRANCH  74  75
ATOM     75  C   UNL A   1      46.959  21.006  36.097  1.00  0.00     0.202 C 
BRANCH  75  76
ATOM     76  C   UNL A   1      47.160  21.810  34.801  1.00  0.00     0.261 C 
BRANCH  76  77
ATOM     77  O   UNL A   1      46.449  23.074  34.764  1.00  0.00    -0.463 OA
BRANCH  77  78
ATOM     78  C   UNL A   1      46.273  23.722  35.942  1.00  0.00     0.310 C 
ATOM     79  O   UNL A   1      47.209  24.000  36.684  1.00  0.00    -0.252 OA
BRANCH  78  80
ATOM     80  C   UNL A   1      44.789  24.102  36.183  1.00  0.00     0.115 C 
ATOM     81  C   UNL A   1      44.752  24.999  37.433  1.00  0.00     0.043 C 
ATOM     82  C   UNL A   1      44.088  24.869  35.001  1.00  0.00     0.096 C 
ATOM     83  C   UNL A   1      45.208  26.400  37.124  1.00  0.00    -0.030 C 
ATOM     84  C   UNL A   1      44.932  26.081  34.656  1.00  0.00     0.041 C 
ATOM     85  C   UNL A   1      45.337  26.866  35.869  1.00  0.00    -0.030 C 
BRANCH  82  86
ATOM     86  C   UNL A   1      42.603  25.118  35.329  1.00  0.00     0.224 C 
ATOM     87  O   UNL A   1      41.918  24.151  35.703  1.00  0.00    -0.275 OA
ATOM     88  N   UNL A   1      41.885  26.252  35.164  1.00  0.00    -0.353 N 
ATOM     89  H   UNL A   1      40.966  26.107  35.485  1.00  0.00     0.163 HD
BRANCH  88  90
ATOM     90  C   UNL A   1      42.017  27.638  34.665  1.00  0.00     0.082 C 
ATOM     91  C   UNL A   1      41.167  28.015  33.439  1.00  0.00     0.025 C 
ATOM     92  C   UNL A   1      42.144  28.671  35.786  1.00  0.00     0.025 C 
ATOM     93  C   UNL A   1      40.286  29.277  33.516  1.00  0.00     0.002 C 
ATOM     94  C   UNL A   1      41.860  30.085  35.302  1.00  0.00     0.002 C 
ATOM     95  C   UNL A   1      40.446  30.145  34.759  1.00  0.00     0.000 C 
ENDBRANCH  88  90
ENDBRANCH  82  86
ENDBRANCH  78  80
ENDBRANCH  77  78
ENDBRANCH  76  77
ENDBRANCH  75  76
ENDBRANCH  74  75
ENDBRANCH  73  74
ENDBRANCH  72  73
ENDBRANCH  71  72
ENDBRANCH   1  71
TORSDOF 25
ENDMDL
MODEL 2
REMARK VINA RESULT:      -7.1      5.159     11.936
REMARK SMILES O=C(OCCOCCOCCOCCOC(=O)[C@H]1CC=CC[C@@H]1C(=O)NC1CCCCC1)c1ccc(-c2c3nc(c(-c4ccc(S(=O)(=O)[O-])cc4)c4ccc([nH]4)c(-c4ccc(S(=O)(=O)[O-])cc4)c4nc(c(-c5ccc(S(=O)(=O)[O-])cc5)c5ccc2[nH]5)C=C4)C=C3)cc1
REMARK SMILES IDX 8 1 7 2 6 3 5 4 4 5 3 6 2 7 1 8 33 9 34 10 92 11 35 12 91 13
REMARK SMILES IDX 36 14 37 15 38 16 85 17 39 18 90 19 84 20 86 21 40 22 89 23
REMARK SMILES IDX 83 24 82 25 41 27 71 28 52 29 70 30 53 31 56 32 69 33 87 34
REMARK SMILES IDX 54 35 55 36 68 38 88 39 57 40 42 41 43 42 51 43 44 44 50 45
REMARK SMILES IDX 45 46 46 47 47 48 48 49 49 50 72 51 73 52 81 53 74 54 80 55
REMARK SMILES IDX 75 56 76 57 77 58 78 59 79 60 58 61 59 62 67 63 60 64 66 65
REMARK SMILES IDX 61 66 62 67 63 68 64 69 65 70 9 71 10 72 11 73 12 74 13 75
REMARK SMILES IDX 14 76 15 77 16 78 17 79 18 80 19 81 23 82 20 83 22 84 21 85
REMARK SMILES IDX 24 86 25 87 26 88 27 90 28 91 32 92 29 93 31 94 30 95
REMARK H PARENT 86 26 56 37 26 89
REMARK Flexibility Score: inf
ROOT
ATOM      1  C   UNL A   1      41.448  21.664  27.822  1.00  0.00     0.188 C 
ENDROOT
BRANCH   1   2
ATOM      2  C   UNL A   1      42.676  21.630  26.916  1.00  0.00     0.188 C 
BRANCH   2   3
ATOM      3  O   UNL A   1      43.682  22.577  27.285  1.00  0.00    -0.376 OA
BRANCH   3   4
ATOM      4  C   UNL A   1      44.691  22.836  26.307  1.00  0.00     0.202 C 
BRANCH   4   5
ATOM      5  C   UNL A   1      44.765  24.283  25.820  1.00  0.00     0.261 C 
BRANCH   5   6
ATOM      6  O   UNL A   1      45.655  25.087  26.598  1.00  0.00    -0.460 OA
BRANCH   6   7
ATOM      7  C   UNL A   1      45.649  25.291  27.939  1.00  0.00     0.338 C 
ATOM      8  O   UNL A   1      46.315  24.517  28.628  1.00  0.00    -0.246 OA
BRANCH   7   9
ATOM      9  C   UNL A   1      44.860  26.358  28.651  1.00  0.00     0.060 A 
ATOM     10  C   UNL A   1      44.857  27.727  28.366  1.00  0.00     0.016 A 
ATOM     11  C   UNL A   1      44.006  25.910  29.677  1.00  0.00     0.016 A 
ATOM     12  C   UNL A   1      44.071  28.626  29.073  1.00  0.00     0.010 A 
ATOM     13  C   UNL A   1      43.231  26.806  30.419  1.00  0.00     0.010 A 
ATOM     14  C   UNL A   1      43.299  28.172  30.132  1.00  0.00    -0.014 A 
BRANCH  14  15
ATOM     15  C   UNL A   1      42.826  29.181  31.088  1.00  0.00     0.031 A 
ATOM     16  C   UNL A   1      43.695  29.431  32.283  1.00  0.00     0.074 A 
ATOM     17  C   UNL A   1      41.751  29.933  30.810  1.00  0.00     0.049 A 
ATOM     18  N   UNL A   1      43.497  30.217  33.302  1.00  0.00    -0.248 NA
ATOM     19  C   UNL A   1      44.977  28.701  32.324  1.00  0.00     0.031 C 
ATOM     20  C   UNL A   1      40.956  29.852  29.582  1.00  0.00     0.029 A 
ATOM     21  N   UNL A   1      41.152  30.924  31.537  1.00  0.00    -0.354 N 
ATOM     22  C   UNL A   1      44.607  30.046  34.121  1.00  0.00     0.074 A 
ATOM     23  C   UNL A   1      45.478  29.090  33.483  1.00  0.00     0.031 C 
ATOM     24  C   UNL A   1      39.958  30.749  29.652  1.00  0.00     0.029 A 
ATOM     25  C   UNL A   1      40.010  31.413  30.950  1.00  0.00     0.049 A 
ATOM     26  H   UNL A   1      41.504  31.254  32.395  1.00  0.00     0.167 HD
ATOM     27  C   UNL A   1      44.856  30.626  35.316  1.00  0.00     0.031 A 
ATOM     28  C   UNL A   1      39.090  32.262  31.447  1.00  0.00     0.031 A 
ATOM     29  C   UNL A   1      43.939  31.545  35.929  1.00  0.00     0.049 A 
ATOM     30  C   UNL A   1      39.322  32.810  32.830  1.00  0.00     0.074 A 
ATOM     31  C   UNL A   1      44.022  32.159  37.162  1.00  0.00     0.029 A 
ATOM     32  N   UNL A   1      42.753  31.969  35.341  1.00  0.00    -0.354 N 
ATOM     33  N   UNL A   1      40.342  32.603  33.635  1.00  0.00    -0.248 NA
ATOM     34  C   UNL A   1      38.290  33.694  33.379  1.00  0.00     0.031 C 
ATOM     35  C   UNL A   1      42.852  32.904  37.346  1.00  0.00     0.029 A 
ATOM     36  C   UNL A   1      42.077  32.815  36.195  1.00  0.00     0.049 A 
ATOM     37  H   UNL A   1      42.441  31.704  34.445  1.00  0.00     0.167 HD
ATOM     38  C   UNL A   1      40.082  33.342  34.781  1.00  0.00     0.074 A 
ATOM     39  C   UNL A   1      38.815  34.015  34.555  1.00  0.00     0.031 C 
ATOM     40  C   UNL A   1      40.815  33.461  35.918  1.00  0.00     0.031 A 
BRANCH  27  41
ATOM     41  C   UNL A   1      46.091  30.177  36.049  1.00  0.00    -0.014 A 
ATOM     42  C   UNL A   1      46.068  29.104  36.960  1.00  0.00     0.010 A 
ATOM     43  C   UNL A   1      47.286  30.898  35.874  1.00  0.00     0.010 A 
ATOM     44  C   UNL A   1      47.199  28.803  37.726  1.00  0.00     0.020 A 
ATOM     45  C   UNL A   1      48.427  30.581  36.616  1.00  0.00     0.020 A 
ATOM     46  C   UNL A   1      48.369  29.550  37.556  1.00  0.00     0.054 A 
BRANCH  46  47
ATOM     47  S   UNL A   1      49.813  29.158  38.581  1.00  0.00     0.124 S 
ATOM     48  O   UNL A   1      50.910  29.314  37.628  1.00  0.00    -0.237 OA
ATOM     49  O   UNL A   1      49.745  30.174  39.629  1.00  0.00    -0.237 OA
ATOM     50  O   UNL A   1      49.563  27.790  39.026  1.00  0.00    -0.744 OA
ENDBRANCH  46  47
ENDBRANCH  27  41
BRANCH  28  51
ATOM     51  C   UNL A   1      37.856  32.557  30.667  1.00  0.00    -0.014 A 
ATOM     52  C   UNL A   1      36.648  31.885  30.917  1.00  0.00     0.010 A 
ATOM     53  C   UNL A   1      37.879  33.562  29.679  1.00  0.00     0.010 A 
ATOM     54  C   UNL A   1      35.493  32.209  30.195  1.00  0.00     0.020 A 
ATOM     55  C   UNL A   1      36.722  33.909  28.976  1.00  0.00     0.020 A 
ATOM     56  C   UNL A   1      35.536  33.224  29.235  1.00  0.00     0.054 A 
BRANCH  56  57
ATOM     57  S   UNL A   1      34.011  33.672  28.358  1.00  0.00     0.124 S 
ATOM     58  O   UNL A   1      33.567  32.382  27.838  1.00  0.00    -0.237 OA
ATOM     59  O   UNL A   1      33.190  34.240  29.425  1.00  0.00    -0.237 OA
ATOM     60  O   UNL A   1      34.461  34.631  27.351  1.00  0.00    -0.744 OA
ENDBRANCH  56  57
ENDBRANCH  28  51
BRANCH  40  61
ATOM     61  C   UNL A   1      40.284  34.377  36.983  1.00  0.00    -0.014 A 
ATOM     62  C   UNL A   1      39.513  33.884  38.048  1.00  0.00     0.010 A 
ATOM     63  C   UNL A   1      40.655  35.734  36.963  1.00  0.00     0.010 A 
ATOM     64  C   UNL A   1      39.109  34.741  39.074  1.00  0.00     0.020 A 
ATOM     65  C   UNL A   1      40.280  36.584  38.002  1.00  0.00     0.020 A 
ATOM     66  C   UNL A   1      39.502  36.083  39.046  1.00  0.00     0.054 A 
BRANCH  66  67
ATOM     67  S   UNL A   1      39.032  37.156  40.430  1.00  0.00     0.124 S 
ATOM     68  O   UNL A   1      38.263  38.199  39.757  1.00  0.00    -0.237 OA
ATOM     69  O   UNL A   1      38.259  36.256  41.283  1.00  0.00    -0.237 OA
ATOM     70  O   UNL A   1      40.312  37.586  40.986  1.00  0.00    -0.744 OA
ENDBRANCH  66  67
ENDBRANCH  40  61
ENDBRANCH  14  15
ENDBRANCH   7   9
ENDBRANCH   6   7
ENDBRANCH   5   6
ENDBRANCH   4   5
ENDBRANCH   3   4
ENDBRANCH   2   3
ENDBRANCH   1   2
BRANCH   1  71
ATOM     71  O   UNL A   1      40.284  22.234  27.242  1.00  0.00    -0.377 OA
BRANCH  71  72
ATOM     72  C   UNL A   1      39.719  21.542  26.139  1.00  0.00     0.188 C 
BRANCH  72  73
ATOM     73  C   UNL A   1      38.257  21.846  25.713  1.00  0.00     0.188 C 
BRANCH  73  74
ATOM     74  O   UNL A   1      37.993  23.185  25.338  1.00  0.00    -0.376 OA
BRANCH  74  75
ATOM     75  C   UNL A   1      36.642  23.439  24.958  1.00  0.00     0.202 C 
BRANCH  75  76
ATOM     76  C   UNL A   1      35.636  23.325  26.116  1.00  0.00     0.261 C 
BRANCH  76  77
ATOM     77  O   UNL A   1      34.272  23.669  25.761  1.00  0.00    -0.463 OA
BRANCH  77  78
ATOM     78  C   UNL A   1      33.350  22.675  25.806  1.00  0.00     0.310 C 
ATOM     79  O   UNL A   1      33.481  21.690  26.525  1.00  0.00    -0.252 OA
BRANCH  78  80
ATOM     80  C   UNL A   1      32.126  22.974  24.903  1.00  0.00     0.115 C 
ATOM     81  C   UNL A   1      30.886  22.426  25.630  1.00  0.00     0.043 C 
ATOM     82  C   UNL A   1      31.880  24.495  24.580  1.00  0.00     0.096 C 
ATOM     83  C   UNL A   1      30.457  23.332  26.754  1.00  0.00    -0.030 C 
ATOM     84  C   UNL A   1      31.812  25.253  25.892  1.00  0.00     0.041 C 
ATOM     85  C   UNL A   1      30.917  24.587  26.896  1.00  0.00    -0.030 C 
BRANCH  82  86
ATOM     86  C   UNL A   1      30.690  24.653  23.615  1.00  0.00     0.224 C 
ATOM     87  O   UNL A   1      30.354  23.669  22.935  1.00  0.00    -0.275 OA
ATOM     88  N   UNL A   1      29.997  25.775  23.313  1.00  0.00    -0.353 N 
ATOM     89  H   UNL A   1      29.278  25.554  22.678  1.00  0.00     0.163 HD
BRANCH  88  90
ATOM     90  C   UNL A   1      29.956  27.221  23.616  1.00  0.00     0.082 C 
ATOM     91  C   UNL A   1      31.257  28.013  23.395  1.00  0.00     0.025 C 
ATOM     92  C   UNL A   1      28.642  27.885  23.199  1.00  0.00     0.025 C 
ATOM     93  C   UNL A   1      31.202  29.292  22.538  1.00  0.00     0.002 C 
ATOM     94  C   UNL A   1      28.760  29.401  23.122  1.00  0.00     0.002 C 
ATOM     95  C   UNL A   1      29.819  29.761  22.100  1.00  0.00     0.000 C 
ENDBRANCH  88  90
ENDBRANCH  82  86
ENDBRANCH  78  80
ENDBRANCH  77  78
ENDBRANCH  76  77
ENDBRANCH  75  76
ENDBRANCH  74  75
ENDBRANCH  73  74
ENDBRANCH  72  73
ENDBRANCH  71  72
ENDBRANCH   1  71
TORSDOF 25
ENDMDL
MODEL 3
REMARK VINA RESULT:      -7.1      6.879     13.350
REMARK SMILES O=C(OCCOCCOCCOCCOC(=O)[C@H]1CC=CC[C@@H]1C(=O)NC1CCCCC1)c1ccc(-c2c3nc(c(-c4ccc(S(=O)(=O)[O-])cc4)c4ccc([nH]4)c(-c4ccc(S(=O)(=O)[O-])cc4)c4nc(c(-c5ccc(S(=O)(=O)[O-])cc5)c5ccc2[nH]5)C=C4)C=C3)cc1
REMARK SMILES IDX 8 1 7 2 6 3 5 4 4 5 3 6 2 7 1 8 33 9 34 10 92 11 35 12 91 13
REMARK SMILES IDX 36 14 37 15 38 16 85 17 39 18 90 19 84 20 86 21 40 22 89 23
REMARK SMILES IDX 83 24 82 25 41 27 71 28 52 29 70 30 53 31 56 32 69 33 87 34
REMARK SMILES IDX 54 35 55 36 68 38 88 39 57 40 42 41 43 42 51 43 44 44 50 45
REMARK SMILES IDX 45 46 46 47 47 48 48 49 49 50 72 51 73 52 81 53 74 54 80 55
REMARK SMILES IDX 75 56 76 57 77 58 78 59 79 60 58 61 59 62 67 63 60 64 66 65
REMARK SMILES IDX 61 66 62 67 63 68 64 69 65 70 9 71 10 72 11 73 12 74 13 75
REMARK SMILES IDX 14 76 15 77 16 78 17 79 18 80 19 81 23 82 20 83 22 84 21 85
REMARK SMILES IDX 24 86 25 87 26 88 27 90 28 91 32 92 29 93 31 94 30 95
REMARK H PARENT 86 26 56 37 26 89
REMARK Flexibility Score: inf
ROOT
ATOM      1  C   UNL A   1      38.744  21.028  25.653  1.00  0.00     0.188 C 
ENDROOT
BRANCH   1   2
ATOM      2  C   UNL A   1      39.973  21.689  26.274  1.00  0.00     0.188 C 
BRANCH   2   3
ATOM      3  O   UNL A   1      41.208  21.222  25.727  1.00  0.00    -0.376 OA
BRANCH   3   4
ATOM      4  C   UNL A   1      42.300  22.142  25.763  1.00  0.00     0.202 C 
BRANCH   4   5
ATOM      5  C   UNL A   1      42.105  23.344  26.687  1.00  0.00     0.261 C 
BRANCH   5   6
ATOM      6  O   UNL A   1      42.471  24.583  26.074  1.00  0.00    -0.460 OA
BRANCH   6   7
ATOM      7  C   UNL A   1      41.858  25.788  26.181  1.00  0.00     0.338 C 
ATOM      8  O   UNL A   1      40.699  25.866  25.771  1.00  0.00    -0.246 OA
BRANCH   7   9
ATOM      9  C   UNL A   1      42.495  27.042  26.717  1.00  0.00     0.060 A 
ATOM     10  C   UNL A   1      43.393  27.133  27.786  1.00  0.00     0.016 A 
ATOM     11  C   UNL A   1      42.182  28.233  26.034  1.00  0.00     0.016 A 
ATOM     12  C   UNL A   1      43.942  28.342  28.187  1.00  0.00     0.010 A 
ATOM     13  C   UNL A   1      42.702  29.463  26.444  1.00  0.00     0.010 A 
ATOM     14  C   UNL A   1      43.556  29.513  27.549  1.00  0.00    -0.014 A 
BRANCH  14  15
ATOM     15  C   UNL A   1      43.827  30.772  28.254  1.00  0.00     0.031 A 
ATOM     16  C   UNL A   1      45.115  31.462  27.922  1.00  0.00     0.074 A 
ATOM     17  C   UNL A   1      42.891  31.332  29.034  1.00  0.00     0.049 A 
ATOM     18  N   UNL A   1      45.629  32.547  28.427  1.00  0.00    -0.248 NA
ATOM     19  C   UNL A   1      45.930  30.848  26.855  1.00  0.00     0.031 C 
ATOM     20  C   UNL A   1      41.549  30.792  29.267  1.00  0.00     0.029 A 
ATOM     21  N   UNL A   1      42.921  32.489  29.762  1.00  0.00    -0.354 N 
ATOM     22  C   UNL A   1      46.841  32.722  27.770  1.00  0.00     0.074 A 
ATOM     23  C   UNL A   1      46.987  31.641  26.827  1.00  0.00     0.031 C 
ATOM     24  C   UNL A   1      40.890  31.612  30.101  1.00  0.00     0.029 A 
ATOM     25  C   UNL A   1      41.784  32.692  30.506  1.00  0.00     0.049 A 
ATOM     26  H   UNL A   1      43.682  33.114  29.753  1.00  0.00     0.167 HD
ATOM     27  C   UNL A   1      47.759  33.694  27.964  1.00  0.00     0.031 A 
ATOM     28  C   UNL A   1      41.535  33.621  31.448  1.00  0.00     0.031 A 
ATOM     29  C   UNL A   1      47.585  34.731  28.942  1.00  0.00     0.049 A 
ATOM     30  C   UNL A   1      42.615  34.629  31.737  1.00  0.00     0.074 A 
ATOM     31  C   UNL A   1      48.454  35.741  29.298  1.00  0.00     0.029 A 
ATOM     32  N   UNL A   1      46.450  34.870  29.734  1.00  0.00    -0.354 N 
ATOM     33  N   UNL A   1      43.790  34.761  31.160  1.00  0.00    -0.248 NA
ATOM     34  C   UNL A   1      42.350  35.605  32.799  1.00  0.00     0.031 C 
ATOM     35  C   UNL A   1      47.870  36.453  30.352  1.00  0.00     0.029 A 
ATOM     36  C   UNL A   1      46.605  35.933  30.599  1.00  0.00     0.049 A 
ATOM     37  H   UNL A   1      45.653  34.295  29.683  1.00  0.00     0.167 HD
ATOM     38  C   UNL A   1      44.401  35.845  31.778  1.00  0.00     0.074 A 
ATOM     39  C   UNL A   1      43.454  36.341  32.762  1.00  0.00     0.031 C 
ATOM     40  C   UNL A   1      45.627  36.386  31.560  1.00  0.00     0.031 A 
BRANCH  27  41
ATOM     41  C   UNL A   1      49.044  33.584  27.189  1.00  0.00    -0.014 A 
ATOM     42  C   UNL A   1      49.265  34.312  26.005  1.00  0.00     0.010 A 
ATOM     43  C   UNL A   1      50.024  32.672  27.621  1.00  0.00     0.010 A 
ATOM     44  C   UNL A   1      50.411  34.083  25.236  1.00  0.00     0.020 A 
ATOM     45  C   UNL A   1      51.185  32.462  26.873  1.00  0.00     0.020 A 
ATOM     46  C   UNL A   1      51.360  33.151  25.671  1.00  0.00     0.054 A 
BRANCH  46  47
ATOM     47  S   UNL A   1      52.824  32.850  24.644  1.00  0.00     0.124 S 
ATOM     48  O   UNL A   1      52.239  32.753  23.308  1.00  0.00    -0.237 OA
ATOM     49  O   UNL A   1      53.634  34.041  24.888  1.00  0.00    -0.237 OA
ATOM     50  O   UNL A   1      53.373  31.606  25.176  1.00  0.00    -0.744 OA
ENDBRANCH  46  47
ENDBRANCH  27  41
BRANCH  28  51
ATOM     51  C   UNL A   1      40.261  33.571  32.219  1.00  0.00    -0.014 A 
ATOM     52  C   UNL A   1      40.149  32.829  33.407  1.00  0.00     0.010 A 
ATOM     53  C   UNL A   1      39.148  34.314  31.777  1.00  0.00     0.010 A 
ATOM     54  C   UNL A   1      38.952  32.831  34.134  1.00  0.00     0.020 A 
ATOM     55  C   UNL A   1      37.961  34.342  32.514  1.00  0.00     0.020 A 
ATOM     56  C   UNL A   1      37.868  33.592  33.686  1.00  0.00     0.054 A 
BRANCH  56  57
ATOM     57  S   UNL A   1      36.348  33.631  34.679  1.00  0.00     0.124 S 
ATOM     58  O   UNL A   1      35.553  32.574  34.060  1.00  0.00    -0.237 OA
ATOM     59  O   UNL A   1      36.843  33.345  36.023  1.00  0.00    -0.237 OA
ATOM     60  O   UNL A   1      35.844  34.989  34.484  1.00  0.00    -0.744 OA
ENDBRANCH  56  57
ENDBRANCH  28  51
BRANCH  40  61
ATOM     61  C   UNL A   1      45.996  37.594  32.372  1.00  0.00    -0.014 A 
ATOM     62  C   UNL A   1      46.706  37.471  33.578  1.00  0.00     0.010 A 
ATOM     63  C   UNL A   1      45.714  38.874  31.859  1.00  0.00     0.010 A 
ATOM     64  C   UNL A   1      47.118  38.614  34.266  1.00  0.00     0.020 A 
ATOM     65  C   UNL A   1      46.150  40.015  32.529  1.00  0.00     0.020 A 
ATOM     66  C   UNL A   1      46.843  39.878  33.732  1.00  0.00     0.054 A 
BRANCH  66  67
ATOM     67  S   UNL A   1      47.457  41.343  34.605  1.00  0.00     0.124 S 
ATOM     68  O   UNL A   1      47.361  42.372  33.573  1.00  0.00    -0.237 OA
ATOM     69  O   UNL A   1      46.514  41.473  35.713  1.00  0.00    -0.237 OA
ATOM     70  O   UNL A   1      48.817  40.972  34.991  1.00  0.00    -0.744 OA
ENDBRANCH  66  67
ENDBRANCH  40  61
ENDBRANCH  14  15
ENDBRANCH   7   9
ENDBRANCH   6   7
ENDBRANCH   5   6
ENDBRANCH   4   5
ENDBRANCH   3   4
ENDBRANCH   2   3
ENDBRANCH   1   2
BRANCH   1  71
ATOM     71  O   UNL A   1      37.739  21.923  25.203  1.00  0.00    -0.377 OA
BRANCH  71  72
ATOM     72  C   UNL A   1      36.407  21.635  25.603  1.00  0.00     0.188 C 
BRANCH  72  73
ATOM     73  C   UNL A   1      35.298  22.701  25.393  1.00  0.00     0.188 C 
BRANCH  73  74
ATOM     74  O   UNL A   1      35.475  23.560  24.282  1.00  0.00    -0.376 OA
BRANCH  74  75
ATOM     75  C   UNL A   1      34.587  23.314  23.195  1.00  0.00     0.202 C 
BRANCH  75  76
ATOM     76  C   UNL A   1      33.314  22.545  23.589  1.00  0.00     0.261 C 
BRANCH  76  77
ATOM     77  O   UNL A   1      32.104  23.018  22.944  1.00  0.00    -0.463 OA
BRANCH  77  78
ATOM     78  C   UNL A   1      31.150  23.562  23.739  1.00  0.00     0.310 C 
ATOM     79  O   UNL A   1      30.674  22.963  24.698  1.00  0.00    -0.252 OA
BRANCH  78  80
ATOM     80  C   UNL A   1      30.800  25.014  23.320  1.00  0.00     0.115 C 
ATOM     81  C   UNL A   1      29.604  25.455  24.183  1.00  0.00     0.043 C 
ATOM     82  C   UNL A   1      31.957  26.065  23.501  1.00  0.00     0.096 C 
ATOM     83  C   UNL A   1      30.031  25.810  25.582  1.00  0.00    -0.030 C 
ATOM     84  C   UNL A   1      32.443  25.994  24.936  1.00  0.00     0.041 C 
ATOM     85  C   UNL A   1      31.316  26.001  25.927  1.00  0.00    -0.030 C 
BRANCH  82  86
ATOM     86  C   UNL A   1      31.513  27.446  22.978  1.00  0.00     0.224 C 
ATOM     87  O   UNL A   1      30.918  27.494  21.889  1.00  0.00    -0.275 OA
ATOM     88  N   UNL A   1      31.777  28.665  23.500  1.00  0.00    -0.353 N 
ATOM     89  H   UNL A   1      31.340  29.356  22.952  1.00  0.00     0.163 HD
BRANCH  88  90
ATOM     90  C   UNL A   1      32.502  29.311  24.615  1.00  0.00     0.082 C 
ATOM     91  C   UNL A   1      31.656  29.772  25.815  1.00  0.00     0.025 C 
ATOM     92  C   UNL A   1      33.855  28.660  24.908  1.00  0.00     0.025 C 
ATOM     93  C   UNL A   1      32.079  29.324  27.227  1.00  0.00     0.002 C 
ATOM     94  C   UNL A   1      34.391  29.037  26.282  1.00  0.00     0.002 C 
ATOM     95  C   UNL A   1      33.405  28.579  27.338  1.00  0.00     0.000 C 
ENDBRANCH  88  90
ENDBRANCH  82  86
ENDBRANCH  78  80
ENDBRANCH  77  78
ENDBRANCH  76  77
ENDBRANCH  75  76
ENDBRANCH  74  75
ENDBRANCH  73  74
ENDBRANCH  72  73
ENDBRANCH  71  72
ENDBRANCH   1  71
TORSDOF 25
ENDMDL
