MODEL 1
REMARK VINA RESULT:      -8.7      0.000      0.000
REMARK SMILES C#CC[N@H+](CC(=O)OCCOCCOCCOCCOC(=O)c1ccc(-c2c3nc(c(-c4ccc(S(=O)(=O)[O-])cc4)c4ccc([nH]4)c(-c4ccc(S(=O)(=O)[O-])cc4)c4nc(c(-c5ccc(S(=O)(=O)[O-])cc5)c5ccc2[nH]5)C=C4)C=C3)cc1)[C@H](C)c1nc2ccccc2s1
REMARK SMILES IDX 14 1 13 2 12 3 11 4 10 5 9 6 8 7 6 8 7 9 5 10 4 11 3 13 2 14
REMARK SMILES IDX 1 15 83 16 84 17 85 18 86 19 93 20 87 21 92 22 88 23 91 24
REMARK SMILES IDX 89 25 90 26 15 27 16 28 17 29 18 30 19 31 20 32 21 33 22 34
REMARK SMILES IDX 23 35 24 36 82 37 25 38 81 39 26 40 27 41 28 42 75 43 29 44
REMARK SMILES IDX 80 45 74 46 76 47 30 48 79 49 73 50 72 51 31 53 61 54 42 55
REMARK SMILES IDX 60 56 43 57 46 58 59 59 77 60 44 61 45 62 58 64 78 65 47 66
REMARK SMILES IDX 32 67 33 68 41 69 34 70 40 71 35 72 36 73 37 74 38 75 39 76
REMARK SMILES IDX 62 77 63 78 71 79 64 80 70 81 65 82 66 83 67 84 68 85 69 86
REMARK SMILES IDX 48 87 49 88 57 89 50 90 56 91 51 92 52 93 53 94 54 95 55 96
REMARK H PARENT 4 12 76 52 46 63
REMARK Flexibility Score: inf
ROOT
ATOM      1  O   UNL A   1      34.633  32.771  27.485  1.00  0.00    -0.377 OA
ENDROOT
BRANCH   1   2
ATOM      2  C   UNL A   1      34.452  31.626  28.282  1.00  0.00     0.188 C 
BRANCH   2   3
ATOM      3  C   UNL A   1      35.439  30.470  28.049  1.00  0.00     0.188 C 
BRANCH   3   4
ATOM      4  O   UNL A   1      35.009  29.292  27.396  1.00  0.00    -0.376 OA
BRANCH   4   5
ATOM      5  C   UNL A   1      34.110  29.309  26.299  1.00  0.00     0.202 C 
BRANCH   5   6
ATOM      6  C   UNL A   1      33.380  28.089  25.710  1.00  0.00     0.261 C 
BRANCH   6   7
ATOM      7  O   UNL A   1      33.880  27.571  24.476  1.00  0.00    -0.459 OA
BRANCH   7   8
ATOM      8  C   UNL A   1      33.187  27.895  23.369  1.00  0.00     0.361 C 
ATOM      9  O   UNL A   1      33.475  28.844  22.639  1.00  0.00    -0.245 OA
BRANCH   8  10
ATOM     10  C   UNL A   1      32.024  26.983  23.003  1.00  0.00     0.387 C 
BRANCH  10  11
ATOM     11  N   UNL A   1      30.896  26.720  23.944  1.00  0.00    -0.308 N 
ATOM     12  H   UNL A   1      31.056  27.277  24.783  1.00  0.00     0.350 HD
BRANCH  11  13
ATOM     13  C   UNL A   1      29.593  27.208  23.463  1.00  0.00     0.355 C 
BRANCH  13  14
ATOM     14  C   UNL A   1      29.688  28.548  22.847  1.00  0.00    -0.047 C 
ATOM     15  C   UNL A   1      29.783  29.625  22.311  1.00  0.00     0.010 C 
ENDBRANCH  13  14
ENDBRANCH  11  13
BRANCH  11  16
ATOM     16  C   UNL A   1      30.896  25.266  24.348  1.00  0.00     0.242 C 
ATOM     17  C   UNL A   1      30.262  24.960  25.730  1.00  0.00     0.083 C 
BRANCH  16  18
ATOM     18  C   UNL A   1      32.257  24.570  24.290  1.00  0.00     0.151 A 
ATOM     19  N   UNL A   1      33.117  24.611  25.288  1.00  0.00    -0.235 NA
ATOM     20  S   UNL A   1      32.787  23.672  22.919  1.00  0.00    -0.113 S 
ATOM     21  C   UNL A   1      34.336  24.112  24.892  1.00  0.00     0.082 A 
ATOM     22  C   UNL A   1      34.364  23.540  23.620  1.00  0.00     0.055 A 
ATOM     23  C   UNL A   1      35.522  24.187  25.647  1.00  0.00     0.030 A 
ATOM     24  C   UNL A   1      35.552  23.006  23.088  1.00  0.00     0.021 A 
ATOM     25  C   UNL A   1      36.715  23.708  25.106  1.00  0.00     0.002 A 
ATOM     26  C   UNL A   1      36.727  23.118  23.846  1.00  0.00     0.002 A 
ENDBRANCH  16  18
ENDBRANCH  11  16
ENDBRANCH  10  11
ENDBRANCH   8  10
ENDBRANCH   7   8
ENDBRANCH   6   7
ENDBRANCH   5   6
ENDBRANCH   4   5
ENDBRANCH   3   4
ENDBRANCH   2   3
ENDBRANCH   1   2
BRANCH   1  27
ATOM     27  C   UNL A   1      35.225  33.938  28.025  1.00  0.00     0.188 C 
BRANCH  27  28
ATOM     28  C   UNL A   1      34.416  35.234  28.254  1.00  0.00     0.188 C 
BRANCH  28  29
ATOM     29  O   UNL A   1      33.152  35.064  28.865  1.00  0.00    -0.376 OA
BRANCH  29  30
ATOM     30  C   UNL A   1      32.979  35.430  30.223  1.00  0.00     0.202 C 
BRANCH  30  31
ATOM     31  C   UNL A   1      33.967  34.928  31.290  1.00  0.00     0.261 C 
BRANCH  31  32
ATOM     32  O   UNL A   1      34.040  33.514  31.507  1.00  0.00    -0.460 OA
BRANCH  32  33
ATOM     33  C   UNL A   1      34.672  33.079  32.620  1.00  0.00     0.338 C 
ATOM     34  O   UNL A   1      34.236  33.073  33.755  1.00  0.00    -0.246 OA
BRANCH  33  35
ATOM     35  C   UNL A   1      35.938  32.446  32.185  1.00  0.00     0.060 A 
ATOM     36  C   UNL A   1      36.609  31.568  33.049  1.00  0.00     0.016 A 
ATOM     37  C   UNL A   1      36.443  32.709  30.911  1.00  0.00     0.016 A 
ATOM     38  C   UNL A   1      37.807  30.970  32.649  1.00  0.00     0.010 A 
ATOM     39  C   UNL A   1      37.656  32.134  30.526  1.00  0.00     0.010 A 
ATOM     40  C   UNL A   1      38.358  31.288  31.404  1.00  0.00    -0.014 A 
BRANCH  40  41
ATOM     41  C   UNL A   1      39.760  30.931  31.076  1.00  0.00     0.031 A 
ATOM     42  C   UNL A   1      40.815  31.985  31.271  1.00  0.00     0.074 A 
ATOM     43  C   UNL A   1      40.089  29.729  30.571  1.00  0.00     0.049 A 
ATOM     44  N   UNL A   1      42.064  31.993  30.890  1.00  0.00    -0.248 NA
ATOM     45  C   UNL A   1      40.393  33.205  31.983  1.00  0.00     0.031 C 
ATOM     46  C   UNL A   1      39.174  28.602  30.396  1.00  0.00     0.029 A 
ATOM     47  N   UNL A   1      41.289  29.269  30.085  1.00  0.00    -0.354 N 
ATOM     48  C   UNL A   1      42.569  33.225  31.287  1.00  0.00     0.074 A 
ATOM     49  C   UNL A   1      41.488  33.946  31.920  1.00  0.00     0.031 C 
ATOM     50  C   UNL A   1      39.841  27.587  29.818  1.00  0.00     0.029 A 
ATOM     51  C   UNL A   1      41.212  28.012  29.532  1.00  0.00     0.049 A 
ATOM     52  H   UNL A   1      42.123  29.788  30.128  1.00  0.00     0.167 HD
ATOM     53  C   UNL A   1      43.823  33.712  31.133  1.00  0.00     0.031 A 
ATOM     54  C   UNL A   1      42.128  27.305  28.837  1.00  0.00     0.031 A 
ATOM     55  C   UNL A   1      44.885  32.994  30.483  1.00  0.00     0.049 A 
ATOM     56  C   UNL A   1      43.490  27.907  28.587  1.00  0.00     0.074 A 
ATOM     57  C   UNL A   1      46.194  33.394  30.284  1.00  0.00     0.029 A 
ATOM     58  N   UNL A   1      44.759  31.733  29.918  1.00  0.00    -0.354 N 
ATOM     59  N   UNL A   1      43.963  29.070  28.974  1.00  0.00    -0.248 NA
ATOM     60  C   UNL A   1      44.446  27.102  27.810  1.00  0.00     0.031 C 
ATOM     61  C   UNL A   1      46.839  32.409  29.533  1.00  0.00     0.029 A 
ATOM     62  C   UNL A   1      45.960  31.354  29.343  1.00  0.00     0.049 A 
ATOM     63  H   UNL A   1      43.938  31.190  29.926  1.00  0.00     0.167 HD
ATOM     64  C   UNL A   1      45.282  29.113  28.528  1.00  0.00     0.074 A 
ATOM     65  C   UNL A   1      45.533  27.863  27.842  1.00  0.00     0.031 C 
ATOM     66  C   UNL A   1      46.203  30.095  28.683  1.00  0.00     0.031 A 
BRANCH  53  67
ATOM     67  C   UNL A   1      44.098  35.107  31.631  1.00  0.00    -0.014 A 
ATOM     68  C   UNL A   1      44.573  35.342  32.934  1.00  0.00     0.010 A 
ATOM     69  C   UNL A   1      43.917  36.201  30.764  1.00  0.00     0.010 A 
ATOM     70  C   UNL A   1      44.825  36.645  33.372  1.00  0.00     0.020 A 
ATOM     71  C   UNL A   1      44.202  37.501  31.185  1.00  0.00     0.020 A 
ATOM     72  C   UNL A   1      44.640  37.716  32.493  1.00  0.00     0.054 A 
BRANCH  72  73
ATOM     73  S   UNL A   1      45.004  39.392  33.081  1.00  0.00     0.124 S 
ATOM     74  O   UNL A   1      43.788  40.112  32.709  1.00  0.00    -0.237 OA
ATOM     75  O   UNL A   1      45.202  39.191  34.513  1.00  0.00    -0.237 OA
ATOM     76  O   UNL A   1      46.202  39.771  32.334  1.00  0.00    -0.744 OA
ENDBRANCH  72  73
ENDBRANCH  53  67
BRANCH  54  77
ATOM     77  C   UNL A   1      41.785  25.959  28.298  1.00  0.00    -0.014 A 
ATOM     78  C   UNL A   1      42.216  24.792  28.953  1.00  0.00     0.010 A 
ATOM     79  C   UNL A   1      41.028  25.833  27.117  1.00  0.00     0.010 A 
ATOM     80  C   UNL A   1      41.915  23.530  28.431  1.00  0.00     0.020 A 
ATOM     81  C   UNL A   1      40.694  24.574  26.611  1.00  0.00     0.020 A 
ATOM     82  C   UNL A   1      41.149  23.429  27.267  1.00  0.00     0.054 A 
BRANCH  82  83
ATOM     83  S   UNL A   1      40.727  21.779  26.641  1.00  0.00     0.124 S 
ATOM     84  O   UNL A   1      41.808  21.526  25.693  1.00  0.00    -0.237 OA
ATOM     85  O   UNL A   1      40.750  20.970  27.857  1.00  0.00    -0.237 OA
ATOM     86  O   UNL A   1      39.405  21.964  26.047  1.00  0.00    -0.744 OA
ENDBRANCH  82  83
ENDBRANCH  54  77
BRANCH  66  87
ATOM     87  C   UNL A   1      47.601  29.851  28.173  1.00  0.00    -0.014 A 
ATOM     88  C   UNL A   1      48.170  28.567  28.152  1.00  0.00     0.010 A 
ATOM     89  C   UNL A   1      48.309  30.924  27.594  1.00  0.00     0.010 A 
ATOM     90  C   UNL A   1      49.423  28.361  27.565  1.00  0.00     0.020 A 
ATOM     91  C   UNL A   1      49.544  30.715  26.977  1.00  0.00     0.020 A 
ATOM     92  C   UNL A   1      50.097  29.434  26.969  1.00  0.00     0.054 A 
BRANCH  92  93
ATOM     93  S   UNL A   1      51.673  29.118  26.129  1.00  0.00     0.124 S 
ATOM     94  O   UNL A   1      51.908  27.711  26.439  1.00  0.00    -0.237 OA
ATOM     95  O   UNL A   1      51.353  29.409  24.734  1.00  0.00    -0.237 OA
ATOM     96  O   UNL A   1      52.598  30.056  26.760  1.00  0.00    -0.744 OA
ENDBRANCH  92  93
ENDBRANCH  66  87
ENDBRANCH  40  41
ENDBRANCH  33  35
ENDBRANCH  32  33
ENDBRANCH  31  32
ENDBRANCH  30  31
ENDBRANCH  29  30
ENDBRANCH  28  29
ENDBRANCH  27  28
ENDBRANCH   1  27
TORSDOF 28
ENDMDL
MODEL 2
REMARK VINA RESULT:      -8.3      4.326      8.123
REMARK SMILES C#CC[N@H+](CC(=O)OCCOCCOCCOCCOC(=O)c1ccc(-c2c3nc(c(-c4ccc(S(=O)(=O)[O-])cc4)c4ccc([nH]4)c(-c4ccc(S(=O)(=O)[O-])cc4)c4nc(c(-c5ccc(S(=O)(=O)[O-])cc5)c5ccc2[nH]5)C=C4)C=C3)cc1)[C@H](C)c1nc2ccccc2s1
REMARK SMILES IDX 14 1 13 2 12 3 11 4 10 5 9 6 8 7 6 8 7 9 5 10 4 11 3 13 2 14
REMARK SMILES IDX 1 15 83 16 84 17 85 18 86 19 93 20 87 21 92 22 88 23 91 24
REMARK SMILES IDX 89 25 90 26 15 27 16 28 17 29 18 30 19 31 20 32 21 33 22 34
REMARK SMILES IDX 23 35 24 36 82 37 25 38 81 39 26 40 27 41 28 42 75 43 29 44
REMARK SMILES IDX 80 45 74 46 76 47 30 48 79 49 73 50 72 51 31 53 61 54 42 55
REMARK SMILES IDX 60 56 43 57 46 58 59 59 77 60 44 61 45 62 58 64 78 65 47 66
REMARK SMILES IDX 32 67 33 68 41 69 34 70 40 71 35 72 36 73 37 74 38 75 39 76
REMARK SMILES IDX 62 77 63 78 71 79 64 80 70 81 65 82 66 83 67 84 68 85 69 86
REMARK SMILES IDX 48 87 49 88 57 89 50 90 56 91 51 92 52 93 53 94 54 95 55 96
REMARK H PARENT 4 12 76 52 46 63
REMARK Flexibility Score: inf
ROOT
ATOM      1  O   UNL A   1      33.471  23.835  26.377  1.00  0.00    -0.377 OA
ENDROOT
BRANCH   1   2
ATOM      2  C   UNL A   1      33.496  22.809  25.414  1.00  0.00     0.188 C 
BRANCH   2   3
ATOM      3  C   UNL A   1      34.881  22.421  24.868  1.00  0.00     0.188 C 
BRANCH   3   4
ATOM      4  O   UNL A   1      35.461  21.183  25.227  1.00  0.00    -0.376 OA
BRANCH   4   5
ATOM      5  C   UNL A   1      36.600  20.651  24.570  1.00  0.00     0.202 C 
BRANCH   5   6
ATOM      6  C   UNL A   1      38.067  20.987  24.893  1.00  0.00     0.261 C 
BRANCH   6   7
ATOM      7  O   UNL A   1      38.332  21.557  26.175  1.00  0.00    -0.459 OA
BRANCH   7   8
ATOM      8  C   UNL A   1      38.593  22.877  26.199  1.00  0.00     0.361 C 
ATOM      9  O   UNL A   1      37.791  23.736  25.830  1.00  0.00    -0.245 OA
BRANCH   8  10
ATOM     10  C   UNL A   1      39.942  23.294  26.770  1.00  0.00     0.387 C 
BRANCH  10  11
ATOM     11  N   UNL A   1      40.749  24.396  26.172  1.00  0.00    -0.308 N 
ATOM     12  H   UNL A   1      40.691  24.308  25.158  1.00  0.00     0.350 HD
BRANCH  11  13
ATOM     13  C   UNL A   1      40.202  25.739  26.423  1.00  0.00     0.355 C 
BRANCH  13  14
ATOM     14  C   UNL A   1      39.680  25.884  27.798  1.00  0.00    -0.047 C 
ATOM     15  C   UNL A   1      39.290  25.987  28.936  1.00  0.00     0.010 C 
ENDBRANCH  13  14
ENDBRANCH  11  13
BRANCH  11  16
ATOM     16  C   UNL A   1      42.198  24.241  26.566  1.00  0.00     0.242 C 
ATOM     17  C   UNL A   1      43.086  25.493  26.343  1.00  0.00     0.083 C 
BRANCH  16  18
ATOM     18  C   UNL A   1      42.919  23.038  25.953  1.00  0.00     0.151 A 
ATOM     19  N   UNL A   1      42.410  21.822  25.970  1.00  0.00    -0.235 NA
ATOM     20  S   UNL A   1      44.457  23.165  25.188  1.00  0.00    -0.113 S 
ATOM     21  C   UNL A   1      43.351  20.903  25.570  1.00  0.00     0.082 A 
ATOM     22  C   UNL A   1      44.547  21.439  25.093  1.00  0.00     0.055 A 
ATOM     23  C   UNL A   1      43.201  19.506  25.656  1.00  0.00     0.030 A 
ATOM     24  C   UNL A   1      45.599  20.608  24.667  1.00  0.00     0.021 A 
ATOM     25  C   UNL A   1      44.258  18.674  25.285  1.00  0.00     0.002 A 
ATOM     26  C   UNL A   1      45.438  19.219  24.788  1.00  0.00     0.002 A 
ENDBRANCH  16  18
ENDBRANCH  11  16
ENDBRANCH  10  11
ENDBRANCH   8  10
ENDBRANCH   7   8
ENDBRANCH   6   7
ENDBRANCH   5   6
ENDBRANCH   4   5
ENDBRANCH   3   4
ENDBRANCH   2   3
ENDBRANCH   1   2
BRANCH   1  27
ATOM     27  C   UNL A   1      32.427  24.792  26.382  1.00  0.00     0.188 C 
BRANCH  27  28
ATOM     28  C   UNL A   1      32.288  25.854  25.269  1.00  0.00     0.188 C 
BRANCH  28  29
ATOM     29  O   UNL A   1      32.804  27.134  25.579  1.00  0.00    -0.376 OA
BRANCH  29  30
ATOM     30  C   UNL A   1      31.929  28.143  26.051  1.00  0.00     0.202 C 
BRANCH  30  31
ATOM     31  C   UNL A   1      32.473  29.294  26.917  1.00  0.00     0.261 C 
BRANCH  31  32
ATOM     32  O   UNL A   1      33.889  29.505  26.918  1.00  0.00    -0.460 OA
BRANCH  32  33
ATOM     33  C   UNL A   1      34.344  30.723  27.285  1.00  0.00     0.338 C 
ATOM     34  O   UNL A   1      33.711  31.760  27.326  1.00  0.00    -0.246 OA
BRANCH  33  35
ATOM     35  C   UNL A   1      35.720  30.540  27.800  1.00  0.00     0.060 A 
ATOM     36  C   UNL A   1      36.320  29.273  27.745  1.00  0.00     0.016 A 
ATOM     37  C   UNL A   1      36.419  31.632  28.314  1.00  0.00     0.016 A 
ATOM     38  C   UNL A   1      37.617  29.090  28.233  1.00  0.00     0.010 A 
ATOM     39  C   UNL A   1      37.703  31.440  28.829  1.00  0.00     0.010 A 
ATOM     40  C   UNL A   1      38.295  30.164  28.820  1.00  0.00    -0.014 A 
BRANCH  40  41
ATOM     41  C   UNL A   1      39.523  29.945  29.622  1.00  0.00     0.031 A 
ATOM     42  C   UNL A   1      39.463  30.255  31.092  1.00  0.00     0.074 A 
ATOM     43  C   UNL A   1      40.675  29.534  29.062  1.00  0.00     0.049 A 
ATOM     44  N   UNL A   1      40.430  30.329  31.967  1.00  0.00    -0.248 NA
ATOM     45  C   UNL A   1      38.126  30.535  31.645  1.00  0.00     0.031 C 
ATOM     46  C   UNL A   1      40.846  29.139  27.665  1.00  0.00     0.029 A 
ATOM     47  N   UNL A   1      41.930  29.409  29.606  1.00  0.00    -0.354 N 
ATOM     48  C   UNL A   1      39.825  30.692  33.164  1.00  0.00     0.074 A 
ATOM     49  C   UNL A   1      38.412  30.844  32.900  1.00  0.00     0.031 C 
ATOM     50  C   UNL A   1      42.141  28.838  27.455  1.00  0.00     0.029 A 
ATOM     51  C   UNL A   1      42.896  29.073  28.686  1.00  0.00     0.049 A 
ATOM     52  H   UNL A   1      42.120  29.546  30.562  1.00  0.00     0.167 HD
ATOM     53  C   UNL A   1      40.399  30.886  34.374  1.00  0.00     0.031 A 
ATOM     54  C   UNL A   1      44.239  29.008  28.813  1.00  0.00     0.031 A 
ATOM     55  C   UNL A   1      41.810  30.753  34.621  1.00  0.00     0.049 A 
ATOM     56  C   UNL A   1      44.870  29.326  30.147  1.00  0.00     0.074 A 
ATOM     57  C   UNL A   1      42.491  30.917  35.813  1.00  0.00     0.029 A 
ATOM     58  N   UNL A   1      42.755  30.432  33.658  1.00  0.00    -0.354 N 
ATOM     59  N   UNL A   1      44.290  29.661  31.277  1.00  0.00    -0.248 NA
ATOM     60  C   UNL A   1      46.338  29.257  30.226  1.00  0.00     0.031 C 
ATOM     61  C   UNL A   1      43.856  30.772  35.556  1.00  0.00     0.029 A 
ATOM     62  C   UNL A   1      44.018  30.425  34.223  1.00  0.00     0.049 A 
ATOM     63  H   UNL A   1      42.557  30.239  32.713  1.00  0.00     0.167 HD
ATOM     64  C   UNL A   1      45.317  29.794  32.208  1.00  0.00     0.074 A 
ATOM     65  C   UNL A   1      46.553  29.506  31.512  1.00  0.00     0.031 C 
ATOM     66  C   UNL A   1      45.241  30.114  33.523  1.00  0.00     0.031 A 
BRANCH  53  67
ATOM     67  C   UNL A   1      39.508  31.312  35.512  1.00  0.00    -0.014 A 
ATOM     68  C   UNL A   1      39.269  32.670  35.791  1.00  0.00     0.010 A 
ATOM     69  C   UNL A   1      38.864  30.332  36.291  1.00  0.00     0.010 A 
ATOM     70  C   UNL A   1      38.436  33.039  36.849  1.00  0.00     0.020 A 
ATOM     71  C   UNL A   1      38.001  30.697  37.327  1.00  0.00     0.020 A 
ATOM     72  C   UNL A   1      37.805  32.050  37.609  1.00  0.00     0.054 A 
BRANCH  72  73
ATOM     73  S   UNL A   1      36.705  32.561  38.957  1.00  0.00     0.124 S 
ATOM     74  O   UNL A   1      37.549  33.498  39.695  1.00  0.00    -0.237 OA
ATOM     75  O   UNL A   1      35.580  33.157  38.240  1.00  0.00    -0.237 OA
ATOM     76  O   UNL A   1      36.406  31.313  39.655  1.00  0.00    -0.744 OA
ENDBRANCH  72  73
ENDBRANCH  53  67
BRANCH  54  77
ATOM     77  C   UNL A   1      45.086  28.655  27.639  1.00  0.00    -0.014 A 
ATOM     78  C   UNL A   1      45.539  27.337  27.452  1.00  0.00     0.010 A 
ATOM     79  C   UNL A   1      45.453  29.639  26.700  1.00  0.00     0.010 A 
ATOM     80  C   UNL A   1      46.356  27.014  26.364  1.00  0.00     0.020 A 
ATOM     81  C   UNL A   1      46.239  29.312  25.591  1.00  0.00     0.020 A 
ATOM     82  C   UNL A   1      46.694  28.002  25.436  1.00  0.00     0.054 A 
BRANCH  82  83
ATOM     83  S   UNL A   1      47.711  27.543  24.005  1.00  0.00     0.124 S 
ATOM     84  O   UNL A   1      47.554  26.092  23.971  1.00  0.00    -0.237 OA
ATOM     85  O   UNL A   1      47.066  28.276  22.917  1.00  0.00    -0.237 OA
ATOM     86  O   UNL A   1      49.044  28.020  24.364  1.00  0.00    -0.744 OA
ENDBRANCH  82  83
ENDBRANCH  54  77
BRANCH  66  87
ATOM     87  C   UNL A   1      46.510  30.105  34.337  1.00  0.00    -0.014 A 
ATOM     88  C   UNL A   1      47.399  31.192  34.338  1.00  0.00     0.010 A 
ATOM     89  C   UNL A   1      46.747  29.025  35.212  1.00  0.00     0.010 A 
ATOM     90  C   UNL A   1      48.505  31.197  35.194  1.00  0.00     0.020 A 
ATOM     91  C   UNL A   1      47.830  29.043  36.092  1.00  0.00     0.020 A 
ATOM     92  C   UNL A   1      48.707  30.129  36.076  1.00  0.00     0.054 A 
BRANCH  92  93
ATOM     93  S   UNL A   1      50.092  30.209  37.244  1.00  0.00     0.124 S 
ATOM     94  O   UNL A   1      49.599  29.405  38.358  1.00  0.00    -0.237 OA
ATOM     95  O   UNL A   1      51.187  29.619  36.479  1.00  0.00    -0.237 OA
ATOM     96  O   UNL A   1      50.232  31.637  37.521  1.00  0.00    -0.744 OA
ENDBRANCH  92  93
ENDBRANCH  66  87
ENDBRANCH  40  41
ENDBRANCH  33  35
ENDBRANCH  32  33
ENDBRANCH  31  32
ENDBRANCH  30  31
ENDBRANCH  29  30
ENDBRANCH  28  29
ENDBRANCH  27  28
ENDBRANCH   1  27
TORSDOF 28
ENDMDL
MODEL 3
REMARK VINA RESULT:      -8.2      3.360      4.857
REMARK SMILES C#CC[N@H+](CC(=O)OCCOCCOCCOCCOC(=O)c1ccc(-c2c3nc(c(-c4ccc(S(=O)(=O)[O-])cc4)c4ccc([nH]4)c(-c4ccc(S(=O)(=O)[O-])cc4)c4nc(c(-c5ccc(S(=O)(=O)[O-])cc5)c5ccc2[nH]5)C=C4)C=C3)cc1)[C@H](C)c1nc2ccccc2s1
REMARK SMILES IDX 14 1 13 2 12 3 11 4 10 5 9 6 8 7 6 8 7 9 5 10 4 11 3 13 2 14
REMARK SMILES IDX 1 15 83 16 84 17 85 18 86 19 93 20 87 21 92 22 88 23 91 24
REMARK SMILES IDX 89 25 90 26 15 27 16 28 17 29 18 30 19 31 20 32 21 33 22 34
REMARK SMILES IDX 23 35 24 36 82 37 25 38 81 39 26 40 27 41 28 42 75 43 29 44
REMARK SMILES IDX 80 45 74 46 76 47 30 48 79 49 73 50 72 51 31 53 61 54 42 55
REMARK SMILES IDX 60 56 43 57 46 58 59 59 77 60 44 61 45 62 58 64 78 65 47 66
REMARK SMILES IDX 32 67 33 68 41 69 34 70 40 71 35 72 36 73 37 74 38 75 39 76
REMARK SMILES IDX 62 77 63 78 71 79 64 80 70 81 65 82 66 83 67 84 68 85 69 86
REMARK SMILES IDX 48 87 49 88 57 89 50 90 56 91 51 92 52 93 53 94 54 95 55 96
REMARK H PARENT 4 12 76 52 46 63
REMARK Flexibility Score: inf
ROOT
ATOM      1  O   UNL A   1      35.464  32.081  27.621  1.00  0.00    -0.377 OA
ENDROOT
BRANCH   1   2
ATOM      2  C   UNL A   1      35.664  30.859  28.290  1.00  0.00     0.188 C 
BRANCH   2   3
ATOM      3  C   UNL A   1      35.598  29.590  27.424  1.00  0.00     0.188 C 
BRANCH   3   4
ATOM      4  O   UNL A   1      34.387  28.869  27.316  1.00  0.00    -0.376 OA
BRANCH   4   5
ATOM      5  C   UNL A   1      33.237  29.396  26.673  1.00  0.00     0.202 C 
BRANCH   5   6
ATOM      6  C   UNL A   1      31.775  29.099  27.051  1.00  0.00     0.261 C 
BRANCH   6   7
ATOM      7  O   UNL A   1      31.065  28.184  26.215  1.00  0.00    -0.459 OA
BRANCH   7   8
ATOM      8  C   UNL A   1      31.519  26.918  26.194  1.00  0.00     0.361 C 
ATOM      9  O   UNL A   1      31.632  26.218  27.202  1.00  0.00    -0.245 OA
BRANCH   8  10
ATOM     10  C   UNL A   1      31.851  26.336  24.827  1.00  0.00     0.387 C 
BRANCH  10  11
ATOM     11  N   UNL A   1      33.166  26.573  24.163  1.00  0.00    -0.308 N 
ATOM     12  H   UNL A   1      33.776  27.032  24.838  1.00  0.00     0.350 HD
BRANCH  11  13
ATOM     13  C   UNL A   1      33.899  25.339  23.834  1.00  0.00     0.355 C 
BRANCH  13  14
ATOM     14  C   UNL A   1      34.184  24.521  25.032  1.00  0.00    -0.047 C 
ATOM     15  C   UNL A   1      34.393  23.880  26.032  1.00  0.00     0.010 C 
ENDBRANCH  13  14
ENDBRANCH  11  13
BRANCH  11  16
ATOM     16  C   UNL A   1      32.985  27.509  22.992  1.00  0.00     0.242 C 
ATOM     17  C   UNL A   1      34.028  28.652  22.888  1.00  0.00     0.083 C 
BRANCH  16  18
ATOM     18  C   UNL A   1      31.593  28.129  22.858  1.00  0.00     0.151 A 
ATOM     19  N   UNL A   1      31.360  29.406  23.089  1.00  0.00    -0.235 NA
ATOM     20  S   UNL A   1      30.207  27.216  22.395  1.00  0.00    -0.113 S 
ATOM     21  C   UNL A   1      30.007  29.648  23.126  1.00  0.00     0.082 A 
ATOM     22  C   UNL A   1      29.196  28.572  22.766  1.00  0.00     0.055 A 
ATOM     23  C   UNL A   1      29.415  30.857  23.538  1.00  0.00     0.030 A 
ATOM     24  C   UNL A   1      27.793  28.681  22.777  1.00  0.00     0.021 A 
ATOM     25  C   UNL A   1      28.025  30.958  23.602  1.00  0.00     0.002 A 
ATOM     26  C   UNL A   1      27.226  29.886  23.218  1.00  0.00     0.002 A 
ENDBRANCH  16  18
ENDBRANCH  11  16
ENDBRANCH  10  11
ENDBRANCH   8  10
ENDBRANCH   7   8
ENDBRANCH   6   7
ENDBRANCH   5   6
ENDBRANCH   4   5
ENDBRANCH   3   4
ENDBRANCH   2   3
ENDBRANCH   1   2
BRANCH   1  27
ATOM     27  C   UNL A   1      35.984  33.286  28.152  1.00  0.00     0.188 C 
BRANCH  27  28
ATOM     28  C   UNL A   1      35.209  34.619  28.065  1.00  0.00     0.188 C 
BRANCH  28  29
ATOM     29  O   UNL A   1      33.800  34.512  28.140  1.00  0.00    -0.376 OA
BRANCH  29  30
ATOM     30  C   UNL A   1      33.161  34.612  29.401  1.00  0.00     0.202 C 
BRANCH  30  31
ATOM     31  C   UNL A   1      33.990  34.533  30.695  1.00  0.00     0.261 C 
BRANCH  31  32
ATOM     32  O   UNL A   1      34.264  33.230  31.224  1.00  0.00    -0.460 OA
BRANCH  32  33
ATOM     33  C   UNL A   1      34.722  33.148  32.492  1.00  0.00     0.338 C 
ATOM     34  O   UNL A   1      34.063  33.190  33.513  1.00  0.00    -0.246 OA
BRANCH  33  35
ATOM     35  C   UNL A   1      36.164  32.823  32.418  1.00  0.00     0.060 A 
ATOM     36  C   UNL A   1      37.040  33.315  33.397  1.00  0.00     0.016 A 
ATOM     37  C   UNL A   1      36.640  32.011  31.387  1.00  0.00     0.016 A 
ATOM     38  C   UNL A   1      38.404  33.017  33.332  1.00  0.00     0.010 A 
ATOM     39  C   UNL A   1      38.007  31.741  31.307  1.00  0.00     0.010 A 
ATOM     40  C   UNL A   1      38.899  32.268  32.259  1.00  0.00    -0.014 A 
BRANCH  40  41
ATOM     41  C   UNL A   1      40.355  32.198  31.984  1.00  0.00     0.031 A 
ATOM     42  C   UNL A   1      40.969  33.312  31.182  1.00  0.00     0.074 A 
ATOM     43  C   UNL A   1      41.106  31.158  32.385  1.00  0.00     0.049 A 
ATOM     44  N   UNL A   1      42.159  33.397  30.651  1.00  0.00    -0.248 NA
ATOM     45  C   UNL A   1      40.111  34.485  30.932  1.00  0.00     0.031 C 
ATOM     46  C   UNL A   1      40.647  30.052  33.223  1.00  0.00     0.029 A 
ATOM     47  N   UNL A   1      42.418  30.853  32.112  1.00  0.00    -0.354 N 
ATOM     48  C   UNL A   1      42.185  34.614  29.981  1.00  0.00     0.074 A 
ATOM     49  C   UNL A   1      40.886  35.225  30.154  1.00  0.00     0.031 C 
ATOM     50  C   UNL A   1      41.656  29.175  33.375  1.00  0.00     0.029 A 
ATOM     51  C   UNL A   1      42.811  29.630  32.601  1.00  0.00     0.049 A 
ATOM     52  H   UNL A   1      43.018  31.453  31.614  1.00  0.00     0.167 HD
ATOM     53  C   UNL A   1      43.201  35.170  29.280  1.00  0.00     0.031 A 
ATOM     54  C   UNL A   1      43.954  28.937  32.409  1.00  0.00     0.031 A 
ATOM     55  C   UNL A   1      44.482  34.544  29.097  1.00  0.00     0.049 A 
ATOM     56  C   UNL A   1      45.038  29.530  31.540  1.00  0.00     0.074 A 
ATOM     57  C   UNL A   1      45.583  35.027  28.414  1.00  0.00     0.029 A 
ATOM     58  N   UNL A   1      44.831  33.296  29.591  1.00  0.00    -0.354 N 
ATOM     59  N   UNL A   1      45.058  30.686  30.918  1.00  0.00    -0.248 NA
ATOM     60  C   UNL A   1      46.256  28.727  31.350  1.00  0.00     0.031 C 
ATOM     61  C   UNL A   1      46.571  34.040  28.429  1.00  0.00     0.029 A 
ATOM     62  C   UNL A   1      46.121  32.979  29.200  1.00  0.00     0.049 A 
ATOM     63  H   UNL A   1      44.249  32.721  30.138  1.00  0.00     0.167 HD
ATOM     64  C   UNL A   1      46.305  30.766  30.303  1.00  0.00     0.074 A 
ATOM     65  C   UNL A   1      47.011  29.545  30.626  1.00  0.00     0.031 C 
ATOM     66  C   UNL A   1      46.822  31.768  29.549  1.00  0.00     0.031 A 
BRANCH  53  67
ATOM     67  C   UNL A   1      42.950  36.500  28.618  1.00  0.00    -0.014 A 
ATOM     68  C   UNL A   1      43.335  37.709  29.225  1.00  0.00     0.010 A 
ATOM     69  C   UNL A   1      42.354  36.536  27.343  1.00  0.00     0.010 A 
ATOM     70  C   UNL A   1      43.094  38.928  28.589  1.00  0.00     0.020 A 
ATOM     71  C   UNL A   1      42.145  37.751  26.687  1.00  0.00     0.020 A 
ATOM     72  C   UNL A   1      42.502  38.942  27.322  1.00  0.00     0.054 A 
BRANCH  72  73
ATOM     73  S   UNL A   1      42.231  40.539  26.509  1.00  0.00     0.124 S 
ATOM     74  O   UNL A   1      40.815  40.461  26.157  1.00  0.00    -0.237 OA
ATOM     75  O   UNL A   1      42.565  41.494  27.563  1.00  0.00    -0.237 OA
ATOM     76  O   UNL A   1      43.154  40.515  25.376  1.00  0.00    -0.744 OA
ENDBRANCH  72  73
ENDBRANCH  53  67
BRANCH  54  77
ATOM     77  C   UNL A   1      44.127  27.591  33.024  1.00  0.00    -0.014 A 
ATOM     78  C   UNL A   1      43.881  26.425  32.278  1.00  0.00     0.010 A 
ATOM     79  C   UNL A   1      44.534  27.466  34.366  1.00  0.00     0.010 A 
ATOM     80  C   UNL A   1      44.019  25.163  32.865  1.00  0.00     0.020 A 
ATOM     81  C   UNL A   1      44.708  26.206  34.946  1.00  0.00     0.020 A 
ATOM     82  C   UNL A   1      44.439  25.062  34.194  1.00  0.00     0.054 A 
BRANCH  82  83
ATOM     83  S   UNL A   1      44.662  23.411  34.915  1.00  0.00     0.124 S 
ATOM     84  O   UNL A   1      43.310  22.864  34.850  1.00  0.00    -0.237 OA
ATOM     85  O   UNL A   1      45.635  22.805  34.010  1.00  0.00    -0.237 OA
ATOM     86  O   UNL A   1      45.160  23.689  36.260  1.00  0.00    -0.744 OA
ENDBRANCH  82  83
ENDBRANCH  54  77
BRANCH  66  87
ATOM     87  C   UNL A   1      48.246  31.641  29.070  1.00  0.00    -0.014 A 
ATOM     88  C   UNL A   1      49.334  32.034  29.866  1.00  0.00     0.010 A 
ATOM     89  C   UNL A   1      48.493  31.002  27.838  1.00  0.00     0.010 A 
ATOM     90  C   UNL A   1      50.644  31.794  29.438  1.00  0.00     0.020 A 
ATOM     91  C   UNL A   1      49.799  30.730  27.423  1.00  0.00     0.020 A 
ATOM     92  C   UNL A   1      50.868  31.132  28.225  1.00  0.00     0.054 A 
BRANCH  92  93
ATOM     93  S   UNL A   1      52.573  30.745  27.742  1.00  0.00     0.124 S 
ATOM     94  O   UNL A   1      52.808  31.699  26.662  1.00  0.00    -0.237 OA
ATOM     95  O   UNL A   1      53.317  30.995  28.974  1.00  0.00    -0.237 OA
ATOM     96  O   UNL A   1      52.510  29.345  27.332  1.00  0.00    -0.744 OA
ENDBRANCH  92  93
ENDBRANCH  66  87
ENDBRANCH  40  41
ENDBRANCH  33  35
ENDBRANCH  32  33
ENDBRANCH  31  32
ENDBRANCH  30  31
ENDBRANCH  29  30
ENDBRANCH  28  29
ENDBRANCH  27  28
ENDBRANCH   1  27
TORSDOF 28
ENDMDL
