MODEL 1
REMARK VINA RESULT:     -10.0      0.000      0.000
REMARK SMILES CC(=O)Nc1cc(NC(C)=O)cc(C(=O)Nc2ccc(Br)cc2C(=O)OCCOCCOCCOCCOC(=O)c2ccc(-c3c4nc(c(-c5ccc(S(=O)(=O)[O-])cc5)c5ccc([nH]5)c(-c5ccc(S(=O)(=O)[O-])cc5)c5nc(c(-c6ccc(S(=O)(=O)[O-])cc6)c6ccc3[nH]6)C=C5)C=C4)cc2)c1
REMARK SMILES IDX 32 1 31 2 30 3 29 4 28 5 27 6 26 7 24 8 25 9 23 10 17 11
REMARK SMILES IDX 18 12 19 13 22 14 20 15 21 16 16 17 14 18 15 19 13 21 5 22
REMARK SMILES IDX 6 23 101 24 7 25 12 26 4 27 1 28 2 29 3 30 8 32 9 33 10 35
REMARK SMILES IDX 11 36 33 37 34 38 35 39 36 40 37 41 38 42 39 43 40 44 41 45
REMARK SMILES IDX 42 46 100 47 43 48 99 49 44 50 45 51 46 52 93 53 47 54 98 55
REMARK SMILES IDX 92 56 94 57 48 58 97 59 91 60 90 61 49 63 79 64 60 65 78 66
REMARK SMILES IDX 61 67 64 68 77 69 95 70 62 71 63 72 76 74 96 75 65 76 50 77
REMARK SMILES IDX 51 78 59 79 52 80 58 81 53 82 54 83 55 84 56 85 57 86 80 87
REMARK SMILES IDX 81 88 89 89 82 90 88 91 83 92 84 93 85 94 86 95 87 96 66 97
REMARK SMILES IDX 67 98 75 99 68 100 74 101 69 102 70 103 71 104 72 105 73 106
REMARK H PARENT 16 20 4 31 8 34 94 62 64 73
REMARK Flexibility Score: inf
ROOT
ATOM      1  O   UNL A   1      30.286  29.469  23.880  1.00  0.00    -0.377 OA
ENDROOT
BRANCH   1   2
ATOM      2  C   UNL A   1      29.900  28.147  23.573  1.00  0.00     0.188 C 
BRANCH   2   3
ATOM      3  C   UNL A   1      30.489  27.045  24.481  1.00  0.00     0.188 C 
BRANCH   3   4
ATOM      4  O   UNL A   1      29.964  25.730  24.503  1.00  0.00    -0.376 OA
BRANCH   4   5
ATOM      5  C   UNL A   1      29.859  24.895  23.365  1.00  0.00     0.202 C 
BRANCH   5   6
ATOM      6  C   UNL A   1      30.937  23.931  22.876  1.00  0.00     0.261 C 
BRANCH   6   7
ATOM      7  O   UNL A   1      31.062  22.673  23.533  1.00  0.00    -0.460 OA
BRANCH   7   8
ATOM      8  C   UNL A   1      32.107  21.934  23.115  1.00  0.00     0.340 C 
ATOM      9  O   UNL A   1      32.848  22.209  22.182  1.00  0.00    -0.246 OA
BRANCH   8  10
ATOM     10  C   UNL A   1      32.372  20.800  24.033  1.00  0.00     0.084 A 
ATOM     11  C   UNL A   1      32.326  20.824  25.441  1.00  0.00     0.056 A 
ATOM     12  C   UNL A   1      32.783  19.679  26.127  1.00  0.00     0.028 A 
ATOM     13  C   UNL A   1      33.175  18.519  25.448  1.00  0.00     0.018 A 
ATOM     14  C   UNL A   1      32.773  19.625  23.356  1.00  0.00     0.033 A 
ATOM     15  C   UNL A   1      33.157  18.494  24.062  1.00  0.00     0.018 A 
ATOM     16  Br  UNL A   1      33.645  16.926  23.131  1.00  0.00    -0.051 Br
BRANCH  11  17
ATOM     17  N   UNL A   1      31.835  21.844  26.293  1.00  0.00    -0.321 N 
ATOM     18  C   UNL A   1      32.330  23.058  26.734  1.00  0.00     0.255 C 
ATOM     19  O   UNL A   1      31.748  23.640  27.647  1.00  0.00    -0.269 OA
ATOM     20  H   UNL A   1      30.940  21.644  26.651  1.00  0.00     0.170 HD
BRANCH  18  21
ATOM     21  C   UNL A   1      33.508  23.714  26.112  1.00  0.00     0.044 A 
ATOM     22  C   UNL A   1      34.405  24.785  24.161  1.00  0.00     0.044 A 
ATOM     23  C   UNL A   1      35.672  24.272  24.501  1.00  0.00     0.052 A 
ATOM     24  C   UNL A   1      33.350  24.605  25.047  1.00  0.00     0.040 A 
ATOM     25  C   UNL A   1      35.878  23.534  25.672  1.00  0.00     0.044 A 
ATOM     26  C   UNL A   1      34.780  23.264  26.490  1.00  0.00     0.040 A 
BRANCH  22  27
ATOM     27  N   UNL A   1      34.238  25.172  22.813  1.00  0.00    -0.326 N 
ATOM     28  C   UNL A   1      33.669  27.600  22.917  1.00  0.00     0.114 C 
ATOM     29  C   UNL A   1      33.713  26.277  22.211  1.00  0.00     0.221 C 
ATOM     30  O   UNL A   1      33.298  26.187  21.052  1.00  0.00    -0.275 OA
ATOM     31  H   UNL A   1      34.570  24.502  22.172  1.00  0.00     0.169 HD
ENDBRANCH  22  27
BRANCH  25  32
ATOM     32  N   UNL A   1      37.108  22.918  26.007  1.00  0.00    -0.326 N 
ATOM     33  C   UNL A   1      37.585  21.705  25.542  1.00  0.00     0.221 C 
ATOM     34  H   UNL A   1      37.685  23.405  26.639  1.00  0.00     0.169 HD
ATOM     35  C   UNL A   1      38.948  21.348  26.075  1.00  0.00     0.114 C 
ATOM     36  O   UNL A   1      37.011  20.939  24.773  1.00  0.00    -0.275 OA
ENDBRANCH  25  32
ENDBRANCH  18  21
ENDBRANCH  11  17
ENDBRANCH   8  10
ENDBRANCH   7   8
ENDBRANCH   6   7
ENDBRANCH   5   6
ENDBRANCH   4   5
ENDBRANCH   3   4
ENDBRANCH   2   3
ENDBRANCH   1   2
BRANCH   1  37
ATOM     37  C   UNL A   1      31.618  29.708  24.315  1.00  0.00     0.188 C 
BRANCH  37  38
ATOM     38  C   UNL A   1      31.916  30.046  25.795  1.00  0.00     0.188 C 
BRANCH  38  39
ATOM     39  O   UNL A   1      33.291  30.159  26.115  1.00  0.00    -0.376 OA
BRANCH  39  40
ATOM     40  C   UNL A   1      33.695  30.938  27.224  1.00  0.00     0.202 C 
BRANCH  40  41
ATOM     41  C   UNL A   1      32.902  32.213  27.542  1.00  0.00     0.261 C 
BRANCH  41  42
ATOM     42  O   UNL A   1      33.643  33.439  27.546  1.00  0.00    -0.460 OA
BRANCH  42  43
ATOM     43  C   UNL A   1      33.543  34.216  28.644  1.00  0.00     0.338 C 
ATOM     44  O   UNL A   1      32.601  34.931  28.952  1.00  0.00    -0.246 OA
BRANCH  43  45
ATOM     45  C   UNL A   1      34.681  33.897  29.527  1.00  0.00     0.060 A 
ATOM     46  C   UNL A   1      35.973  34.278  29.136  1.00  0.00     0.016 A 
ATOM     47  C   UNL A   1      34.474  33.230  30.737  1.00  0.00     0.016 A 
ATOM     48  C   UNL A   1      37.067  33.949  29.931  1.00  0.00     0.010 A 
ATOM     49  C   UNL A   1      35.574  32.874  31.519  1.00  0.00     0.010 A 
ATOM     50  C   UNL A   1      36.876  33.193  31.095  1.00  0.00    -0.014 A 
BRANCH  50  51
ATOM     51  C   UNL A   1      38.044  32.532  31.722  1.00  0.00     0.031 A 
ATOM     52  C   UNL A   1      38.508  33.048  33.058  1.00  0.00     0.074 A 
ATOM     53  C   UNL A   1      38.649  31.478  31.147  1.00  0.00     0.049 A 
ATOM     54  N   UNL A   1      39.513  32.656  33.795  1.00  0.00    -0.248 NA
ATOM     55  C   UNL A   1      37.732  34.158  33.640  1.00  0.00     0.031 C 
ATOM     56  C   UNL A   1      38.255  30.859  29.883  1.00  0.00     0.029 A 
ATOM     57  N   UNL A   1      39.734  30.746  31.560  1.00  0.00    -0.354 N 
ATOM     58  C   UNL A   1      39.499  33.477  34.917  1.00  0.00     0.074 A 
ATOM     59  C   UNL A   1      38.404  34.405  34.754  1.00  0.00     0.031 C 
ATOM     60  C   UNL A   1      39.094  29.842  29.617  1.00  0.00     0.029 A 
ATOM     61  C   UNL A   1      40.105  29.764  30.671  1.00  0.00     0.049 A 
ATOM     62  H   UNL A   1      40.201  30.907  32.410  1.00  0.00     0.167 HD
ATOM     63  C   UNL A   1      40.325  33.457  35.989  1.00  0.00     0.031 A 
ATOM     64  C   UNL A   1      41.155  28.919  30.698  1.00  0.00     0.031 A 
ATOM     65  C   UNL A   1      41.420  32.538  36.139  1.00  0.00     0.049 A 
ATOM     66  C   UNL A   1      42.104  28.965  31.870  1.00  0.00     0.074 A 
ATOM     67  C   UNL A   1      42.306  32.423  37.195  1.00  0.00     0.029 A 
ATOM     68  N   UNL A   1      41.785  31.583  35.202  1.00  0.00    -0.354 N 
ATOM     69  N   UNL A   1      42.063  29.728  32.938  1.00  0.00    -0.248 NA
ATOM     70  C   UNL A   1      43.235  28.028  31.844  1.00  0.00     0.031 C 
ATOM     71  C   UNL A   1      43.250  31.446  36.866  1.00  0.00     0.029 A 
ATOM     72  C   UNL A   1      42.905  30.897  35.641  1.00  0.00     0.049 A 
ATOM     73  H   UNL A   1      41.318  31.417  34.352  1.00  0.00     0.167 HD
ATOM     74  C   UNL A   1      43.145  29.341  33.723  1.00  0.00     0.074 A 
ATOM     75  C   UNL A   1      43.808  28.264  33.017  1.00  0.00     0.031 C 
ATOM     76  C   UNL A   1      43.554  29.828  34.923  1.00  0.00     0.031 A 
BRANCH  63  77
ATOM     77  C   UNL A   1      40.102  34.490  37.062  1.00  0.00    -0.014 A 
ATOM     78  C   UNL A   1      40.806  35.708  37.070  1.00  0.00     0.010 A 
ATOM     79  C   UNL A   1      39.136  34.252  38.058  1.00  0.00     0.010 A 
ATOM     80  C   UNL A   1      40.566  36.657  38.067  1.00  0.00     0.020 A 
ATOM     81  C   UNL A   1      38.873  35.210  39.040  1.00  0.00     0.020 A 
ATOM     82  C   UNL A   1      39.598  36.403  39.045  1.00  0.00     0.054 A 
BRANCH  82  83
ATOM     83  S   UNL A   1      39.278  37.670  40.301  1.00  0.00     0.124 S 
ATOM     84  O   UNL A   1      38.966  36.860  41.475  1.00  0.00    -0.237 OA
ATOM     85  O   UNL A   1      40.547  38.392  40.355  1.00  0.00    -0.237 OA
ATOM     86  O   UNL A   1      38.156  38.428  39.753  1.00  0.00    -0.744 OA
ENDBRANCH  82  83
ENDBRANCH  63  77
BRANCH  64  87
ATOM     87  C   UNL A   1      41.383  27.974  29.569  1.00  0.00    -0.014 A 
ATOM     88  C   UNL A   1      40.540  26.867  29.369  1.00  0.00     0.010 A 
ATOM     89  C   UNL A   1      42.466  28.173  28.690  1.00  0.00     0.010 A 
ATOM     90  C   UNL A   1      40.787  25.967  28.328  1.00  0.00     0.020 A 
ATOM     91  C   UNL A   1      42.696  27.294  27.628  1.00  0.00     0.020 A 
ATOM     92  C   UNL A   1      41.861  26.188  27.460  1.00  0.00     0.054 A 
BRANCH  92  93
ATOM     93  S   UNL A   1      42.131  25.031  26.090  1.00  0.00     0.124 S 
ATOM     94  O   UNL A   1      43.587  24.947  26.046  1.00  0.00    -0.237 OA
ATOM     95  O   UNL A   1      41.441  23.830  26.555  1.00  0.00    -0.237 OA
ATOM     96  O   UNL A   1      41.507  25.698  24.949  1.00  0.00    -0.744 OA
ENDBRANCH  92  93
ENDBRANCH  64  87
BRANCH  76  97
ATOM     97  C   UNL A   1      44.747  29.174  35.571  1.00  0.00    -0.014 A 
ATOM     98  C   UNL A   1      46.055  29.635  35.339  1.00  0.00     0.010 A 
ATOM     99  C   UNL A   1      44.546  28.111  36.473  1.00  0.00     0.010 A 
ATOM    100  C   UNL A   1      47.143  29.015  35.961  1.00  0.00     0.020 A 
ATOM    101  C   UNL A   1      45.628  27.512  37.123  1.00  0.00     0.020 A 
ATOM    102  C   UNL A   1      46.922  27.957  36.848  1.00  0.00     0.054 A 
BRANCH 102 103
ATOM    103  S   UNL A   1      48.349  27.189  37.663  1.00  0.00     0.124 S 
ATOM    104  O   UNL A   1      48.568  26.003  36.840  1.00  0.00    -0.237 OA
ATOM    105  O   UNL A   1      49.373  28.226  37.558  1.00  0.00    -0.237 OA
ATOM    106  O   UNL A   1      47.874  26.927  39.020  1.00  0.00    -0.744 OA
ENDBRANCH 102 103
ENDBRANCH  76  97
ENDBRANCH  50  51
ENDBRANCH  43  45
ENDBRANCH  42  43
ENDBRANCH  41  42
ENDBRANCH  40  41
ENDBRANCH  39  40
ENDBRANCH  38  39
ENDBRANCH  37  38
ENDBRANCH   1  37
TORSDOF 27
ENDMDL
MODEL 2
REMARK VINA RESULT:      -8.4      2.484      3.661
REMARK SMILES CC(=O)Nc1cc(NC(C)=O)cc(C(=O)Nc2ccc(Br)cc2C(=O)OCCOCCOCCOCCOC(=O)c2ccc(-c3c4nc(c(-c5ccc(S(=O)(=O)[O-])cc5)c5ccc([nH]5)c(-c5ccc(S(=O)(=O)[O-])cc5)c5nc(c(-c6ccc(S(=O)(=O)[O-])cc6)c6ccc3[nH]6)C=C5)C=C4)cc2)c1
REMARK SMILES IDX 32 1 31 2 30 3 29 4 28 5 27 6 26 7 24 8 25 9 23 10 17 11
REMARK SMILES IDX 18 12 19 13 22 14 20 15 21 16 16 17 14 18 15 19 13 21 5 22
REMARK SMILES IDX 6 23 101 24 7 25 12 26 4 27 1 28 2 29 3 30 8 32 9 33 10 35
REMARK SMILES IDX 11 36 33 37 34 38 35 39 36 40 37 41 38 42 39 43 40 44 41 45
REMARK SMILES IDX 42 46 100 47 43 48 99 49 44 50 45 51 46 52 93 53 47 54 98 55
REMARK SMILES IDX 92 56 94 57 48 58 97 59 91 60 90 61 49 63 79 64 60 65 78 66
REMARK SMILES IDX 61 67 64 68 77 69 95 70 62 71 63 72 76 74 96 75 65 76 50 77
REMARK SMILES IDX 51 78 59 79 52 80 58 81 53 82 54 83 55 84 56 85 57 86 80 87
REMARK SMILES IDX 81 88 89 89 82 90 88 91 83 92 84 93 85 94 86 95 87 96 66 97
REMARK SMILES IDX 67 98 75 99 68 100 74 101 69 102 70 103 71 104 72 105 73 106
REMARK H PARENT 16 20 4 31 8 34 94 62 64 73
REMARK Flexibility Score: inf
ROOT
ATOM      1  O   UNL A   1      31.239  28.816  26.155  1.00  0.00    -0.377 OA
ENDROOT
BRANCH   1   2
ATOM      2  C   UNL A   1      31.168  27.635  25.386  1.00  0.00     0.188 C 
BRANCH   2   3
ATOM      3  C   UNL A   1      31.726  26.359  26.055  1.00  0.00     0.188 C 
BRANCH   3   4
ATOM      4  O   UNL A   1      30.894  25.451  26.753  1.00  0.00    -0.376 OA
BRANCH   4   5
ATOM      5  C   UNL A   1      30.344  24.277  26.185  1.00  0.00     0.202 C 
BRANCH   5   6
ATOM      6  C   UNL A   1      30.559  23.808  24.748  1.00  0.00     0.261 C 
BRANCH   6   7
ATOM      7  O   UNL A   1      30.648  22.407  24.505  1.00  0.00    -0.460 OA
BRANCH   7   8
ATOM      8  C   UNL A   1      31.748  22.035  23.823  1.00  0.00     0.340 C 
ATOM      9  O   UNL A   1      32.287  22.677  22.933  1.00  0.00    -0.246 OA
BRANCH   8  10
ATOM     10  C   UNL A   1      32.349  20.805  24.391  1.00  0.00     0.084 A 
ATOM     11  C   UNL A   1      32.789  20.613  25.716  1.00  0.00     0.056 A 
ATOM     12  C   UNL A   1      33.491  19.423  26.003  1.00  0.00     0.028 A 
ATOM     13  C   UNL A   1      33.663  18.418  25.044  1.00  0.00     0.018 A 
ATOM     14  C   UNL A   1      32.530  19.784  23.429  1.00  0.00     0.033 A 
ATOM     15  C   UNL A   1      33.169  18.599  23.761  1.00  0.00     0.018 A 
ATOM     16  Br  UNL A   1      33.356  17.237  22.467  1.00  0.00    -0.051 Br
BRANCH  11  17
ATOM     17  N   UNL A   1      32.590  21.446  26.844  1.00  0.00    -0.321 N 
ATOM     18  C   UNL A   1      33.260  22.533  27.375  1.00  0.00     0.255 C 
ATOM     19  O   UNL A   1      32.956  22.927  28.499  1.00  0.00    -0.269 OA
ATOM     20  H   UNL A   1      31.795  21.196  27.368  1.00  0.00     0.170 HD
BRANCH  18  21
ATOM     21  C   UNL A   1      34.299  23.278  26.620  1.00  0.00     0.044 A 
ATOM     22  C   UNL A   1      34.894  24.344  24.554  1.00  0.00     0.044 A 
ATOM     23  C   UNL A   1      36.234  23.982  24.790  1.00  0.00     0.052 A 
ATOM     24  C   UNL A   1      33.950  24.097  25.542  1.00  0.00     0.040 A 
ATOM     25  C   UNL A   1      36.625  23.326  25.963  1.00  0.00     0.044 A 
ATOM     26  C   UNL A   1      35.641  22.982  26.891  1.00  0.00     0.040 A 
BRANCH  22  27
ATOM     27  N   UNL A   1      34.564  24.648  23.214  1.00  0.00    -0.326 N 
ATOM     28  C   UNL A   1      33.925  27.060  23.251  1.00  0.00     0.114 C 
ATOM     29  C   UNL A   1      33.937  25.700  22.617  1.00  0.00     0.221 C 
ATOM     30  O   UNL A   1      33.399  25.532  21.519  1.00  0.00    -0.275 OA
ATOM     31  H   UNL A   1      34.846  23.952  22.577  1.00  0.00     0.169 HD
ENDBRANCH  22  27
BRANCH  25  32
ATOM     32  N   UNL A   1      37.939  22.858  26.202  1.00  0.00    -0.326 N 
ATOM     33  C   UNL A   1      38.488  21.663  25.769  1.00  0.00     0.221 C 
ATOM     34  H   UNL A   1      38.525  23.445  26.732  1.00  0.00     0.169 HD
ATOM     35  C   UNL A   1      39.929  21.480  26.172  1.00  0.00     0.114 C 
ATOM     36  O   UNL A   1      37.921  20.789  25.120  1.00  0.00    -0.275 OA
ENDBRANCH  25  32
ENDBRANCH  18  21
ENDBRANCH  11  17
ENDBRANCH   8  10
ENDBRANCH   7   8
ENDBRANCH   6   7
ENDBRANCH   5   6
ENDBRANCH   4   5
ENDBRANCH   3   4
ENDBRANCH   2   3
ENDBRANCH   1   2
BRANCH   1  37
ATOM     37  C   UNL A   1      32.087  29.867  25.713  1.00  0.00     0.188 C 
BRANCH  37  38
ATOM     38  C   UNL A   1      33.483  30.074  26.345  1.00  0.00     0.188 C 
BRANCH  38  39
ATOM     39  O   UNL A   1      33.472  30.647  27.641  1.00  0.00    -0.376 OA
BRANCH  39  40
ATOM     40  C   UNL A   1      33.884  31.987  27.823  1.00  0.00     0.202 C 
BRANCH  40  41
ATOM     41  C   UNL A   1      35.386  32.270  27.972  1.00  0.00     0.261 C 
BRANCH  41  42
ATOM     42  O   UNL A   1      35.789  32.957  29.163  1.00  0.00    -0.460 OA
BRANCH  42  43
ATOM     43  C   UNL A   1      35.803  32.247  30.309  1.00  0.00     0.338 C 
ATOM     44  O   UNL A   1      34.875  32.092  31.088  1.00  0.00    -0.246 OA
BRANCH  43  45
ATOM     45  C   UNL A   1      37.079  31.506  30.363  1.00  0.00     0.060 A 
ATOM     46  C   UNL A   1      37.102  30.235  30.955  1.00  0.00     0.016 A 
ATOM     47  C   UNL A   1      38.243  32.060  29.825  1.00  0.00     0.016 A 
ATOM     48  C   UNL A   1      38.302  29.536  31.056  1.00  0.00     0.010 A 
ATOM     49  C   UNL A   1      39.451  31.371  29.954  1.00  0.00     0.010 A 
ATOM     50  C   UNL A   1      39.489  30.129  30.610  1.00  0.00    -0.014 A 
BRANCH  50  51
ATOM     51  C   UNL A   1      40.785  29.564  31.052  1.00  0.00     0.031 A 
ATOM     52  C   UNL A   1      41.376  30.084  32.336  1.00  0.00     0.074 A 
ATOM     53  C   UNL A   1      41.401  28.588  30.361  1.00  0.00     0.049 A 
ATOM     54  N   UNL A   1      42.501  29.767  32.919  1.00  0.00    -0.248 NA
ATOM     55  C   UNL A   1      40.588  31.098  33.059  1.00  0.00     0.031 C 
ATOM     56  C   UNL A   1      40.898  27.970  29.135  1.00  0.00     0.029 A 
ATOM     57  N   UNL A   1      42.593  27.950  30.599  1.00  0.00    -0.354 N 
ATOM     58  C   UNL A   1      42.563  30.552  34.065  1.00  0.00     0.074 A 
ATOM     59  C   UNL A   1      41.377  31.376  34.084  1.00  0.00     0.031 C 
ATOM     60  C   UNL A   1      41.783  27.045  28.721  1.00  0.00     0.029 A 
ATOM     61  C   UNL A   1      42.928  27.033  29.631  1.00  0.00     0.049 A 
ATOM     62  H   UNL A   1      43.153  28.131  31.387  1.00  0.00     0.167 HD
ATOM     63  C   UNL A   1      43.523  30.581  35.019  1.00  0.00     0.031 A 
ATOM     64  C   UNL A   1      44.045  26.292  29.486  1.00  0.00     0.031 A 
ATOM     65  C   UNL A   1      44.707  29.765  34.987  1.00  0.00     0.049 A 
ATOM     66  C   UNL A   1      45.134  26.394  30.525  1.00  0.00     0.074 A 
ATOM     67  C   UNL A   1      45.733  29.705  35.914  1.00  0.00     0.029 A 
ATOM     68  N   UNL A   1      45.029  28.876  33.973  1.00  0.00    -0.354 N 
ATOM     69  N   UNL A   1      45.168  27.120  31.619  1.00  0.00    -0.248 NA
ATOM     70  C   UNL A   1      46.331  25.570  30.314  1.00  0.00     0.031 C 
ATOM     71  C   UNL A   1      46.709  28.831  35.424  1.00  0.00     0.029 A 
ATOM     72  C   UNL A   1      46.254  28.286  34.234  1.00  0.00     0.049 A 
ATOM     73  H   UNL A   1      44.468  28.690  33.185  1.00  0.00     0.167 HD
ATOM     74  C   UNL A   1      46.375  26.814  32.240  1.00  0.00     0.074 A 
ATOM     75  C   UNL A   1      47.032  25.826  31.411  1.00  0.00     0.031 C 
ATOM     76  C   UNL A   1      46.895  27.304  33.395  1.00  0.00     0.031 A 
BRANCH  63  77
ATOM     77  C   UNL A   1      43.354  31.557  36.153  1.00  0.00    -0.014 A 
ATOM     78  C   UNL A   1      42.361  31.382  37.133  1.00  0.00     0.010 A 
ATOM     79  C   UNL A   1      44.237  32.647  36.261  1.00  0.00     0.010 A 
ATOM     80  C   UNL A   1      42.238  32.293  38.185  1.00  0.00     0.020 A 
ATOM     81  C   UNL A   1      44.137  33.544  37.328  1.00  0.00     0.020 A 
ATOM     82  C   UNL A   1      43.130  33.367  38.278  1.00  0.00     0.054 A 
BRANCH  82  83
ATOM     83  S   UNL A   1      42.973  34.509  39.678  1.00  0.00     0.124 S 
ATOM     84  O   UNL A   1      42.936  35.805  39.008  1.00  0.00    -0.237 OA
ATOM     85  O   UNL A   1      41.719  34.084  40.296  1.00  0.00    -0.237 OA
ATOM     86  O   UNL A   1      44.173  34.253  40.471  1.00  0.00    -0.744 OA
ENDBRANCH  82  83
ENDBRANCH  63  77
BRANCH  64  87
ATOM     87  C   UNL A   1      44.204  25.404  28.300  1.00  0.00    -0.014 A 
ATOM     88  C   UNL A   1      44.750  25.890  27.099  1.00  0.00     0.010 A 
ATOM     89  C   UNL A   1      43.792  24.059  28.364  1.00  0.00     0.010 A 
ATOM     90  C   UNL A   1      44.861  25.058  25.982  1.00  0.00     0.020 A 
ATOM     91  C   UNL A   1      43.932  23.214  27.260  1.00  0.00     0.020 A 
ATOM     92  C   UNL A   1      44.454  23.723  26.069  1.00  0.00     0.054 A 
BRANCH  92  93
ATOM     93  S   UNL A   1      44.651  22.651  24.620  1.00  0.00     0.124 S 
ATOM     94  O   UNL A   1      43.291  22.596  24.095  1.00  0.00    -0.237 OA
ATOM     95  O   UNL A   1      45.613  23.396  23.810  1.00  0.00    -0.237 OA
ATOM     96  O   UNL A   1      45.157  21.401  25.182  1.00  0.00    -0.744 OA
ENDBRANCH  92  93
ENDBRANCH  64  87
BRANCH  76  97
ATOM     97  C   UNL A   1      48.218  26.749  33.855  1.00  0.00    -0.014 A 
ATOM     98  C   UNL A   1      49.437  27.330  33.464  1.00  0.00     0.010 A 
ATOM     99  C   UNL A   1      48.236  25.653  34.741  1.00  0.00     0.010 A 
ATOM    100  C   UNL A   1      50.649  26.800  33.913  1.00  0.00     0.020 A 
ATOM    101  C   UNL A   1      49.444  25.143  35.219  1.00  0.00     0.020 A 
ATOM    102  C   UNL A   1      50.646  25.708  34.787  1.00  0.00     0.054 A 
BRANCH 102 103
ATOM    103  S   UNL A   1      52.232  25.057  35.377  1.00  0.00     0.124 S 
ATOM    104  O   UNL A   1      52.647  24.211  34.262  1.00  0.00    -0.237 OA
ATOM    105  O   UNL A   1      53.021  26.270  35.575  1.00  0.00    -0.237 OA
ATOM    106  O   UNL A   1      51.880  24.344  36.603  1.00  0.00    -0.744 OA
ENDBRANCH 102 103
ENDBRANCH  76  97
ENDBRANCH  50  51
ENDBRANCH  43  45
ENDBRANCH  42  43
ENDBRANCH  41  42
ENDBRANCH  40  41
ENDBRANCH  39  40
ENDBRANCH  38  39
ENDBRANCH  37  38
ENDBRANCH   1  37
TORSDOF 27
ENDMDL
MODEL 3
REMARK VINA RESULT:      -7.7      6.053     11.725
REMARK SMILES CC(=O)Nc1cc(NC(C)=O)cc(C(=O)Nc2ccc(Br)cc2C(=O)OCCOCCOCCOCCOC(=O)c2ccc(-c3c4nc(c(-c5ccc(S(=O)(=O)[O-])cc5)c5ccc([nH]5)c(-c5ccc(S(=O)(=O)[O-])cc5)c5nc(c(-c6ccc(S(=O)(=O)[O-])cc6)c6ccc3[nH]6)C=C5)C=C4)cc2)c1
REMARK SMILES IDX 32 1 31 2 30 3 29 4 28 5 27 6 26 7 24 8 25 9 23 10 17 11
REMARK SMILES IDX 18 12 19 13 22 14 20 15 21 16 16 17 14 18 15 19 13 21 5 22
REMARK SMILES IDX 6 23 101 24 7 25 12 26 4 27 1 28 2 29 3 30 8 32 9 33 10 35
REMARK SMILES IDX 11 36 33 37 34 38 35 39 36 40 37 41 38 42 39 43 40 44 41 45
REMARK SMILES IDX 42 46 100 47 43 48 99 49 44 50 45 51 46 52 93 53 47 54 98 55
REMARK SMILES IDX 92 56 94 57 48 58 97 59 91 60 90 61 49 63 79 64 60 65 78 66
REMARK SMILES IDX 61 67 64 68 77 69 95 70 62 71 63 72 76 74 96 75 65 76 50 77
REMARK SMILES IDX 51 78 59 79 52 80 58 81 53 82 54 83 55 84 56 85 57 86 80 87
REMARK SMILES IDX 81 88 89 89 82 90 88 91 83 92 84 93 85 94 86 95 87 96 66 97
REMARK SMILES IDX 67 98 75 99 68 100 74 101 69 102 70 103 71 104 72 105 73 106
REMARK H PARENT 16 20 4 31 8 34 94 62 64 73
REMARK Flexibility Score: inf
ROOT
ATOM      1  O   UNL A   1      40.484  22.858  27.983  1.00  0.00    -0.377 OA
ENDROOT
BRANCH   1   2
ATOM      2  C   UNL A   1      39.819  24.101  28.025  1.00  0.00     0.188 C 
BRANCH   2   3
ATOM      3  C   UNL A   1      40.475  25.245  27.221  1.00  0.00     0.188 C 
BRANCH   3   4
ATOM      4  O   UNL A   1      40.165  26.606  27.461  1.00  0.00    -0.376 OA
BRANCH   4   5
ATOM      5  C   UNL A   1      39.371  27.064  28.539  1.00  0.00     0.202 C 
BRANCH   5   6
ATOM      6  C   UNL A   1      39.597  28.360  29.314  1.00  0.00     0.261 C 
BRANCH   6   7
ATOM      7  O   UNL A   1      39.207  28.401  30.683  1.00  0.00    -0.460 OA
BRANCH   7   8
ATOM      8  C   UNL A   1      38.202  29.258  30.945  1.00  0.00     0.340 C 
ATOM      9  O   UNL A   1      37.016  28.968  31.008  1.00  0.00    -0.246 OA
BRANCH   8  10
ATOM     10  C   UNL A   1      38.714  30.598  31.319  1.00  0.00     0.084 A 
ATOM     11  C   UNL A   1      39.295  30.968  32.548  1.00  0.00     0.056 A 
ATOM     12  C   UNL A   1      39.556  32.338  32.759  1.00  0.00     0.028 A 
ATOM     13  C   UNL A   1      39.344  33.292  31.756  1.00  0.00     0.018 A 
ATOM     14  C   UNL A   1      38.502  31.569  30.314  1.00  0.00     0.033 A 
ATOM     15  C   UNL A   1      38.828  32.900  30.531  1.00  0.00     0.018 A 
ATOM     16  Br  UNL A   1      38.575  34.167  29.154  1.00  0.00    -0.051 Br
BRANCH  11  17
ATOM     17  N   UNL A   1      39.704  30.136  33.619  1.00  0.00    -0.321 N 
ATOM     18  C   UNL A   1      39.912  30.331  34.972  1.00  0.00     0.255 C 
ATOM     19  O   UNL A   1      40.474  29.451  35.620  1.00  0.00    -0.269 OA
ATOM     20  H   UNL A   1      39.880  29.209  33.336  1.00  0.00     0.170 HD
BRANCH  18  21
ATOM     21  C   UNL A   1      39.437  31.543  35.686  1.00  0.00     0.044 A 
ATOM     22  C   UNL A   1      37.650  33.115  35.992  1.00  0.00     0.044 A 
ATOM     23  C   UNL A   1      38.611  34.104  36.275  1.00  0.00     0.052 A 
ATOM     24  C   UNL A   1      38.070  31.802  35.824  1.00  0.00     0.040 A 
ATOM     25  C   UNL A   1      39.979  33.810  36.328  1.00  0.00     0.044 A 
ATOM     26  C   UNL A   1      40.390  32.508  36.040  1.00  0.00     0.040 A 
BRANCH  22  27
ATOM     27  N   UNL A   1      36.377  33.586  35.599  1.00  0.00    -0.326 N 
ATOM     28  C   UNL A   1      36.041  32.665  33.304  1.00  0.00     0.114 C 
ATOM     29  C   UNL A   1      35.719  33.630  34.406  1.00  0.00     0.221 C 
ATOM     30  O   UNL A   1      34.820  34.462  34.249  1.00  0.00    -0.275 OA
ATOM     31  H   UNL A   1      35.856  33.963  36.344  1.00  0.00     0.169 HD
ENDBRANCH  22  27
BRANCH  25  32
ATOM     32  N   UNL A   1      40.986  34.786  36.513  1.00  0.00    -0.326 N 
ATOM     33  C   UNL A   1      41.254  35.496  37.671  1.00  0.00     0.221 C 
ATOM     34  H   UNL A   1      41.558  34.981  35.736  1.00  0.00     0.169 HD
ATOM     35  C   UNL A   1      42.418  36.445  37.542  1.00  0.00     0.114 C 
ATOM     36  O   UNL A   1      40.645  35.419  38.734  1.00  0.00    -0.275 OA
ENDBRANCH  25  32
ENDBRANCH  18  21
ENDBRANCH  11  17
ENDBRANCH   8  10
ENDBRANCH   7   8
ENDBRANCH   6   7
ENDBRANCH   5   6
ENDBRANCH   4   5
ENDBRANCH   3   4
ENDBRANCH   2   3
ENDBRANCH   1   2
BRANCH   1  37
ATOM     37  C   UNL A   1      40.354  22.054  26.818  1.00  0.00     0.188 C 
BRANCH  37  38
ATOM     38  C   UNL A   1      41.604  21.473  26.116  1.00  0.00     0.188 C 
BRANCH  38  39
ATOM     39  O   UNL A   1      42.285  22.379  25.267  1.00  0.00    -0.376 OA
BRANCH  39  40
ATOM     40  C   UNL A   1      43.692  22.304  25.139  1.00  0.00     0.202 C 
BRANCH  40  41
ATOM     41  C   UNL A   1      44.400  23.369  24.290  1.00  0.00     0.261 C 
BRANCH  41  42
ATOM     42  O   UNL A   1      45.235  24.295  24.997  1.00  0.00    -0.460 OA
BRANCH  42  43
ATOM     43  C   UNL A   1      45.762  23.878  26.167  1.00  0.00     0.338 C 
ATOM     44  O   UNL A   1      46.482  22.907  26.343  1.00  0.00    -0.246 OA
BRANCH  43  45
ATOM     45  C   UNL A   1      45.495  24.921  27.177  1.00  0.00     0.060 A 
ATOM     46  C   UNL A   1      46.563  25.691  27.659  1.00  0.00     0.016 A 
ATOM     47  C   UNL A   1      44.196  25.142  27.641  1.00  0.00     0.016 A 
ATOM     48  C   UNL A   1      46.342  26.650  28.644  1.00  0.00     0.010 A 
ATOM     49  C   UNL A   1      43.980  26.083  28.649  1.00  0.00     0.010 A 
ATOM     50  C   UNL A   1      45.060  26.806  29.184  1.00  0.00    -0.014 A 
BRANCH  50  51
ATOM     51  C   UNL A   1      44.903  27.535  30.463  1.00  0.00     0.031 A 
ATOM     52  C   UNL A   1      44.603  29.009  30.399  1.00  0.00     0.074 A 
ATOM     53  C   UNL A   1      44.982  26.904  31.648  1.00  0.00     0.049 A 
ATOM     54  N   UNL A   1      44.445  29.867  31.371  1.00  0.00    -0.248 NA
ATOM     55  C   UNL A   1      44.462  29.593  29.053  1.00  0.00     0.031 C 
ATOM     56  C   UNL A   1      45.215  25.472  31.833  1.00  0.00     0.029 A 
ATOM     57  N   UNL A   1      44.875  27.398  32.924  1.00  0.00    -0.354 N 
ATOM     58  C   UNL A   1      44.202  31.090  30.756  1.00  0.00     0.074 A 
ATOM     59  C   UNL A   1      44.258  30.871  29.330  1.00  0.00     0.031 C 
ATOM     60  C   UNL A   1      45.244  25.204  33.151  1.00  0.00     0.029 A 
ATOM     61  C   UNL A   1      45.068  26.448  33.899  1.00  0.00     0.049 A 
ATOM     62  H   UNL A   1      44.679  28.341  33.122  1.00  0.00     0.167 HD
ATOM     63  C   UNL A   1      43.952  32.290  31.331  1.00  0.00     0.031 A 
ATOM     64  C   UNL A   1      45.122  26.578  35.240  1.00  0.00     0.031 A 
ATOM     65  C   UNL A   1      43.910  32.503  32.753  1.00  0.00     0.049 A 
ATOM     66  C   UNL A   1      44.912  27.939  35.856  1.00  0.00     0.074 A 
ATOM     67  C   UNL A   1      43.646  33.676  33.437  1.00  0.00     0.029 A 
ATOM     68  N   UNL A   1      44.145  31.525  33.707  1.00  0.00    -0.354 N 
ATOM     69  N   UNL A   1      44.655  29.083  35.264  1.00  0.00    -0.248 NA
ATOM     70  C   UNL A   1      44.989  28.025  37.320  1.00  0.00     0.031 C 
ATOM     71  C   UNL A   1      43.793  33.423  34.805  1.00  0.00     0.029 A 
ATOM     72  C   UNL A   1      44.067  32.075  34.975  1.00  0.00     0.049 A 
ATOM     73  H   UNL A   1      44.338  30.580  33.512  1.00  0.00     0.167 HD
ATOM     74  C   UNL A   1      44.510  30.016  36.286  1.00  0.00     0.074 A 
ATOM     75  C   UNL A   1      44.689  29.299  37.532  1.00  0.00     0.031 C 
ATOM     76  C   UNL A   1      44.250  31.346  36.206  1.00  0.00     0.031 A 
BRANCH  63  77
ATOM     77  C   UNL A   1      43.750  33.473  30.422  1.00  0.00    -0.014 A 
ATOM     78  C   UNL A   1      44.830  34.264  29.992  1.00  0.00     0.010 A 
ATOM     79  C   UNL A   1      42.456  33.770  29.954  1.00  0.00     0.010 A 
ATOM     80  C   UNL A   1      44.617  35.345  29.133  1.00  0.00     0.020 A 
ATOM     81  C   UNL A   1      42.243  34.831  29.071  1.00  0.00     0.020 A 
ATOM     82  C   UNL A   1      43.324  35.620  28.675  1.00  0.00     0.054 A 
BRANCH  82  83
ATOM     83  S   UNL A   1      43.083  37.003  27.527  1.00  0.00     0.124 S 
ATOM     84  O   UNL A   1      42.576  36.324  26.338  1.00  0.00    -0.237 OA
ATOM     85  O   UNL A   1      42.117  37.839  28.234  1.00  0.00    -0.237 OA
ATOM     86  O   UNL A   1      44.420  37.578  27.391  1.00  0.00    -0.744 OA
ENDBRANCH  82  83
ENDBRANCH  63  77
BRANCH  64  87
ATOM     87  C   UNL A   1      45.412  25.393  36.095  1.00  0.00    -0.014 A 
ATOM     88  C   UNL A   1      44.424  24.841  36.929  1.00  0.00     0.010 A 
ATOM     89  C   UNL A   1      46.697  24.815  36.088  1.00  0.00     0.010 A 
ATOM     90  C   UNL A   1      44.719  23.751  37.753  1.00  0.00     0.020 A 
ATOM     91  C   UNL A   1      46.987  23.704  36.886  1.00  0.00     0.020 A 
ATOM     92  C   UNL A   1      45.998  23.186  37.724  1.00  0.00     0.054 A 
BRANCH  92  93
ATOM     93  S   UNL A   1      46.341  21.744  38.769  1.00  0.00     0.124 S 
ATOM     94  O   UNL A   1      45.984  20.638  37.888  1.00  0.00    -0.237 OA
ATOM     95  O   UNL A   1      47.767  21.895  39.050  1.00  0.00    -0.237 OA
ATOM     96  O   UNL A   1      45.463  21.937  39.921  1.00  0.00    -0.744 OA
ENDBRANCH  92  93
ENDBRANCH  64  87
BRANCH  76  97
ATOM     97  C   UNL A   1      44.098  32.107  37.498  1.00  0.00    -0.014 A 
ATOM     98  C   UNL A   1      45.089  32.995  37.950  1.00  0.00     0.010 A 
ATOM     99  C   UNL A   1      42.912  31.968  38.245  1.00  0.00     0.010 A 
ATOM    100  C   UNL A   1      44.918  33.694  39.148  1.00  0.00     0.020 A 
ATOM    101  C   UNL A   1      42.722  32.691  39.424  1.00  0.00     0.020 A 
ATOM    102  C   UNL A   1      43.736  33.537  39.878  1.00  0.00     0.054 A 
BRANCH 102 103
ATOM    103  S   UNL A   1      43.527  34.479  41.414  1.00  0.00     0.124 S 
ATOM    104  O   UNL A   1      44.859  34.394  42.006  1.00  0.00    -0.237 OA
ATOM    105  O   UNL A   1      43.136  35.799  40.929  1.00  0.00    -0.237 OA
ATOM    106  O   UNL A   1      42.481  33.749  42.129  1.00  0.00    -0.744 OA
ENDBRANCH 102 103
ENDBRANCH  76  97
ENDBRANCH  50  51
ENDBRANCH  43  45
ENDBRANCH  42  43
ENDBRANCH  41  42
ENDBRANCH  40  41
ENDBRANCH  39  40
ENDBRANCH  38  39
ENDBRANCH  37  38
ENDBRANCH   1  37
TORSDOF 27
ENDMDL
