MODEL 1
REMARK VINA RESULT:      -9.6      0.000      0.000
REMARK SMILES C[C@H]1CCC[C@@H](n2cnnc2SCC(=O)OCCOCCOCCOCCOC(=O)c2ccc(-c3c4nc(c(-c5ccc(S(=O)(=O)[O-])cc5)c5ccc([nH]5)c(-c5ccc(S(=O)(=O)[O-])cc5)c5nc(c(-c6ccc(S(=O)(=O)[O-])cc6)c6ccc3[nH]6)C=C5)C=C4)cc2)C1
REMARK SMILES IDX 22 1 21 2 20 3 19 4 18 5 17 6 16 7 14 8 15 9 13 10 12 11
REMARK SMILES IDX 11 12 7 13 8 14 9 15 10 16 6 17 1 18 2 19 3 20 91 21 4 22
REMARK SMILES IDX 5 23 23 24 24 25 25 26 26 27 27 28 28 29 29 30 30 31 31 32
REMARK SMILES IDX 32 33 90 34 33 35 89 36 34 37 35 38 36 39 83 40 37 41 88 42
REMARK SMILES IDX 82 43 84 44 38 45 87 46 81 47 80 48 39 50 69 51 50 52 68 53
REMARK SMILES IDX 51 54 54 55 67 56 85 57 52 58 53 59 66 61 86 62 55 63 40 64
REMARK SMILES IDX 41 65 49 66 42 67 48 68 43 69 44 70 45 71 46 72 47 73 70 74
REMARK SMILES IDX 71 75 79 76 72 77 78 78 73 79 74 80 75 81 76 82 77 83 56 84
REMARK SMILES IDX 57 85 65 86 58 87 64 88 59 89 60 90 61 91 62 92 63 93
REMARK H PARENT 84 49 54 60
REMARK Flexibility Score: inf
ROOT
ATOM      1  O   UNL A   1      38.199  22.757  26.228  1.00  0.00    -0.377 OA
ENDROOT
BRANCH   1   2
ATOM      2  C   UNL A   1      37.406  23.564  25.374  1.00  0.00     0.188 C 
BRANCH   2   3
ATOM      3  C   UNL A   1      36.129  23.020  24.716  1.00  0.00     0.188 C 
BRANCH   3   4
ATOM      4  O   UNL A   1      35.211  23.971  24.201  1.00  0.00    -0.376 OA
BRANCH   4   5
ATOM      5  C   UNL A   1      34.520  24.710  25.201  1.00  0.00     0.202 C 
BRANCH   5   6
ATOM      6  C   UNL A   1      33.110  25.180  24.809  1.00  0.00     0.261 C 
BRANCH   6   7
ATOM      7  O   UNL A   1      32.513  26.022  25.820  1.00  0.00    -0.463 OA
BRANCH   7   8
ATOM      8  C   UNL A   1      31.182  25.851  26.048  1.00  0.00     0.316 C 
ATOM      9  O   UNL A   1      30.480  26.633  26.682  1.00  0.00    -0.251 OA
BRANCH   8  10
ATOM     10  C   UNL A   1      30.629  24.550  25.491  1.00  0.00     0.200 C 
BRANCH  10  11
ATOM     11  S   UNL A   1      30.458  23.252  26.714  1.00  0.00    -0.074 SA
BRANCH  11  12
ATOM     12  C   UNL A   1      31.987  22.501  27.026  1.00  0.00     0.191 A 
ATOM     13  N   UNL A   1      32.700  21.555  26.321  1.00  0.00    -0.306 N 
ATOM     14  C   UNL A   1      33.921  21.496  26.947  1.00  0.00     0.226 A 
ATOM     15  N   UNL A   1      33.963  22.340  27.945  1.00  0.00    -0.138 NA
ATOM     16  N   UNL A   1      32.752  22.970  27.992  1.00  0.00    -0.124 NA
BRANCH  13  17
ATOM     17  C   UNL A   1      32.322  20.691  25.216  1.00  0.00     0.091 C 
ATOM     18  C   UNL A   1      32.041  21.020  21.355  1.00  0.00     0.008 C 
ATOM     19  C   UNL A   1      31.890  20.404  22.745  1.00  0.00    -0.012 C 
ATOM     20  C   UNL A   1      32.480  18.990  22.797  1.00  0.00     0.003 C 
ATOM     21  C   UNL A   1      32.552  21.277  23.816  1.00  0.00     0.029 C 
ATOM     22  C   UNL A   1      32.424  18.387  24.204  1.00  0.00     0.002 C 
ATOM     23  C   UNL A   1      33.003  19.314  25.273  1.00  0.00     0.025 C 
ENDBRANCH  13  17
ENDBRANCH  11  12
ENDBRANCH  10  11
ENDBRANCH   8  10
ENDBRANCH   7   8
ENDBRANCH   6   7
ENDBRANCH   5   6
ENDBRANCH   4   5
ENDBRANCH   3   4
ENDBRANCH   2   3
ENDBRANCH   1   2
BRANCH   1  24
ATOM     24  C   UNL A   1      38.689  21.510  25.766  1.00  0.00     0.188 C 
BRANCH  24  25
ATOM     25  C   UNL A   1      39.917  20.923  26.473  1.00  0.00     0.188 C 
BRANCH  25  26
ATOM     26  O   UNL A   1      40.794  20.031  25.790  1.00  0.00    -0.376 OA
BRANCH  26  27
ATOM     27  C   UNL A   1      41.983  19.525  26.379  1.00  0.00     0.202 C 
BRANCH  27  28
ATOM     28  C   UNL A   1      43.346  19.888  25.829  1.00  0.00     0.261 C 
BRANCH  28  29
ATOM     29  O   UNL A   1      43.271  21.195  25.307  1.00  0.00    -0.460 OA
BRANCH  29  30
ATOM     30  C   UNL A   1      43.899  22.109  26.068  1.00  0.00     0.338 C 
ATOM     31  O   UNL A   1      45.096  22.314  26.138  1.00  0.00    -0.246 OA
BRANCH  30  32
ATOM     32  C   UNL A   1      42.899  22.792  26.886  1.00  0.00     0.060 A 
ATOM     33  C   UNL A   1      42.016  23.581  26.157  1.00  0.00     0.016 A 
ATOM     34  C   UNL A   1      43.164  22.987  28.251  1.00  0.00     0.016 A 
ATOM     35  C   UNL A   1      41.702  24.796  26.695  1.00  0.00     0.010 A 
ATOM     36  C   UNL A   1      42.849  24.202  28.787  1.00  0.00     0.010 A 
ATOM     37  C   UNL A   1      42.236  25.123  27.949  1.00  0.00    -0.014 A 
BRANCH  37  38
ATOM     38  C   UNL A   1      42.092  26.490  28.364  1.00  0.00     0.031 A 
ATOM     39  C   UNL A   1      43.266  27.289  28.012  1.00  0.00     0.074 A 
ATOM     40  C   UNL A   1      41.006  26.951  29.000  1.00  0.00     0.049 A 
ATOM     41  N   UNL A   1      44.217  27.658  28.800  1.00  0.00    -0.248 NA
ATOM     42  C   UNL A   1      43.527  27.488  26.581  1.00  0.00     0.031 C 
ATOM     43  C   UNL A   1      39.700  26.303  29.146  1.00  0.00     0.029 A 
ATOM     44  N   UNL A   1      40.828  28.167  29.572  1.00  0.00    -0.354 N 
ATOM     45  C   UNL A   1      45.094  28.350  27.986  1.00  0.00     0.074 A 
ATOM     46  C   UNL A   1      44.750  28.012  26.627  1.00  0.00     0.031 C 
ATOM     47  C   UNL A   1      38.804  27.224  29.569  1.00  0.00     0.029 A 
ATOM     48  C   UNL A   1      39.508  28.464  29.855  1.00  0.00     0.049 A 
ATOM     49  H   UNL A   1      41.571  28.783  29.767  1.00  0.00     0.167 HD
ATOM     50  C   UNL A   1      45.814  29.393  28.471  1.00  0.00     0.031 A 
ATOM     51  C   UNL A   1      39.033  29.675  30.229  1.00  0.00     0.031 A 
ATOM     52  C   UNL A   1      45.814  29.423  29.911  1.00  0.00     0.049 A 
ATOM     53  C   UNL A   1      40.169  30.458  30.778  1.00  0.00     0.074 A 
ATOM     54  C   UNL A   1      46.365  28.652  30.911  1.00  0.00     0.029 A 
ATOM     55  N   UNL A   1      44.815  30.177  30.482  1.00  0.00    -0.354 N 
ATOM     56  N   UNL A   1      40.781  30.146  31.887  1.00  0.00    -0.248 NA
ATOM     57  C   UNL A   1      40.887  31.397  29.924  1.00  0.00     0.031 C 
ATOM     58  C   UNL A   1      45.493  28.781  32.032  1.00  0.00     0.029 A 
ATOM     59  C   UNL A   1      44.444  29.635  31.687  1.00  0.00     0.049 A 
ATOM     60  H   UNL A   1      44.422  30.987  30.083  1.00  0.00     0.167 HD
ATOM     61  C   UNL A   1      42.103  30.502  31.678  1.00  0.00     0.074 A 
ATOM     62  C   UNL A   1      42.074  31.411  30.541  1.00  0.00     0.031 C 
ATOM     63  C   UNL A   1      43.118  29.799  32.258  1.00  0.00     0.031 A 
BRANCH  50  64
ATOM     64  C   UNL A   1      46.090  30.622  27.646  1.00  0.00    -0.014 A 
ATOM     65  C   UNL A   1      47.423  30.947  27.341  1.00  0.00     0.010 A 
ATOM     66  C   UNL A   1      45.114  31.615  27.404  1.00  0.00     0.010 A 
ATOM     67  C   UNL A   1      47.764  32.222  26.875  1.00  0.00     0.020 A 
ATOM     68  C   UNL A   1      45.436  32.869  26.896  1.00  0.00     0.020 A 
ATOM     69  C   UNL A   1      46.768  33.178  26.671  1.00  0.00     0.054 A 
BRANCH  69  70
ATOM     70  S   UNL A   1      47.225  34.859  26.192  1.00  0.00     0.124 S 
ATOM     71  O   UNL A   1      47.749  34.652  24.846  1.00  0.00    -0.237 OA
ATOM     72  O   UNL A   1      45.949  35.562  26.279  1.00  0.00    -0.237 OA
ATOM     73  O   UNL A   1      48.213  35.244  27.198  1.00  0.00    -0.744 OA
ENDBRANCH  69  70
ENDBRANCH  50  64
BRANCH  51  74
ATOM     74  C   UNL A   1      37.723  30.272  29.898  1.00  0.00    -0.014 A 
ATOM     75  C   UNL A   1      37.041  31.068  30.833  1.00  0.00     0.010 A 
ATOM     76  C   UNL A   1      37.270  30.279  28.563  1.00  0.00     0.010 A 
ATOM     77  C   UNL A   1      35.985  31.899  30.431  1.00  0.00     0.020 A 
ATOM     78  C   UNL A   1      36.211  31.097  28.156  1.00  0.00     0.020 A 
ATOM     79  C   UNL A   1      35.592  31.925  29.089  1.00  0.00     0.054 A 
BRANCH  79  80
ATOM     80  S   UNL A   1      34.362  33.144  28.547  1.00  0.00     0.124 S 
ATOM     81  O   UNL A   1      33.916  33.719  29.813  1.00  0.00    -0.237 OA
ATOM     82  O   UNL A   1      35.150  34.030  27.693  1.00  0.00    -0.237 OA
ATOM     83  O   UNL A   1      33.365  32.340  27.844  1.00  0.00    -0.744 OA
ENDBRANCH  79  80
ENDBRANCH  51  74
BRANCH  63  84
ATOM     84  C   UNL A   1      42.777  28.969  33.472  1.00  0.00    -0.014 A 
ATOM     85  C   UNL A   1      42.369  29.517  34.703  1.00  0.00     0.010 A 
ATOM     86  C   UNL A   1      42.795  27.571  33.330  1.00  0.00     0.010 A 
ATOM     87  C   UNL A   1      42.022  28.682  35.776  1.00  0.00     0.020 A 
ATOM     88  C   UNL A   1      42.432  26.735  34.389  1.00  0.00     0.020 A 
ATOM     89  C   UNL A   1      42.058  27.294  35.612  1.00  0.00     0.054 A 
BRANCH  89  90
ATOM     90  S   UNL A   1      41.572  26.219  36.990  1.00  0.00     0.124 S 
ATOM     91  O   UNL A   1      40.391  26.895  37.520  1.00  0.00    -0.237 OA
ATOM     92  O   UNL A   1      41.323  24.938  36.333  1.00  0.00    -0.237 OA
ATOM     93  O   UNL A   1      42.739  26.234  37.871  1.00  0.00    -0.744 OA
ENDBRANCH  89  90
ENDBRANCH  63  84
ENDBRANCH  37  38
ENDBRANCH  30  32
ENDBRANCH  29  30
ENDBRANCH  28  29
ENDBRANCH  27  28
ENDBRANCH  26  27
ENDBRANCH  25  26
ENDBRANCH  24  25
ENDBRANCH   1  24
TORSDOF 26
ENDMDL
MODEL 2
REMARK VINA RESULT:      -9.5      2.248      3.447
REMARK SMILES C[C@H]1CCC[C@@H](n2cnnc2SCC(=O)OCCOCCOCCOCCOC(=O)c2ccc(-c3c4nc(c(-c5ccc(S(=O)(=O)[O-])cc5)c5ccc([nH]5)c(-c5ccc(S(=O)(=O)[O-])cc5)c5nc(c(-c6ccc(S(=O)(=O)[O-])cc6)c6ccc3[nH]6)C=C5)C=C4)cc2)C1
REMARK SMILES IDX 22 1 21 2 20 3 19 4 18 5 17 6 16 7 14 8 15 9 13 10 12 11
REMARK SMILES IDX 11 12 7 13 8 14 9 15 10 16 6 17 1 18 2 19 3 20 91 21 4 22
REMARK SMILES IDX 5 23 23 24 24 25 25 26 26 27 27 28 28 29 29 30 30 31 31 32
REMARK SMILES IDX 32 33 90 34 33 35 89 36 34 37 35 38 36 39 83 40 37 41 88 42
REMARK SMILES IDX 82 43 84 44 38 45 87 46 81 47 80 48 39 50 69 51 50 52 68 53
REMARK SMILES IDX 51 54 54 55 67 56 85 57 52 58 53 59 66 61 86 62 55 63 40 64
REMARK SMILES IDX 41 65 49 66 42 67 48 68 43 69 44 70 45 71 46 72 47 73 70 74
REMARK SMILES IDX 71 75 79 76 72 77 78 78 73 79 74 80 75 81 76 82 77 83 56 84
REMARK SMILES IDX 57 85 65 86 58 87 64 88 59 89 60 90 61 91 62 92 63 93
REMARK H PARENT 84 49 54 60
REMARK Flexibility Score: inf
ROOT
ATOM      1  O   UNL A   1      38.320  22.353  26.247  1.00  0.00    -0.377 OA
ENDROOT
BRANCH   1   2
ATOM      2  C   UNL A   1      37.515  23.230  25.476  1.00  0.00     0.188 C 
BRANCH   2   3
ATOM      3  C   UNL A   1      36.528  22.697  24.428  1.00  0.00     0.188 C 
BRANCH   3   4
ATOM      4  O   UNL A   1      35.503  23.579  23.996  1.00  0.00    -0.376 OA
BRANCH   4   5
ATOM      5  C   UNL A   1      34.377  23.626  24.864  1.00  0.00     0.202 C 
BRANCH   5   6
ATOM      6  C   UNL A   1      33.229  24.534  24.396  1.00  0.00     0.261 C 
BRANCH   6   7
ATOM      7  O   UNL A   1      31.978  24.210  25.040  1.00  0.00    -0.463 OA
BRANCH   7   8
ATOM      8  C   UNL A   1      31.585  25.025  26.057  1.00  0.00     0.316 C 
ATOM      9  O   UNL A   1      30.469  25.014  26.565  1.00  0.00    -0.251 OA
BRANCH   8  10
ATOM     10  C   UNL A   1      32.650  26.020  26.487  1.00  0.00     0.200 C 
BRANCH  10  11
ATOM     11  S   UNL A   1      32.221  27.729  26.160  1.00  0.00    -0.074 SA
BRANCH  11  12
ATOM     12  C   UNL A   1      32.596  28.150  24.522  1.00  0.00     0.191 A 
ATOM     13  N   UNL A   1      31.834  28.732  23.532  1.00  0.00    -0.306 N 
ATOM     14  C   UNL A   1      32.720  28.999  22.517  1.00  0.00     0.226 A 
ATOM     15  N   UNL A   1      33.926  28.623  22.853  1.00  0.00    -0.138 NA
ATOM     16  N   UNL A   1      33.847  28.094  24.111  1.00  0.00    -0.124 NA
BRANCH  13  17
ATOM     17  C   UNL A   1      30.405  28.975  23.435  1.00  0.00     0.091 C 
ATOM     18  C   UNL A   1      28.073  31.238  21.305  1.00  0.00     0.008 C 
ATOM     19  C   UNL A   1      28.497  30.274  22.411  1.00  0.00    -0.012 C 
ATOM     20  C   UNL A   1      27.624  29.013  22.419  1.00  0.00     0.003 C 
ATOM     21  C   UNL A   1      29.970  29.878  22.271  1.00  0.00     0.029 C 
ATOM     22  C   UNL A   1      28.088  27.990  23.459  1.00  0.00     0.002 C 
ATOM     23  C   UNL A   1      29.581  27.679  23.365  1.00  0.00     0.025 C 
ENDBRANCH  13  17
ENDBRANCH  11  12
ENDBRANCH  10  11
ENDBRANCH   8  10
ENDBRANCH   7   8
ENDBRANCH   6   7
ENDBRANCH   5   6
ENDBRANCH   4   5
ENDBRANCH   3   4
ENDBRANCH   2   3
ENDBRANCH   1   2
BRANCH   1  24
ATOM     24  C   UNL A   1      38.863  21.188  25.652  1.00  0.00     0.188 C 
BRANCH  24  25
ATOM     25  C   UNL A   1      40.058  20.525  26.348  1.00  0.00     0.188 C 
BRANCH  25  26
ATOM     26  O   UNL A   1      40.941  19.671  25.626  1.00  0.00    -0.376 OA
BRANCH  26  27
ATOM     27  C   UNL A   1      42.155  19.181  26.177  1.00  0.00     0.202 C 
BRANCH  27  28
ATOM     28  C   UNL A   1      43.497  19.596  25.611  1.00  0.00     0.261 C 
BRANCH  28  29
ATOM     29  O   UNL A   1      43.374  20.910  25.117  1.00  0.00    -0.460 OA
BRANCH  29  30
ATOM     30  C   UNL A   1      44.007  21.824  25.873  1.00  0.00     0.338 C 
ATOM     31  O   UNL A   1      45.205  22.033  25.929  1.00  0.00    -0.246 OA
BRANCH  30  32
ATOM     32  C   UNL A   1      43.015  22.501  26.705  1.00  0.00     0.060 A 
ATOM     33  C   UNL A   1      42.115  23.283  25.990  1.00  0.00     0.016 A 
ATOM     34  C   UNL A   1      43.300  22.700  28.066  1.00  0.00     0.016 A 
ATOM     35  C   UNL A   1      41.801  24.496  26.530  1.00  0.00     0.010 A 
ATOM     36  C   UNL A   1      42.984  23.914  28.605  1.00  0.00     0.010 A 
ATOM     37  C   UNL A   1      42.352  24.829  27.775  1.00  0.00    -0.014 A 
BRANCH  37  38
ATOM     38  C   UNL A   1      42.204  26.195  28.190  1.00  0.00     0.031 A 
ATOM     39  C   UNL A   1      43.381  26.994  27.852  1.00  0.00     0.074 A 
ATOM     40  C   UNL A   1      41.110  26.656  28.815  1.00  0.00     0.049 A 
ATOM     41  N   UNL A   1      44.324  27.362  28.651  1.00  0.00    -0.248 NA
ATOM     42  C   UNL A   1      43.658  27.194  26.424  1.00  0.00     0.031 C 
ATOM     43  C   UNL A   1      39.803  26.009  28.946  1.00  0.00     0.029 A 
ATOM     44  N   UNL A   1      40.927  27.872  29.386  1.00  0.00    -0.354 N 
ATOM     45  C   UNL A   1      45.210  28.055  27.847  1.00  0.00     0.074 A 
ATOM     46  C   UNL A   1      44.881  27.718  26.484  1.00  0.00     0.031 C 
ATOM     47  C   UNL A   1      38.903  26.930  29.361  1.00  0.00     0.029 A 
ATOM     48  C   UNL A   1      39.605  28.169  29.656  1.00  0.00     0.049 A 
ATOM     49  H   UNL A   1      41.669  28.487  29.590  1.00  0.00     0.167 HD
ATOM     50  C   UNL A   1      45.925  29.097  28.342  1.00  0.00     0.031 A 
ATOM     51  C   UNL A   1      39.126  29.380  30.026  1.00  0.00     0.031 A 
ATOM     52  C   UNL A   1      45.910  29.124  29.781  1.00  0.00     0.049 A 
ATOM     53  C   UNL A   1      40.257  30.161  30.588  1.00  0.00     0.074 A 
ATOM     54  C   UNL A   1      46.449  28.352  30.787  1.00  0.00     0.029 A 
ATOM     55  N   UNL A   1      44.905  29.879  30.342  1.00  0.00    -0.354 N 
ATOM     56  N   UNL A   1      40.856  29.848  31.703  1.00  0.00    -0.248 NA
ATOM     57  C   UNL A   1      40.984  31.101  29.744  1.00  0.00     0.031 C 
ATOM     58  C   UNL A   1      45.566  28.480  31.898  1.00  0.00     0.029 A 
ATOM     59  C   UNL A   1      44.521  29.335  31.543  1.00  0.00     0.049 A 
ATOM     60  H   UNL A   1      44.517  30.689  29.940  1.00  0.00     0.167 HD
ATOM     61  C   UNL A   1      42.181  30.204  31.509  1.00  0.00     0.074 A 
ATOM     62  C   UNL A   1      42.164  31.113  30.373  1.00  0.00     0.031 C 
ATOM     63  C   UNL A   1      43.189  29.499  32.099  1.00  0.00     0.031 A 
BRANCH  50  64
ATOM     64  C   UNL A   1      46.211  30.327  27.521  1.00  0.00    -0.014 A 
ATOM     65  C   UNL A   1      47.539  30.774  27.413  1.00  0.00     0.010 A 
ATOM     66  C   UNL A   1      45.197  31.212  27.093  1.00  0.00     0.010 A 
ATOM     67  C   UNL A   1      47.828  32.064  26.954  1.00  0.00     0.020 A 
ATOM     68  C   UNL A   1      45.475  32.479  26.592  1.00  0.00     0.020 A 
ATOM     69  C   UNL A   1      46.791  32.912  26.562  1.00  0.00     0.054 A 
BRANCH  69  70
ATOM     70  S   UNL A   1      47.158  34.618  26.093  1.00  0.00     0.124 S 
ATOM     71  O   UNL A   1      48.531  34.506  25.613  1.00  0.00    -0.237 OA
ATOM     72  O   UNL A   1      46.145  34.883  25.076  1.00  0.00    -0.237 OA
ATOM     73  O   UNL A   1      46.988  35.359  27.342  1.00  0.00    -0.744 OA
ENDBRANCH  69  70
ENDBRANCH  50  64
BRANCH  51  74
ATOM     74  C   UNL A   1      37.820  29.977  29.682  1.00  0.00    -0.014 A 
ATOM     75  C   UNL A   1      37.061  30.650  30.654  1.00  0.00     0.010 A 
ATOM     76  C   UNL A   1      37.445  30.120  28.329  1.00  0.00     0.010 A 
ATOM     77  C   UNL A   1      36.005  31.494  30.279  1.00  0.00     0.020 A 
ATOM     78  C   UNL A   1      36.388  30.951  27.950  1.00  0.00     0.020 A 
ATOM     79  C   UNL A   1      35.690  31.657  28.926  1.00  0.00     0.054 A 
BRANCH  79  80
ATOM     80  S   UNL A   1      34.457  32.899  28.445  1.00  0.00     0.124 S 
ATOM     81  O   UNL A   1      34.043  33.443  29.735  1.00  0.00    -0.237 OA
ATOM     82  O   UNL A   1      35.232  33.803  27.598  1.00  0.00    -0.237 OA
ATOM     83  O   UNL A   1      33.439  32.120  27.743  1.00  0.00    -0.744 OA
ENDBRANCH  79  80
ENDBRANCH  51  74
BRANCH  63  84
ATOM     84  C   UNL A   1      42.834  28.668  33.308  1.00  0.00    -0.014 A 
ATOM     85  C   UNL A   1      42.013  27.525  33.257  1.00  0.00     0.010 A 
ATOM     86  C   UNL A   1      43.425  29.018  34.535  1.00  0.00     0.010 A 
ATOM     87  C   UNL A   1      41.763  26.773  34.415  1.00  0.00     0.020 A 
ATOM     88  C   UNL A   1      43.196  28.261  35.687  1.00  0.00     0.020 A 
ATOM     89  C   UNL A   1      42.356  27.148  35.624  1.00  0.00     0.054 A 
BRANCH  89  90
ATOM     90  S   UNL A   1      42.061  26.150  37.111  1.00  0.00     0.124 S 
ATOM     91  O   UNL A   1      43.009  26.716  38.066  1.00  0.00    -0.237 OA
ATOM     92  O   UNL A   1      40.651  26.401  37.398  1.00  0.00    -0.237 OA
ATOM     93  O   UNL A   1      42.361  24.785  36.679  1.00  0.00    -0.744 OA
ENDBRANCH  89  90
ENDBRANCH  63  84
ENDBRANCH  37  38
ENDBRANCH  30  32
ENDBRANCH  29  30
ENDBRANCH  28  29
ENDBRANCH  27  28
ENDBRANCH  26  27
ENDBRANCH  25  26
ENDBRANCH  24  25
ENDBRANCH   1  24
TORSDOF 26
ENDMDL
MODEL 3
REMARK VINA RESULT:      -9.4      3.014      4.888
REMARK SMILES C[C@H]1CCC[C@@H](n2cnnc2SCC(=O)OCCOCCOCCOCCOC(=O)c2ccc(-c3c4nc(c(-c5ccc(S(=O)(=O)[O-])cc5)c5ccc([nH]5)c(-c5ccc(S(=O)(=O)[O-])cc5)c5nc(c(-c6ccc(S(=O)(=O)[O-])cc6)c6ccc3[nH]6)C=C5)C=C4)cc2)C1
REMARK SMILES IDX 22 1 21 2 20 3 19 4 18 5 17 6 16 7 14 8 15 9 13 10 12 11
REMARK SMILES IDX 11 12 7 13 8 14 9 15 10 16 6 17 1 18 2 19 3 20 91 21 4 22
REMARK SMILES IDX 5 23 23 24 24 25 25 26 26 27 27 28 28 29 29 30 30 31 31 32
REMARK SMILES IDX 32 33 90 34 33 35 89 36 34 37 35 38 36 39 83 40 37 41 88 42
REMARK SMILES IDX 82 43 84 44 38 45 87 46 81 47 80 48 39 50 69 51 50 52 68 53
REMARK SMILES IDX 51 54 54 55 67 56 85 57 52 58 53 59 66 61 86 62 55 63 40 64
REMARK SMILES IDX 41 65 49 66 42 67 48 68 43 69 44 70 45 71 46 72 47 73 70 74
REMARK SMILES IDX 71 75 79 76 72 77 78 78 73 79 74 80 75 81 76 82 77 83 56 84
REMARK SMILES IDX 57 85 65 86 58 87 64 88 59 89 60 90 61 91 62 92 63 93
REMARK H PARENT 84 49 54 60
REMARK Flexibility Score: inf
ROOT
ATOM      1  O   UNL A   1      37.117  22.588  25.695  1.00  0.00    -0.377 OA
ENDROOT
BRANCH   1   2
ATOM      2  C   UNL A   1      35.782  22.113  25.741  1.00  0.00     0.188 C 
BRANCH   2   3
ATOM      3  C   UNL A   1      35.363  20.832  25.006  1.00  0.00     0.188 C 
BRANCH   3   4
ATOM      4  O   UNL A   1      33.981  20.668  24.728  1.00  0.00    -0.376 OA
BRANCH   4   5
ATOM      5  C   UNL A   1      33.150  21.660  25.320  1.00  0.00     0.202 C 
BRANCH   5   6
ATOM      6  C   UNL A   1      32.306  22.479  24.331  1.00  0.00     0.261 C 
BRANCH   6   7
ATOM      7  O   UNL A   1      32.809  22.391  22.980  1.00  0.00    -0.463 OA
BRANCH   7   8
ATOM      8  C   UNL A   1      33.632  23.394  22.567  1.00  0.00     0.316 C 
ATOM      9  O   UNL A   1      34.857  23.330  22.561  1.00  0.00    -0.251 OA
BRANCH   8  10
ATOM     10  C   UNL A   1      32.895  24.659  22.159  1.00  0.00     0.200 C 
BRANCH  10  11
ATOM     11  S   UNL A   1      33.058  26.004  23.332  1.00  0.00    -0.074 SA
BRANCH  11  12
ATOM     12  C   UNL A   1      31.783  27.157  23.120  1.00  0.00     0.191 A 
ATOM     13  N   UNL A   1      31.460  28.300  23.820  1.00  0.00    -0.306 N 
ATOM     14  C   UNL A   1      30.479  28.904  23.074  1.00  0.00     0.226 A 
ATOM     15  N   UNL A   1      30.224  28.202  22.000  1.00  0.00    -0.138 NA
ATOM     16  N   UNL A   1      31.044  27.110  22.029  1.00  0.00    -0.124 NA
BRANCH  13  17
ATOM     17  C   UNL A   1      31.918  28.804  25.103  1.00  0.00     0.091 C 
ATOM     18  C   UNL A   1      35.289  28.954  27.028  1.00  0.00     0.008 C 
ATOM     19  C   UNL A   1      33.786  29.071  26.780  1.00  0.00    -0.012 C 
ATOM     20  C   UNL A   1      33.265  30.464  27.153  1.00  0.00     0.003 C 
ATOM     21  C   UNL A   1      33.437  28.764  25.320  1.00  0.00     0.029 C 
ATOM     22  C   UNL A   1      31.778  30.635  26.826  1.00  0.00     0.002 C 
ATOM     23  C   UNL A   1      31.433  30.234  25.392  1.00  0.00     0.025 C 
ENDBRANCH  13  17
ENDBRANCH  11  12
ENDBRANCH  10  11
ENDBRANCH   8  10
ENDBRANCH   7   8
ENDBRANCH   6   7
ENDBRANCH   5   6
ENDBRANCH   4   5
ENDBRANCH   3   4
ENDBRANCH   2   3
ENDBRANCH   1   2
BRANCH   1  24
ATOM     24  C   UNL A   1      38.178  21.689  25.427  1.00  0.00     0.188 C 
BRANCH  24  25
ATOM     25  C   UNL A   1      39.425  21.773  26.317  1.00  0.00     0.188 C 
BRANCH  25  26
ATOM     26  O   UNL A   1      40.190  20.608  26.610  1.00  0.00    -0.376 OA
BRANCH  26  27
ATOM     27  C   UNL A   1      41.555  20.666  27.000  1.00  0.00     0.202 C 
BRANCH  27  28
ATOM     28  C   UNL A   1      42.586  19.742  26.387  1.00  0.00     0.261 C 
BRANCH  28  29
ATOM     29  O   UNL A   1      42.981  20.291  25.150  1.00  0.00    -0.460 OA
BRANCH  29  30
ATOM     30  C   UNL A   1      44.315  20.326  24.986  1.00  0.00     0.338 C 
ATOM     31  O   UNL A   1      45.091  19.391  25.045  1.00  0.00    -0.246 OA
BRANCH  30  32
ATOM     32  C   UNL A   1      44.718  21.718  24.795  1.00  0.00     0.060 A 
ATOM     33  C   UNL A   1      45.847  22.084  25.518  1.00  0.00     0.016 A 
ATOM     34  C   UNL A   1      43.763  22.639  24.335  1.00  0.00     0.016 A 
ATOM     35  C   UNL A   1      45.816  23.312  26.113  1.00  0.00     0.010 A 
ATOM     36  C   UNL A   1      43.733  23.867  24.930  1.00  0.00     0.010 A 
ATOM     37  C   UNL A   1      44.692  24.122  25.900  1.00  0.00    -0.014 A 
BRANCH  37  38
ATOM     38  C   UNL A   1      44.582  25.287  26.733  1.00  0.00     0.031 A 
ATOM     39  C   UNL A   1      45.720  26.188  26.555  1.00  0.00     0.074 A 
ATOM     40  C   UNL A   1      43.554  25.495  27.568  1.00  0.00     0.049 A 
ATOM     41  N   UNL A   1      46.735  26.320  27.339  1.00  0.00    -0.248 NA
ATOM     42  C   UNL A   1      45.857  26.831  25.242  1.00  0.00     0.031 C 
ATOM     43  C   UNL A   1      42.266  24.797  27.610  1.00  0.00     0.029 A 
ATOM     44  N   UNL A   1      43.425  26.467  28.505  1.00  0.00    -0.354 N 
ATOM     45  C   UNL A   1      47.537  27.257  26.714  1.00  0.00     0.074 A 
ATOM     46  C   UNL A   1      47.078  27.349  25.349  1.00  0.00     0.031 C 
ATOM     47  C   UNL A   1      41.409  25.515  28.372  1.00  0.00     0.029 A 
ATOM     48  C   UNL A   1      42.134  26.623  28.973  1.00  0.00     0.049 A 
ATOM     49  H   UNL A   1      44.181  27.012  28.821  1.00  0.00     0.167 HD
ATOM     50  C   UNL A   1      48.295  28.116  27.441  1.00  0.00     0.031 A 
ATOM     51  C   UNL A   1      41.692  27.643  29.745  1.00  0.00     0.031 A 
ATOM     52  C   UNL A   1      48.420  27.695  28.813  1.00  0.00     0.049 A 
ATOM     53  C   UNL A   1      42.869  28.247  30.417  1.00  0.00     0.074 A 
ATOM     54  C   UNL A   1      49.056  26.666  29.473  1.00  0.00     0.029 A 
ATOM     55  N   UNL A   1      47.473  28.205  29.670  1.00  0.00    -0.354 N 
ATOM     56  N   UNL A   1      43.575  27.622  31.319  1.00  0.00    -0.248 NA
ATOM     57  C   UNL A   1      43.509  29.425  29.846  1.00  0.00     0.031 C 
ATOM     58  C   UNL A   1      48.284  26.414  30.645  1.00  0.00     0.029 A 
ATOM     59  C   UNL A   1      47.208  27.303  30.671  1.00  0.00     0.049 A 
ATOM     60  H   UNL A   1      47.046  29.087  29.579  1.00  0.00     0.167 HD
ATOM     61  C   UNL A   1      44.874  28.063  31.125  1.00  0.00     0.074 A 
ATOM     62  C   UNL A   1      44.745  29.280  30.336  1.00  0.00     0.031 C 
ATOM     63  C   UNL A   1      45.936  27.243  31.371  1.00  0.00     0.031 A 
BRANCH  50  64
ATOM     64  C   UNL A   1      48.497  29.548  27.023  1.00  0.00    -0.014 A 
ATOM     65  C   UNL A   1      49.807  30.053  26.952  1.00  0.00     0.010 A 
ATOM     66  C   UNL A   1      47.442  30.487  26.975  1.00  0.00     0.010 A 
ATOM     67  C   UNL A   1      50.044  31.432  26.895  1.00  0.00     0.020 A 
ATOM     68  C   UNL A   1      47.665  31.855  26.871  1.00  0.00     0.020 A 
ATOM     69  C   UNL A   1      48.969  32.322  26.872  1.00  0.00     0.054 A 
BRANCH  69  70
ATOM     70  S   UNL A   1      49.279  34.101  26.928  1.00  0.00     0.124 S 
ATOM     71  O   UNL A   1      48.832  34.439  28.274  1.00  0.00    -0.237 OA
ATOM     72  O   UNL A   1      50.719  34.171  26.697  1.00  0.00    -0.237 OA
ATOM     73  O   UNL A   1      48.453  34.626  25.842  1.00  0.00    -0.744 OA
ENDBRANCH  69  70
ENDBRANCH  50  64
BRANCH  51  74
ATOM     74  C   UNL A   1      40.357  28.275  29.726  1.00  0.00    -0.014 A 
ATOM     75  C   UNL A   1      39.317  27.779  30.529  1.00  0.00     0.010 A 
ATOM     76  C   UNL A   1      40.184  29.537  29.118  1.00  0.00     0.010 A 
ATOM     77  C   UNL A   1      38.170  28.551  30.774  1.00  0.00     0.020 A 
ATOM     78  C   UNL A   1      39.040  30.307  29.349  1.00  0.00     0.020 A 
ATOM     79  C   UNL A   1      38.051  29.821  30.200  1.00  0.00     0.054 A 
BRANCH  79  80
ATOM     80  S   UNL A   1      36.661  30.885  30.681  1.00  0.00     0.124 S 
ATOM     81  O   UNL A   1      35.917  31.008  29.431  1.00  0.00    -0.237 OA
ATOM     82  O   UNL A   1      36.011  30.102  31.729  1.00  0.00    -0.237 OA
ATOM     83  O   UNL A   1      37.310  32.111  31.141  1.00  0.00    -0.744 OA
ENDBRANCH  79  80
ENDBRANCH  51  74
BRANCH  63  84
ATOM     84  C   UNL A   1      45.702  26.067  32.287  1.00  0.00    -0.014 A 
ATOM     85  C   UNL A   1      44.929  24.943  31.934  1.00  0.00     0.010 A 
ATOM     86  C   UNL A   1      46.360  26.068  33.529  1.00  0.00     0.010 A 
ATOM     87  C   UNL A   1      44.793  23.864  32.820  1.00  0.00     0.020 A 
ATOM     88  C   UNL A   1      46.244  24.987  34.407  1.00  0.00     0.020 A 
ATOM     89  C   UNL A   1      45.451  23.894  34.053  1.00  0.00     0.054 A 
BRANCH  89  90
ATOM     90  S   UNL A   1      45.303  22.480  35.180  1.00  0.00     0.124 S 
ATOM     91  O   UNL A   1      46.607  21.836  35.054  1.00  0.00    -0.237 OA
ATOM     92  O   UNL A   1      45.034  23.114  36.468  1.00  0.00    -0.237 OA
ATOM     93  O   UNL A   1      44.183  21.715  34.632  1.00  0.00    -0.744 OA
ENDBRANCH  89  90
ENDBRANCH  63  84
ENDBRANCH  37  38
ENDBRANCH  30  32
ENDBRANCH  29  30
ENDBRANCH  28  29
ENDBRANCH  27  28
ENDBRANCH  26  27
ENDBRANCH  25  26
ENDBRANCH  24  25
ENDBRANCH   1  24
TORSDOF 26
ENDMDL
