MODEL 1
REMARK VINA RESULT:      -9.6      0.000      0.000
REMARK SMILES C[C@@H](Oc1ccc(-c2ccccc2)cc1)C(=O)N1CCC[C@H](C(=O)OCCOCCOCCOCCOC(=O)c2ccc(-c3c4nc(c(-c5ccc(S(=O)(=O)[O-])cc5)c5ccc([nH]5)c(-c5ccc(S(=O)(=O)[O-])cc5)c5nc(c(-c6ccc(S(=O)(=O)[O-])cc6)c6ccc3[nH]6)C=C5)C=C4)cc2)C1
REMARK SMILES IDX 30 1 29 2 28 3 27 4 26 5 25 6 23 7 24 8 22 9 18 10 19 11
REMARK SMILES IDX 100 12 20 13 21 14 16 15 17 16 2 17 1 18 3 19 4 20 5 21
REMARK SMILES IDX 15 22 6 23 14 24 7 25 8 26 9 27 13 28 10 29 12 30 11 31
REMARK SMILES IDX 31 32 32 33 33 34 34 35 35 36 36 37 37 38 38 39 39 40 40 41
REMARK SMILES IDX 41 42 99 43 42 44 98 45 43 46 44 47 45 48 92 49 46 50 97 51
REMARK SMILES IDX 91 52 93 53 47 54 96 55 90 56 89 57 48 59 78 60 59 61 77 62
REMARK SMILES IDX 60 63 63 64 76 65 94 66 61 67 62 68 75 70 95 71 64 72 49 73
REMARK SMILES IDX 50 74 58 75 51 76 57 77 52 78 53 79 54 80 55 81 56 82 79 83
REMARK SMILES IDX 80 84 88 85 81 86 87 87 82 88 83 89 84 90 85 91 86 92 65 93
REMARK SMILES IDX 66 94 74 95 67 96 73 97 68 98 69 99 70 100 71 101 72 102
REMARK H PARENT 93 58 63 69
REMARK Flexibility Score: inf
ROOT
ATOM      1  C   UNL A   1      35.696  33.847  28.678  1.00  0.00     0.188 C 
ENDROOT
BRANCH   1   2
ATOM      2  C   UNL A   1      34.686  32.976  27.918  1.00  0.00     0.188 C 
BRANCH   2   3
ATOM      3  O   UNL A   1      34.414  31.727  28.500  1.00  0.00    -0.376 OA
BRANCH   3   4
ATOM      4  C   UNL A   1      34.317  30.564  27.700  1.00  0.00     0.202 C 
BRANCH   4   5
ATOM      5  C   UNL A   1      33.085  30.158  26.865  1.00  0.00     0.261 C 
BRANCH   5   6
ATOM      6  O   UNL A   1      32.808  28.767  26.647  1.00  0.00    -0.463 OA
BRANCH   6   7
ATOM      7  C   UNL A   1      31.704  28.472  25.926  1.00  0.00     0.310 C 
ATOM      8  O   UNL A   1      30.894  27.601  26.243  1.00  0.00    -0.252 OA
BRANCH   7   9
ATOM      9  C   UNL A   1      31.554  29.244  24.619  1.00  0.00     0.119 C 
ATOM     10  N   UNL A   1      30.819  27.354  23.260  1.00  0.00    -0.339 N 
ATOM     11  C   UNL A   1      31.908  27.461  22.301  1.00  0.00     0.119 C 
ATOM     12  C   UNL A   1      30.383  28.614  23.864  1.00  0.00     0.134 C 
ATOM     13  C   UNL A   1      33.126  28.118  22.925  1.00  0.00     0.022 C 
ATOM     14  C   UNL A   1      32.736  29.405  23.650  1.00  0.00     0.019 C 
BRANCH  10  15
ATOM     15  C   UNL A   1      30.421  26.094  23.694  1.00  0.00     0.263 C 
ATOM     16  O   UNL A   1      29.262  25.875  24.054  1.00  0.00    -0.271 OA
BRANCH  15  17
ATOM     17  C   UNL A   1      31.479  24.980  23.745  1.00  0.00     0.259 C 
ATOM     18  C   UNL A   1      32.548  25.262  24.797  1.00  0.00     0.064 C 
BRANCH  17  19
ATOM     19  O   UNL A   1      30.750  23.769  23.996  1.00  0.00    -0.481 OA
BRANCH  19  20
ATOM     20  C   UNL A   1      31.511  22.648  24.026  1.00  0.00     0.120 A 
ATOM     21  C   UNL A   1      31.980  22.119  22.827  1.00  0.00     0.047 A 
ATOM     22  C   UNL A   1      31.643  21.948  25.216  1.00  0.00     0.047 A 
ATOM     23  C   UNL A   1      32.601  20.869  22.825  1.00  0.00     0.012 A 
ATOM     24  C   UNL A   1      32.271  20.709  25.213  1.00  0.00     0.012 A 
ATOM     25  C   UNL A   1      32.741  20.138  24.018  1.00  0.00    -0.018 A 
BRANCH  25  26
ATOM     26  C   UNL A   1      33.324  18.791  24.040  1.00  0.00    -0.018 A 
ATOM     27  C   UNL A   1      32.724  17.722  23.360  1.00  0.00     0.009 A 
ATOM     28  C   UNL A   1      34.530  18.553  24.725  1.00  0.00     0.009 A 
ATOM     29  C   UNL A   1      33.325  16.461  23.345  1.00  0.00     0.001 A 
ATOM     30  C   UNL A   1      35.131  17.296  24.708  1.00  0.00     0.001 A 
ATOM     31  C   UNL A   1      34.531  16.251  24.013  1.00  0.00     0.000 A 
ENDBRANCH  25  26
ENDBRANCH  19  20
ENDBRANCH  17  19
ENDBRANCH  15  17
ENDBRANCH  10  15
ENDBRANCH   7   9
ENDBRANCH   6   7
ENDBRANCH   5   6
ENDBRANCH   4   5
ENDBRANCH   3   4
ENDBRANCH   2   3
ENDBRANCH   1   2
BRANCH   1  32
ATOM     32  O   UNL A   1      35.460  34.197  30.033  1.00  0.00    -0.377 OA
BRANCH  32  33
ATOM     33  C   UNL A   1      36.192  33.562  31.080  1.00  0.00     0.188 C 
BRANCH  33  34
ATOM     34  C   UNL A   1      37.723  33.730  31.167  1.00  0.00     0.188 C 
BRANCH  34  35
ATOM     35  O   UNL A   1      38.332  33.047  32.249  1.00  0.00    -0.376 OA
BRANCH  35  36
ATOM     36  C   UNL A   1      37.486  32.498  33.248  1.00  0.00     0.202 C 
BRANCH  36  37
ATOM     37  C   UNL A   1      37.827  31.111  33.818  1.00  0.00     0.261 C 
BRANCH  37  38
ATOM     38  O   UNL A   1      37.053  30.003  33.328  1.00  0.00    -0.460 OA
BRANCH  38  39
ATOM     39  C   UNL A   1      36.718  29.987  32.022  1.00  0.00     0.338 C 
ATOM     40  O   UNL A   1      35.705  30.442  31.515  1.00  0.00    -0.246 OA
BRANCH  39  41
ATOM     41  C   UNL A   1      37.883  29.485  31.268  1.00  0.00     0.060 A 
ATOM     42  C   UNL A   1      38.766  28.588  31.883  1.00  0.00     0.016 A 
ATOM     43  C   UNL A   1      38.102  29.903  29.954  1.00  0.00     0.016 A 
ATOM     44  C   UNL A   1      39.890  28.132  31.196  1.00  0.00     0.010 A 
ATOM     45  C   UNL A   1      39.241  29.463  29.274  1.00  0.00     0.010 A 
ATOM     46  C   UNL A   1      40.157  28.601  29.903  1.00  0.00    -0.014 A 
BRANCH  46  47
ATOM     47  C   UNL A   1      41.479  28.349  29.283  1.00  0.00     0.031 A 
ATOM     48  C   UNL A   1      42.441  29.500  29.157  1.00  0.00     0.074 A 
ATOM     49  C   UNL A   1      41.829  27.123  28.849  1.00  0.00     0.049 A 
ATOM     50  N   UNL A   1      43.620  29.540  28.593  1.00  0.00    -0.248 NA
ATOM     51  C   UNL A   1      42.010  30.779  29.746  1.00  0.00     0.031 C 
ATOM     52  C   UNL A   1      41.010  25.918  28.965  1.00  0.00     0.029 A 
ATOM     53  N   UNL A   1      42.969  26.697  28.215  1.00  0.00    -0.354 N 
ATOM     54  C   UNL A   1      44.065  30.848  28.747  1.00  0.00     0.074 A 
ATOM     55  C   UNL A   1      43.020  31.577  29.432  1.00  0.00     0.031 C 
ATOM     56  C   UNL A   1      41.671  24.888  28.409  1.00  0.00     0.029 A 
ATOM     57  C   UNL A   1      42.938  25.368  27.861  1.00  0.00     0.049 A 
ATOM     58  H   UNL A   1      43.736  27.286  28.030  1.00  0.00     0.167 HD
ATOM     59  C   UNL A   1      45.240  31.394  28.353  1.00  0.00     0.031 A 
ATOM     60  C   UNL A   1      43.818  24.634  27.150  1.00  0.00     0.031 A 
ATOM     61  C   UNL A   1      46.269  30.668  27.655  1.00  0.00     0.049 A 
ATOM     62  C   UNL A   1      45.080  25.286  26.642  1.00  0.00     0.074 A 
ATOM     63  C   UNL A   1      47.500  31.127  27.221  1.00  0.00     0.029 A 
ATOM     64  N   UNL A   1      46.182  29.336  27.279  1.00  0.00    -0.354 N 
ATOM     65  N   UNL A   1      45.500  26.519  26.811  1.00  0.00    -0.248 NA
ATOM     66  C   UNL A   1      45.992  24.446  25.852  1.00  0.00     0.031 C 
ATOM     67  C   UNL A   1      48.129  30.092  26.522  1.00  0.00     0.029 A 
ATOM     68  C   UNL A   1      47.323  28.966  26.587  1.00  0.00     0.049 A 
ATOM     69  H   UNL A   1      45.422  28.743  27.474  1.00  0.00     0.167 HD
ATOM     70  C   UNL A   1      46.736  26.591  26.174  1.00  0.00     0.074 A 
ATOM     71  C   UNL A   1      47.003  25.274  25.632  1.00  0.00     0.031 C 
ATOM     72  C   UNL A   1      47.575  27.651  26.051  1.00  0.00     0.031 A 
BRANCH  59  73
ATOM     73  C   UNL A   1      45.456  32.860  28.628  1.00  0.00    -0.014 A 
ATOM     74  C   UNL A   1      45.011  33.849  27.731  1.00  0.00     0.010 A 
ATOM     75  C   UNL A   1      46.085  33.255  29.823  1.00  0.00     0.010 A 
ATOM     76  C   UNL A   1      45.224  35.203  28.008  1.00  0.00     0.020 A 
ATOM     77  C   UNL A   1      46.272  34.609  30.119  1.00  0.00     0.020 A 
ATOM     78  C   UNL A   1      45.854  35.573  29.200  1.00  0.00     0.054 A 
BRANCH  78  79
ATOM     79  S   UNL A   1      46.093  37.338  29.545  1.00  0.00     0.124 S 
ATOM     80  O   UNL A   1      45.929  37.388  30.995  1.00  0.00    -0.237 OA
ATOM     81  O   UNL A   1      47.450  37.577  29.058  1.00  0.00    -0.237 OA
ATOM     82  O   UNL A   1      45.036  37.989  28.776  1.00  0.00    -0.744 OA
ENDBRANCH  78  79
ENDBRANCH  59  73
BRANCH  60  83
ATOM     83  C   UNL A   1      43.528  23.203  26.848  1.00  0.00    -0.014 A 
ATOM     84  C   UNL A   1      42.912  22.376  27.803  1.00  0.00     0.010 A 
ATOM     85  C   UNL A   1      43.874  22.657  25.598  1.00  0.00     0.010 A 
ATOM     86  C   UNL A   1      42.666  21.027  27.523  1.00  0.00     0.020 A 
ATOM     87  C   UNL A   1      43.600  21.318  25.301  1.00  0.00     0.020 A 
ATOM     88  C   UNL A   1      43.007  20.508  26.271  1.00  0.00     0.054 A 
BRANCH  88  89
ATOM     89  S   UNL A   1      42.636  18.767  25.916  1.00  0.00     0.124 S 
ATOM     90  O   UNL A   1      41.205  18.812  25.636  1.00  0.00    -0.237 OA
ATOM     91  O   UNL A   1      43.497  18.491  24.768  1.00  0.00    -0.237 OA
ATOM     92  O   UNL A   1      43.011  18.076  27.148  1.00  0.00    -0.744 OA
ENDBRANCH  88  89
ENDBRANCH  60  83
BRANCH  72  93
ATOM     93  C   UNL A   1      48.884  27.426  25.335  1.00  0.00    -0.014 A 
ATOM     94  C   UNL A   1      48.928  27.103  23.967  1.00  0.00     0.010 A 
ATOM     95  C   UNL A   1      50.094  27.602  26.033  1.00  0.00     0.010 A 
ATOM     96  C   UNL A   1      50.154  26.925  23.321  1.00  0.00     0.020 A 
ATOM     97  C   UNL A   1      51.322  27.459  25.384  1.00  0.00     0.020 A 
ATOM     98  C   UNL A   1      51.345  27.106  24.033  1.00  0.00     0.054 A 
BRANCH  98  99
ATOM     99  S   UNL A   1      52.922  26.913  23.160  1.00  0.00     0.124 S 
ATOM    100  O   UNL A   1      53.682  28.062  23.646  1.00  0.00    -0.237 OA
ATOM    101  O   UNL A   1      53.388  25.609  23.625  1.00  0.00    -0.237 OA
ATOM    102  O   UNL A   1      52.547  26.967  21.748  1.00  0.00    -0.744 OA
ENDBRANCH  98  99
ENDBRANCH  72  93
ENDBRANCH  46  47
ENDBRANCH  39  41
ENDBRANCH  38  39
ENDBRANCH  37  38
ENDBRANCH  36  37
ENDBRANCH  35  36
ENDBRANCH  34  35
ENDBRANCH  33  34
ENDBRANCH  32  33
ENDBRANCH   1  32
TORSDOF 28
ENDMDL
MODEL 2
REMARK VINA RESULT:      -8.9      7.210     13.666
REMARK SMILES C[C@@H](Oc1ccc(-c2ccccc2)cc1)C(=O)N1CCC[C@H](C(=O)OCCOCCOCCOCCOC(=O)c2ccc(-c3c4nc(c(-c5ccc(S(=O)(=O)[O-])cc5)c5ccc([nH]5)c(-c5ccc(S(=O)(=O)[O-])cc5)c5nc(c(-c6ccc(S(=O)(=O)[O-])cc6)c6ccc3[nH]6)C=C5)C=C4)cc2)C1
REMARK SMILES IDX 30 1 29 2 28 3 27 4 26 5 25 6 23 7 24 8 22 9 18 10 19 11
REMARK SMILES IDX 100 12 20 13 21 14 16 15 17 16 2 17 1 18 3 19 4 20 5 21
REMARK SMILES IDX 15 22 6 23 14 24 7 25 8 26 9 27 13 28 10 29 12 30 11 31
REMARK SMILES IDX 31 32 32 33 33 34 34 35 35 36 36 37 37 38 38 39 39 40 40 41
REMARK SMILES IDX 41 42 99 43 42 44 98 45 43 46 44 47 45 48 92 49 46 50 97 51
REMARK SMILES IDX 91 52 93 53 47 54 96 55 90 56 89 57 48 59 78 60 59 61 77 62
REMARK SMILES IDX 60 63 63 64 76 65 94 66 61 67 62 68 75 70 95 71 64 72 49 73
REMARK SMILES IDX 50 74 58 75 51 76 57 77 52 78 53 79 54 80 55 81 56 82 79 83
REMARK SMILES IDX 80 84 88 85 81 86 87 87 82 88 83 89 84 90 85 91 86 92 65 93
REMARK SMILES IDX 66 94 74 95 67 96 73 97 68 98 69 99 70 100 71 101 72 102
REMARK H PARENT 93 58 63 69
REMARK Flexibility Score: inf
ROOT
ATOM      1  C   UNL A   1      35.555  33.587  28.769  1.00  0.00     0.188 C 
ENDROOT
BRANCH   1   2
ATOM      2  C   UNL A   1      34.532  32.930  27.832  1.00  0.00     0.188 C 
BRANCH   2   3
ATOM      3  O   UNL A   1      34.019  31.699  28.274  1.00  0.00    -0.376 OA
BRANCH   3   4
ATOM      4  C   UNL A   1      33.923  30.599  27.389  1.00  0.00     0.202 C 
BRANCH   4   5
ATOM      5  C   UNL A   1      32.622  29.841  27.049  1.00  0.00     0.261 C 
BRANCH   5   6
ATOM      6  O   UNL A   1      32.700  28.526  26.480  1.00  0.00    -0.463 OA
BRANCH   6   7
ATOM      7  C   UNL A   1      31.530  27.931  26.160  1.00  0.00     0.310 C 
ATOM      8  O   UNL A   1      31.004  27.050  26.839  1.00  0.00    -0.252 OA
BRANCH   7   9
ATOM      9  C   UNL A   1      30.920  28.367  24.831  1.00  0.00     0.119 C 
ATOM     10  N   UNL A   1      31.340  26.282  23.633  1.00  0.00    -0.339 N 
ATOM     11  C   UNL A   1      32.138  26.901  22.586  1.00  0.00     0.119 C 
ATOM     12  C   UNL A   1      30.288  27.124  24.205  1.00  0.00     0.134 C 
ATOM     13  C   UNL A   1      32.789  28.182  23.077  1.00  0.00     0.022 C 
ATOM     14  C   UNL A   1      31.764  29.082  23.764  1.00  0.00     0.019 C 
BRANCH  10  15
ATOM     15  C   UNL A   1      31.745  25.060  24.161  1.00  0.00     0.263 C 
ATOM     16  O   UNL A   1      30.960  24.332  24.771  1.00  0.00    -0.271 OA
BRANCH  15  17
ATOM     17  C   UNL A   1      33.218  24.654  23.992  1.00  0.00     0.259 C 
ATOM     18  C   UNL A   1      34.049  25.008  25.222  1.00  0.00     0.064 C 
BRANCH  17  19
ATOM     19  O   UNL A   1      33.198  23.245  23.714  1.00  0.00    -0.481 OA
BRANCH  19  20
ATOM     20  C   UNL A   1      34.356  22.599  23.994  1.00  0.00     0.120 A 
ATOM     21  C   UNL A   1      34.377  21.672  25.032  1.00  0.00     0.047 A 
ATOM     22  C   UNL A   1      35.529  23.011  23.380  1.00  0.00     0.047 A 
ATOM     23  C   UNL A   1      35.597  21.142  25.454  1.00  0.00     0.012 A 
ATOM     24  C   UNL A   1      36.741  22.473  23.794  1.00  0.00     0.012 A 
ATOM     25  C   UNL A   1      36.800  21.548  24.850  1.00  0.00    -0.018 A 
BRANCH  25  26
ATOM     26  C   UNL A   1      38.105  21.064  25.316  1.00  0.00    -0.018 A 
ATOM     27  C   UNL A   1      38.988  21.898  26.015  1.00  0.00     0.009 A 
ATOM     28  C   UNL A   1      38.484  19.727  25.097  1.00  0.00     0.009 A 
ATOM     29  C   UNL A   1      40.201  21.404  26.502  1.00  0.00     0.001 A 
ATOM     30  C   UNL A   1      39.693  19.232  25.584  1.00  0.00     0.001 A 
ATOM     31  C   UNL A   1      40.549  20.070  26.291  1.00  0.00     0.000 A 
ENDBRANCH  25  26
ENDBRANCH  19  20
ENDBRANCH  17  19
ENDBRANCH  15  17
ENDBRANCH  10  15
ENDBRANCH   7   9
ENDBRANCH   6   7
ENDBRANCH   5   6
ENDBRANCH   4   5
ENDBRANCH   3   4
ENDBRANCH   2   3
ENDBRANCH   1   2
BRANCH   1  32
ATOM     32  O   UNL A   1      35.240  33.796  30.137  1.00  0.00    -0.377 OA
BRANCH  32  33
ATOM     33  C   UNL A   1      35.728  32.900  31.134  1.00  0.00     0.188 C 
BRANCH  33  34
ATOM     34  C   UNL A   1      35.532  33.223  32.629  1.00  0.00     0.188 C 
BRANCH  34  35
ATOM     35  O   UNL A   1      36.094  32.273  33.518  1.00  0.00    -0.376 OA
BRANCH  35  36
ATOM     36  C   UNL A   1      36.586  31.060  32.968  1.00  0.00     0.202 C 
BRANCH  36  37
ATOM     37  C   UNL A   1      37.962  30.551  33.428  1.00  0.00     0.261 C 
BRANCH  37  38
ATOM     38  O   UNL A   1      38.920  30.258  32.397  1.00  0.00    -0.460 OA
BRANCH  38  39
ATOM     39  C   UNL A   1      39.158  31.200  31.461  1.00  0.00     0.338 C 
ATOM     40  O   UNL A   1      38.723  31.234  30.321  1.00  0.00    -0.246 OA
BRANCH  39  41
ATOM     41  C   UNL A   1      39.896  32.300  32.112  1.00  0.00     0.060 A 
ATOM     42  C   UNL A   1      41.150  32.044  32.681  1.00  0.00     0.016 A 
ATOM     43  C   UNL A   1      39.346  33.582  32.160  1.00  0.00     0.016 A 
ATOM     44  C   UNL A   1      41.844  33.065  33.330  1.00  0.00     0.010 A 
ATOM     45  C   UNL A   1      40.032  34.599  32.830  1.00  0.00     0.010 A 
ATOM     46  C   UNL A   1      41.270  34.337  33.446  1.00  0.00    -0.014 A 
BRANCH  46  47
ATOM     47  C   UNL A   1      41.861  35.335  34.368  1.00  0.00     0.031 A 
ATOM     48  C   UNL A   1      41.423  35.326  35.808  1.00  0.00     0.074 A 
ATOM     49  C   UNL A   1      42.777  36.226  33.943  1.00  0.00     0.049 A 
ATOM     50  N   UNL A   1      41.747  36.138  36.780  1.00  0.00    -0.248 NA
ATOM     51  C   UNL A   1      40.493  34.255  36.202  1.00  0.00     0.031 C 
ATOM     52  C   UNL A   1      43.322  36.300  32.589  1.00  0.00     0.029 A 
ATOM     53  N   UNL A   1      43.403  37.246  34.615  1.00  0.00    -0.354 N 
ATOM     54  C   UNL A   1      41.051  35.686  37.895  1.00  0.00     0.074 A 
ATOM     55  C   UNL A   1      40.266  34.546  37.474  1.00  0.00     0.031 C 
ATOM     56  C   UNL A   1      44.196  37.321  32.527  1.00  0.00     0.029 A 
ATOM     57  C   UNL A   1      44.238  37.997  33.822  1.00  0.00     0.049 A 
ATOM     58  H   UNL A   1      43.266  37.424  35.574  1.00  0.00     0.167 HD
ATOM     59  C   UNL A   1      41.063  36.177  39.157  1.00  0.00     0.031 A 
ATOM     60  C   UNL A   1      44.933  39.119  34.103  1.00  0.00     0.031 A 
ATOM     61  C   UNL A   1      41.832  37.323  39.565  1.00  0.00     0.049 A 
ATOM     62  C   UNL A   1      44.861  39.700  35.493  1.00  0.00     0.074 A 
ATOM     63  C   UNL A   1      41.921  37.894  40.823  1.00  0.00     0.029 A 
ATOM     64  N   UNL A   1      42.632  38.081  38.723  1.00  0.00    -0.354 N 
ATOM     65  N   UNL A   1      44.215  39.253  36.545  1.00  0.00    -0.248 NA
ATOM     66  C   UNL A   1      45.618  40.937  35.737  1.00  0.00     0.031 C 
ATOM     67  C   UNL A   1      42.721  39.037  40.727  1.00  0.00     0.029 A 
ATOM     68  C   UNL A   1      43.192  39.135  39.426  1.00  0.00     0.049 A 
ATOM     69  H   UNL A   1      42.780  37.897  37.769  1.00  0.00     0.167 HD
ATOM     70  C   UNL A   1      44.511  40.135  37.580  1.00  0.00     0.074 A 
ATOM     71  C   UNL A   1      45.409  41.133  37.032  1.00  0.00     0.031 C 
ATOM     72  C   UNL A   1      44.083  40.122  38.867  1.00  0.00     0.031 A 
BRANCH  59  73
ATOM     73  C   UNL A   1      40.184  35.502  40.178  1.00  0.00    -0.014 A 
ATOM     74  C   UNL A   1      38.883  35.965  40.449  1.00  0.00     0.010 A 
ATOM     75  C   UNL A   1      40.655  34.361  40.852  1.00  0.00     0.010 A 
ATOM     76  C   UNL A   1      38.086  35.323  41.401  1.00  0.00     0.020 A 
ATOM     77  C   UNL A   1      39.850  33.695  41.782  1.00  0.00     0.020 A 
ATOM     78  C   UNL A   1      38.576  34.192  42.062  1.00  0.00     0.054 A 
BRANCH  78  79
ATOM     79  S   UNL A   1      37.510  33.363  43.273  1.00  0.00     0.124 S 
ATOM     80  O   UNL A   1      36.270  34.126  43.155  1.00  0.00    -0.237 OA
ATOM     81  O   UNL A   1      37.455  31.994  42.765  1.00  0.00    -0.237 OA
ATOM     82  O   UNL A   1      38.224  33.527  44.536  1.00  0.00    -0.744 OA
ENDBRANCH  78  79
ENDBRANCH  59  73
BRANCH  60  83
ATOM     83  C   UNL A   1      45.737  39.786  33.041  1.00  0.00    -0.014 A 
ATOM     84  C   UNL A   1      47.023  39.324  32.712  1.00  0.00     0.010 A 
ATOM     85  C   UNL A   1      45.220  40.900  32.353  1.00  0.00     0.010 A 
ATOM     86  C   UNL A   1      47.783  39.971  31.732  1.00  0.00     0.020 A 
ATOM     87  C   UNL A   1      45.961  41.531  31.349  1.00  0.00     0.020 A 
ATOM     88  C   UNL A   1      47.244  41.068  31.053  1.00  0.00     0.054 A 
BRANCH  88  89
ATOM     89  S   UNL A   1      48.233  41.863  29.754  1.00  0.00     0.124 S 
ATOM     90  O   UNL A   1      47.756  43.241  29.809  1.00  0.00    -0.237 OA
ATOM     91  O   UNL A   1      49.599  41.646  30.223  1.00  0.00    -0.237 OA
ATOM     92  O   UNL A   1      47.871  41.125  28.545  1.00  0.00    -0.744 OA
ENDBRANCH  88  89
ENDBRANCH  60  83
BRANCH  72  93
ATOM     93  C   UNL A   1      44.607  41.194  39.790  1.00  0.00    -0.014 A 
ATOM     94  C   UNL A   1      43.924  42.411  39.966  1.00  0.00     0.010 A 
ATOM     95  C   UNL A   1      45.773  40.952  40.541  1.00  0.00     0.010 A 
ATOM     96  C   UNL A   1      44.417  43.378  40.846  1.00  0.00     0.020 A 
ATOM     97  C   UNL A   1      46.250  41.901  41.447  1.00  0.00     0.020 A 
ATOM     98  C   UNL A   1      45.576  43.116  41.584  1.00  0.00     0.054 A 
BRANCH  98  99
ATOM     99  S   UNL A   1      46.169  44.370  42.752  1.00  0.00     0.124 S 
ATOM    100  O   UNL A   1      47.535  43.923  43.011  1.00  0.00    -0.237 OA
ATOM    101  O   UNL A   1      46.047  45.606  41.983  1.00  0.00    -0.237 OA
ATOM    102  O   UNL A   1      45.251  44.254  43.884  1.00  0.00    -0.744 OA
ENDBRANCH  98  99
ENDBRANCH  72  93
ENDBRANCH  46  47
ENDBRANCH  39  41
ENDBRANCH  38  39
ENDBRANCH  37  38
ENDBRANCH  36  37
ENDBRANCH  35  36
ENDBRANCH  34  35
ENDBRANCH  33  34
ENDBRANCH  32  33
ENDBRANCH   1  32
TORSDOF 28
ENDMDL
MODEL 3
REMARK VINA RESULT:      -8.4      5.456     15.106
REMARK SMILES C[C@@H](Oc1ccc(-c2ccccc2)cc1)C(=O)N1CCC[C@H](C(=O)OCCOCCOCCOCCOC(=O)c2ccc(-c3c4nc(c(-c5ccc(S(=O)(=O)[O-])cc5)c5ccc([nH]5)c(-c5ccc(S(=O)(=O)[O-])cc5)c5nc(c(-c6ccc(S(=O)(=O)[O-])cc6)c6ccc3[nH]6)C=C5)C=C4)cc2)C1
REMARK SMILES IDX 30 1 29 2 28 3 27 4 26 5 25 6 23 7 24 8 22 9 18 10 19 11
REMARK SMILES IDX 100 12 20 13 21 14 16 15 17 16 2 17 1 18 3 19 4 20 5 21
REMARK SMILES IDX 15 22 6 23 14 24 7 25 8 26 9 27 13 28 10 29 12 30 11 31
REMARK SMILES IDX 31 32 32 33 33 34 34 35 35 36 36 37 37 38 38 39 39 40 40 41
REMARK SMILES IDX 41 42 99 43 42 44 98 45 43 46 44 47 45 48 92 49 46 50 97 51
REMARK SMILES IDX 91 52 93 53 47 54 96 55 90 56 89 57 48 59 78 60 59 61 77 62
REMARK SMILES IDX 60 63 63 64 76 65 94 66 61 67 62 68 75 70 95 71 64 72 49 73
REMARK SMILES IDX 50 74 58 75 51 76 57 77 52 78 53 79 54 80 55 81 56 82 79 83
REMARK SMILES IDX 80 84 88 85 81 86 87 87 82 88 83 89 84 90 85 91 86 92 65 93
REMARK SMILES IDX 66 94 74 95 67 96 73 97 68 98 69 99 70 100 71 101 72 102
REMARK H PARENT 93 58 63 69
REMARK Flexibility Score: inf
ROOT
ATOM      1  C   UNL A   1      46.195  37.594  37.010  1.00  0.00     0.188 C 
ENDROOT
BRANCH   1   2
ATOM      2  C   UNL A   1      46.572  38.921  36.338  1.00  0.00     0.188 C 
BRANCH   2   3
ATOM      3  O   UNL A   1      45.685  39.986  36.574  1.00  0.00    -0.376 OA
BRANCH   3   4
ATOM      4  C   UNL A   1      46.114  41.141  37.270  1.00  0.00     0.202 C 
BRANCH   4   5
ATOM      5  C   UNL A   1      45.508  42.551  37.113  1.00  0.00     0.261 C 
BRANCH   5   6
ATOM      6  O   UNL A   1      44.215  42.700  36.509  1.00  0.00    -0.463 OA
BRANCH   6   7
ATOM      7  C   UNL A   1      44.189  42.967  35.185  1.00  0.00     0.310 C 
ATOM      8  O   UNL A   1      45.083  43.570  34.592  1.00  0.00    -0.252 OA
BRANCH   7   9
ATOM      9  C   UNL A   1      42.918  42.536  34.459  1.00  0.00     0.119 C 
ATOM     10  N   UNL A   1      44.025  41.564  32.512  1.00  0.00    -0.339 N 
ATOM     11  C   UNL A   1      43.359  42.427  31.548  1.00  0.00     0.119 C 
ATOM     12  C   UNL A   1      43.252  41.244  33.712  1.00  0.00     0.134 C 
ATOM     13  C   UNL A   1      42.936  43.738  32.186  1.00  0.00     0.022 C 
ATOM     14  C   UNL A   1      42.190  43.487  33.496  1.00  0.00     0.019 C 
BRANCH  10  15
ATOM     15  C   UNL A   1      45.378  41.285  32.348  1.00  0.00     0.263 C 
ATOM     16  O   UNL A   1      46.045  40.785  33.257  1.00  0.00    -0.271 OA
BRANCH  15  17
ATOM     17  C   UNL A   1      46.033  41.651  31.007  1.00  0.00     0.259 C 
ATOM     18  C   UNL A   1      47.550  41.770  31.130  1.00  0.00     0.064 C 
BRANCH  17  19
ATOM     19  O   UNL A   1      45.624  40.626  30.088  1.00  0.00    -0.481 OA
BRANCH  19  20
ATOM     20  C   UNL A   1      44.962  41.080  28.995  1.00  0.00     0.120 A 
ATOM     21  C   UNL A   1      44.132  40.207  28.299  1.00  0.00     0.047 A 
ATOM     22  C   UNL A   1      45.273  42.331  28.484  1.00  0.00     0.047 A 
ATOM     23  C   UNL A   1      43.597  40.601  27.072  1.00  0.00     0.012 A 
ATOM     24  C   UNL A   1      44.730  42.726  27.269  1.00  0.00     0.012 A 
ATOM     25  C   UNL A   1      43.901  41.863  26.532  1.00  0.00    -0.018 A 
BRANCH  25  26
ATOM     26  C   UNL A   1      43.412  42.281  25.212  1.00  0.00    -0.018 A 
ATOM     27  C   UNL A   1      44.091  43.243  24.451  1.00  0.00     0.009 A 
ATOM     28  C   UNL A   1      42.259  41.691  24.664  1.00  0.00     0.009 A 
ATOM     29  C   UNL A   1      43.643  43.586  23.173  1.00  0.00     0.001 A 
ATOM     30  C   UNL A   1      41.812  42.031  23.388  1.00  0.00     0.001 A 
ATOM     31  C   UNL A   1      42.508  42.975  22.641  1.00  0.00     0.000 A 
ENDBRANCH  25  26
ENDBRANCH  19  20
ENDBRANCH  17  19
ENDBRANCH  15  17
ENDBRANCH  10  15
ENDBRANCH   7   9
ENDBRANCH   6   7
ENDBRANCH   5   6
ENDBRANCH   4   5
ENDBRANCH   3   4
ENDBRANCH   2   3
ENDBRANCH   1   2
BRANCH   1  32
ATOM     32  O   UNL A   1      45.207  36.755  36.431  1.00  0.00    -0.377 OA
BRANCH  32  33
ATOM     33  C   UNL A   1      44.097  37.322  35.737  1.00  0.00     0.188 C 
BRANCH  33  34
ATOM     34  C   UNL A   1      44.031  37.258  34.198  1.00  0.00     0.188 C 
BRANCH  34  35
ATOM     35  O   UNL A   1      45.204  36.763  33.575  1.00  0.00    -0.376 OA
BRANCH  35  36
ATOM     36  C   UNL A   1      45.572  37.316  32.320  1.00  0.00     0.202 C 
BRANCH  36  37
ATOM     37  C   UNL A   1      46.902  36.877  31.687  1.00  0.00     0.261 C 
BRANCH  37  38
ATOM     38  O   UNL A   1      47.248  37.479  30.427  1.00  0.00    -0.460 OA
BRANCH  38  39
ATOM     39  C   UNL A   1      48.277  36.953  29.731  1.00  0.00     0.338 C 
ATOM     40  O   UNL A   1      49.375  37.454  29.545  1.00  0.00    -0.246 OA
BRANCH  39  41
ATOM     41  C   UNL A   1      47.915  35.566  29.378  1.00  0.00     0.060 A 
ATOM     42  C   UNL A   1      47.005  35.336  28.338  1.00  0.00     0.016 A 
ATOM     43  C   UNL A   1      48.475  34.496  30.078  1.00  0.00     0.016 A 
ATOM     44  C   UNL A   1      46.627  34.033  28.017  1.00  0.00     0.010 A 
ATOM     45  C   UNL A   1      48.079  33.192  29.769  1.00  0.00     0.010 A 
ATOM     46  C   UNL A   1      47.128  32.956  28.759  1.00  0.00    -0.014 A 
BRANCH  46  47
ATOM     47  C   UNL A   1      46.521  31.611  28.615  1.00  0.00     0.031 A 
ATOM     48  C   UNL A   1      47.335  30.528  27.959  1.00  0.00     0.074 A 
ATOM     49  C   UNL A   1      45.280  31.349  29.065  1.00  0.00     0.049 A 
ATOM     50  N   UNL A   1      46.998  29.300  27.663  1.00  0.00    -0.248 NA
ATOM     51  C   UNL A   1      48.715  30.880  27.586  1.00  0.00     0.031 C 
ATOM     52  C   UNL A   1      44.416  32.297  29.766  1.00  0.00     0.029 A 
ATOM     53  N   UNL A   1      44.532  30.201  28.989  1.00  0.00    -0.354 N 
ATOM     54  C   UNL A   1      48.116  28.738  27.057  1.00  0.00     0.074 A 
ATOM     55  C   UNL A   1      49.132  29.766  27.003  1.00  0.00     0.031 C 
ATOM     56  C   UNL A   1      43.248  31.693  30.048  1.00  0.00     0.029 A 
ATOM     57  C   UNL A   1      43.266  30.334  29.510  1.00  0.00     0.049 A 
ATOM     58  H   UNL A   1      44.869  29.363  28.599  1.00  0.00     0.167 HD
ATOM     59  C   UNL A   1      48.283  27.479  26.587  1.00  0.00     0.031 A 
ATOM     60  C   UNL A   1      42.232  29.468  29.522  1.00  0.00     0.031 A 
ATOM     61  C   UNL A   1      47.260  26.466  26.627  1.00  0.00     0.049 A 
ATOM     62  C   UNL A   1      42.411  28.100  28.912  1.00  0.00     0.074 A 
ATOM     63  C   UNL A   1      47.332  25.156  26.187  1.00  0.00     0.029 A 
ATOM     64  N   UNL A   1      45.979  26.653  27.123  1.00  0.00    -0.354 N 
ATOM     65  N   UNL A   1      43.480  27.573  28.361  1.00  0.00    -0.248 NA
ATOM     66  C   UNL A   1      41.244  27.205  28.932  1.00  0.00     0.031 C 
ATOM     67  C   UNL A   1      46.073  24.571  26.354  1.00  0.00     0.029 A 
ATOM     68  C   UNL A   1      45.239  25.493  26.969  1.00  0.00     0.049 A 
ATOM     69  H   UNL A   1      45.645  27.486  27.526  1.00  0.00     0.167 HD
ATOM     70  C   UNL A   1      43.122  26.278  27.995  1.00  0.00     0.074 A 
ATOM     71  C   UNL A   1      41.744  26.096  28.404  1.00  0.00     0.031 C 
ATOM     72  C   UNL A   1      43.867  25.325  27.379  1.00  0.00     0.031 A 
BRANCH  59  73
ATOM     73  C   UNL A   1      49.604  27.141  25.949  1.00  0.00    -0.014 A 
ATOM     74  C   UNL A   1      50.738  26.834  26.724  1.00  0.00     0.010 A 
ATOM     75  C   UNL A   1      49.705  27.095  24.546  1.00  0.00     0.010 A 
ATOM     76  C   UNL A   1      51.954  26.524  26.109  1.00  0.00     0.020 A 
ATOM     77  C   UNL A   1      50.911  26.754  23.926  1.00  0.00     0.020 A 
ATOM     78  C   UNL A   1      52.032  26.487  24.713  1.00  0.00     0.054 A 
BRANCH  78  79
ATOM     79  S   UNL A   1      53.617  26.056  23.942  1.00  0.00     0.124 S 
ATOM     80  O   UNL A   1      54.514  27.055  24.516  1.00  0.00    -0.237 OA
ATOM     81  O   UNL A   1      53.831  24.684  24.399  1.00  0.00    -0.237 OA
ATOM     82  O   UNL A   1      53.359  26.200  22.512  1.00  0.00    -0.744 OA
ENDBRANCH  78  79
ENDBRANCH  59  73
BRANCH  60  83
ATOM     83  C   UNL A   1      40.923  29.873  30.108  1.00  0.00    -0.014 A 
ATOM     84  C   UNL A   1      39.923  30.454  29.308  1.00  0.00     0.010 A 
ATOM     85  C   UNL A   1      40.670  29.685  31.480  1.00  0.00     0.010 A 
ATOM     86  C   UNL A   1      38.707  30.855  29.870  1.00  0.00     0.020 A 
ATOM     87  C   UNL A   1      39.444  30.055  32.040  1.00  0.00     0.020 A 
ATOM     88  C   UNL A   1      38.473  30.648  31.232  1.00  0.00     0.054 A 
BRANCH  88  89
ATOM     89  S   UNL A   1      36.869  31.137  31.928  1.00  0.00     0.124 S 
ATOM     90  O   UNL A   1      37.240  31.576  33.269  1.00  0.00    -0.237 OA
ATOM     91  O   UNL A   1      36.439  32.192  31.013  1.00  0.00    -0.237 OA
ATOM     92  O   UNL A   1      36.078  29.909  31.869  1.00  0.00    -0.744 OA
ENDBRANCH  88  89
ENDBRANCH  60  83
BRANCH  72  93
ATOM     93  C   UNL A   1      43.224  23.981  27.142  1.00  0.00    -0.014 A 
ATOM     94  C   UNL A   1      42.573  23.681  25.933  1.00  0.00     0.010 A 
ATOM     95  C   UNL A   1      43.328  22.980  28.127  1.00  0.00     0.010 A 
ATOM     96  C   UNL A   1      42.007  22.419  25.728  1.00  0.00     0.020 A 
ATOM     97  C   UNL A   1      42.795  21.707  27.913  1.00  0.00     0.020 A 
ATOM     98  C   UNL A   1      42.124  21.439  26.718  1.00  0.00     0.054 A 
BRANCH  98  99
ATOM     99  S   UNL A   1      41.421  19.797  26.408  1.00  0.00     0.124 S 
ATOM    100  O   UNL A   1      42.337  19.257  25.407  1.00  0.00    -0.237 OA
ATOM    101  O   UNL A   1      41.486  19.166  27.724  1.00  0.00    -0.237 OA
ATOM    102  O   UNL A   1      40.070  20.081  25.926  1.00  0.00    -0.744 OA
ENDBRANCH  98  99
ENDBRANCH  72  93
ENDBRANCH  46  47
ENDBRANCH  39  41
ENDBRANCH  38  39
ENDBRANCH  37  38
ENDBRANCH  36  37
ENDBRANCH  35  36
ENDBRANCH  34  35
ENDBRANCH  33  34
ENDBRANCH  32  33
ENDBRANCH   1  32
TORSDOF 28
ENDMDL
