MODEL 1
REMARK VINA RESULT:      -9.7      0.000      0.000
REMARK SMILES Cc1ccc(-c2c(C)sc(NC(=O)[C@H]3CC=CC[C@H]3C(=O)OCCOCCOCCOCCOC(=O)c3ccc(-c4c5nc(c(-c6ccc(S(=O)(=O)[O-])cc6)c6ccc([nH]6)c(-c6ccc(S(=O)(=O)[O-])cc6)c6nc(c(-c7ccc(S(=O)(=O)[O-])cc7)c7ccc4[nH]7)C=C6)C=C5)cc3)c2C(N)=O)cc1
REMARK SMILES IDX 28 1 27 2 26 3 25 4 24 5 23 6 22 7 20 8 21 9 19 10 14 11
REMARK SMILES IDX 15 12 16 13 18 14 17 15 12 16 11 17 13 19 10 20 6 21 7 22
REMARK SMILES IDX 97 23 8 24 9 25 5 26 1 27 2 28 3 29 102 30 4 31 101 32 98 33
REMARK SMILES IDX 99 34 100 35 29 38 30 39 31 40 32 41 33 42 34 43 35 44 36 45
REMARK SMILES IDX 37 46 38 47 96 48 39 49 95 50 40 51 41 52 42 53 89 54 43 55
REMARK SMILES IDX 94 56 88 57 90 58 44 59 93 60 87 61 86 62 45 64 75 65 56 66
REMARK SMILES IDX 74 67 57 68 60 69 73 70 91 71 58 72 59 73 72 75 92 76 61 77
REMARK SMILES IDX 46 78 47 79 55 80 48 81 54 82 49 83 50 84 51 85 52 86 53 87
REMARK SMILES IDX 76 88 77 89 85 90 78 91 84 92 79 93 80 94 81 95 82 96 83 97
REMARK SMILES IDX 62 98 63 99 71 100 64 101 70 102 65 103 66 104 67 105 68 106
REMARK SMILES IDX 69 107
REMARK H PARENT 11 18 99 36 99 37 90 63 60 74
REMARK Flexibility Score: inf
ROOT
ATOM      1  O   UNL A   1      39.026  24.056  27.250  1.00  0.00    -0.377 OA
ENDROOT
BRANCH   1   2
ATOM      2  C   UNL A   1      39.353  22.809  26.670  1.00  0.00     0.188 C 
BRANCH   2   3
ATOM      3  C   UNL A   1      38.312  22.177  25.740  1.00  0.00     0.188 C 
BRANCH   3   4
ATOM      4  O   UNL A   1      37.411  22.999  25.028  1.00  0.00    -0.376 OA
BRANCH   4   5
ATOM      5  C   UNL A   1      36.167  23.274  25.658  1.00  0.00     0.202 C 
BRANCH   5   6
ATOM      6  C   UNL A   1      35.046  23.868  24.843  1.00  0.00     0.261 C 
BRANCH   6   7
ATOM      7  O   UNL A   1      34.990  25.279  25.096  1.00  0.00    -0.463 OA
BRANCH   7   8
ATOM      8  C   UNL A   1      34.117  25.906  24.324  1.00  0.00     0.310 C 
ATOM      9  O   UNL A   1      34.204  25.969  23.095  1.00  0.00    -0.252 OA
BRANCH   8  10
ATOM     10  C   UNL A   1      32.915  26.482  25.013  1.00  0.00     0.116 C 
ATOM     11  C   UNL A   1      31.378  26.485  24.842  1.00  0.00     0.097 C 
ATOM     12  C   UNL A   1      30.945  27.981  24.913  1.00  0.00     0.041 C 
ATOM     13  C   UNL A   1      31.857  28.855  25.777  1.00  0.00    -0.030 C 
ATOM     14  C   UNL A   1      33.324  26.934  26.397  1.00  0.00     0.043 C 
ATOM     15  C   UNL A   1      32.912  28.376  26.470  1.00  0.00    -0.030 C 
BRANCH  11  16
ATOM     16  C   UNL A   1      30.439  25.407  25.467  1.00  0.00     0.229 C 
ATOM     17  N   UNL A   1      30.211  24.153  24.997  1.00  0.00    -0.317 N 
ATOM     18  H   UNL A   1      29.266  23.880  24.943  1.00  0.00     0.170 HD
ATOM     19  O   UNL A   1      29.800  25.674  26.496  1.00  0.00    -0.274 OA
BRANCH  17  20
ATOM     20  C   UNL A   1      31.125  23.218  24.587  1.00  0.00     0.109 A 
ATOM     21  C   UNL A   1      32.262  21.261  24.297  1.00  0.00     0.010 A 
ATOM     22  C   UNL A   1      31.930  21.649  23.004  1.00  0.00     0.012 A 
ATOM     23  C   UNL A   1      31.865  22.268  25.275  1.00  0.00     0.082 A 
ATOM     24  C   UNL A   1      31.835  20.893  21.721  1.00  0.00     0.057 C 
ATOM     25  S   UNL A   1      31.820  23.343  23.042  1.00  0.00    -0.122 S 
BRANCH  21  26
ATOM     26  C   UNL A   1      33.010  20.036  24.461  1.00  0.00    -0.016 A 
ATOM     27  C   UNL A   1      34.983  16.279  24.993  1.00  0.00     0.044 C 
ATOM     28  C   UNL A   1      34.293  17.598  24.857  1.00  0.00    -0.051 A 
ATOM     29  C   UNL A   1      35.036  18.787  24.756  1.00  0.00     0.004 A 
ATOM     30  C   UNL A   1      32.903  17.638  24.772  1.00  0.00     0.004 A 
ATOM     31  C   UNL A   1      34.394  20.011  24.576  1.00  0.00     0.009 A 
ATOM     32  C   UNL A   1      32.272  18.846  24.545  1.00  0.00     0.009 A 
ENDBRANCH  21  26
BRANCH  23  33
ATOM     33  C   UNL A   1      32.113  22.246  26.715  1.00  0.00     0.252 C 
ATOM     34  N   UNL A   1      33.247  21.577  27.112  1.00  0.00    -0.365 N 
ATOM     35  O   UNL A   1      31.367  22.706  27.557  1.00  0.00    -0.269 OA
ATOM     36  H   UNL A   1      33.858  21.201  26.439  1.00  0.00     0.159 HD
ATOM     37  H   UNL A   1      33.446  21.473  28.071  1.00  0.00     0.159 HD
ENDBRANCH  23  33
ENDBRANCH  17  20
ENDBRANCH  11  16
ENDBRANCH   8  10
ENDBRANCH   7   8
ENDBRANCH   6   7
ENDBRANCH   5   6
ENDBRANCH   4   5
ENDBRANCH   3   4
ENDBRANCH   2   3
ENDBRANCH   1   2
BRANCH   1  38
ATOM     38  C   UNL A   1      39.839  25.198  27.023  1.00  0.00     0.188 C 
BRANCH  38  39
ATOM     39  C   UNL A   1      41.120  25.031  26.249  1.00  0.00     0.188 C 
BRANCH  39  40
ATOM     40  O   UNL A   1      41.254  26.188  25.423  1.00  0.00    -0.376 OA
BRANCH  40  41
ATOM     41  C   UNL A   1      42.508  26.842  25.469  1.00  0.00     0.202 C 
BRANCH  41  42
ATOM     42  C   UNL A   1      43.040  27.041  26.889  1.00  0.00     0.261 C 
BRANCH  42  43
ATOM     43  O   UNL A   1      42.158  27.865  27.682  1.00  0.00    -0.460 OA
BRANCH  43  44
ATOM     44  C   UNL A   1      42.672  29.002  28.213  1.00  0.00     0.338 C 
ATOM     45  O   UNL A   1      42.975  29.999  27.578  1.00  0.00    -0.246 OA
BRANCH  44  46
ATOM     46  C   UNL A   1      42.384  29.002  29.673  1.00  0.00     0.060 A 
ATOM     47  C   UNL A   1      41.236  28.482  30.276  1.00  0.00     0.016 A 
ATOM     48  C   UNL A   1      43.255  29.753  30.441  1.00  0.00     0.016 A 
ATOM     49  C   UNL A   1      40.872  28.870  31.589  1.00  0.00     0.010 A 
ATOM     50  C   UNL A   1      42.863  30.164  31.705  1.00  0.00     0.010 A 
ATOM     51  C   UNL A   1      41.635  29.800  32.288  1.00  0.00    -0.014 A 
BRANCH  51  52
ATOM     52  C   UNL A   1      41.227  30.553  33.519  1.00  0.00     0.031 A 
ATOM     53  C   UNL A   1      41.841  30.151  34.838  1.00  0.00     0.074 A 
ATOM     54  C   UNL A   1      40.635  31.779  33.410  1.00  0.00     0.049 A 
ATOM     55  N   UNL A   1      41.809  30.846  35.923  1.00  0.00    -0.248 NA
ATOM     56  C   UNL A   1      42.640  28.936  35.024  1.00  0.00     0.031 C 
ATOM     57  C   UNL A   1      40.690  32.910  34.348  1.00  0.00     0.029 A 
ATOM     58  N   UNL A   1      39.848  32.314  32.405  1.00  0.00    -0.354 N 
ATOM     59  C   UNL A   1      42.815  30.414  36.771  1.00  0.00     0.074 A 
ATOM     60  C   UNL A   1      43.261  29.175  36.188  1.00  0.00     0.031 C 
ATOM     61  C   UNL A   1      39.916  33.933  33.948  1.00  0.00     0.029 A 
ATOM     62  C   UNL A   1      39.092  33.388  32.902  1.00  0.00     0.049 A 
ATOM     63  H   UNL A   1      39.822  31.989  31.476  1.00  0.00     0.167 HD
ATOM     64  C   UNL A   1      43.220  31.240  37.786  1.00  0.00     0.031 A 
ATOM     65  C   UNL A   1      37.743  33.212  33.055  1.00  0.00     0.031 A 
ATOM     66  C   UNL A   1      42.289  32.375  37.936  1.00  0.00     0.049 A 
ATOM     67  C   UNL A   1      37.419  33.121  34.560  1.00  0.00     0.074 A 
ATOM     68  C   UNL A   1      42.398  33.755  37.879  1.00  0.00     0.029 A 
ATOM     69  N   UNL A   1      40.921  32.103  37.965  1.00  0.00    -0.354 N 
ATOM     70  N   UNL A   1      38.236  32.620  35.464  1.00  0.00    -0.248 NA
ATOM     71  C   UNL A   1      36.319  33.863  35.181  1.00  0.00     0.031 C 
ATOM     72  C   UNL A   1      41.080  34.286  37.707  1.00  0.00     0.029 A 
ATOM     73  C   UNL A   1      40.171  33.232  37.715  1.00  0.00     0.049 A 
ATOM     74  H   UNL A   1      40.539  31.213  38.142  1.00  0.00     0.167 HD
ATOM     75  C   UNL A   1      37.919  33.129  36.703  1.00  0.00     0.074 A 
ATOM     76  C   UNL A   1      36.665  33.837  36.482  1.00  0.00     0.031 C 
ATOM     77  C   UNL A   1      38.718  33.162  37.819  1.00  0.00     0.031 A 
BRANCH  64  78
ATOM     78  C   UNL A   1      44.531  31.147  38.575  1.00  0.00    -0.014 A 
ATOM     79  C   UNL A   1      45.071  29.873  38.874  1.00  0.00     0.010 A 
ATOM     80  C   UNL A   1      45.251  32.239  39.106  1.00  0.00     0.010 A 
ATOM     81  C   UNL A   1      46.240  29.693  39.639  1.00  0.00     0.020 A 
ATOM     82  C   UNL A   1      46.441  32.076  39.855  1.00  0.00     0.020 A 
ATOM     83  C   UNL A   1      46.929  30.801  40.118  1.00  0.00     0.054 A 
BRANCH  83  84
ATOM     84  S   UNL A   1      48.471  30.543  41.049  1.00  0.00     0.124 S 
ATOM     85  O   UNL A   1      49.055  31.881  41.077  1.00  0.00    -0.237 OA
ATOM     86  O   UNL A   1      47.988  30.043  42.333  1.00  0.00    -0.237 OA
ATOM     87  O   UNL A   1      49.205  29.567  40.245  1.00  0.00    -0.744 OA
ENDBRANCH  83  84
ENDBRANCH  64  78
BRANCH  65  88
ATOM     88  C   UNL A   1      37.218  32.503  31.827  1.00  0.00    -0.014 A 
ATOM     89  C   UNL A   1      35.838  32.147  31.907  1.00  0.00     0.010 A 
ATOM     90  C   UNL A   1      37.750  32.734  30.544  1.00  0.00     0.010 A 
ATOM     91  C   UNL A   1      34.985  32.256  30.798  1.00  0.00     0.020 A 
ATOM     92  C   UNL A   1      36.897  32.780  29.413  1.00  0.00     0.020 A 
ATOM     93  C   UNL A   1      35.514  32.618  29.563  1.00  0.00     0.054 A 
BRANCH  93  94
ATOM     94  S   UNL A   1      34.343  33.019  28.225  1.00  0.00     0.124 S 
ATOM     95  O   UNL A   1      35.133  33.880  27.351  1.00  0.00    -0.237 OA
ATOM     96  O   UNL A   1      34.041  31.697  27.681  1.00  0.00    -0.237 OA
ATOM     97  O   UNL A   1      33.238  33.675  28.918  1.00  0.00    -0.744 OA
ENDBRANCH  93  94
ENDBRANCH  65  88
BRANCH  77  98
ATOM     98  C   UNL A   1      38.163  33.050  39.226  1.00  0.00    -0.014 A 
ATOM     99  C   UNL A   1      37.651  31.858  39.750  1.00  0.00     0.010 A 
ATOM    100  C   UNL A   1      38.386  34.113  40.145  1.00  0.00     0.010 A 
ATOM    101  C   UNL A   1      37.362  31.732  41.110  1.00  0.00     0.020 A 
ATOM    102  C   UNL A   1      38.161  33.977  41.514  1.00  0.00     0.020 A 
ATOM    103  C   UNL A   1      37.634  32.785  41.985  1.00  0.00     0.054 A 
BRANCH 103 104
ATOM    104  S   UNL A   1      37.344  32.542  43.748  1.00  0.00     0.124 S 
ATOM    105  O   UNL A   1      36.245  33.471  43.997  1.00  0.00    -0.237 OA
ATOM    106  O   UNL A   1      36.995  31.125  43.819  1.00  0.00    -0.237 OA
ATOM    107  O   UNL A   1      38.618  32.897  44.366  1.00  0.00    -0.744 OA
ENDBRANCH 103 104
ENDBRANCH  77  98
ENDBRANCH  51  52
ENDBRANCH  44  46
ENDBRANCH  43  44
ENDBRANCH  42  43
ENDBRANCH  41  42
ENDBRANCH  40  41
ENDBRANCH  39  40
ENDBRANCH  38  39
ENDBRANCH   1  38
TORSDOF 27
ENDMDL
MODEL 2
REMARK VINA RESULT:      -8.6      1.833      2.321
REMARK SMILES Cc1ccc(-c2c(C)sc(NC(=O)[C@H]3CC=CC[C@H]3C(=O)OCCOCCOCCOCCOC(=O)c3ccc(-c4c5nc(c(-c6ccc(S(=O)(=O)[O-])cc6)c6ccc([nH]6)c(-c6ccc(S(=O)(=O)[O-])cc6)c6nc(c(-c7ccc(S(=O)(=O)[O-])cc7)c7ccc4[nH]7)C=C6)C=C5)cc3)c2C(N)=O)cc1
REMARK SMILES IDX 28 1 27 2 26 3 25 4 24 5 23 6 22 7 20 8 21 9 19 10 14 11
REMARK SMILES IDX 15 12 16 13 18 14 17 15 12 16 11 17 13 19 10 20 6 21 7 22
REMARK SMILES IDX 97 23 8 24 9 25 5 26 1 27 2 28 3 29 102 30 4 31 101 32 98 33
REMARK SMILES IDX 99 34 100 35 29 38 30 39 31 40 32 41 33 42 34 43 35 44 36 45
REMARK SMILES IDX 37 46 38 47 96 48 39 49 95 50 40 51 41 52 42 53 89 54 43 55
REMARK SMILES IDX 94 56 88 57 90 58 44 59 93 60 87 61 86 62 45 64 75 65 56 66
REMARK SMILES IDX 74 67 57 68 60 69 73 70 91 71 58 72 59 73 72 75 92 76 61 77
REMARK SMILES IDX 46 78 47 79 55 80 48 81 54 82 49 83 50 84 51 85 52 86 53 87
REMARK SMILES IDX 76 88 77 89 85 90 78 91 84 92 79 93 80 94 81 95 82 96 83 97
REMARK SMILES IDX 62 98 63 99 71 100 64 101 70 102 65 103 66 104 67 105 68 106
REMARK SMILES IDX 69 107
REMARK H PARENT 11 18 99 36 99 37 90 63 60 74
REMARK Flexibility Score: inf
ROOT
ATOM      1  O   UNL A   1      39.289  25.708  27.783  1.00  0.00    -0.377 OA
ENDROOT
BRANCH   1   2
ATOM      2  C   UNL A   1      39.299  24.303  27.625  1.00  0.00     0.188 C 
BRANCH   2   3
ATOM      3  C   UNL A   1      38.587  23.733  26.395  1.00  0.00     0.188 C 
BRANCH   3   4
ATOM      4  O   UNL A   1      37.350  24.275  25.983  1.00  0.00    -0.376 OA
BRANCH   4   5
ATOM      5  C   UNL A   1      36.394  23.358  25.467  1.00  0.00     0.202 C 
BRANCH   5   6
ATOM      6  C   UNL A   1      35.189  23.889  24.732  1.00  0.00     0.261 C 
BRANCH   6   7
ATOM      7  O   UNL A   1      34.923  25.223  25.187  1.00  0.00    -0.463 OA
BRANCH   7   8
ATOM      8  C   UNL A   1      34.113  25.890  24.379  1.00  0.00     0.310 C 
ATOM      9  O   UNL A   1      34.290  25.999  23.164  1.00  0.00    -0.252 OA
BRANCH   8  10
ATOM     10  C   UNL A   1      32.870  26.454  25.002  1.00  0.00     0.116 C 
ATOM     11  C   UNL A   1      31.339  26.375  24.799  1.00  0.00     0.097 C 
ATOM     12  C   UNL A   1      30.838  27.850  24.760  1.00  0.00     0.041 C 
ATOM     13  C   UNL A   1      31.688  28.820  25.582  1.00  0.00    -0.030 C 
ATOM     14  C   UNL A   1      33.224  27.015  26.361  1.00  0.00     0.043 C 
ATOM     15  C   UNL A   1      32.747  28.438  26.328  1.00  0.00    -0.030 C 
BRANCH  11  16
ATOM     16  C   UNL A   1      30.435  25.297  25.474  1.00  0.00     0.229 C 
ATOM     17  N   UNL A   1      30.221  24.026  25.046  1.00  0.00    -0.317 N 
ATOM     18  H   UNL A   1      29.281  23.734  25.020  1.00  0.00     0.170 HD
ATOM     19  O   UNL A   1      29.812  25.582  26.510  1.00  0.00    -0.274 OA
BRANCH  17  20
ATOM     20  C   UNL A   1      31.144  23.097  24.643  1.00  0.00     0.109 A 
ATOM     21  C   UNL A   1      32.307  21.152  24.377  1.00  0.00     0.010 A 
ATOM     22  C   UNL A   1      31.954  21.510  23.081  1.00  0.00     0.012 A 
ATOM     23  C   UNL A   1      31.907  22.171  25.340  1.00  0.00     0.082 A 
ATOM     24  C   UNL A   1      31.854  20.727  21.815  1.00  0.00     0.057 C 
ATOM     25  S   UNL A   1      31.818  23.202  23.088  1.00  0.00    -0.122 S 
BRANCH  21  26
ATOM     26  C   UNL A   1      33.075  19.942  24.555  1.00  0.00    -0.016 A 
ATOM     27  C   UNL A   1      35.117  16.235  25.174  1.00  0.00     0.044 C 
ATOM     28  C   UNL A   1      34.410  17.541  25.007  1.00  0.00    -0.051 A 
ATOM     29  C   UNL A   1      35.127  18.709  24.698  1.00  0.00     0.004 A 
ATOM     30  C   UNL A   1      33.020  17.584  25.101  1.00  0.00     0.004 A 
ATOM     31  C   UNL A   1      34.462  19.916  24.490  1.00  0.00     0.009 A 
ATOM     32  C   UNL A   1      32.359  18.770  24.847  1.00  0.00     0.009 A 
ENDBRANCH  21  26
BRANCH  23  33
ATOM     33  C   UNL A   1      32.172  22.182  26.777  1.00  0.00     0.252 C 
ATOM     34  N   UNL A   1      33.267  21.455  27.184  1.00  0.00    -0.365 N 
ATOM     35  O   UNL A   1      31.467  22.715  27.611  1.00  0.00    -0.269 OA
ATOM     36  H   UNL A   1      33.844  21.020  26.517  1.00  0.00     0.159 HD
ATOM     37  H   UNL A   1      33.472  21.371  28.143  1.00  0.00     0.159 HD
ENDBRANCH  23  33
ENDBRANCH  17  20
ENDBRANCH  11  16
ENDBRANCH   8  10
ENDBRANCH   7   8
ENDBRANCH   6   7
ENDBRANCH   5   6
ENDBRANCH   4   5
ENDBRANCH   3   4
ENDBRANCH   2   3
ENDBRANCH   1   2
BRANCH   1  38
ATOM     38  C   UNL A   1      40.391  26.495  27.356  1.00  0.00     0.188 C 
BRANCH  38  39
ATOM     39  C   UNL A   1      41.768  25.886  27.382  1.00  0.00     0.188 C 
BRANCH  39  40
ATOM     40  O   UNL A   1      42.511  26.504  26.332  1.00  0.00    -0.376 OA
BRANCH  40  41
ATOM     41  C   UNL A   1      43.812  26.947  26.668  1.00  0.00     0.202 C 
BRANCH  41  42
ATOM     42  C   UNL A   1      43.920  27.494  28.092  1.00  0.00     0.261 C 
BRANCH  42  43
ATOM     43  O   UNL A   1      43.226  28.752  28.239  1.00  0.00    -0.460 OA
BRANCH  43  44
ATOM     44  C   UNL A   1      43.965  29.841  28.565  1.00  0.00     0.338 C 
ATOM     45  O   UNL A   1      44.381  30.670  27.772  1.00  0.00    -0.246 OA
BRANCH  44  46
ATOM     46  C   UNL A   1      43.797  30.094  30.022  1.00  0.00     0.060 A 
ATOM     47  C   UNL A   1      43.051  29.309  30.904  1.00  0.00     0.016 A 
ATOM     48  C   UNL A   1      44.274  31.316  30.461  1.00  0.00     0.016 A 
ATOM     49  C   UNL A   1      42.630  29.829  32.152  1.00  0.00     0.010 A 
ATOM     50  C   UNL A   1      43.814  31.830  31.663  1.00  0.00     0.010 A 
ATOM     51  C   UNL A   1      42.925  31.141  32.508  1.00  0.00    -0.014 A 
BRANCH  51  52
ATOM     52  C   UNL A   1      42.294  31.937  33.610  1.00  0.00     0.031 A 
ATOM     53  C   UNL A   1      43.051  32.084  34.908  1.00  0.00     0.074 A 
ATOM     54  C   UNL A   1      41.274  32.804  33.336  1.00  0.00     0.049 A 
ATOM     55  N   UNL A   1      42.784  32.934  35.839  1.00  0.00    -0.248 NA
ATOM     56  C   UNL A   1      44.258  31.320  35.234  1.00  0.00     0.031 C 
ATOM     57  C   UNL A   1      40.917  34.048  34.032  1.00  0.00     0.029 A 
ATOM     58  N   UNL A   1      40.315  32.780  32.338  1.00  0.00    -0.354 N 
ATOM     59  C   UNL A   1      43.901  33.097  36.641  1.00  0.00     0.074 A 
ATOM     60  C   UNL A   1      44.772  32.016  36.259  1.00  0.00     0.031 C 
ATOM     61  C   UNL A   1      39.799  34.602  33.532  1.00  0.00     0.029 A 
ATOM     62  C   UNL A   1      39.219  33.580  32.701  1.00  0.00     0.049 A 
ATOM     63  H   UNL A   1      40.390  32.276  31.495  1.00  0.00     0.167 HD
ATOM     64  C   UNL A   1      43.987  34.212  37.432  1.00  0.00     0.031 A 
ATOM     65  C   UNL A   1      38.045  32.956  33.028  1.00  0.00     0.031 A 
ATOM     66  C   UNL A   1      42.696  34.928  37.464  1.00  0.00     0.049 A 
ATOM     67  C   UNL A   1      37.822  33.078  34.549  1.00  0.00     0.074 A 
ATOM     68  C   UNL A   1      42.267  36.203  37.136  1.00  0.00     0.029 A 
ATOM     69  N   UNL A   1      41.538  34.183  37.690  1.00  0.00    -0.354 N 
ATOM     70  N   UNL A   1      38.792  33.122  35.440  1.00  0.00    -0.248 NA
ATOM     71  C   UNL A   1      36.539  33.477  35.133  1.00  0.00     0.031 C 
ATOM     72  C   UNL A   1      40.841  36.160  37.009  1.00  0.00     0.029 A 
ATOM     73  C   UNL A   1      40.406  34.874  37.313  1.00  0.00     0.049 A 
ATOM     74  H   UNL A   1      41.531  33.276  38.073  1.00  0.00     0.167 HD
ATOM     75  C   UNL A   1      38.339  33.732  36.586  1.00  0.00     0.074 A 
ATOM     76  C   UNL A   1      36.904  33.861  36.371  1.00  0.00     0.031 C 
ATOM     77  C   UNL A   1      39.095  34.296  37.584  1.00  0.00     0.031 A 
BRANCH  64  78
ATOM     78  C   UNL A   1      45.254  34.782  38.079  1.00  0.00    -0.014 A 
ATOM     79  C   UNL A   1      45.855  35.938  37.526  1.00  0.00     0.010 A 
ATOM     80  C   UNL A   1      45.944  34.218  39.174  1.00  0.00     0.010 A 
ATOM     81  C   UNL A   1      47.049  36.497  38.022  1.00  0.00     0.020 A 
ATOM     82  C   UNL A   1      47.131  34.782  39.700  1.00  0.00     0.020 A 
ATOM     83  C   UNL A   1      47.678  35.921  39.119  1.00  0.00     0.054 A 
BRANCH  83  84
ATOM     84  S   UNL A   1      49.183  36.700  39.779  1.00  0.00     0.124 S 
ATOM     85  O   UNL A   1      49.696  35.682  40.692  1.00  0.00    -0.237 OA
ATOM     86  O   UNL A   1      49.981  36.922  38.577  1.00  0.00    -0.237 OA
ATOM     87  O   UNL A   1      48.693  37.917  40.426  1.00  0.00    -0.744 OA
ENDBRANCH  83  84
ENDBRANCH  64  78
BRANCH  65  88
ATOM     88  C   UNL A   1      37.799  31.856  32.020  1.00  0.00    -0.014 A 
ATOM     89  C   UNL A   1      36.435  31.445  31.930  1.00  0.00     0.010 A 
ATOM     90  C   UNL A   1      38.594  31.705  30.869  1.00  0.00     0.010 A 
ATOM     91  C   UNL A   1      35.841  31.134  30.697  1.00  0.00     0.020 A 
ATOM     92  C   UNL A   1      38.006  31.326  29.636  1.00  0.00     0.020 A 
ATOM     93  C   UNL A   1      36.623  31.121  29.547  1.00  0.00     0.054 A 
BRANCH  93  94
ATOM     94  S   UNL A   1      35.767  30.989  27.942  1.00  0.00     0.124 S 
ATOM     95  O   UNL A   1      36.669  30.148  27.163  1.00  0.00    -0.237 OA
ATOM     96  O   UNL A   1      34.507  30.355  28.323  1.00  0.00    -0.237 OA
ATOM     97  O   UNL A   1      35.658  32.374  27.494  1.00  0.00    -0.744 OA
ENDBRANCH  93  94
ENDBRANCH  65  88
BRANCH  77  98
ATOM     98  C   UNL A   1      38.663  34.294  39.038  1.00  0.00    -0.014 A 
ATOM     99  C   UNL A   1      38.218  33.143  39.698  1.00  0.00     0.010 A 
ATOM    100  C   UNL A   1      38.945  35.430  39.846  1.00  0.00     0.010 A 
ATOM    101  C   UNL A   1      38.047  33.126  41.084  1.00  0.00     0.020 A 
ATOM    102  C   UNL A   1      38.839  35.404  41.235  1.00  0.00     0.020 A 
ATOM    103  C   UNL A   1      38.374  34.249  41.844  1.00  0.00     0.054 A 
BRANCH 103 104
ATOM    104  S   UNL A   1      38.240  34.147  43.640  1.00  0.00     0.124 S 
ATOM    105  O   UNL A   1      36.795  34.029  43.821  1.00  0.00    -0.237 OA
ATOM    106  O   UNL A   1      39.011  32.945  43.947  1.00  0.00    -0.237 OA
ATOM    107  O   UNL A   1      38.830  35.397  44.108  1.00  0.00    -0.744 OA
ENDBRANCH 103 104
ENDBRANCH  77  98
ENDBRANCH  51  52
ENDBRANCH  44  46
ENDBRANCH  43  44
ENDBRANCH  42  43
ENDBRANCH  41  42
ENDBRANCH  40  41
ENDBRANCH  39  40
ENDBRANCH  38  39
ENDBRANCH   1  38
TORSDOF 27
ENDMDL
MODEL 3
REMARK VINA RESULT:      -8.3      6.230     11.849
REMARK SMILES Cc1ccc(-c2c(C)sc(NC(=O)[C@H]3CC=CC[C@H]3C(=O)OCCOCCOCCOCCOC(=O)c3ccc(-c4c5nc(c(-c6ccc(S(=O)(=O)[O-])cc6)c6ccc([nH]6)c(-c6ccc(S(=O)(=O)[O-])cc6)c6nc(c(-c7ccc(S(=O)(=O)[O-])cc7)c7ccc4[nH]7)C=C6)C=C5)cc3)c2C(N)=O)cc1
REMARK SMILES IDX 28 1 27 2 26 3 25 4 24 5 23 6 22 7 20 8 21 9 19 10 14 11
REMARK SMILES IDX 15 12 16 13 18 14 17 15 12 16 11 17 13 19 10 20 6 21 7 22
REMARK SMILES IDX 97 23 8 24 9 25 5 26 1 27 2 28 3 29 102 30 4 31 101 32 98 33
REMARK SMILES IDX 99 34 100 35 29 38 30 39 31 40 32 41 33 42 34 43 35 44 36 45
REMARK SMILES IDX 37 46 38 47 96 48 39 49 95 50 40 51 41 52 42 53 89 54 43 55
REMARK SMILES IDX 94 56 88 57 90 58 44 59 93 60 87 61 86 62 45 64 75 65 56 66
REMARK SMILES IDX 74 67 57 68 60 69 73 70 91 71 58 72 59 73 72 75 92 76 61 77
REMARK SMILES IDX 46 78 47 79 55 80 48 81 54 82 49 83 50 84 51 85 52 86 53 87
REMARK SMILES IDX 76 88 77 89 85 90 78 91 84 92 79 93 80 94 81 95 82 96 83 97
REMARK SMILES IDX 62 98 63 99 71 100 64 101 70 102 65 103 66 104 67 105 68 106
REMARK SMILES IDX 69 107
REMARK H PARENT 11 18 99 36 99 37 90 63 60 74
REMARK Flexibility Score: inf
ROOT
ATOM      1  O   UNL A   1      42.838  30.957  29.331  1.00  0.00    -0.377 OA
ENDROOT
BRANCH   1   2
ATOM      2  C   UNL A   1      41.808  30.741  30.276  1.00  0.00     0.188 C 
BRANCH   2   3
ATOM      3  C   UNL A   1      40.698  29.761  29.885  1.00  0.00     0.188 C 
BRANCH   3   4
ATOM      4  O   UNL A   1      40.048  29.892  28.638  1.00  0.00    -0.376 OA
BRANCH   4   5
ATOM      5  C   UNL A   1      39.697  28.686  27.974  1.00  0.00     0.202 C 
BRANCH   5   6
ATOM      6  C   UNL A   1      40.748  27.950  27.183  1.00  0.00     0.261 C 
BRANCH   6   7
ATOM      7  O   UNL A   1      40.295  26.609  26.949  1.00  0.00    -0.463 OA
BRANCH   7   8
ATOM      8  C   UNL A   1      40.491  25.810  27.986  1.00  0.00     0.310 C 
ATOM      9  O   UNL A   1      39.762  25.781  28.980  1.00  0.00    -0.252 OA
BRANCH   8  10
ATOM     10  C   UNL A   1      41.624  24.833  27.866  1.00  0.00     0.116 C 
ATOM     11  C   UNL A   1      41.894  23.452  27.227  1.00  0.00     0.097 C 
ATOM     12  C   UNL A   1      42.520  22.576  28.354  1.00  0.00     0.041 C 
ATOM     13  C   UNL A   1      43.316  23.369  29.392  1.00  0.00    -0.030 C 
ATOM     14  C   UNL A   1      42.911  25.540  28.231  1.00  0.00     0.043 C 
ATOM     15  C   UNL A   1      43.517  24.703  29.319  1.00  0.00    -0.030 C 
BRANCH  11  16
ATOM     16  C   UNL A   1      42.405  23.263  25.765  1.00  0.00     0.229 C 
ATOM     17  N   UNL A   1      43.165  24.132  25.048  1.00  0.00    -0.317 N 
ATOM     18  H   UNL A   1      42.856  24.316  24.132  1.00  0.00     0.170 HD
ATOM     19  O   UNL A   1      42.107  22.234  25.140  1.00  0.00    -0.274 OA
BRANCH  17  20
ATOM     20  C   UNL A   1      44.304  24.787  25.435  1.00  0.00     0.109 A 
ATOM     21  C   UNL A   1      46.485  25.420  25.664  1.00  0.00     0.010 A 
ATOM     22  C   UNL A   1      45.843  26.579  25.242  1.00  0.00     0.012 A 
ATOM     23  C   UNL A   1      45.536  24.336  25.888  1.00  0.00     0.082 A 
ATOM     24  C   UNL A   1      46.346  27.830  24.604  1.00  0.00     0.057 C 
ATOM     25  S   UNL A   1      44.241  26.447  25.789  1.00  0.00    -0.122 S 
BRANCH  21  26
ATOM     26  C   UNL A   1      47.906  25.490  25.910  1.00  0.00    -0.016 A 
ATOM     27  C   UNL A   1      52.063  25.647  26.907  1.00  0.00     0.044 C 
ATOM     28  C   UNL A   1      50.606  25.641  26.573  1.00  0.00    -0.051 A 
ATOM     29  C   UNL A   1      50.163  26.022  25.295  1.00  0.00     0.004 A 
ATOM     30  C   UNL A   1      49.688  25.195  27.522  1.00  0.00     0.004 A 
ATOM     31  C   UNL A   1      48.809  25.965  24.967  1.00  0.00     0.009 A 
ATOM     32  C   UNL A   1      48.354  25.093  27.180  1.00  0.00     0.009 A 
ENDBRANCH  21  26
BRANCH  23  33
ATOM     33  C   UNL A   1      45.827  22.999  26.404  1.00  0.00     0.252 C 
ATOM     34  N   UNL A   1      45.900  22.002  25.460  1.00  0.00    -0.365 N 
ATOM     35  O   UNL A   1      45.932  22.715  27.581  1.00  0.00    -0.269 OA
ATOM     36  H   UNL A   1      45.817  22.221  24.504  1.00  0.00     0.159 HD
ATOM     37  H   UNL A   1      46.036  21.068  25.741  1.00  0.00     0.159 HD
ENDBRANCH  23  33
ENDBRANCH  17  20
ENDBRANCH  11  16
ENDBRANCH   8  10
ENDBRANCH   7   8
ENDBRANCH   6   7
ENDBRANCH   5   6
ENDBRANCH   4   5
ENDBRANCH   3   4
ENDBRANCH   2   3
ENDBRANCH   1   2
BRANCH   1  38
ATOM     38  C   UNL A   1      43.578  29.866  28.801  1.00  0.00     0.188 C 
BRANCH  38  39
ATOM     39  C   UNL A   1      44.002  29.914  27.358  1.00  0.00     0.188 C 
BRANCH  39  40
ATOM     40  O   UNL A   1      44.513  31.226  27.122  1.00  0.00    -0.376 OA
BRANCH  40  41
ATOM     41  C   UNL A   1      45.788  31.503  27.671  1.00  0.00     0.202 C 
BRANCH  41  42
ATOM     42  C   UNL A   1      46.884  30.561  27.172  1.00  0.00     0.261 C 
BRANCH  42  43
ATOM     43  O   UNL A   1      47.758  30.140  28.242  1.00  0.00    -0.460 OA
BRANCH  43  44
ATOM     44  C   UNL A   1      48.393  28.950  28.101  1.00  0.00     0.338 C 
ATOM     45  O   UNL A   1      49.407  28.768  27.446  1.00  0.00    -0.246 OA
BRANCH  44  46
ATOM     46  C   UNL A   1      47.938  28.051  29.195  1.00  0.00     0.060 A 
ATOM     47  C   UNL A   1      46.684  27.441  29.279  1.00  0.00     0.016 A 
ATOM     48  C   UNL A   1      48.780  27.991  30.292  1.00  0.00     0.016 A 
ATOM     49  C   UNL A   1      46.207  26.939  30.515  1.00  0.00     0.010 A 
ATOM     50  C   UNL A   1      48.282  27.542  31.505  1.00  0.00     0.010 A 
ATOM     51  C   UNL A   1      46.966  27.074  31.673  1.00  0.00    -0.014 A 
BRANCH  51  52
ATOM     52  C   UNL A   1      46.490  26.906  33.085  1.00  0.00     0.031 A 
ATOM     53  C   UNL A   1      45.772  28.062  33.738  1.00  0.00     0.074 A 
ATOM     54  C   UNL A   1      46.363  25.657  33.623  1.00  0.00     0.049 A 
ATOM     55  N   UNL A   1      45.078  27.997  34.822  1.00  0.00    -0.248 NA
ATOM     56  C   UNL A   1      45.704  29.407  33.160  1.00  0.00     0.031 C 
ATOM     57  C   UNL A   1      45.426  25.196  34.658  1.00  0.00     0.029 A 
ATOM     58  N   UNL A   1      47.046  24.484  33.350  1.00  0.00    -0.354 N 
ATOM     59  C   UNL A   1      44.222  29.084  34.882  1.00  0.00     0.074 A 
ATOM     60  C   UNL A   1      44.702  29.968  33.851  1.00  0.00     0.031 C 
ATOM     61  C   UNL A   1      45.644  23.915  35.000  1.00  0.00     0.029 A 
ATOM     62  C   UNL A   1      46.925  23.592  34.427  1.00  0.00     0.049 A 
ATOM     63  H   UNL A   1      47.544  24.302  32.520  1.00  0.00     0.167 HD
ATOM     64  C   UNL A   1      43.138  29.024  35.718  1.00  0.00     0.031 A 
ATOM     65  C   UNL A   1      48.030  23.360  35.202  1.00  0.00     0.031 A 
ATOM     66  C   UNL A   1      43.240  27.859  36.618  1.00  0.00     0.049 A 
ATOM     67  C   UNL A   1      47.831  24.039  36.572  1.00  0.00     0.074 A 
ATOM     68  C   UNL A   1      42.463  26.742  36.878  1.00  0.00     0.029 A 
ATOM     69  N   UNL A   1      44.451  27.642  37.276  1.00  0.00    -0.354 N 
ATOM     70  N   UNL A   1      47.140  25.146  36.757  1.00  0.00    -0.248 NA
ATOM     71  C   UNL A   1      48.110  23.362  37.841  1.00  0.00     0.031 C 
ATOM     72  C   UNL A   1      43.288  25.790  37.557  1.00  0.00     0.029 A 
ATOM     73  C   UNL A   1      44.546  26.352  37.755  1.00  0.00     0.049 A 
ATOM     74  H   UNL A   1      45.151  28.325  37.384  1.00  0.00     0.167 HD
ATOM     75  C   UNL A   1      46.716  25.212  38.064  1.00  0.00     0.074 A 
ATOM     76  C   UNL A   1      47.416  24.113  38.717  1.00  0.00     0.031 C 
ATOM     77  C   UNL A   1      45.695  25.978  38.571  1.00  0.00     0.031 A 
BRANCH  64  78
ATOM     78  C   UNL A   1      41.887  29.908  35.661  1.00  0.00    -0.014 A 
ATOM     79  C   UNL A   1      41.851  31.108  36.410  1.00  0.00     0.010 A 
ATOM     80  C   UNL A   1      40.699  29.608  34.960  1.00  0.00     0.010 A 
ATOM     81  C   UNL A   1      40.724  31.952  36.460  1.00  0.00     0.020 A 
ATOM     82  C   UNL A   1      39.567  30.458  34.979  1.00  0.00     0.020 A 
ATOM     83  C   UNL A   1      39.587  31.628  35.731  1.00  0.00     0.054 A 
BRANCH  83  84
ATOM     84  S   UNL A   1      38.169  32.766  35.761  1.00  0.00     0.124 S 
ATOM     85  O   UNL A   1      37.670  32.692  34.390  1.00  0.00    -0.237 OA
ATOM     86  O   UNL A   1      37.304  32.171  36.776  1.00  0.00    -0.237 OA
ATOM     87  O   UNL A   1      38.760  34.051  36.133  1.00  0.00    -0.744 OA
ENDBRANCH  83  84
ENDBRANCH  64  78
BRANCH  65  88
ATOM     88  C   UNL A   1      49.219  23.185  34.285  1.00  0.00    -0.014 A 
ATOM     89  C   UNL A   1      50.227  24.183  34.444  1.00  0.00     0.010 A 
ATOM     90  C   UNL A   1      49.633  21.919  33.829  1.00  0.00     0.010 A 
ATOM     91  C   UNL A   1      51.593  23.864  34.387  1.00  0.00     0.020 A 
ATOM     92  C   UNL A   1      51.012  21.617  33.709  1.00  0.00     0.020 A 
ATOM     93  C   UNL A   1      51.978  22.567  34.064  1.00  0.00     0.054 A 
BRANCH  93  94
ATOM     94  S   UNL A   1      53.735  22.128  34.274  1.00  0.00     0.124 S 
ATOM     95  O   UNL A   1      54.416  23.397  34.040  1.00  0.00    -0.237 OA
ATOM     96  O   UNL A   1      53.765  21.656  35.656  1.00  0.00    -0.237 OA
ATOM     97  O   UNL A   1      53.958  21.102  33.260  1.00  0.00    -0.744 OA
ENDBRANCH  93  94
ENDBRANCH  65  88
BRANCH  77  98
ATOM     98  C   UNL A   1      45.721  26.549  39.976  1.00  0.00    -0.014 A 
ATOM     99  C   UNL A   1      46.750  27.377  40.441  1.00  0.00     0.010 A 
ATOM    100  C   UNL A   1      44.553  26.460  40.781  1.00  0.00     0.010 A 
ATOM    101  C   UNL A   1      46.630  28.066  41.650  1.00  0.00     0.020 A 
ATOM    102  C   UNL A   1      44.398  27.192  41.957  1.00  0.00     0.020 A 
ATOM    103  C   UNL A   1      45.451  27.982  42.391  1.00  0.00     0.054 A 
BRANCH 103 104
ATOM    104  S   UNL A   1      45.300  28.972  43.891  1.00  0.00     0.124 S 
ATOM    105  O   UNL A   1      46.344  29.973  43.690  1.00  0.00    -0.237 OA
ATOM    106  O   UNL A   1      43.929  29.470  43.805  1.00  0.00    -0.237 OA
ATOM    107  O   UNL A   1      45.545  28.017  44.968  1.00  0.00    -0.744 OA
ENDBRANCH 103 104
ENDBRANCH  77  98
ENDBRANCH  51  52
ENDBRANCH  44  46
ENDBRANCH  43  44
ENDBRANCH  42  43
ENDBRANCH  41  42
ENDBRANCH  40  41
ENDBRANCH  39  40
ENDBRANCH  38  39
ENDBRANCH   1  38
TORSDOF 27
ENDMDL
