MODEL 1
REMARK VINA RESULT:     -10.7      0.000      0.000
REMARK SMILES Cc1cc(OC(F)(F)F)cc2c1O[C@H](C(F)(F)F)C(C(=O)OCCOCCOCCOCCOC(=O)c1ccc(-c3c4nc(c(-c5ccc(S(=O)(=O)[O-])cc5)c5ccc([nH]5)c(-c5ccc(S(=O)(=O)[O-])cc5)c5nc(c(-c6ccc(S(=O)(=O)[O-])cc6)c6ccc3[nH]6)C=C5)C=C4)cc1)=C2
REMARK SMILES IDX 29 1 28 2 27 3 26 4 25 5 24 6 23 7 22 8 20 9 21 10 19 11
REMARK SMILES IDX 1 12 2 13 3 14 12 15 4 16 11 17 13 18 10 19 97 20 14 21 5 22
REMARK SMILES IDX 6 23 7 24 8 25 9 26 15 27 16 28 17 29 18 30 30 31 31 32
REMARK SMILES IDX 32 33 33 34 34 35 35 36 36 37 37 38 38 39 96 40 39 41 95 42
REMARK SMILES IDX 40 43 41 44 42 45 89 46 43 47 94 48 88 49 90 50 44 51 93 52
REMARK SMILES IDX 87 53 86 54 45 56 75 57 56 58 74 59 57 60 60 61 73 62 91 63
REMARK SMILES IDX 58 64 59 65 72 67 92 68 61 69 46 70 47 71 55 72 48 73 54 74
REMARK SMILES IDX 49 75 50 76 51 77 52 78 53 79 76 80 77 81 85 82 78 83 84 84
REMARK SMILES IDX 79 85 80 86 81 87 82 88 83 89 62 90 63 91 71 92 64 93 70 94
REMARK SMILES IDX 65 95 66 96 67 97 68 98 69 99
REMARK H PARENT 90 55 60 66
REMARK Flexibility Score: inf
ROOT
ATOM      1  C   UNL A   1      31.391  29.428  24.608  1.00  0.00     0.188 C 
ENDROOT
BRANCH   1   2
ATOM      2  O   UNL A   1      31.550  29.041  23.244  1.00  0.00    -0.377 OA
BRANCH   2   3
ATOM      3  C   UNL A   1      30.375  28.885  22.466  1.00  0.00     0.188 C 
BRANCH   3   4
ATOM      4  C   UNL A   1      29.086  28.955  23.307  1.00  0.00     0.188 C 
BRANCH   4   5
ATOM      5  O   UNL A   1      28.214  27.852  23.148  1.00  0.00    -0.376 OA
BRANCH   5   6
ATOM      6  C   UNL A   1      28.429  26.607  23.795  1.00  0.00     0.202 C 
BRANCH   6   7
ATOM      7  C   UNL A   1      29.677  26.194  24.600  1.00  0.00     0.261 C 
BRANCH   7   8
ATOM      8  O   UNL A   1      30.303  24.955  24.277  1.00  0.00    -0.460 OA
BRANCH   8   9
ATOM      9  C   UNL A   1      31.242  24.963  23.317  1.00  0.00     0.338 C 
ATOM     10  O   UNL A   1      31.356  25.764  22.406  1.00  0.00    -0.246 OA
BRANCH   9  11
ATOM     11  C   UNL A   1      32.242  23.930  23.670  1.00  0.00     0.087 C 
ATOM     12  C   UNL A   1      36.271  21.288  25.469  1.00  0.00     0.048 C 
ATOM     13  C   UNL A   1      34.940  20.969  24.845  1.00  0.00    -0.005 A 
ATOM     14  C   UNL A   1      34.537  19.621  24.776  1.00  0.00     0.054 A 
ATOM     15  C   UNL A   1      34.078  21.968  24.367  1.00  0.00     0.131 A 
ATOM     16  C   UNL A   1      33.304  19.270  24.226  1.00  0.00     0.130 A 
ATOM     17  C   UNL A   1      32.826  21.622  23.855  1.00  0.00     0.021 A 
ATOM     18  O   UNL A   1      34.520  23.258  24.435  1.00  0.00    -0.475 OA
ATOM     19  C   UNL A   1      32.461  20.277  23.752  1.00  0.00     0.058 A 
ATOM     20  C   UNL A   1      31.871  22.657  23.501  1.00  0.00     0.027 C 
ATOM     21  C   UNL A   1      33.618  24.353  24.116  1.00  0.00     0.316 C 
BRANCH  16  22
ATOM     22  O   UNL A   1      32.798  18.008  24.099  1.00  0.00    -0.406 OA
BRANCH  22  23
ATOM     23  C   UNL A   1      33.705  16.970  23.773  1.00  0.00     0.573 C 
ATOM     24  F   UNL A   1      33.288  15.786  24.269  1.00  0.00    -0.132 F 
ATOM     25  F   UNL A   1      33.877  16.866  22.439  1.00  0.00    -0.132 F 
ATOM     26  F   UNL A   1      34.904  17.256  24.328  1.00  0.00    -0.132 F 
ENDBRANCH  22  23
ENDBRANCH  16  22
BRANCH  21  27
ATOM     27  C   UNL A   1      33.568  25.296  25.324  1.00  0.00     0.430 C 
ATOM     28  F   UNL A   1      34.812  25.597  25.766  1.00  0.00    -0.167 F 
ATOM     29  F   UNL A   1      32.958  26.465  25.029  1.00  0.00    -0.167 F 
ATOM     30  F   UNL A   1      32.895  24.737  26.357  1.00  0.00    -0.167 F 
ENDBRANCH  21  27
ENDBRANCH   9  11
ENDBRANCH   8   9
ENDBRANCH   7   8
ENDBRANCH   6   7
ENDBRANCH   5   6
ENDBRANCH   4   5
ENDBRANCH   3   4
ENDBRANCH   2   3
ENDBRANCH   1   2
BRANCH   1  31
ATOM     31  C   UNL A   1      32.617  29.649  25.528  1.00  0.00     0.188 C 
BRANCH  31  32
ATOM     32  O   UNL A   1      32.337  30.414  26.695  1.00  0.00    -0.376 OA
BRANCH  32  33
ATOM     33  C   UNL A   1      33.427  30.824  27.502  1.00  0.00     0.202 C 
BRANCH  33  34
ATOM     34  C   UNL A   1      34.525  29.781  27.746  1.00  0.00     0.261 C 
BRANCH  34  35
ATOM     35  O   UNL A   1      35.807  30.293  28.130  1.00  0.00    -0.460 OA
BRANCH  35  36
ATOM     36  C   UNL A   1      36.373  29.793  29.249  1.00  0.00     0.338 C 
ATOM     37  O   UNL A   1      35.800  29.375  30.240  1.00  0.00    -0.246 OA
BRANCH  36  38
ATOM     38  C   UNL A   1      37.820  29.675  28.987  1.00  0.00     0.060 A 
ATOM     39  C   UNL A   1      38.272  29.479  27.675  1.00  0.00     0.016 A 
ATOM     40  C   UNL A   1      38.727  29.775  30.044  1.00  0.00     0.016 A 
ATOM     41  C   UNL A   1      39.637  29.359  27.419  1.00  0.00     0.010 A 
ATOM     42  C   UNL A   1      40.090  29.616  29.793  1.00  0.00     0.010 A 
ATOM     43  C   UNL A   1      40.546  29.373  28.485  1.00  0.00    -0.014 A 
BRANCH  43  44
ATOM     44  C   UNL A   1      41.923  28.872  28.280  1.00  0.00     0.031 A 
ATOM     45  C   UNL A   1      43.043  29.874  28.343  1.00  0.00     0.074 A 
ATOM     46  C   UNL A   1      42.183  27.574  28.046  1.00  0.00     0.049 A 
ATOM     47  N   UNL A   1      44.319  29.704  28.125  1.00  0.00    -0.248 NA
ATOM     48  C   UNL A   1      42.671  31.256  28.703  1.00  0.00     0.031 C 
ATOM     49  C   UNL A   1      41.192  26.499  28.024  1.00  0.00     0.029 A 
ATOM     50  N   UNL A   1      43.372  26.943  27.775  1.00  0.00    -0.354 N 
ATOM     51  C   UNL A   1      44.900  30.950  28.318  1.00  0.00     0.074 A 
ATOM     52  C   UNL A   1      43.842  31.874  28.654  1.00  0.00     0.031 C 
ATOM     53  C   UNL A   1      41.816  25.340  27.741  1.00  0.00     0.029 A 
ATOM     54  C   UNL A   1      43.240  25.597  27.530  1.00  0.00     0.049 A 
ATOM     55  H   UNL A   1      44.237  27.411  27.757  1.00  0.00     0.167 HD
ATOM     56  C   UNL A   1      46.203  31.295  28.224  1.00  0.00     0.031 A 
ATOM     57  C   UNL A   1      44.160  24.685  27.155  1.00  0.00     0.031 A 
ATOM     58  C   UNL A   1      47.252  30.383  27.871  1.00  0.00     0.049 A 
ATOM     59  C   UNL A   1      45.593  25.111  26.965  1.00  0.00     0.074 A 
ATOM     60  C   UNL A   1      48.604  30.642  27.749  1.00  0.00     0.029 A 
ATOM     61  N   UNL A   1      47.066  29.041  27.579  1.00  0.00    -0.354 N 
ATOM     62  N   UNL A   1      46.128  26.296  27.142  1.00  0.00    -0.248 NA
ATOM     63  C   UNL A   1      46.546  24.083  26.520  1.00  0.00     0.031 C 
ATOM     64  C   UNL A   1      49.232  29.467  27.330  1.00  0.00     0.029 A 
ATOM     65  C   UNL A   1      48.279  28.463  27.253  1.00  0.00     0.049 A 
ATOM     66  H   UNL A   1      46.202  28.570  27.601  1.00  0.00     0.167 HD
ATOM     67  C   UNL A   1      47.483  26.150  26.856  1.00  0.00     0.074 A 
ATOM     68  C   UNL A   1      47.686  24.762  26.495  1.00  0.00     0.031 C 
ATOM     69  C   UNL A   1      48.467  27.081  26.898  1.00  0.00     0.031 A 
BRANCH  56  70
ATOM     70  C   UNL A   1      46.570  32.729  28.481  1.00  0.00    -0.014 A 
ATOM     71  C   UNL A   1      46.446  33.697  27.470  1.00  0.00     0.010 A 
ATOM     72  C   UNL A   1      46.960  33.124  29.773  1.00  0.00     0.010 A 
ATOM     73  C   UNL A   1      46.708  35.040  27.747  1.00  0.00     0.020 A 
ATOM     74  C   UNL A   1      47.203  34.469  30.059  1.00  0.00     0.020 A 
ATOM     75  C   UNL A   1      47.073  35.418  29.044  1.00  0.00     0.054 A 
BRANCH  75  76
ATOM     76  S   UNL A   1      47.353  37.177  29.382  1.00  0.00     0.124 S 
ATOM     77  O   UNL A   1      46.573  37.820  28.328  1.00  0.00    -0.237 OA
ATOM     78  O   UNL A   1      46.823  37.324  30.735  1.00  0.00    -0.237 OA
ATOM     79  O   UNL A   1      48.801  37.329  29.260  1.00  0.00    -0.744 OA
ENDBRANCH  75  76
ENDBRANCH  56  70
BRANCH  57  80
ATOM     80  C   UNL A   1      43.746  23.275  26.922  1.00  0.00    -0.014 A 
ATOM     81  C   UNL A   1      43.089  22.548  27.929  1.00  0.00     0.010 A 
ATOM     82  C   UNL A   1      43.979  22.661  25.677  1.00  0.00     0.010 A 
ATOM     83  C   UNL A   1      42.666  21.235  27.694  1.00  0.00     0.020 A 
ATOM     84  C   UNL A   1      43.539  21.358  25.431  1.00  0.00     0.020 A 
ATOM     85  C   UNL A   1      42.884  20.653  26.441  1.00  0.00     0.054 A 
BRANCH  85  86
ATOM     86  S   UNL A   1      42.270  18.971  26.147  1.00  0.00     0.124 S 
ATOM     87  O   UNL A   1      40.862  19.204  25.843  1.00  0.00    -0.237 OA
ATOM     88  O   UNL A   1      43.097  18.536  25.024  1.00  0.00    -0.237 OA
ATOM     89  O   UNL A   1      42.530  18.284  27.411  1.00  0.00    -0.744 OA
ENDBRANCH  85  86
ENDBRANCH  57  80
BRANCH  69  90
ATOM     90  C   UNL A   1      49.871  26.650  26.576  1.00  0.00    -0.014 A 
ATOM     91  C   UNL A   1      50.727  26.160  27.577  1.00  0.00     0.010 A 
ATOM     92  C   UNL A   1      50.286  26.603  25.231  1.00  0.00     0.010 A 
ATOM     93  C   UNL A   1      51.975  25.632  27.238  1.00  0.00     0.020 A 
ATOM     94  C   UNL A   1      51.524  26.054  24.887  1.00  0.00     0.020 A 
ATOM     95  C   UNL A   1      52.360  25.570  25.894  1.00  0.00     0.054 A 
BRANCH  95  96
ATOM     96  S   UNL A   1      53.960  24.821  25.483  1.00  0.00     0.124 S 
ATOM     97  O   UNL A   1      53.579  23.456  25.125  1.00  0.00    -0.237 OA
ATOM     98  O   UNL A   1      54.422  25.655  24.378  1.00  0.00    -0.237 OA
ATOM     99  O   UNL A   1      54.730  24.943  26.719  1.00  0.00    -0.744 OA
ENDBRANCH  95  96
ENDBRANCH  69  90
ENDBRANCH  43  44
ENDBRANCH  36  38
ENDBRANCH  35  36
ENDBRANCH  34  35
ENDBRANCH  33  34
ENDBRANCH  32  33
ENDBRANCH  31  32
ENDBRANCH   1  31
TORSDOF 26
ENDMDL
MODEL 2
REMARK VINA RESULT:      -8.9      5.565      8.920
REMARK SMILES Cc1cc(OC(F)(F)F)cc2c1O[C@H](C(F)(F)F)C(C(=O)OCCOCCOCCOCCOC(=O)c1ccc(-c3c4nc(c(-c5ccc(S(=O)(=O)[O-])cc5)c5ccc([nH]5)c(-c5ccc(S(=O)(=O)[O-])cc5)c5nc(c(-c6ccc(S(=O)(=O)[O-])cc6)c6ccc3[nH]6)C=C5)C=C4)cc1)=C2
REMARK SMILES IDX 29 1 28 2 27 3 26 4 25 5 24 6 23 7 22 8 20 9 21 10 19 11
REMARK SMILES IDX 1 12 2 13 3 14 12 15 4 16 11 17 13 18 10 19 97 20 14 21 5 22
REMARK SMILES IDX 6 23 7 24 8 25 9 26 15 27 16 28 17 29 18 30 30 31 31 32
REMARK SMILES IDX 32 33 33 34 34 35 35 36 36 37 37 38 38 39 96 40 39 41 95 42
REMARK SMILES IDX 40 43 41 44 42 45 89 46 43 47 94 48 88 49 90 50 44 51 93 52
REMARK SMILES IDX 87 53 86 54 45 56 75 57 56 58 74 59 57 60 60 61 73 62 91 63
REMARK SMILES IDX 58 64 59 65 72 67 92 68 61 69 46 70 47 71 55 72 48 73 54 74
REMARK SMILES IDX 49 75 50 76 51 77 52 78 53 79 76 80 77 81 85 82 78 83 84 84
REMARK SMILES IDX 79 85 80 86 81 87 82 88 83 89 62 90 63 91 71 92 64 93 70 94
REMARK SMILES IDX 65 95 66 96 67 97 68 98 69 99
REMARK H PARENT 90 55 60 66
REMARK Flexibility Score: inf
ROOT
ATOM      1  C   UNL A   1      31.803  28.692  23.516  1.00  0.00     0.188 C 
ENDROOT
BRANCH   1   2
ATOM      2  O   UNL A   1      33.190  28.359  23.547  1.00  0.00    -0.377 OA
BRANCH   2   3
ATOM      3  C   UNL A   1      33.556  27.035  23.196  1.00  0.00     0.188 C 
BRANCH   3   4
ATOM      4  C   UNL A   1      32.378  26.047  23.284  1.00  0.00     0.188 C 
BRANCH   4   5
ATOM      5  O   UNL A   1      32.543  24.860  22.531  1.00  0.00    -0.376 OA
BRANCH   5   6
ATOM      6  C   UNL A   1      33.588  23.933  22.783  1.00  0.00     0.202 C 
BRANCH   6   7
ATOM      7  C   UNL A   1      34.809  24.153  23.699  1.00  0.00     0.261 C 
BRANCH   7   8
ATOM      8  O   UNL A   1      35.396  23.012  24.318  1.00  0.00    -0.460 OA
BRANCH   8   9
ATOM      9  C   UNL A   1      35.558  23.041  25.651  1.00  0.00     0.338 C 
ATOM     10  O   UNL A   1      34.683  23.043  26.499  1.00  0.00    -0.246 OA
BRANCH   9  11
ATOM     11  C   UNL A   1      37.003  22.875  25.924  1.00  0.00     0.087 C 
ATOM     12  C   UNL A   1      41.825  21.160  26.432  1.00  0.00     0.048 C 
ATOM     13  C   UNL A   1      41.121  22.489  26.489  1.00  0.00    -0.005 A 
ATOM     14  C   UNL A   1      41.901  23.655  26.607  1.00  0.00     0.054 A 
ATOM     15  C   UNL A   1      39.726  22.601  26.391  1.00  0.00     0.131 A 
ATOM     16  C   UNL A   1      41.301  24.915  26.644  1.00  0.00     0.130 A 
ATOM     17  C   UNL A   1      39.128  23.863  26.385  1.00  0.00     0.021 A 
ATOM     18  O   UNL A   1      39.011  21.442  26.300  1.00  0.00    -0.475 OA
ATOM     19  C   UNL A   1      39.912  25.009  26.550  1.00  0.00     0.058 A 
ATOM     20  C   UNL A   1      37.704  23.995  26.133  1.00  0.00     0.027 C 
ATOM     21  C   UNL A   1      37.584  21.489  26.028  1.00  0.00     0.316 C 
BRANCH  16  22
ATOM     22  O   UNL A   1      41.939  26.117  26.757  1.00  0.00    -0.406 OA
BRANCH  22  23
ATOM     23  C   UNL A   1      42.374  26.742  25.563  1.00  0.00     0.573 C 
ATOM     24  F   UNL A   1      42.402  25.864  24.537  1.00  0.00    -0.132 F 
ATOM     25  F   UNL A   1      41.587  27.790  25.240  1.00  0.00    -0.132 F 
ATOM     26  F   UNL A   1      43.630  27.204  25.752  1.00  0.00    -0.132 F 
ENDBRANCH  22  23
ENDBRANCH  16  22
BRANCH  21  27
ATOM     27  C   UNL A   1      37.312  20.655  24.770  1.00  0.00     0.430 C 
ATOM     28  F   UNL A   1      37.409  21.408  23.649  1.00  0.00    -0.167 F 
ATOM     29  F   UNL A   1      38.188  19.634  24.640  1.00  0.00    -0.167 F 
ATOM     30  F   UNL A   1      36.068  20.120  24.792  1.00  0.00    -0.167 F 
ENDBRANCH  21  27
ENDBRANCH   9  11
ENDBRANCH   8   9
ENDBRANCH   7   8
ENDBRANCH   6   7
ENDBRANCH   5   6
ENDBRANCH   4   5
ENDBRANCH   3   4
ENDBRANCH   2   3
ENDBRANCH   1   2
BRANCH   1  31
ATOM     31  C   UNL A   1      30.934  28.629  24.796  1.00  0.00     0.188 C 
BRANCH  31  32
ATOM     32  O   UNL A   1      31.626  28.155  25.946  1.00  0.00    -0.376 OA
BRANCH  32  33
ATOM     33  C   UNL A   1      31.789  29.041  27.039  1.00  0.00     0.202 C 
BRANCH  33  34
ATOM     34  C   UNL A   1      32.513  30.361  26.744  1.00  0.00     0.261 C 
BRANCH  34  35
ATOM     35  O   UNL A   1      33.903  30.408  27.090  1.00  0.00    -0.460 OA
BRANCH  35  36
ATOM     36  C   UNL A   1      34.353  31.510  27.728  1.00  0.00     0.338 C 
ATOM     37  O   UNL A   1      33.733  32.533  27.956  1.00  0.00    -0.246 OA
BRANCH  36  38
ATOM     38  C   UNL A   1      35.689  31.184  28.264  1.00  0.00     0.060 A 
ATOM     39  C   UNL A   1      35.989  29.862  28.617  1.00  0.00     0.016 A 
ATOM     40  C   UNL A   1      36.647  32.192  28.398  1.00  0.00     0.016 A 
ATOM     41  C   UNL A   1      37.246  29.547  29.131  1.00  0.00     0.010 A 
ATOM     42  C   UNL A   1      37.891  31.883  28.950  1.00  0.00     0.010 A 
ATOM     43  C   UNL A   1      38.182  30.567  29.349  1.00  0.00    -0.014 A 
BRANCH  43  44
ATOM     44  C   UNL A   1      39.345  30.318  30.230  1.00  0.00     0.031 A 
ATOM     45  C   UNL A   1      39.168  30.573  31.702  1.00  0.00     0.074 A 
ATOM     46  C   UNL A   1      40.521  29.878  29.751  1.00  0.00     0.049 A 
ATOM     47  N   UNL A   1      40.047  30.503  32.665  1.00  0.00    -0.248 NA
ATOM     48  C   UNL A   1      37.814  30.957  32.146  1.00  0.00     0.031 C 
ATOM     49  C   UNL A   1      40.796  29.535  28.357  1.00  0.00     0.029 A 
ATOM     50  N   UNL A   1      41.712  29.652  30.397  1.00  0.00    -0.354 N 
ATOM     51  C   UNL A   1      39.357  30.836  33.824  1.00  0.00     0.074 A 
ATOM     52  C   UNL A   1      37.993  31.124  33.449  1.00  0.00     0.031 C 
ATOM     53  C   UNL A   1      42.083  29.152  28.251  1.00  0.00     0.029 A 
ATOM     54  C   UNL A   1      42.727  29.255  29.560  1.00  0.00     0.049 A 
ATOM     55  H   UNL A   1      41.826  29.764  31.368  1.00  0.00     0.167 HD
ATOM     56  C   UNL A   1      39.822  30.895  35.091  1.00  0.00     0.031 A 
ATOM     57  C   UNL A   1      44.031  29.026  29.819  1.00  0.00     0.031 A 
ATOM     58  C   UNL A   1      41.181  30.628  35.462  1.00  0.00     0.049 A 
ATOM     59  C   UNL A   1      44.548  29.189  31.225  1.00  0.00     0.074 A 
ATOM     60  C   UNL A   1      41.746  30.665  36.724  1.00  0.00     0.029 A 
ATOM     61  N   UNL A   1      42.188  30.282  34.576  1.00  0.00    -0.354 N 
ATOM     62  N   UNL A   1      43.886  29.512  32.311  1.00  0.00    -0.248 NA
ATOM     63  C   UNL A   1      45.985  28.962  31.443  1.00  0.00     0.031 C 
ATOM     64  C   UNL A   1      43.109  30.393  36.594  1.00  0.00     0.029 A 
ATOM     65  C   UNL A   1      43.379  30.126  35.261  1.00  0.00     0.049 A 
ATOM     66  H   UNL A   1      42.073  30.165  33.605  1.00  0.00     0.167 HD
ATOM     67  C   UNL A   1      44.821  29.502  33.344  1.00  0.00     0.074 A 
ATOM     68  C   UNL A   1      46.092  29.140  32.753  1.00  0.00     0.031 C 
ATOM     69  C   UNL A   1      44.636  29.762  34.661  1.00  0.00     0.031 A 
BRANCH  56  70
ATOM     70  C   UNL A   1      38.858  31.290  36.174  1.00  0.00    -0.014 A 
ATOM     71  C   UNL A   1      38.133  30.317  36.883  1.00  0.00     0.010 A 
ATOM     72  C   UNL A   1      38.743  32.642  36.541  1.00  0.00     0.010 A 
ATOM     73  C   UNL A   1      37.307  30.691  37.944  1.00  0.00     0.020 A 
ATOM     74  C   UNL A   1      37.933  33.018  37.615  1.00  0.00     0.020 A 
ATOM     75  C   UNL A   1      37.222  32.039  38.310  1.00  0.00     0.054 A 
BRANCH  75  76
ATOM     76  S   UNL A   1      36.181  32.483  39.727  1.00  0.00     0.124 S 
ATOM     77  O   UNL A   1      36.077  31.213  40.441  1.00  0.00    -0.237 OA
ATOM     78  O   UNL A   1      36.978  33.513  40.389  1.00  0.00    -0.237 OA
ATOM     79  O   UNL A   1      34.941  32.952  39.114  1.00  0.00    -0.744 OA
ENDBRANCH  75  76
ENDBRANCH  56  70
BRANCH  57  80
ATOM     80  C   UNL A   1      44.942  28.628  28.712  1.00  0.00    -0.014 A 
ATOM     81  C   UNL A   1      45.256  27.276  28.496  1.00  0.00     0.010 A 
ATOM     82  C   UNL A   1      45.475  29.601  27.845  1.00  0.00     0.010 A 
ATOM     83  C   UNL A   1      46.082  26.902  27.431  1.00  0.00     0.020 A 
ATOM     84  C   UNL A   1      46.283  29.229  26.766  1.00  0.00     0.020 A 
ATOM     85  C   UNL A   1      46.580  27.881  26.565  1.00  0.00     0.054 A 
BRANCH  85  86
ATOM     86  S   UNL A   1      47.598  27.359  25.157  1.00  0.00     0.124 S 
ATOM     87  O   UNL A   1      46.623  27.305  24.073  1.00  0.00    -0.237 OA
ATOM     88  O   UNL A   1      48.580  28.437  25.074  1.00  0.00    -0.237 OA
ATOM     89  O   UNL A   1      48.133  26.065  25.580  1.00  0.00    -0.744 OA
ENDBRANCH  85  86
ENDBRANCH  57  80
BRANCH  69  90
ATOM     90  C   UNL A   1      45.817  29.643  35.585  1.00  0.00    -0.014 A 
ATOM     91  C   UNL A   1      46.602  30.763  35.905  1.00  0.00     0.010 A 
ATOM     92  C   UNL A   1      46.052  28.424  36.248  1.00  0.00     0.010 A 
ATOM     93  C   UNL A   1      47.604  30.665  36.874  1.00  0.00     0.020 A 
ATOM     94  C   UNL A   1      47.038  28.328  37.233  1.00  0.00     0.020 A 
ATOM     95  C   UNL A   1      47.807  29.451  37.540  1.00  0.00     0.054 A 
BRANCH  95  96
ATOM     96  S   UNL A   1      49.074  29.375  38.836  1.00  0.00     0.124 S 
ATOM     97  O   UNL A   1      50.238  29.949  38.166  1.00  0.00    -0.237 OA
ATOM     98  O   UNL A   1      48.490  30.196  39.894  1.00  0.00    -0.237 OA
ATOM     99  O   UNL A   1      49.176  27.950  39.141  1.00  0.00    -0.744 OA
ENDBRANCH  95  96
ENDBRANCH  69  90
ENDBRANCH  43  44
ENDBRANCH  36  38
ENDBRANCH  35  36
ENDBRANCH  34  35
ENDBRANCH  33  34
ENDBRANCH  32  33
ENDBRANCH  31  32
ENDBRANCH   1  31
TORSDOF 26
ENDMDL
MODEL 3
REMARK VINA RESULT:      -8.8      5.242     10.427
REMARK SMILES Cc1cc(OC(F)(F)F)cc2c1O[C@H](C(F)(F)F)C(C(=O)OCCOCCOCCOCCOC(=O)c1ccc(-c3c4nc(c(-c5ccc(S(=O)(=O)[O-])cc5)c5ccc([nH]5)c(-c5ccc(S(=O)(=O)[O-])cc5)c5nc(c(-c6ccc(S(=O)(=O)[O-])cc6)c6ccc3[nH]6)C=C5)C=C4)cc1)=C2
REMARK SMILES IDX 29 1 28 2 27 3 26 4 25 5 24 6 23 7 22 8 20 9 21 10 19 11
REMARK SMILES IDX 1 12 2 13 3 14 12 15 4 16 11 17 13 18 10 19 97 20 14 21 5 22
REMARK SMILES IDX 6 23 7 24 8 25 9 26 15 27 16 28 17 29 18 30 30 31 31 32
REMARK SMILES IDX 32 33 33 34 34 35 35 36 36 37 37 38 38 39 96 40 39 41 95 42
REMARK SMILES IDX 40 43 41 44 42 45 89 46 43 47 94 48 88 49 90 50 44 51 93 52
REMARK SMILES IDX 87 53 86 54 45 56 75 57 56 58 74 59 57 60 60 61 73 62 91 63
REMARK SMILES IDX 58 64 59 65 72 67 92 68 61 69 46 70 47 71 55 72 48 73 54 74
REMARK SMILES IDX 49 75 50 76 51 77 52 78 53 79 76 80 77 81 85 82 78 83 84 84
REMARK SMILES IDX 79 85 80 86 81 87 82 88 83 89 62 90 63 91 71 92 64 93 70 94
REMARK SMILES IDX 65 95 66 96 67 97 68 98 69 99
REMARK H PARENT 90 55 60 66
REMARK Flexibility Score: inf
ROOT
ATOM      1  C   UNL A   1      31.691  29.176  23.740  1.00  0.00     0.188 C 
ENDROOT
BRANCH   1   2
ATOM      2  O   UNL A   1      32.952  28.938  23.116  1.00  0.00    -0.377 OA
BRANCH   2   3
ATOM      3  C   UNL A   1      33.155  27.674  22.507  1.00  0.00     0.188 C 
BRANCH   3   4
ATOM      4  C   UNL A   1      32.201  26.591  23.044  1.00  0.00     0.188 C 
BRANCH   4   5
ATOM      5  O   UNL A   1      32.389  25.306  22.484  1.00  0.00    -0.376 OA
BRANCH   5   6
ATOM      6  C   UNL A   1      33.516  24.497  22.785  1.00  0.00     0.202 C 
BRANCH   6   7
ATOM      7  C   UNL A   1      34.443  24.633  24.009  1.00  0.00     0.261 C 
BRANCH   7   8
ATOM      8  O   UNL A   1      35.309  23.545  24.319  1.00  0.00    -0.460 OA
BRANCH   8   9
ATOM      9  C   UNL A   1      35.400  23.168  25.605  1.00  0.00     0.338 C 
ATOM     10  O   UNL A   1      34.483  22.879  26.354  1.00  0.00    -0.246 OA
BRANCH   9  11
ATOM     11  C   UNL A   1      36.836  22.976  25.907  1.00  0.00     0.087 C 
ATOM     12  C   UNL A   1      41.630  21.196  26.451  1.00  0.00     0.048 C 
ATOM     13  C   UNL A   1      40.933  22.525  26.563  1.00  0.00    -0.005 A 
ATOM     14  C   UNL A   1      41.717  23.677  26.768  1.00  0.00     0.054 A 
ATOM     15  C   UNL A   1      39.542  22.654  26.433  1.00  0.00     0.131 A 
ATOM     16  C   UNL A   1      41.125  24.937  26.860  1.00  0.00     0.130 A 
ATOM     17  C   UNL A   1      38.953  23.919  26.482  1.00  0.00     0.021 A 
ATOM     18  O   UNL A   1      38.823  21.508  26.258  1.00  0.00    -0.475 OA
ATOM     19  C   UNL A   1      39.740  25.047  26.732  1.00  0.00     0.058 A 
ATOM     20  C   UNL A   1      37.538  24.076  26.198  1.00  0.00     0.027 C 
ATOM     21  C   UNL A   1      37.404  21.581  25.950  1.00  0.00     0.316 C 
BRANCH  16  22
ATOM     22  O   UNL A   1      41.767  26.126  27.057  1.00  0.00    -0.406 OA
BRANCH  22  23
ATOM     23  C   UNL A   1      41.967  26.547  28.395  1.00  0.00     0.573 C 
ATOM     24  F   UNL A   1      42.567  27.755  28.440  1.00  0.00    -0.132 F 
ATOM     25  F   UNL A   1      40.802  26.595  29.075  1.00  0.00    -0.132 F 
ATOM     26  F   UNL A   1      42.775  25.655  29.011  1.00  0.00    -0.132 F 
ENDBRANCH  22  23
ENDBRANCH  16  22
BRANCH  21  27
ATOM     27  C   UNL A   1      37.162  20.821  24.639  1.00  0.00     0.430 C 
ATOM     28  F   UNL A   1      35.896  20.347  24.572  1.00  0.00    -0.167 F 
ATOM     29  F   UNL A   1      37.351  21.607  23.556  1.00  0.00    -0.167 F 
ATOM     30  F   UNL A   1      37.999  19.762  24.522  1.00  0.00    -0.167 F 
ENDBRANCH  21  27
ENDBRANCH   9  11
ENDBRANCH   8   9
ENDBRANCH   7   8
ENDBRANCH   6   7
ENDBRANCH   5   6
ENDBRANCH   4   5
ENDBRANCH   3   4
ENDBRANCH   2   3
ENDBRANCH   1   2
BRANCH   1  31
ATOM     31  C   UNL A   1      31.568  29.305  25.278  1.00  0.00     0.188 C 
BRANCH  31  32
ATOM     32  O   UNL A   1      32.765  28.999  25.984  1.00  0.00    -0.376 OA
BRANCH  32  33
ATOM     33  C   UNL A   1      33.019  29.684  27.199  1.00  0.00     0.202 C 
BRANCH  33  34
ATOM     34  C   UNL A   1      33.177  31.207  27.102  1.00  0.00     0.261 C 
BRANCH  34  35
ATOM     35  O   UNL A   1      34.471  31.727  27.431  1.00  0.00    -0.460 OA
BRANCH  35  36
ATOM     36  C   UNL A   1      34.526  32.799  28.250  1.00  0.00     0.338 C 
ATOM     37  O   UNL A   1      33.612  33.552  28.540  1.00  0.00    -0.246 OA
BRANCH  36  38
ATOM     38  C   UNL A   1      35.859  32.794  28.882  1.00  0.00     0.060 A 
ATOM     39  C   UNL A   1      36.194  33.802  29.797  1.00  0.00     0.016 A 
ATOM     40  C   UNL A   1      36.768  31.779  28.577  1.00  0.00     0.016 A 
ATOM     41  C   UNL A   1      37.454  33.810  30.394  1.00  0.00     0.010 A 
ATOM     42  C   UNL A   1      38.043  31.810  29.144  1.00  0.00     0.010 A 
ATOM     43  C   UNL A   1      38.401  32.844  30.027  1.00  0.00    -0.014 A 
BRANCH  43  44
ATOM     44  C   UNL A   1      39.829  33.060  30.348  1.00  0.00     0.031 A 
ATOM     45  C   UNL A   1      40.474  32.109  31.319  1.00  0.00     0.074 A 
ATOM     46  C   UNL A   1      40.539  34.062  29.802  1.00  0.00     0.049 A 
ATOM     47  N   UNL A   1      41.680  32.128  31.817  1.00  0.00    -0.248 NA
ATOM     48  C   UNL A   1      39.644  30.983  31.789  1.00  0.00     0.031 C 
ATOM     49  C   UNL A   1      40.045  35.008  28.803  1.00  0.00     0.029 A 
ATOM     50  N   UNL A   1      41.838  34.450  30.023  1.00  0.00    -0.354 N 
ATOM     51  C   UNL A   1      41.754  31.024  32.657  1.00  0.00     0.074 A 
ATOM     52  C   UNL A   1      40.470  30.364  32.619  1.00  0.00     0.031 C 
ATOM     53  C   UNL A   1      41.029  35.878  28.505  1.00  0.00     0.029 A 
ATOM     54  C   UNL A   1      42.207  35.570  29.316  1.00  0.00     0.049 A 
ATOM     55  H   UNL A   1      42.446  33.972  30.630  1.00  0.00     0.167 HD
ATOM     56  C   UNL A   1      42.801  30.598  33.397  1.00  0.00     0.031 A 
ATOM     57  C   UNL A   1      43.356  36.277  29.340  1.00  0.00     0.031 A 
ATOM     58  C   UNL A   1      44.070  31.264  33.451  1.00  0.00     0.049 A 
ATOM     59  C   UNL A   1      44.478  35.836  30.244  1.00  0.00     0.074 A 
ATOM     60  C   UNL A   1      45.193  30.906  34.175  1.00  0.00     0.029 A 
ATOM     61  N   UNL A   1      44.383  32.424  32.762  1.00  0.00    -0.354 N 
ATOM     62  N   UNL A   1      44.532  34.795  31.040  1.00  0.00    -0.248 NA
ATOM     63  C   UNL A   1      45.694  36.665  30.257  1.00  0.00     0.031 C 
ATOM     64  C   UNL A   1      46.170  31.882  33.965  1.00  0.00     0.029 A 
ATOM     65  C   UNL A   1      45.677  32.811  33.062  1.00  0.00     0.049 A 
ATOM     66  H   UNL A   1      43.777  32.901  32.150  1.00  0.00     0.167 HD
ATOM     67  C   UNL A   1      45.793  34.830  31.629  1.00  0.00     0.074 A 
ATOM     68  C   UNL A   1      46.471  35.993  31.097  1.00  0.00     0.031 C 
ATOM     69  C   UNL A   1      46.339  33.969  32.523  1.00  0.00     0.031 A 
BRANCH  56  70
ATOM     70  C   UNL A   1      42.614  29.364  34.232  1.00  0.00    -0.014 A 
ATOM     71  C   UNL A   1      42.053  29.442  35.518  1.00  0.00     0.010 A 
ATOM     72  C   UNL A   1      42.926  28.105  33.689  1.00  0.00     0.010 A 
ATOM     73  C   UNL A   1      41.805  28.278  36.248  1.00  0.00     0.020 A 
ATOM     74  C   UNL A   1      42.660  26.937  34.408  1.00  0.00     0.020 A 
ATOM     75  C   UNL A   1      42.100  27.032  35.682  1.00  0.00     0.054 A 
BRANCH  75  76
ATOM     76  S   UNL A   1      41.716  25.540  36.637  1.00  0.00     0.124 S 
ATOM     77  O   UNL A   1      41.859  26.010  38.013  1.00  0.00    -0.237 OA
ATOM     78  O   UNL A   1      40.350  25.241  36.213  1.00  0.00    -0.237 OA
ATOM     79  O   UNL A   1      42.728  24.579  36.204  1.00  0.00    -0.744 OA
ENDBRANCH  75  76
ENDBRANCH  56  70
BRANCH  57  80
ATOM     80  C   UNL A   1      43.493  37.487  28.486  1.00  0.00    -0.014 A 
ATOM     81  C   UNL A   1      42.838  38.682  28.828  1.00  0.00     0.010 A 
ATOM     82  C   UNL A   1      44.309  37.458  27.339  1.00  0.00     0.010 A 
ATOM     83  C   UNL A   1      43.001  39.828  28.043  1.00  0.00     0.020 A 
ATOM     84  C   UNL A   1      44.491  38.608  26.564  1.00  0.00     0.020 A 
ATOM     85  C   UNL A   1      43.837  39.786  26.923  1.00  0.00     0.054 A 
BRANCH  85  86
ATOM     86  S   UNL A   1      44.075  41.306  25.960  1.00  0.00     0.124 S 
ATOM     87  O   UNL A   1      45.157  40.932  25.055  1.00  0.00    -0.237 OA
ATOM     88  O   UNL A   1      42.764  41.484  25.341  1.00  0.00    -0.237 OA
ATOM     89  O   UNL A   1      44.424  42.303  26.971  1.00  0.00    -0.744 OA
ENDBRANCH  85  86
ENDBRANCH  57  80
BRANCH  69  90
ATOM     90  C   UNL A   1      47.751  34.214  32.979  1.00  0.00    -0.014 A 
ATOM     91  C   UNL A   1      48.021  34.975  34.128  1.00  0.00     0.010 A 
ATOM     92  C   UNL A   1      48.810  33.552  32.327  1.00  0.00     0.010 A 
ATOM     93  C   UNL A   1      49.326  35.072  34.617  1.00  0.00     0.020 A 
ATOM     94  C   UNL A   1      50.112  33.629  32.826  1.00  0.00     0.020 A 
ATOM     95  C   UNL A   1      50.361  34.388  33.970  1.00  0.00     0.054 A 
BRANCH  95  96
ATOM     96  S   UNL A   1      52.032  34.484  34.668  1.00  0.00     0.124 S 
ATOM     97  O   UNL A   1      52.609  35.609  33.936  1.00  0.00    -0.237 OA
ATOM     98  O   UNL A   1      51.768  34.723  36.084  1.00  0.00    -0.237 OA
ATOM     99  O   UNL A   1      52.616  33.180  34.357  1.00  0.00    -0.744 OA
ENDBRANCH  95  96
ENDBRANCH  69  90
ENDBRANCH  43  44
ENDBRANCH  36  38
ENDBRANCH  35  36
ENDBRANCH  34  35
ENDBRANCH  33  34
ENDBRANCH  32  33
ENDBRANCH  31  32
ENDBRANCH   1  31
TORSDOF 26
ENDMDL
