MODEL 1
REMARK VINA RESULT:      -9.4      0.000      0.000
REMARK SMILES Cc1cc(C(=O)OCCOCCOCCOCCOC(=O)c2ccc(-c3c4nc(c(-c5ccc(S(=O)(=O)[O-])cc5)c5ccc([nH]5)c(-c5ccc(S(=O)(=O)[O-])cc5)c5nc(c(-c6ccc(S(=O)(=O)[O-])cc6)c6ccc3[nH]6)C=C5)C=C4)cc2)c([N+](=O)[O-])cc1[N+](=O)[O-]
REMARK SMILES IDX 14 1 13 2 12 3 11 4 10 5 9 6 8 7 7 8 5 9 6 10 4 11 1 12 2 13
REMARK SMILES IDX 3 14 87 15 86 16 82 17 88 18 89 19 90 20 83 21 84 22 85 23
REMARK SMILES IDX 15 24 16 25 17 26 18 27 19 28 20 29 21 30 22 31 23 32 81 33
REMARK SMILES IDX 24 34 80 35 25 36 26 37 27 38 74 39 28 40 79 41 73 42 75 43
REMARK SMILES IDX 29 44 78 45 72 46 71 47 30 49 60 50 41 51 59 52 42 53 45 54
REMARK SMILES IDX 58 55 76 56 43 57 44 58 57 60 77 61 46 62 31 63 32 64 40 65
REMARK SMILES IDX 33 66 39 67 34 68 35 69 36 70 37 71 38 72 61 73 62 74 70 75
REMARK SMILES IDX 63 76 69 77 64 78 65 79 66 80 67 81 68 82 47 83 48 84 56 85
REMARK SMILES IDX 49 86 55 87 50 88 51 89 52 90 53 91 54 92
REMARK H PARENT 75 48 45 59
REMARK Flexibility Score: inf
ROOT
ATOM      1  C   UNL A   1      34.224  22.095  25.321  1.00  0.00     0.188 C 
ENDROOT
BRANCH   1   2
ATOM      2  O   UNL A   1      32.795  22.120  25.167  1.00  0.00    -0.377 OA
BRANCH   2   3
ATOM      3  C   UNL A   1      32.266  22.279  23.868  1.00  0.00     0.188 C 
BRANCH   3   4
ATOM      4  C   UNL A   1      31.776  23.675  23.445  1.00  0.00     0.188 C 
BRANCH   4   5
ATOM      5  O   UNL A   1      32.684  24.661  22.985  1.00  0.00    -0.376 OA
BRANCH   5   6
ATOM      6  C   UNL A   1      32.229  25.463  21.896  1.00  0.00     0.202 C 
BRANCH   6   7
ATOM      7  C   UNL A   1      31.241  26.573  22.224  1.00  0.00     0.261 C 
BRANCH   7   8
ATOM      8  O   UNL A   1      31.813  27.429  23.217  1.00  0.00    -0.459 OA
BRANCH   8   9
ATOM      9  C   UNL A   1      31.076  27.514  24.334  1.00  0.00     0.345 C 
ATOM     10  O   UNL A   1      30.186  26.796  24.738  1.00  0.00    -0.246 OA
BRANCH   9  11
ATOM     11  C   UNL A   1      31.904  28.275  25.260  1.00  0.00     0.138 A 
ATOM     12  C   UNL A   1      31.481  31.843  26.378  1.00  0.00     0.052 C 
ATOM     13  C   UNL A   1      32.153  30.501  26.261  1.00  0.00     0.028 A 
ATOM     14  C   UNL A   1      31.486  29.604  25.417  1.00  0.00     0.033 A 
ATOM     15  C   UNL A   1      33.292  30.021  26.942  1.00  0.00     0.279 A 
ATOM     16  C   UNL A   1      33.649  28.651  26.870  1.00  0.00     0.172 A 
ATOM     17  C   UNL A   1      32.937  27.785  26.034  1.00  0.00     0.290 A 
BRANCH  15  18
ATOM     18  N   UNL A   1      34.226  30.906  27.668  1.00  0.00     0.063 N 
ATOM     19  O   UNL A   1      33.755  31.607  28.577  1.00  0.00    -0.258 OA
ATOM     20  O   UNL A   1      35.426  30.881  27.380  1.00  0.00    -0.258 OA
ENDBRANCH  15  18
BRANCH  17  21
ATOM     21  N   UNL A   1      33.370  26.407  25.933  1.00  0.00     0.063 N 
ATOM     22  O   UNL A   1      32.703  25.567  26.548  1.00  0.00    -0.258 OA
ATOM     23  O   UNL A   1      34.280  26.161  25.131  1.00  0.00    -0.258 OA
ENDBRANCH  17  21
ENDBRANCH   9  11
ENDBRANCH   8   9
ENDBRANCH   7   8
ENDBRANCH   6   7
ENDBRANCH   5   6
ENDBRANCH   4   5
ENDBRANCH   3   4
ENDBRANCH   2   3
ENDBRANCH   1   2
BRANCH   1  24
ATOM     24  C   UNL A   1      35.097  21.363  24.307  1.00  0.00     0.188 C 
BRANCH  24  25
ATOM     25  O   UNL A   1      35.725  20.271  24.983  1.00  0.00    -0.376 OA
BRANCH  25  26
ATOM     26  C   UNL A   1      37.141  20.255  24.952  1.00  0.00     0.202 C 
BRANCH  26  27
ATOM     27  C   UNL A   1      37.791  21.638  24.828  1.00  0.00     0.261 C 
BRANCH  27  28
ATOM     28  O   UNL A   1      37.991  22.276  26.114  1.00  0.00    -0.460 OA
BRANCH  28  29
ATOM     29  C   UNL A   1      39.275  22.487  26.539  1.00  0.00     0.338 C 
ATOM     30  O   UNL A   1      40.129  21.616  26.537  1.00  0.00    -0.246 OA
BRANCH  29  31
ATOM     31  C   UNL A   1      39.575  23.931  26.730  1.00  0.00     0.060 A 
ATOM     32  C   UNL A   1      40.212  24.710  25.753  1.00  0.00     0.016 A 
ATOM     33  C   UNL A   1      39.256  24.509  27.944  1.00  0.00     0.016 A 
ATOM     34  C   UNL A   1      40.701  25.995  26.063  1.00  0.00     0.010 A 
ATOM     35  C   UNL A   1      39.797  25.735  28.266  1.00  0.00     0.010 A 
ATOM     36  C   UNL A   1      40.559  26.488  27.358  1.00  0.00    -0.014 A 
BRANCH  36  37
ATOM     37  C   UNL A   1      41.230  27.669  27.949  1.00  0.00     0.031 A 
ATOM     38  C   UNL A   1      40.377  28.856  28.320  1.00  0.00     0.074 A 
ATOM     39  C   UNL A   1      42.447  27.488  28.528  1.00  0.00     0.049 A 
ATOM     40  N   UNL A   1      40.740  29.811  29.102  1.00  0.00    -0.248 NA
ATOM     41  C   UNL A   1      38.985  29.031  27.890  1.00  0.00     0.031 C 
ATOM     42  C   UNL A   1      43.002  28.210  29.679  1.00  0.00     0.029 A 
ATOM     43  N   UNL A   1      43.448  26.560  28.281  1.00  0.00    -0.354 N 
ATOM     44  C   UNL A   1      39.631  30.537  29.494  1.00  0.00     0.074 A 
ATOM     45  C   UNL A   1      38.558  30.023  28.684  1.00  0.00     0.031 C 
ATOM     46  C   UNL A   1      44.245  27.791  29.955  1.00  0.00     0.029 A 
ATOM     47  C   UNL A   1      44.655  27.008  28.820  1.00  0.00     0.049 A 
ATOM     48  H   UNL A   1      43.325  25.712  27.796  1.00  0.00     0.167 HD
ATOM     49  C   UNL A   1      39.757  31.423  30.529  1.00  0.00     0.031 A 
ATOM     50  C   UNL A   1      45.699  27.393  28.029  1.00  0.00     0.031 A 
ATOM     51  C   UNL A   1      41.176  31.635  30.870  1.00  0.00     0.049 A 
ATOM     52  C   UNL A   1      45.833  28.919  28.106  1.00  0.00     0.074 A 
ATOM     53  C   UNL A   1      41.924  31.557  32.029  1.00  0.00     0.029 A 
ATOM     54  N   UNL A   1      42.105  31.811  29.838  1.00  0.00    -0.354 N 
ATOM     55  N   UNL A   1      44.805  29.730  28.279  1.00  0.00    -0.248 NA
ATOM     56  C   UNL A   1      47.109  29.611  28.295  1.00  0.00     0.031 C 
ATOM     57  C   UNL A   1      43.297  31.442  31.653  1.00  0.00     0.029 A 
ATOM     58  C   UNL A   1      43.396  31.597  30.275  1.00  0.00     0.049 A 
ATOM     59  H   UNL A   1      41.867  32.059  28.916  1.00  0.00     0.167 HD
ATOM     60  C   UNL A   1      45.252  30.929  28.776  1.00  0.00     0.074 A 
ATOM     61  C   UNL A   1      46.704  30.831  28.697  1.00  0.00     0.031 C 
ATOM     62  C   UNL A   1      44.521  31.903  29.403  1.00  0.00     0.031 A 
BRANCH  49  63
ATOM     63  C   UNL A   1      38.611  31.999  31.367  1.00  0.00    -0.014 A 
ATOM     64  C   UNL A   1      38.638  33.367  31.729  1.00  0.00     0.010 A 
ATOM     65  C   UNL A   1      37.539  31.259  31.916  1.00  0.00     0.010 A 
ATOM     66  C   UNL A   1      37.684  33.958  32.579  1.00  0.00     0.020 A 
ATOM     67  C   UNL A   1      36.552  31.846  32.744  1.00  0.00     0.020 A 
ATOM     68  C   UNL A   1      36.637  33.194  33.080  1.00  0.00     0.054 A 
BRANCH  68  69
ATOM     69  S   UNL A   1      35.398  33.989  34.148  1.00  0.00     0.124 S 
ATOM     70  O   UNL A   1      34.163  33.314  33.755  1.00  0.00    -0.237 OA
ATOM     71  O   UNL A   1      35.883  33.678  35.489  1.00  0.00    -0.237 OA
ATOM     72  O   UNL A   1      35.474  35.401  33.777  1.00  0.00    -0.744 OA
ENDBRANCH  68  69
ENDBRANCH  49  63
BRANCH  50  73
ATOM     73  C   UNL A   1      46.000  26.351  26.988  1.00  0.00    -0.014 A 
ATOM     74  C   UNL A   1      46.394  25.114  27.564  1.00  0.00     0.010 A 
ATOM     75  C   UNL A   1      45.253  26.304  25.792  1.00  0.00     0.010 A 
ATOM     76  C   UNL A   1      45.788  23.912  27.172  1.00  0.00     0.020 A 
ATOM     77  C   UNL A   1      44.662  25.086  25.379  1.00  0.00     0.020 A 
ATOM     78  C   UNL A   1      44.868  23.919  26.127  1.00  0.00     0.054 A 
BRANCH  78  79
ATOM     79  S   UNL A   1      43.750  22.480  25.970  1.00  0.00     0.124 S 
ATOM     80  O   UNL A   1      44.675  21.393  25.673  1.00  0.00    -0.237 OA
ATOM     81  O   UNL A   1      43.109  22.427  27.283  1.00  0.00    -0.237 OA
ATOM     82  O   UNL A   1      42.862  22.866  24.879  1.00  0.00    -0.744 OA
ENDBRANCH  78  79
ENDBRANCH  50  73
BRANCH  62  83
ATOM     83  C   UNL A   1      44.829  33.370  29.208  1.00  0.00    -0.014 A 
ATOM     84  C   UNL A   1      45.970  33.968  29.758  1.00  0.00     0.010 A 
ATOM     85  C   UNL A   1      44.097  34.121  28.252  1.00  0.00     0.010 A 
ATOM     86  C   UNL A   1      46.338  35.267  29.409  1.00  0.00     0.020 A 
ATOM     87  C   UNL A   1      44.485  35.400  27.858  1.00  0.00     0.020 A 
ATOM     88  C   UNL A   1      45.594  35.973  28.463  1.00  0.00     0.054 A 
BRANCH  88  89
ATOM     89  S   UNL A   1      46.135  37.630  28.000  1.00  0.00     0.124 S 
ATOM     90  O   UNL A   1      45.780  38.398  29.191  1.00  0.00    -0.237 OA
ATOM     91  O   UNL A   1      47.568  37.449  27.774  1.00  0.00    -0.237 OA
ATOM     92  O   UNL A   1      45.355  37.932  26.803  1.00  0.00    -0.744 OA
ENDBRANCH  88  89
ENDBRANCH  62  83
ENDBRANCH  36  37
ENDBRANCH  29  31
ENDBRANCH  28  29
ENDBRANCH  27  28
ENDBRANCH  26  27
ENDBRANCH  25  26
ENDBRANCH  24  25
ENDBRANCH   1  24
TORSDOF 25
ENDMDL
MODEL 2
REMARK VINA RESULT:      -8.8      1.953      2.264
REMARK SMILES Cc1cc(C(=O)OCCOCCOCCOCCOC(=O)c2ccc(-c3c4nc(c(-c5ccc(S(=O)(=O)[O-])cc5)c5ccc([nH]5)c(-c5ccc(S(=O)(=O)[O-])cc5)c5nc(c(-c6ccc(S(=O)(=O)[O-])cc6)c6ccc3[nH]6)C=C5)C=C4)cc2)c([N+](=O)[O-])cc1[N+](=O)[O-]
REMARK SMILES IDX 14 1 13 2 12 3 11 4 10 5 9 6 8 7 7 8 5 9 6 10 4 11 1 12 2 13
REMARK SMILES IDX 3 14 87 15 86 16 82 17 88 18 89 19 90 20 83 21 84 22 85 23
REMARK SMILES IDX 15 24 16 25 17 26 18 27 19 28 20 29 21 30 22 31 23 32 81 33
REMARK SMILES IDX 24 34 80 35 25 36 26 37 27 38 74 39 28 40 79 41 73 42 75 43
REMARK SMILES IDX 29 44 78 45 72 46 71 47 30 49 60 50 41 51 59 52 42 53 45 54
REMARK SMILES IDX 58 55 76 56 43 57 44 58 57 60 77 61 46 62 31 63 32 64 40 65
REMARK SMILES IDX 33 66 39 67 34 68 35 69 36 70 37 71 38 72 61 73 62 74 70 75
REMARK SMILES IDX 63 76 69 77 64 78 65 79 66 80 67 81 68 82 47 83 48 84 56 85
REMARK SMILES IDX 49 86 55 87 50 88 51 89 52 90 53 91 54 92
REMARK H PARENT 75 48 45 59
REMARK Flexibility Score: inf
ROOT
ATOM      1  C   UNL A   1      33.161  22.753  27.291  1.00  0.00     0.188 C 
ENDROOT
BRANCH   1   2
ATOM      2  O   UNL A   1      31.734  22.912  27.368  1.00  0.00    -0.377 OA
BRANCH   2   3
ATOM      3  C   UNL A   1      30.961  22.550  26.245  1.00  0.00     0.188 C 
BRANCH   3   4
ATOM      4  C   UNL A   1      31.144  23.349  24.943  1.00  0.00     0.188 C 
BRANCH   4   5
ATOM      5  O   UNL A   1      30.707  24.693  24.843  1.00  0.00    -0.376 OA
BRANCH   5   6
ATOM      6  C   UNL A   1      30.057  25.044  23.621  1.00  0.00     0.202 C 
BRANCH   6   7
ATOM      7  C   UNL A   1      30.290  26.454  23.098  1.00  0.00     0.261 C 
BRANCH   7   8
ATOM      8  O   UNL A   1      30.937  27.227  24.112  1.00  0.00    -0.459 OA
BRANCH   8   9
ATOM      9  C   UNL A   1      31.122  28.510  23.768  1.00  0.00     0.345 C 
ATOM     10  O   UNL A   1      30.468  29.221  23.033  1.00  0.00    -0.246 OA
BRANCH   9  11
ATOM     11  C   UNL A   1      31.898  29.075  24.864  1.00  0.00     0.138 A 
ATOM     12  C   UNL A   1      31.275  32.262  26.763  1.00  0.00     0.052 C 
ATOM     13  C   UNL A   1      32.018  31.018  26.356  1.00  0.00     0.028 A 
ATOM     14  C   UNL A   1      31.409  30.309  25.313  1.00  0.00     0.033 A 
ATOM     15  C   UNL A   1      33.173  30.449  26.935  1.00  0.00     0.279 A 
ATOM     16  C   UNL A   1      33.602  29.151  26.557  1.00  0.00     0.172 A 
ATOM     17  C   UNL A   1      32.946  28.469  25.527  1.00  0.00     0.290 A 
BRANCH  15  18
ATOM     18  N   UNL A   1      34.050  31.185  27.867  1.00  0.00     0.063 N 
ATOM     19  O   UNL A   1      33.865  32.406  27.978  1.00  0.00    -0.258 OA
ATOM     20  O   UNL A   1      34.890  30.561  28.523  1.00  0.00    -0.258 OA
ENDBRANCH  15  18
BRANCH  17  21
ATOM     21  N   UNL A   1      33.451  27.174  25.121  1.00  0.00     0.063 N 
ATOM     22  O   UNL A   1      34.075  27.129  24.055  1.00  0.00    -0.258 OA
ATOM     23  O   UNL A   1      33.342  26.248  25.935  1.00  0.00    -0.258 OA
ENDBRANCH  17  21
ENDBRANCH   9  11
ENDBRANCH   8   9
ENDBRANCH   7   8
ENDBRANCH   6   7
ENDBRANCH   5   6
ENDBRANCH   4   5
ENDBRANCH   3   4
ENDBRANCH   2   3
ENDBRANCH   1   2
BRANCH   1  24
ATOM     24  C   UNL A   1      33.777  21.790  26.283  1.00  0.00     0.188 C 
BRANCH  24  25
ATOM     25  O   UNL A   1      35.199  21.871  26.416  1.00  0.00    -0.376 OA
BRANCH  25  26
ATOM     26  C   UNL A   1      35.945  21.663  25.230  1.00  0.00     0.202 C 
BRANCH  26  27
ATOM     27  C   UNL A   1      37.453  21.498  25.447  1.00  0.00     0.261 C 
BRANCH  27  28
ATOM     28  O   UNL A   1      37.968  22.376  26.478  1.00  0.00    -0.460 OA
BRANCH  28  29
ATOM     29  C   UNL A   1      39.303  22.672  26.470  1.00  0.00     0.338 C 
ATOM     30  O   UNL A   1      40.160  21.877  26.122  1.00  0.00    -0.246 OA
BRANCH  29  31
ATOM     31  C   UNL A   1      39.559  24.125  26.655  1.00  0.00     0.060 A 
ATOM     32  C   UNL A   1      40.386  24.866  25.798  1.00  0.00     0.016 A 
ATOM     33  C   UNL A   1      38.995  24.753  27.749  1.00  0.00     0.016 A 
ATOM     34  C   UNL A   1      40.802  26.168  26.147  1.00  0.00     0.010 A 
ATOM     35  C   UNL A   1      39.459  25.996  28.123  1.00  0.00     0.010 A 
ATOM     36  C   UNL A   1      40.394  26.715  27.360  1.00  0.00    -0.014 A 
BRANCH  36  37
ATOM     37  C   UNL A   1      40.928  27.926  28.025  1.00  0.00     0.031 A 
ATOM     38  C   UNL A   1      39.994  29.092  28.233  1.00  0.00     0.074 A 
ATOM     39  C   UNL A   1      42.044  27.793  28.792  1.00  0.00     0.049 A 
ATOM     40  N   UNL A   1      40.200  30.069  29.043  1.00  0.00    -0.248 NA
ATOM     41  C   UNL A   1      38.683  29.215  27.586  1.00  0.00     0.031 C 
ATOM     42  C   UNL A   1      42.388  28.550  30.002  1.00  0.00     0.029 A 
ATOM     43  N   UNL A   1      43.097  26.894  28.725  1.00  0.00    -0.354 N 
ATOM     44  C   UNL A   1      39.023  30.766  29.240  1.00  0.00     0.074 A 
ATOM     45  C   UNL A   1      38.107  30.205  28.283  1.00  0.00     0.031 C 
ATOM     46  C   UNL A   1      43.584  28.175  30.478  1.00  0.00     0.029 A 
ATOM     47  C   UNL A   1      44.190  27.388  29.438  1.00  0.00     0.049 A 
ATOM     48  H   UNL A   1      43.077  26.034  28.245  1.00  0.00     0.167 HD
ATOM     49  C   UNL A   1      38.958  31.671  30.265  1.00  0.00     0.031 A 
ATOM     50  C   UNL A   1      45.335  27.794  28.813  1.00  0.00     0.031 A 
ATOM     51  C   UNL A   1      40.299  31.934  30.820  1.00  0.00     0.049 A 
ATOM     52  C   UNL A   1      45.411  29.324  28.879  1.00  0.00     0.074 A 
ATOM     53  C   UNL A   1      40.857  31.898  32.083  1.00  0.00     0.029 A 
ATOM     54  N   UNL A   1      41.374  32.123  29.944  1.00  0.00    -0.354 N 
ATOM     55  N   UNL A   1      44.345  30.105  28.872  1.00  0.00    -0.248 NA
ATOM     56  C   UNL A   1      46.621  30.059  29.253  1.00  0.00     0.031 C 
ATOM     57  C   UNL A   1      42.275  31.821  31.931  1.00  0.00     0.029 A 
ATOM     58  C   UNL A   1      42.585  31.957  30.582  1.00  0.00     0.049 A 
ATOM     59  H   UNL A   1      41.277  32.349  28.991  1.00  0.00     0.167 HD
ATOM     60  C   UNL A   1      44.674  31.325  29.409  1.00  0.00     0.074 A 
ATOM     61  C   UNL A   1      46.122  31.272  29.561  1.00  0.00     0.031 C 
ATOM     62  C   UNL A   1      43.824  32.285  29.893  1.00  0.00     0.031 A 
BRANCH  49  63
ATOM     63  C   UNL A   1      37.678  32.224  30.900  1.00  0.00    -0.014 A 
ATOM     64  C   UNL A   1      37.567  33.615  31.134  1.00  0.00     0.010 A 
ATOM     65  C   UNL A   1      36.597  31.450  31.380  1.00  0.00     0.010 A 
ATOM     66  C   UNL A   1      36.474  34.198  31.803  1.00  0.00     0.020 A 
ATOM     67  C   UNL A   1      35.475  32.025  32.023  1.00  0.00     0.020 A 
ATOM     68  C   UNL A   1      35.425  33.399  32.242  1.00  0.00     0.054 A 
BRANCH  68  69
ATOM     69  S   UNL A   1      34.009  34.181  33.072  1.00  0.00     0.124 S 
ATOM     70  O   UNL A   1      33.174  33.033  33.420  1.00  0.00    -0.237 OA
ATOM     71  O   UNL A   1      34.636  34.865  34.199  1.00  0.00    -0.237 OA
ATOM     72  O   UNL A   1      33.450  35.063  32.050  1.00  0.00    -0.744 OA
ENDBRANCH  68  69
ENDBRANCH  49  63
BRANCH  50  73
ATOM     73  C   UNL A   1      45.827  26.746  27.855  1.00  0.00    -0.014 A 
ATOM     74  C   UNL A   1      45.119  26.767  26.623  1.00  0.00     0.010 A 
ATOM     75  C   UNL A   1      47.196  26.408  27.813  1.00  0.00     0.010 A 
ATOM     76  C   UNL A   1      45.804  26.797  25.400  1.00  0.00     0.020 A 
ATOM     77  C   UNL A   1      47.884  26.411  26.576  1.00  0.00     0.020 A 
ATOM     78  C   UNL A   1      47.192  26.693  25.391  1.00  0.00     0.054 A 
BRANCH  78  79
ATOM     79  S   UNL A   1      48.074  27.223  23.879  1.00  0.00     0.124 S 
ATOM     80  O   UNL A   1      47.082  28.058  23.212  1.00  0.00    -0.237 OA
ATOM     81  O   UNL A   1      49.237  27.928  24.418  1.00  0.00    -0.237 OA
ATOM     82  O   UNL A   1      48.385  25.964  23.215  1.00  0.00    -0.744 OA
ENDBRANCH  78  79
ENDBRANCH  50  73
BRANCH  62  83
ATOM     83  C   UNL A   1      44.117  33.757  29.719  1.00  0.00    -0.014 A 
ATOM     84  C   UNL A   1      44.062  34.383  28.466  1.00  0.00     0.010 A 
ATOM     85  C   UNL A   1      44.210  34.596  30.860  1.00  0.00     0.010 A 
ATOM     86  C   UNL A   1      44.144  35.769  28.352  1.00  0.00     0.020 A 
ATOM     87  C   UNL A   1      44.240  35.985  30.760  1.00  0.00     0.020 A 
ATOM     88  C   UNL A   1      44.231  36.560  29.498  1.00  0.00     0.054 A 
BRANCH  88  89
ATOM     89  S   UNL A   1      44.281  38.353  29.309  1.00  0.00     0.124 S 
ATOM     90  O   UNL A   1      44.601  38.783  30.668  1.00  0.00    -0.237 OA
ATOM     91  O   UNL A   1      45.345  38.543  28.325  1.00  0.00    -0.237 OA
ATOM     92  O   UNL A   1      42.941  38.694  28.842  1.00  0.00    -0.744 OA
ENDBRANCH  88  89
ENDBRANCH  62  83
ENDBRANCH  36  37
ENDBRANCH  29  31
ENDBRANCH  28  29
ENDBRANCH  27  28
ENDBRANCH  26  27
ENDBRANCH  25  26
ENDBRANCH  24  25
ENDBRANCH   1  24
TORSDOF 25
ENDMDL
MODEL 3
REMARK VINA RESULT:      -7.9      1.853      2.294
REMARK SMILES Cc1cc(C(=O)OCCOCCOCCOCCOC(=O)c2ccc(-c3c4nc(c(-c5ccc(S(=O)(=O)[O-])cc5)c5ccc([nH]5)c(-c5ccc(S(=O)(=O)[O-])cc5)c5nc(c(-c6ccc(S(=O)(=O)[O-])cc6)c6ccc3[nH]6)C=C5)C=C4)cc2)c([N+](=O)[O-])cc1[N+](=O)[O-]
REMARK SMILES IDX 14 1 13 2 12 3 11 4 10 5 9 6 8 7 7 8 5 9 6 10 4 11 1 12 2 13
REMARK SMILES IDX 3 14 87 15 86 16 82 17 88 18 89 19 90 20 83 21 84 22 85 23
REMARK SMILES IDX 15 24 16 25 17 26 18 27 19 28 20 29 21 30 22 31 23 32 81 33
REMARK SMILES IDX 24 34 80 35 25 36 26 37 27 38 74 39 28 40 79 41 73 42 75 43
REMARK SMILES IDX 29 44 78 45 72 46 71 47 30 49 60 50 41 51 59 52 42 53 45 54
REMARK SMILES IDX 58 55 76 56 43 57 44 58 57 60 77 61 46 62 31 63 32 64 40 65
REMARK SMILES IDX 33 66 39 67 34 68 35 69 36 70 37 71 38 72 61 73 62 74 70 75
REMARK SMILES IDX 63 76 69 77 64 78 65 79 66 80 67 81 68 82 47 83 48 84 56 85
REMARK SMILES IDX 49 86 55 87 50 88 51 89 52 90 53 91 54 92
REMARK H PARENT 75 48 45 59
REMARK Flexibility Score: inf
ROOT
ATOM      1  C   UNL A   1      33.379  22.928  27.316  1.00  0.00     0.188 C 
ENDROOT
BRANCH   1   2
ATOM      2  O   UNL A   1      31.946  23.027  27.382  1.00  0.00    -0.377 OA
BRANCH   2   3
ATOM      3  C   UNL A   1      31.212  22.888  26.184  1.00  0.00     0.188 C 
BRANCH   3   4
ATOM      4  C   UNL A   1      31.209  24.061  25.189  1.00  0.00     0.188 C 
BRANCH   4   5
ATOM      5  O   UNL A   1      30.281  25.123  25.313  1.00  0.00    -0.376 OA
BRANCH   5   6
ATOM      6  C   UNL A   1      29.570  25.469  24.124  1.00  0.00     0.202 C 
BRANCH   6   7
ATOM      7  C   UNL A   1      29.816  26.859  23.555  1.00  0.00     0.261 C 
BRANCH   7   8
ATOM      8  O   UNL A   1      30.624  27.603  24.472  1.00  0.00    -0.459 OA
BRANCH   8   9
ATOM      9  C   UNL A   1      31.424  28.497  23.873  1.00  0.00     0.345 C 
ATOM     10  O   UNL A   1      31.288  29.081  22.818  1.00  0.00    -0.246 OA
BRANCH   9  11
ATOM     11  C   UNL A   1      32.197  29.082  24.960  1.00  0.00     0.138 A 
ATOM     12  C   UNL A   1      31.422  32.159  26.980  1.00  0.00     0.052 C 
ATOM     13  C   UNL A   1      32.235  30.984  26.509  1.00  0.00     0.028 A 
ATOM     14  C   UNL A   1      31.640  30.265  25.464  1.00  0.00     0.033 A 
ATOM     15  C   UNL A   1      33.445  30.480  27.031  1.00  0.00     0.279 A 
ATOM     16  C   UNL A   1      33.949  29.228  26.598  1.00  0.00     0.172 A 
ATOM     17  C   UNL A   1      33.307  28.532  25.569  1.00  0.00     0.290 A 
BRANCH  15  18
ATOM     18  N   UNL A   1      34.302  31.248  27.957  1.00  0.00     0.063 N 
ATOM     19  O   UNL A   1      35.422  30.782  28.215  1.00  0.00    -0.258 OA
ATOM     20  O   UNL A   1      33.897  32.328  28.397  1.00  0.00    -0.258 OA
ENDBRANCH  15  18
BRANCH  17  21
ATOM     21  N   UNL A   1      33.886  27.288  25.105  1.00  0.00     0.063 N 
ATOM     22  O   UNL A   1      33.986  26.377  25.934  1.00  0.00    -0.258 OA
ATOM     23  O   UNL A   1      34.104  27.188  23.891  1.00  0.00    -0.258 OA
ENDBRANCH  17  21
ENDBRANCH   9  11
ENDBRANCH   8   9
ENDBRANCH   7   8
ENDBRANCH   6   7
ENDBRANCH   5   6
ENDBRANCH   4   5
ENDBRANCH   3   4
ENDBRANCH   2   3
ENDBRANCH   1   2
BRANCH   1  24
ATOM     24  C   UNL A   1      34.049  22.162  26.181  1.00  0.00     0.188 C 
BRANCH  24  25
ATOM     25  O   UNL A   1      35.461  22.211  26.398  1.00  0.00    -0.376 OA
BRANCH  25  26
ATOM     26  C   UNL A   1      36.270  22.084  25.241  1.00  0.00     0.202 C 
BRANCH  26  27
ATOM     27  C   UNL A   1      37.711  21.641  25.518  1.00  0.00     0.261 C 
BRANCH  27  28
ATOM     28  O   UNL A   1      38.351  22.436  26.547  1.00  0.00    -0.460 OA
BRANCH  28  29
ATOM     29  C   UNL A   1      39.701  22.640  26.462  1.00  0.00     0.338 C 
ATOM     30  O   UNL A   1      40.460  21.856  25.916  1.00  0.00    -0.246 OA
BRANCH  29  31
ATOM     31  C   UNL A   1      40.087  24.023  26.847  1.00  0.00     0.060 A 
ATOM     32  C   UNL A   1      41.221  24.667  26.332  1.00  0.00     0.016 A 
ATOM     33  C   UNL A   1      39.319  24.675  27.793  1.00  0.00     0.016 A 
ATOM     34  C   UNL A   1      41.691  25.867  26.905  1.00  0.00     0.010 A 
ATOM     35  C   UNL A   1      39.818  25.808  28.398  1.00  0.00     0.010 A 
ATOM     36  C   UNL A   1      41.024  26.409  28.001  1.00  0.00    -0.014 A 
BRANCH  36  37
ATOM     37  C   UNL A   1      41.501  27.485  28.901  1.00  0.00     0.031 A 
ATOM     38  C   UNL A   1      40.646  28.719  29.046  1.00  0.00     0.074 A 
ATOM     39  C   UNL A   1      42.406  27.158  29.862  1.00  0.00     0.049 A 
ATOM     40  N   UNL A   1      40.752  29.585  29.990  1.00  0.00    -0.248 NA
ATOM     41  C   UNL A   1      39.524  29.045  28.159  1.00  0.00     0.031 C 
ATOM     42  C   UNL A   1      42.541  27.752  31.198  1.00  0.00     0.029 A 
ATOM     43  N   UNL A   1      43.369  26.161  29.911  1.00  0.00    -0.354 N 
ATOM     44  C   UNL A   1      39.624  30.383  30.019  1.00  0.00     0.074 A 
ATOM     45  C   UNL A   1      38.896  30.019  28.832  1.00  0.00     0.031 C 
ATOM     46  C   UNL A   1      43.567  27.206  31.865  1.00  0.00     0.029 A 
ATOM     47  C   UNL A   1      44.317  26.462  30.889  1.00  0.00     0.049 A 
ATOM     48  H   UNL A   1      43.381  25.360  29.338  1.00  0.00     0.167 HD
ATOM     49  C   UNL A   1      39.413  31.186  31.107  1.00  0.00     0.031 A 
ATOM     50  C   UNL A   1      45.601  26.801  30.568  1.00  0.00     0.031 A 
ATOM     51  C   UNL A   1      40.618  31.247  31.956  1.00  0.00     0.049 A 
ATOM     52  C   UNL A   1      45.790  28.301  30.829  1.00  0.00     0.074 A 
ATOM     53  C   UNL A   1      40.880  31.028  33.295  1.00  0.00     0.029 A 
ATOM     54  N   UNL A   1      41.870  31.402  31.352  1.00  0.00    -0.354 N 
ATOM     55  N   UNL A   1      44.822  29.188  30.692  1.00  0.00    -0.248 NA
ATOM     56  C   UNL A   1      46.947  28.861  31.531  1.00  0.00     0.031 C 
ATOM     57  C   UNL A   1      42.285  30.814  33.433  1.00  0.00     0.029 A 
ATOM     58  C   UNL A   1      42.894  31.046  32.204  1.00  0.00     0.049 A 
ATOM     59  H   UNL A   1      42.004  31.729  30.433  1.00  0.00     0.167 HD
ATOM     60  C   UNL A   1      45.127  30.308  31.425  1.00  0.00     0.074 A 
ATOM     61  C   UNL A   1      46.497  30.085  31.869  1.00  0.00     0.031 C 
ATOM     62  C   UNL A   1      44.277  31.303  31.832  1.00  0.00     0.031 A 
BRANCH  49  63
ATOM     63  C   UNL A   1      38.077  31.809  31.522  1.00  0.00    -0.014 A 
ATOM     64  C   UNL A   1      37.425  32.702  30.638  1.00  0.00     0.010 A 
ATOM     65  C   UNL A   1      37.452  31.654  32.780  1.00  0.00     0.010 A 
ATOM     66  C   UNL A   1      36.249  33.399  30.977  1.00  0.00     0.020 A 
ATOM     67  C   UNL A   1      36.251  32.319  33.122  1.00  0.00     0.020 A 
ATOM     68  C   UNL A   1      35.661  33.199  32.220  1.00  0.00     0.054 A 
BRANCH  68  69
ATOM     69  S   UNL A   1      34.122  34.084  32.618  1.00  0.00     0.124 S 
ATOM     70  O   UNL A   1      33.750  34.665  31.330  1.00  0.00    -0.237 OA
ATOM     71  O   UNL A   1      33.252  33.015  33.099  1.00  0.00    -0.237 OA
ATOM     72  O   UNL A   1      34.531  35.051  33.636  1.00  0.00    -0.744 OA
ENDBRANCH  68  69
ENDBRANCH  49  63
BRANCH  50  73
ATOM     73  C   UNL A   1      46.200  25.804  29.616  1.00  0.00    -0.014 A 
ATOM     74  C   UNL A   1      45.284  24.776  29.266  1.00  0.00     0.010 A 
ATOM     75  C   UNL A   1      47.115  26.226  28.628  1.00  0.00     0.010 A 
ATOM     76  C   UNL A   1      45.059  24.440  27.923  1.00  0.00     0.020 A 
ATOM     77  C   UNL A   1      46.905  25.865  27.276  1.00  0.00     0.020 A 
ATOM     78  C   UNL A   1      45.824  25.044  26.929  1.00  0.00     0.054 A 
BRANCH  78  79
ATOM     79  S   UNL A   1      45.195  24.974  25.213  1.00  0.00     0.124 S 
ATOM     80  O   UNL A   1      44.334  23.798  25.240  1.00  0.00    -0.237 OA
ATOM     81  O   UNL A   1      44.510  26.259  25.070  1.00  0.00    -0.237 OA
ATOM     82  O   UNL A   1      46.411  24.846  24.419  1.00  0.00    -0.744 OA
ENDBRANCH  78  79
ENDBRANCH  50  73
BRANCH  62  83
ATOM     83  C   UNL A   1      44.724  32.745  31.897  1.00  0.00    -0.014 A 
ATOM     84  C   UNL A   1      44.884  33.418  33.116  1.00  0.00     0.010 A 
ATOM     85  C   UNL A   1      45.234  33.377  30.733  1.00  0.00     0.010 A 
ATOM     86  C   UNL A   1      45.479  34.678  33.167  1.00  0.00     0.020 A 
ATOM     87  C   UNL A   1      45.877  34.612  30.781  1.00  0.00     0.020 A 
ATOM     88  C   UNL A   1      45.971  35.265  32.001  1.00  0.00     0.054 A 
BRANCH  88  89
ATOM     89  S   UNL A   1      46.782  36.872  32.118  1.00  0.00     0.124 S 
ATOM     90  O   UNL A   1      45.636  37.773  32.216  1.00  0.00    -0.237 OA
ATOM     91  O   UNL A   1      47.581  36.740  33.335  1.00  0.00    -0.237 OA
ATOM     92  O   UNL A   1      47.553  36.968  30.882  1.00  0.00    -0.744 OA
ENDBRANCH  88  89
ENDBRANCH  62  83
ENDBRANCH  36  37
ENDBRANCH  29  31
ENDBRANCH  28  29
ENDBRANCH  27  28
ENDBRANCH  26  27
ENDBRANCH  25  26
ENDBRANCH  24  25
ENDBRANCH   1  24
TORSDOF 25
ENDMDL
