MODEL 1
REMARK VINA RESULT:      -8.9      0.000      0.000
REMARK SMILES CC(C)(C)OC(=O)N1[C@@H](C(=O)OCCOCCOCCOCCOC(=O)c2ccc(-c3c4nc(c(-c5ccc(S(=O)(=O)[O-])cc5)c5ccc([nH]5)c(-c5ccc(S(=O)(=O)[O-])cc5)c5nc(c(-c6ccc(S(=O)(=O)[O-])cc6)c6ccc3[nH]6)C=C5)C=C4)cc2)C[C@H]2CCCC[C@@H]21
REMARK SMILES IDX 18 1 17 2 16 3 15 4 14 5 13 6 12 7 10 8 11 9 9 10 8 11 93 12
REMARK SMILES IDX 87 13 88 14 92 15 89 16 91 17 90 18 6 19 7 20 5 21 2 22 1 23
REMARK SMILES IDX 3 24 4 25 19 26 20 27 21 28 22 29 23 30 24 31 25 32 26 33
REMARK SMILES IDX 27 34 28 35 86 36 29 37 85 38 30 39 31 40 32 41 79 42 33 43
REMARK SMILES IDX 84 44 78 45 80 46 34 47 83 48 77 49 76 50 35 52 65 53 46 54
REMARK SMILES IDX 64 55 47 56 50 57 63 58 81 59 48 60 49 61 62 63 82 64 51 65
REMARK SMILES IDX 36 66 37 67 45 68 38 69 44 70 39 71 40 72 41 73 42 74 43 75
REMARK SMILES IDX 66 76 67 77 75 78 68 79 74 80 69 81 70 82 71 83 72 84 73 85
REMARK SMILES IDX 52 86 53 87 61 88 54 89 60 90 55 91 56 92 57 93 58 94 59 95
REMARK H PARENT 80 51 50 62
REMARK Flexibility Score: inf
ROOT
ATOM      1  O   UNL A   1      37.387  32.492  29.778  1.00  0.00    -0.377 OA
ENDROOT
BRANCH   1   2
ATOM      2  C   UNL A   1      37.550  31.285  29.053  1.00  0.00     0.188 C 
BRANCH   2   3
ATOM      3  C   UNL A   1      37.191  29.947  29.730  1.00  0.00     0.188 C 
BRANCH   3   4
ATOM      4  O   UNL A   1      36.061  29.331  29.143  1.00  0.00    -0.376 OA
BRANCH   4   5
ATOM      5  C   UNL A   1      35.777  29.470  27.766  1.00  0.00     0.202 C 
BRANCH   5   6
ATOM      6  C   UNL A   1      34.340  29.449  27.207  1.00  0.00     0.261 C 
BRANCH   6   7
ATOM      7  O   UNL A   1      34.094  28.787  25.958  1.00  0.00    -0.462 OA
BRANCH   7   8
ATOM      8  C   UNL A   1      33.077  29.246  25.190  1.00  0.00     0.329 C 
ATOM      9  O   UNL A   1      32.483  30.295  25.414  1.00  0.00    -0.250 OA
BRANCH   8  10
ATOM     10  C   UNL A   1      32.757  28.268  24.011  1.00  0.00     0.199 C 
ATOM     11  N   UNL A   1      31.307  28.008  23.819  1.00  0.00    -0.291 N 
ATOM     12  C   UNL A   1      30.876  27.095  24.840  1.00  0.00     0.092 C 
ATOM     13  C   UNL A   1      33.308  26.930  24.539  1.00  0.00     0.043 C 
ATOM     14  C   UNL A   1      32.056  26.117  24.879  1.00  0.00     0.014 C 
ATOM     15  C   UNL A   1      29.605  26.272  24.655  1.00  0.00     0.025 C 
ATOM     16  C   UNL A   1      32.002  25.370  26.197  1.00  0.00     0.006 C 
ATOM     17  C   UNL A   1      29.447  25.311  25.841  1.00  0.00     0.002 C 
ATOM     18  C   UNL A   1      30.720  24.523  26.200  1.00  0.00     0.000 C 
BRANCH  11  19
ATOM     19  C   UNL A   1      30.390  28.599  22.977  1.00  0.00     0.411 C 
ATOM     20  O   UNL A   1      30.222  28.216  21.826  1.00  0.00    -0.224 OA
BRANCH  19  21
ATOM     21  O   UNL A   1      29.774  29.703  23.497  1.00  0.00    -0.444 OA
BRANCH  21  22
ATOM     22  C   UNL A   1      28.433  30.069  23.012  1.00  0.00     0.106 C 
ATOM     23  C   UNL A   1      28.606  30.488  21.541  1.00  0.00     0.056 C 
ATOM     24  C   UNL A   1      27.836  31.267  23.765  1.00  0.00     0.056 C 
ATOM     25  C   UNL A   1      27.445  28.888  23.041  1.00  0.00     0.056 C 
ENDBRANCH  21  22
ENDBRANCH  19  21
ENDBRANCH  11  19
ENDBRANCH   8  10
ENDBRANCH   7   8
ENDBRANCH   6   7
ENDBRANCH   5   6
ENDBRANCH   4   5
ENDBRANCH   3   4
ENDBRANCH   2   3
ENDBRANCH   1   2
BRANCH   1  26
ATOM     26  C   UNL A   1      36.996  33.597  28.994  1.00  0.00     0.188 C 
BRANCH  26  27
ATOM     27  C   UNL A   1      35.838  33.277  28.028  1.00  0.00     0.188 C 
BRANCH  27  28
ATOM     28  O   UNL A   1      34.917  34.284  27.613  1.00  0.00    -0.376 OA
BRANCH  28  29
ATOM     29  C   UNL A   1      33.513  34.077  27.717  1.00  0.00     0.202 C 
BRANCH  29  30
ATOM     30  C   UNL A   1      32.642  35.028  28.542  1.00  0.00     0.261 C 
BRANCH  30  31
ATOM     31  O   UNL A   1      32.573  34.709  29.940  1.00  0.00    -0.460 OA
BRANCH  31  32
ATOM     32  C   UNL A   1      33.020  35.688  30.762  1.00  0.00     0.338 C 
ATOM     33  O   UNL A   1      32.605  36.829  30.841  1.00  0.00    -0.246 OA
BRANCH  32  34
ATOM     34  C   UNL A   1      33.968  35.129  31.744  1.00  0.00     0.060 A 
ATOM     35  C   UNL A   1      34.438  36.001  32.737  1.00  0.00     0.016 A 
ATOM     36  C   UNL A   1      34.441  33.819  31.664  1.00  0.00     0.016 A 
ATOM     37  C   UNL A   1      35.417  35.586  33.626  1.00  0.00     0.010 A 
ATOM     38  C   UNL A   1      35.463  33.415  32.530  1.00  0.00     0.010 A 
ATOM     39  C   UNL A   1      35.982  34.316  33.480  1.00  0.00    -0.014 A 
BRANCH  39  40
ATOM     40  C   UNL A   1      37.276  34.062  34.149  1.00  0.00     0.031 A 
ATOM     41  C   UNL A   1      38.530  34.207  33.330  1.00  0.00     0.074 A 
ATOM     42  C   UNL A   1      37.339  33.820  35.469  1.00  0.00     0.049 A 
ATOM     43  N   UNL A   1      39.778  34.074  33.695  1.00  0.00    -0.248 NA
ATOM     44  C   UNL A   1      38.353  34.559  31.910  1.00  0.00     0.031 C 
ATOM     45  C   UNL A   1      36.191  33.746  36.371  1.00  0.00     0.029 A 
ATOM     46  N   UNL A   1      38.423  33.606  36.280  1.00  0.00    -0.354 N 
ATOM     47  C   UNL A   1      40.531  34.320  32.552  1.00  0.00     0.074 A 
ATOM     48  C   UNL A   1      39.603  34.582  31.475  1.00  0.00     0.031 C 
ATOM     49  C   UNL A   1      36.634  33.498  37.617  1.00  0.00     0.029 A 
ATOM     50  C   UNL A   1      38.089  33.363  37.590  1.00  0.00     0.049 A 
ATOM     51  H   UNL A   1      39.352  33.624  35.954  1.00  0.00     0.167 HD
ATOM     52  C   UNL A   1      41.877  34.332  32.414  1.00  0.00     0.031 A 
ATOM     53  C   UNL A   1      38.872  33.047  38.640  1.00  0.00     0.031 A 
ATOM     54  C   UNL A   1      42.791  34.051  33.488  1.00  0.00     0.049 A 
ATOM     55  C   UNL A   1      40.363  32.966  38.439  1.00  0.00     0.074 A 
ATOM     56  C   UNL A   1      44.173  34.026  33.458  1.00  0.00     0.029 A 
ATOM     57  N   UNL A   1      42.412  33.739  34.786  1.00  0.00    -0.354 N 
ATOM     58  N   UNL A   1      41.065  33.200  37.354  1.00  0.00    -0.248 NA
ATOM     59  C   UNL A   1      41.170  32.586  39.608  1.00  0.00     0.031 C 
ATOM     60  C   UNL A   1      44.628  33.633  34.720  1.00  0.00     0.029 A 
ATOM     61  C   UNL A   1      43.533  33.488  35.558  1.00  0.00     0.049 A 
ATOM     62  H   UNL A   1      41.483  33.700  35.109  1.00  0.00     0.167 HD
ATOM     63  C   UNL A   1      42.397  33.027  37.718  1.00  0.00     0.074 A 
ATOM     64  C   UNL A   1      42.402  32.682  39.125  1.00  0.00     0.031 C 
ATOM     65  C   UNL A   1      43.515  33.144  36.958  1.00  0.00     0.031 A 
BRANCH  52  66
ATOM     66  C   UNL A   1      42.435  34.609  31.043  1.00  0.00    -0.014 A 
ATOM     67  C   UNL A   1      42.496  33.606  30.058  1.00  0.00     0.010 A 
ATOM     68  C   UNL A   1      42.881  35.905  30.726  1.00  0.00     0.010 A 
ATOM     69  C   UNL A   1      43.028  33.887  28.794  1.00  0.00     0.020 A 
ATOM     70  C   UNL A   1      43.383  36.198  29.455  1.00  0.00     0.020 A 
ATOM     71  C   UNL A   1      43.467  35.181  28.501  1.00  0.00     0.054 A 
BRANCH  71  72
ATOM     72  S   UNL A   1      44.125  35.523  26.846  1.00  0.00     0.124 S 
ATOM     73  O   UNL A   1      44.500  36.931  26.956  1.00  0.00    -0.237 OA
ATOM     74  O   UNL A   1      45.238  34.582  26.745  1.00  0.00    -0.237 OA
ATOM     75  O   UNL A   1      42.998  35.247  25.960  1.00  0.00    -0.744 OA
ENDBRANCH  71  72
ENDBRANCH  52  66
BRANCH  53  76
ATOM     76  C   UNL A   1      38.259  32.760  39.966  1.00  0.00    -0.014 A 
ATOM     77  C   UNL A   1      38.274  33.719  40.993  1.00  0.00     0.010 A 
ATOM     78  C   UNL A   1      37.652  31.513  40.207  1.00  0.00     0.010 A 
ATOM     79  C   UNL A   1      37.707  33.431  42.240  1.00  0.00     0.020 A 
ATOM     80  C   UNL A   1      37.058  31.232  41.440  1.00  0.00     0.020 A 
ATOM     81  C   UNL A   1      37.099  32.191  42.453  1.00  0.00     0.054 A 
BRANCH  81  82
ATOM     82  S   UNL A   1      36.322  31.861  44.059  1.00  0.00     0.124 S 
ATOM     83  O   UNL A   1      36.262  33.195  44.647  1.00  0.00    -0.237 OA
ATOM     84  O   UNL A   1      35.040  31.279  43.673  1.00  0.00    -0.237 OA
ATOM     85  O   UNL A   1      37.249  30.933  44.702  1.00  0.00    -0.744 OA
ENDBRANCH  81  82
ENDBRANCH  53  76
BRANCH  65  86
ATOM     86  C   UNL A   1      44.843  32.939  37.641  1.00  0.00    -0.014 A 
ATOM     87  C   UNL A   1      45.443  31.670  37.714  1.00  0.00     0.010 A 
ATOM     88  C   UNL A   1      45.527  34.050  38.169  1.00  0.00     0.010 A 
ATOM     89  C   UNL A   1      46.684  31.510  38.336  1.00  0.00     0.020 A 
ATOM     90  C   UNL A   1      46.782  33.901  38.760  1.00  0.00     0.020 A 
ATOM     91  C   UNL A   1      47.346  32.627  38.855  1.00  0.00     0.054 A 
BRANCH  91  92
ATOM     92  S   UNL A   1      48.973  32.398  39.623  1.00  0.00     0.124 S 
ATOM     93  O   UNL A   1      49.170  33.675  40.304  1.00  0.00    -0.237 OA
ATOM     94  O   UNL A   1      48.755  31.247  40.495  1.00  0.00    -0.237 OA
ATOM     95  O   UNL A   1      49.861  32.153  38.488  1.00  0.00    -0.744 OA
ENDBRANCH  91  92
ENDBRANCH  65  86
ENDBRANCH  39  40
ENDBRANCH  32  34
ENDBRANCH  31  32
ENDBRANCH  30  31
ENDBRANCH  29  30
ENDBRANCH  28  29
ENDBRANCH  27  28
ENDBRANCH  26  27
ENDBRANCH   1  26
TORSDOF 26
ENDMDL
MODEL 2
REMARK VINA RESULT:      -8.4      5.422      9.525
REMARK SMILES CC(C)(C)OC(=O)N1[C@@H](C(=O)OCCOCCOCCOCCOC(=O)c2ccc(-c3c4nc(c(-c5ccc(S(=O)(=O)[O-])cc5)c5ccc([nH]5)c(-c5ccc(S(=O)(=O)[O-])cc5)c5nc(c(-c6ccc(S(=O)(=O)[O-])cc6)c6ccc3[nH]6)C=C5)C=C4)cc2)C[C@H]2CCCC[C@@H]21
REMARK SMILES IDX 18 1 17 2 16 3 15 4 14 5 13 6 12 7 10 8 11 9 9 10 8 11 93 12
REMARK SMILES IDX 87 13 88 14 92 15 89 16 91 17 90 18 6 19 7 20 5 21 2 22 1 23
REMARK SMILES IDX 3 24 4 25 19 26 20 27 21 28 22 29 23 30 24 31 25 32 26 33
REMARK SMILES IDX 27 34 28 35 86 36 29 37 85 38 30 39 31 40 32 41 79 42 33 43
REMARK SMILES IDX 84 44 78 45 80 46 34 47 83 48 77 49 76 50 35 52 65 53 46 54
REMARK SMILES IDX 64 55 47 56 50 57 63 58 81 59 48 60 49 61 62 63 82 64 51 65
REMARK SMILES IDX 36 66 37 67 45 68 38 69 44 70 39 71 40 72 41 73 42 74 43 75
REMARK SMILES IDX 66 76 67 77 75 78 68 79 74 80 69 81 70 82 71 83 72 84 73 85
REMARK SMILES IDX 52 86 53 87 61 88 54 89 60 90 55 91 56 92 57 93 58 94 59 95
REMARK H PARENT 80 51 50 62
REMARK Flexibility Score: inf
ROOT
ATOM      1  O   UNL A   1      43.838  23.392  27.706  1.00  0.00    -0.377 OA
ENDROOT
BRANCH   1   2
ATOM      2  C   UNL A   1      42.808  22.418  27.704  1.00  0.00     0.188 C 
BRANCH   2   3
ATOM      3  C   UNL A   1      41.828  22.362  26.516  1.00  0.00     0.188 C 
BRANCH   3   4
ATOM      4  O   UNL A   1      41.326  21.059  26.290  1.00  0.00    -0.376 OA
BRANCH   4   5
ATOM      5  C   UNL A   1      39.947  20.823  26.095  1.00  0.00     0.202 C 
BRANCH   5   6
ATOM      6  C   UNL A   1      38.888  21.937  26.215  1.00  0.00     0.261 C 
BRANCH   6   7
ATOM      7  O   UNL A   1      37.868  22.032  25.209  1.00  0.00    -0.462 OA
BRANCH   7   8
ATOM      8  C   UNL A   1      36.966  21.025  25.127  1.00  0.00     0.329 C 
ATOM      9  O   UNL A   1      37.191  19.963  24.556  1.00  0.00    -0.250 OA
BRANCH   8  10
ATOM     10  C   UNL A   1      35.619  21.398  25.829  1.00  0.00     0.199 C 
ATOM     11  N   UNL A   1      34.409  20.978  25.075  1.00  0.00    -0.291 N 
ATOM     12  C   UNL A   1      34.222  21.893  23.984  1.00  0.00     0.092 C 
ATOM     13  C   UNL A   1      35.610  22.934  25.722  1.00  0.00     0.043 C 
ATOM     14  C   UNL A   1      34.548  23.230  24.659  1.00  0.00     0.014 C 
ATOM     15  C   UNL A   1      32.856  22.036  23.321  1.00  0.00     0.025 C 
ATOM     16  C   UNL A   1      34.860  24.239  23.572  1.00  0.00     0.006 C 
ATOM     17  C   UNL A   1      32.918  23.151  22.268  1.00  0.00     0.002 C 
ATOM     18  C   UNL A   1      33.577  24.454  22.755  1.00  0.00     0.000 C 
BRANCH  11  19
ATOM     19  C   UNL A   1      33.627  19.849  25.184  1.00  0.00     0.411 C 
ATOM     20  O   UNL A   1      32.556  19.853  25.778  1.00  0.00    -0.224 OA
BRANCH  19  21
ATOM     21  O   UNL A   1      34.196  18.717  24.672  1.00  0.00    -0.444 OA
BRANCH  21  22
ATOM     22  C   UNL A   1      33.340  17.731  23.990  1.00  0.00     0.106 C 
ATOM     23  C   UNL A   1      32.533  17.025  25.094  1.00  0.00     0.056 C 
ATOM     24  C   UNL A   1      34.147  16.655  23.250  1.00  0.00     0.056 C 
ATOM     25  C   UNL A   1      32.330  18.382  23.028  1.00  0.00     0.056 C 
ENDBRANCH  21  22
ENDBRANCH  19  21
ENDBRANCH  11  19
ENDBRANCH   8  10
ENDBRANCH   7   8
ENDBRANCH   6   7
ENDBRANCH   5   6
ENDBRANCH   4   5
ENDBRANCH   3   4
ENDBRANCH   2   3
ENDBRANCH   1   2
BRANCH   1  26
ATOM     26  C   UNL A   1      43.743  24.345  26.672  1.00  0.00     0.188 C 
BRANCH  26  27
ATOM     27  C   UNL A   1      45.077  25.061  26.379  1.00  0.00     0.188 C 
BRANCH  27  28
ATOM     28  O   UNL A   1      45.165  26.098  25.404  1.00  0.00    -0.376 OA
BRANCH  28  29
ATOM     29  C   UNL A   1      44.382  27.280  25.524  1.00  0.00     0.202 C 
BRANCH  29  30
ATOM     30  C   UNL A   1      42.930  27.308  25.037  1.00  0.00     0.261 C 
BRANCH  30  31
ATOM     31  O   UNL A   1      42.036  28.052  25.877  1.00  0.00    -0.460 OA
BRANCH  31  32
ATOM     32  C   UNL A   1      41.278  27.292  26.703  1.00  0.00     0.338 C 
ATOM     33  O   UNL A   1      40.646  26.295  26.412  1.00  0.00    -0.246 OA
BRANCH  32  34
ATOM     34  C   UNL A   1      41.485  27.708  28.103  1.00  0.00     0.060 A 
ATOM     35  C   UNL A   1      40.531  27.279  29.038  1.00  0.00     0.016 A 
ATOM     36  C   UNL A   1      42.532  28.546  28.487  1.00  0.00     0.016 A 
ATOM     37  C   UNL A   1      40.590  27.721  30.350  1.00  0.00     0.010 A 
ATOM     38  C   UNL A   1      42.565  29.031  29.799  1.00  0.00     0.010 A 
ATOM     39  C   UNL A   1      41.566  28.653  30.717  1.00  0.00    -0.014 A 
BRANCH  39  40
ATOM     40  C   UNL A   1      41.355  29.407  31.971  1.00  0.00     0.031 A 
ATOM     41  C   UNL A   1      42.377  29.253  33.065  1.00  0.00     0.074 A 
ATOM     42  C   UNL A   1      40.346  30.287  32.090  1.00  0.00     0.049 A 
ATOM     43  N   UNL A   1      42.433  29.833  34.235  1.00  0.00    -0.248 NA
ATOM     44  C   UNL A   1      43.491  28.326  32.798  1.00  0.00     0.031 C 
ATOM     45  C   UNL A   1      39.352  30.578  31.058  1.00  0.00     0.029 A 
ATOM     46  N   UNL A   1      40.004  31.108  33.133  1.00  0.00    -0.354 N 
ATOM     47  C   UNL A   1      43.581  29.338  34.844  1.00  0.00     0.074 A 
ATOM     48  C   UNL A   1      44.177  28.391  33.929  1.00  0.00     0.031 C 
ATOM     49  C   UNL A   1      38.505  31.514  31.525  1.00  0.00     0.029 A 
ATOM     50  C   UNL A   1      38.879  31.859  32.894  1.00  0.00     0.049 A 
ATOM     51  H   UNL A   1      40.516  31.155  33.972  1.00  0.00     0.167 HD
ATOM     52  C   UNL A   1      44.095  29.651  36.056  1.00  0.00     0.031 A 
ATOM     53  C   UNL A   1      38.217  32.710  33.702  1.00  0.00     0.031 A 
ATOM     54  C   UNL A   1      43.483  30.581  36.965  1.00  0.00     0.049 A 
ATOM     55  C   UNL A   1      38.753  32.966  35.088  1.00  0.00     0.074 A 
ATOM     56  C   UNL A   1      43.913  30.964  38.223  1.00  0.00     0.029 A 
ATOM     57  N   UNL A   1      42.304  31.268  36.717  1.00  0.00    -0.354 N 
ATOM     58  N   UNL A   1      39.840  32.493  35.654  1.00  0.00    -0.248 NA
ATOM     59  C   UNL A   1      37.978  33.878  35.941  1.00  0.00     0.031 C 
ATOM     60  C   UNL A   1      42.958  31.832  38.762  1.00  0.00     0.029 A 
ATOM     61  C   UNL A   1      41.973  32.050  37.811  1.00  0.00     0.049 A 
ATOM     62  H   UNL A   1      41.779  31.208  35.886  1.00  0.00     0.167 HD
ATOM     63  C   UNL A   1      39.895  33.074  36.917  1.00  0.00     0.074 A 
ATOM     64  C   UNL A   1      38.740  33.943  37.025  1.00  0.00     0.031 C 
ATOM     65  C   UNL A   1      40.816  32.906  37.898  1.00  0.00     0.031 A 
BRANCH  52  66
ATOM     66  C   UNL A   1      45.354  28.942  36.482  1.00  0.00    -0.014 A 
ATOM     67  C   UNL A   1      45.311  27.799  37.304  1.00  0.00     0.010 A 
ATOM     68  C   UNL A   1      46.600  29.412  36.031  1.00  0.00     0.010 A 
ATOM     69  C   UNL A   1      46.495  27.164  37.694  1.00  0.00     0.020 A 
ATOM     70  C   UNL A   1      47.783  28.761  36.393  1.00  0.00     0.020 A 
ATOM     71  C   UNL A   1      47.723  27.650  37.235  1.00  0.00     0.054 A 
BRANCH  71  72
ATOM     72  S   UNL A   1      49.240  26.790  37.734  1.00  0.00     0.124 S 
ATOM     73  O   UNL A   1      48.955  26.457  39.128  1.00  0.00    -0.237 OA
ATOM     74  O   UNL A   1      49.281  25.656  36.813  1.00  0.00    -0.237 OA
ATOM     75  O   UNL A   1      50.287  27.788  37.535  1.00  0.00    -0.744 OA
ENDBRANCH  71  72
ENDBRANCH  52  66
BRANCH  53  76
ATOM     76  C   UNL A   1      36.965  33.363  33.231  1.00  0.00    -0.014 A 
ATOM     77  C   UNL A   1      36.979  34.670  32.716  1.00  0.00     0.010 A 
ATOM     78  C   UNL A   1      35.741  32.670  33.299  1.00  0.00     0.010 A 
ATOM     79  C   UNL A   1      35.793  35.277  32.290  1.00  0.00     0.020 A 
ATOM     80  C   UNL A   1      34.559  33.261  32.846  1.00  0.00     0.020 A 
ATOM     81  C   UNL A   1      34.591  34.566  32.354  1.00  0.00     0.054 A 
BRANCH  81  82
ATOM     82  S   UNL A   1      33.074  35.353  31.745  1.00  0.00     0.124 S 
ATOM     83  O   UNL A   1      32.076  34.864  32.690  1.00  0.00    -0.237 OA
ATOM     84  O   UNL A   1      33.398  36.774  31.842  1.00  0.00    -0.237 OA
ATOM     85  O   UNL A   1      32.950  34.844  30.380  1.00  0.00    -0.744 OA
ENDBRANCH  81  82
ENDBRANCH  53  76
BRANCH  65  86
ATOM     86  C   UNL A   1      40.641  33.710  39.161  1.00  0.00    -0.014 A 
ATOM     87  C   UNL A   1      41.115  35.030  39.263  1.00  0.00     0.010 A 
ATOM     88  C   UNL A   1      39.937  33.150  40.244  1.00  0.00     0.010 A 
ATOM     89  C   UNL A   1      40.922  35.760  40.439  1.00  0.00     0.020 A 
ATOM     90  C   UNL A   1      39.713  33.888  41.408  1.00  0.00     0.020 A 
ATOM     91  C   UNL A   1      40.222  35.184  41.504  1.00  0.00     0.054 A 
BRANCH  91  92
ATOM     92  S   UNL A   1      39.953  36.168  43.003  1.00  0.00     0.124 S 
ATOM     93  O   UNL A   1      40.725  35.425  43.996  1.00  0.00    -0.237 OA
ATOM     94  O   UNL A   1      40.496  37.471  42.632  1.00  0.00    -0.237 OA
ATOM     95  O   UNL A   1      38.504  36.132  43.187  1.00  0.00    -0.744 OA
ENDBRANCH  91  92
ENDBRANCH  65  86
ENDBRANCH  39  40
ENDBRANCH  32  34
ENDBRANCH  31  32
ENDBRANCH  30  31
ENDBRANCH  29  30
ENDBRANCH  28  29
ENDBRANCH  27  28
ENDBRANCH  26  27
ENDBRANCH   1  26
TORSDOF 26
ENDMDL
MODEL 3
REMARK VINA RESULT:      -8.4      4.794      8.873
REMARK SMILES CC(C)(C)OC(=O)N1[C@@H](C(=O)OCCOCCOCCOCCOC(=O)c2ccc(-c3c4nc(c(-c5ccc(S(=O)(=O)[O-])cc5)c5ccc([nH]5)c(-c5ccc(S(=O)(=O)[O-])cc5)c5nc(c(-c6ccc(S(=O)(=O)[O-])cc6)c6ccc3[nH]6)C=C5)C=C4)cc2)C[C@H]2CCCC[C@@H]21
REMARK SMILES IDX 18 1 17 2 16 3 15 4 14 5 13 6 12 7 10 8 11 9 9 10 8 11 93 12
REMARK SMILES IDX 87 13 88 14 92 15 89 16 91 17 90 18 6 19 7 20 5 21 2 22 1 23
REMARK SMILES IDX 3 24 4 25 19 26 20 27 21 28 22 29 23 30 24 31 25 32 26 33
REMARK SMILES IDX 27 34 28 35 86 36 29 37 85 38 30 39 31 40 32 41 79 42 33 43
REMARK SMILES IDX 84 44 78 45 80 46 34 47 83 48 77 49 76 50 35 52 65 53 46 54
REMARK SMILES IDX 64 55 47 56 50 57 63 58 81 59 48 60 49 61 62 63 82 64 51 65
REMARK SMILES IDX 36 66 37 67 45 68 38 69 44 70 39 71 40 72 41 73 42 74 43 75
REMARK SMILES IDX 66 76 67 77 75 78 68 79 74 80 69 81 70 82 71 83 72 84 73 85
REMARK SMILES IDX 52 86 53 87 61 88 54 89 60 90 55 91 56 92 57 93 58 94 59 95
REMARK H PARENT 80 51 50 62
REMARK Flexibility Score: inf
ROOT
ATOM      1  O   UNL A   1      43.607  23.451  27.545  1.00  0.00    -0.377 OA
ENDROOT
BRANCH   1   2
ATOM      2  C   UNL A   1      42.549  22.508  27.534  1.00  0.00     0.188 C 
BRANCH   2   3
ATOM      3  C   UNL A   1      41.448  22.626  26.460  1.00  0.00     0.188 C 
BRANCH   3   4
ATOM      4  O   UNL A   1      40.843  21.381  26.169  1.00  0.00    -0.376 OA
BRANCH   4   5
ATOM      5  C   UNL A   1      39.439  21.239  26.109  1.00  0.00     0.202 C 
BRANCH   5   6
ATOM      6  C   UNL A   1      38.481  22.448  26.086  1.00  0.00     0.261 C 
BRANCH   6   7
ATOM      7  O   UNL A   1      37.088  22.221  25.823  1.00  0.00    -0.462 OA
BRANCH   7   8
ATOM      8  C   UNL A   1      36.585  22.677  24.651  1.00  0.00     0.329 C 
ATOM      9  O   UNL A   1      37.064  23.621  24.033  1.00  0.00    -0.250 OA
BRANCH   8  10
ATOM     10  C   UNL A   1      35.323  21.863  24.210  1.00  0.00     0.199 C 
ATOM     11  N   UNL A   1      34.115  22.699  23.982  1.00  0.00    -0.291 N 
ATOM     12  C   UNL A   1      33.573  23.059  25.262  1.00  0.00     0.092 C 
ATOM     13  C   UNL A   1      34.988  21.064  25.483  1.00  0.00     0.043 C 
ATOM     14  C   UNL A   1      33.730  21.742  26.031  1.00  0.00     0.014 C 
ATOM     15  C   UNL A   1      32.116  23.493  25.390  1.00  0.00     0.025 C 
ATOM     16  C   UNL A   1      33.651  22.053  27.513  1.00  0.00     0.006 C 
ATOM     17  C   UNL A   1      31.780  23.710  26.872  1.00  0.00     0.002 C 
ATOM     18  C   UNL A   1      32.235  22.573  27.804  1.00  0.00     0.000 C 
BRANCH  11  19
ATOM     19  C   UNL A   1      33.605  23.247  22.826  1.00  0.00     0.411 C 
ATOM     20  O   UNL A   1      32.914  22.601  22.049  1.00  0.00    -0.224 OA
BRANCH  19  21
ATOM     21  O   UNL A   1      34.023  24.524  22.574  1.00  0.00    -0.444 OA
BRANCH  21  22
ATOM     22  C   UNL A   1      33.041  25.522  22.119  1.00  0.00     0.106 C 
ATOM     23  C   UNL A   1      32.886  25.313  20.602  1.00  0.00     0.056 C 
ATOM     24  C   UNL A   1      33.515  26.965  22.338  1.00  0.00     0.056 C 
ATOM     25  C   UNL A   1      31.652  25.325  22.754  1.00  0.00     0.056 C 
ENDBRANCH  21  22
ENDBRANCH  19  21
ENDBRANCH  11  19
ENDBRANCH   8  10
ENDBRANCH   7   8
ENDBRANCH   6   7
ENDBRANCH   5   6
ENDBRANCH   4   5
ENDBRANCH   3   4
ENDBRANCH   2   3
ENDBRANCH   1   2
BRANCH   1  26
ATOM     26  C   UNL A   1      43.466  24.499  26.613  1.00  0.00     0.188 C 
BRANCH  26  27
ATOM     27  C   UNL A   1      44.785  25.249  26.337  1.00  0.00     0.188 C 
BRANCH  27  28
ATOM     28  O   UNL A   1      44.848  26.319  25.396  1.00  0.00    -0.376 OA
BRANCH  28  29
ATOM     29  C   UNL A   1      43.991  27.449  25.517  1.00  0.00     0.202 C 
BRANCH  29  30
ATOM     30  C   UNL A   1      42.550  27.394  25.001  1.00  0.00     0.261 C 
BRANCH  30  31
ATOM     31  O   UNL A   1      41.603  28.111  25.806  1.00  0.00    -0.460 OA
BRANCH  31  32
ATOM     32  C   UNL A   1      40.927  27.344  26.694  1.00  0.00     0.338 C 
ATOM     33  O   UNL A   1      40.334  26.307  26.469  1.00  0.00    -0.246 OA
BRANCH  32  34
ATOM     34  C   UNL A   1      41.179  27.820  28.067  1.00  0.00     0.060 A 
ATOM     35  C   UNL A   1      40.370  27.286  29.081  1.00  0.00     0.016 A 
ATOM     36  C   UNL A   1      42.123  28.807  28.354  1.00  0.00     0.016 A 
ATOM     37  C   UNL A   1      40.466  27.765  30.378  1.00  0.00     0.010 A 
ATOM     38  C   UNL A   1      42.187  29.324  29.653  1.00  0.00     0.010 A 
ATOM     39  C   UNL A   1      41.325  28.834  30.652  1.00  0.00    -0.014 A 
BRANCH  39  40
ATOM     40  C   UNL A   1      41.105  29.582  31.908  1.00  0.00     0.031 A 
ATOM     41  C   UNL A   1      42.126  29.432  33.004  1.00  0.00     0.074 A 
ATOM     42  C   UNL A   1      40.090  30.455  32.027  1.00  0.00     0.049 A 
ATOM     43  N   UNL A   1      42.175  30.009  34.176  1.00  0.00    -0.248 NA
ATOM     44  C   UNL A   1      43.248  28.515  32.737  1.00  0.00     0.031 C 
ATOM     45  C   UNL A   1      39.095  30.742  30.994  1.00  0.00     0.029 A 
ATOM     46  N   UNL A   1      39.740  31.270  33.072  1.00  0.00    -0.354 N 
ATOM     47  C   UNL A   1      43.325  29.521  34.786  1.00  0.00     0.074 A 
ATOM     48  C   UNL A   1      43.930  28.581  33.869  1.00  0.00     0.031 C 
ATOM     49  C   UNL A   1      38.241  31.670  31.462  1.00  0.00     0.029 A 
ATOM     50  C   UNL A   1      38.609  32.013  32.833  1.00  0.00     0.049 A 
ATOM     51  H   UNL A   1      40.249  31.318  33.913  1.00  0.00     0.167 HD
ATOM     52  C   UNL A   1      43.834  29.834  35.999  1.00  0.00     0.031 A 
ATOM     53  C   UNL A   1      37.939  32.857  33.643  1.00  0.00     0.031 A 
ATOM     54  C   UNL A   1      43.214  30.756  36.911  1.00  0.00     0.049 A 
ATOM     55  C   UNL A   1      38.471  33.112  35.030  1.00  0.00     0.074 A 
ATOM     56  C   UNL A   1      43.637  31.139  38.170  1.00  0.00     0.029 A 
ATOM     57  N   UNL A   1      42.030  31.436  36.662  1.00  0.00    -0.354 N 
ATOM     58  N   UNL A   1      39.559  32.645  35.597  1.00  0.00    -0.248 NA
ATOM     59  C   UNL A   1      37.687  34.016  35.884  1.00  0.00     0.031 C 
ATOM     60  C   UNL A   1      42.676  31.998  38.710  1.00  0.00     0.029 A 
ATOM     61  C   UNL A   1      41.691  32.211  37.757  1.00  0.00     0.049 A 
ATOM     62  H   UNL A   1      41.507  31.374  35.830  1.00  0.00     0.167 HD
ATOM     63  C   UNL A   1      39.607  33.223  36.862  1.00  0.00     0.074 A 
ATOM     64  C   UNL A   1      38.446  34.083  36.970  1.00  0.00     0.031 C 
ATOM     65  C   UNL A   1      40.528  33.059  37.845  1.00  0.00     0.031 A 
BRANCH  52  66
ATOM     66  C   UNL A   1      45.097  29.132  36.427  1.00  0.00    -0.014 A 
ATOM     67  C   UNL A   1      45.059  27.914  37.131  1.00  0.00     0.010 A 
ATOM     68  C   UNL A   1      46.345  29.690  36.094  1.00  0.00     0.010 A 
ATOM     69  C   UNL A   1      46.246  27.288  37.525  1.00  0.00     0.020 A 
ATOM     70  C   UNL A   1      47.534  29.051  36.459  1.00  0.00     0.020 A 
ATOM     71  C   UNL A   1      47.476  27.860  37.185  1.00  0.00     0.054 A 
BRANCH  71  72
ATOM     72  S   UNL A   1      48.999  27.012  37.684  1.00  0.00     0.124 S 
ATOM     73  O   UNL A   1      48.652  26.527  39.018  1.00  0.00    -0.237 OA
ATOM     74  O   UNL A   1      49.140  25.981  36.658  1.00  0.00    -0.237 OA
ATOM     75  O   UNL A   1      50.011  28.064  37.649  1.00  0.00    -0.744 OA
ENDBRANCH  71  72
ENDBRANCH  52  66
BRANCH  53  76
ATOM     76  C   UNL A   1      36.684  33.502  33.171  1.00  0.00    -0.014 A 
ATOM     77  C   UNL A   1      36.675  34.837  32.732  1.00  0.00     0.010 A 
ATOM     78  C   UNL A   1      35.479  32.773  33.159  1.00  0.00     0.010 A 
ATOM     79  C   UNL A   1      35.485  35.435  32.305  1.00  0.00     0.020 A 
ATOM     80  C   UNL A   1      34.294  33.357  32.705  1.00  0.00     0.020 A 
ATOM     81  C   UNL A   1      34.303  34.689  32.290  1.00  0.00     0.054 A 
BRANCH  81  82
ATOM     82  S   UNL A   1      32.783  35.469  31.680  1.00  0.00     0.124 S 
ATOM     83  O   UNL A   1      31.786  34.973  32.623  1.00  0.00    -0.237 OA
ATOM     84  O   UNL A   1      33.099  36.891  31.780  1.00  0.00    -0.237 OA
ATOM     85  O   UNL A   1      32.662  34.961  30.315  1.00  0.00    -0.744 OA
ENDBRANCH  81  82
ENDBRANCH  53  76
BRANCH  65  86
ATOM     86  C   UNL A   1      40.343  33.858  39.109  1.00  0.00    -0.014 A 
ATOM     87  C   UNL A   1      40.827  35.173  39.224  1.00  0.00     0.010 A 
ATOM     88  C   UNL A   1      39.623  33.298  40.181  1.00  0.00     0.010 A 
ATOM     89  C   UNL A   1      40.626  35.899  40.402  1.00  0.00     0.020 A 
ATOM     90  C   UNL A   1      39.391  34.031  41.346  1.00  0.00     0.020 A 
ATOM     91  C   UNL A   1      39.909  35.323  41.455  1.00  0.00     0.054 A 
BRANCH  91  92
ATOM     92  S   UNL A   1      39.630  36.301  42.957  1.00  0.00     0.124 S 
ATOM     93  O   UNL A   1      40.863  36.068  43.704  1.00  0.00    -0.237 OA
ATOM     94  O   UNL A   1      39.459  37.652  42.430  1.00  0.00    -0.237 OA
ATOM     95  O   UNL A   1      38.427  35.708  43.539  1.00  0.00    -0.744 OA
ENDBRANCH  91  92
ENDBRANCH  65  86
ENDBRANCH  39  40
ENDBRANCH  32  34
ENDBRANCH  31  32
ENDBRANCH  30  31
ENDBRANCH  29  30
ENDBRANCH  28  29
ENDBRANCH  27  28
ENDBRANCH  26  27
ENDBRANCH   1  26
TORSDOF 26
ENDMDL
