MODEL 1
REMARK VINA RESULT:      -9.3      0.000      0.000
REMARK SMILES [NH3+][C@H]1CCCC[C@@H]1C(=O)N1CC(C(=O)OCCOCCOCCOCCOC(=O)c2ccc(-c3c4nc(c(-c5ccc(S(=O)(=O)[O-])cc5)c5ccc([nH]5)c(-c5ccc(S(=O)(=O)[O-])cc5)c5nc(c(-c6ccc(S(=O)(=O)[O-])cc6)c6ccc3[nH]6)C=C5)C=C4)cc2)C1
REMARK SMILES IDX 22 1 21 2 20 3 19 4 18 5 17 6 16 7 15 8 13 9 14 10 12 11
REMARK SMILES IDX 8 12 9 13 10 14 11 15 90 16 7 17 2 18 3 19 4 20 6 21 5 22
REMARK SMILES IDX 1 23 23 27 24 28 25 29 26 30 27 31 28 32 29 33 30 34 31 35
REMARK SMILES IDX 89 36 32 37 88 38 33 39 34 40 35 41 82 42 36 43 87 44 81 45
REMARK SMILES IDX 83 46 37 47 86 48 80 49 79 50 38 52 68 53 49 54 67 55 50 56
REMARK SMILES IDX 53 57 66 58 84 59 51 60 52 61 65 63 85 64 54 65 39 66 40 67
REMARK SMILES IDX 48 68 41 69 47 70 42 71 43 72 44 73 45 74 46 75 69 76 70 77
REMARK SMILES IDX 78 78 71 79 77 80 72 81 73 82 74 83 75 84 76 85 55 86 56 87
REMARK SMILES IDX 64 88 57 89 63 90 58 91 59 92 60 93 61 94 62 95
REMARK H PARENT 1 24 1 25 1 26 83 51 53 62
REMARK Flexibility Score: inf
ROOT
ATOM      1  C   UNL A   1      32.298  30.634  26.837  1.00  0.00     0.188 C 
ENDROOT
BRANCH   1   2
ATOM      2  O   UNL A   1      31.507  30.345  25.692  1.00  0.00    -0.377 OA
BRANCH   2   3
ATOM      3  C   UNL A   1      31.525  29.018  25.209  1.00  0.00     0.188 C 
BRANCH   3   4
ATOM      4  C   UNL A   1      31.734  28.890  23.691  1.00  0.00     0.188 C 
BRANCH   4   5
ATOM      5  O   UNL A   1      31.019  27.928  22.936  1.00  0.00    -0.376 OA
BRANCH   5   6
ATOM      6  C   UNL A   1      29.768  27.401  23.355  1.00  0.00     0.202 C 
BRANCH   6   7
ATOM      7  C   UNL A   1      29.580  26.087  24.142  1.00  0.00     0.261 C 
BRANCH   7   8
ATOM      8  O   UNL A   1      30.769  25.450  24.618  1.00  0.00    -0.463 OA
BRANCH   8   9
ATOM      9  C   UNL A   1      31.036  24.212  24.127  1.00  0.00     0.312 C 
ATOM     10  O   UNL A   1      30.398  23.700  23.207  1.00  0.00    -0.252 OA
BRANCH   9  11
ATOM     11  C   UNL A   1      32.284  23.577  24.750  1.00  0.00     0.138 C 
ATOM     12  C   UNL A   1      34.474  20.999  24.744  1.00  0.00     0.231 C 
ATOM     13  O   UNL A   1      35.668  21.280  24.590  1.00  0.00    -0.274 OA
ATOM     14  N   UNL A   1      33.556  21.996  24.844  1.00  0.00    -0.340 N 
ATOM     15  C   UNL A   1      33.242  22.917  23.758  1.00  0.00     0.136 C 
ATOM     16  C   UNL A   1      32.269  22.204  25.473  1.00  0.00     0.136 C 
BRANCH  12  17
ATOM     17  C   UNL A   1      34.044  19.540  24.799  1.00  0.00     0.136 C 
ATOM     18  C   UNL A   1      35.121  18.528  24.358  1.00  0.00     0.193 C 
ATOM     19  C   UNL A   1      34.634  17.087  24.552  1.00  0.00     0.066 C 
ATOM     20  C   UNL A   1      33.293  16.852  23.861  1.00  0.00     0.006 C 
ATOM     21  C   UNL A   1      32.711  19.299  24.088  1.00  0.00     0.020 C 
ATOM     22  C   UNL A   1      32.241  17.861  24.314  1.00  0.00     0.001 C 
BRANCH  18  23
ATOM     23  N   UNL A   1      36.380  18.717  25.083  1.00  0.00    -0.354 N 
ATOM     24  H   UNL A   1      37.154  18.738  24.419  1.00  0.00     0.344 HD
ATOM     25  H   UNL A   1      36.514  17.948  25.738  1.00  0.00     0.344 HD
ATOM     26  H   UNL A   1      36.348  19.599  25.595  1.00  0.00     0.344 HD
ENDBRANCH  18  23
ENDBRANCH  12  17
ENDBRANCH   9  11
ENDBRANCH   8   9
ENDBRANCH   7   8
ENDBRANCH   6   7
ENDBRANCH   5   6
ENDBRANCH   4   5
ENDBRANCH   3   4
ENDBRANCH   2   3
ENDBRANCH   1   2
BRANCH   1  27
ATOM     27  C   UNL A   1      33.431  29.664  27.237  1.00  0.00     0.188 C 
BRANCH  27  28
ATOM     28  O   UNL A   1      34.734  30.232  27.183  1.00  0.00    -0.376 OA
BRANCH  28  29
ATOM     29  C   UNL A   1      35.029  31.339  28.021  1.00  0.00     0.202 C 
BRANCH  29  30
ATOM     30  C   UNL A   1      36.508  31.715  28.209  1.00  0.00     0.261 C 
BRANCH  30  31
ATOM     31  O   UNL A   1      37.140  31.248  29.409  1.00  0.00    -0.460 OA
BRANCH  31  32
ATOM     32  C   UNL A   1      37.168  29.917  29.633  1.00  0.00     0.338 C 
ATOM     33  O   UNL A   1      36.229  29.207  29.954  1.00  0.00    -0.246 OA
BRANCH  32  34
ATOM     34  C   UNL A   1      38.499  29.422  29.221  1.00  0.00     0.060 A 
ATOM     35  C   UNL A   1      39.365  28.900  30.193  1.00  0.00     0.016 A 
ATOM     36  C   UNL A   1      38.885  29.464  27.880  1.00  0.00     0.016 A 
ATOM     37  C   UNL A   1      40.637  28.455  29.829  1.00  0.00     0.010 A 
ATOM     38  C   UNL A   1      40.166  29.038  27.522  1.00  0.00     0.010 A 
ATOM     39  C   UNL A   1      41.061  28.565  28.499  1.00  0.00    -0.014 A 
BRANCH  39  40
ATOM     40  C   UNL A   1      42.493  28.392  28.155  1.00  0.00     0.031 A 
ATOM     41  C   UNL A   1      43.417  29.561  28.374  1.00  0.00     0.074 A 
ATOM     42  C   UNL A   1      42.969  27.236  27.662  1.00  0.00     0.049 A 
ATOM     43  N   UNL A   1      44.682  29.688  28.069  1.00  0.00    -0.248 NA
ATOM     44  C   UNL A   1      42.831  30.748  29.020  1.00  0.00     0.031 C 
ATOM     45  C   UNL A   1      42.190  26.015  27.459  1.00  0.00     0.029 A 
ATOM     46  N   UNL A   1      44.231  26.907  27.230  1.00  0.00    -0.354 N 
ATOM     47  C   UNL A   1      45.039  30.970  28.472  1.00  0.00     0.074 A 
ATOM     48  C   UNL A   1      43.852  31.591  29.014  1.00  0.00     0.031 C 
ATOM     49  C   UNL A   1      42.991  25.072  26.930  1.00  0.00     0.029 A 
ATOM     50  C   UNL A   1      44.324  25.635  26.717  1.00  0.00     0.049 A 
ATOM     51  H   UNL A   1      44.996  27.524  27.284  1.00  0.00     0.167 HD
ATOM     52  C   UNL A   1      46.248  31.575  28.400  1.00  0.00     0.031 A 
ATOM     53  C   UNL A   1      45.359  25.009  26.118  1.00  0.00     0.031 A 
ATOM     54  C   UNL A   1      47.422  30.959  27.843  1.00  0.00     0.049 A 
ATOM     55  C   UNL A   1      46.670  25.737  25.960  1.00  0.00     0.074 A 
ATOM     56  C   UNL A   1      48.696  31.486  27.728  1.00  0.00     0.029 A 
ATOM     57  N   UNL A   1      47.465  29.684  27.298  1.00  0.00    -0.354 N 
ATOM     58  N   UNL A   1      47.000  26.944  26.358  1.00  0.00    -0.248 NA
ATOM     59  C   UNL A   1      47.754  25.016  25.277  1.00  0.00     0.031 C 
ATOM     60  C   UNL A   1      49.492  30.555  27.055  1.00  0.00     0.029 A 
ATOM     61  C   UNL A   1      48.736  29.418  26.820  1.00  0.00     0.049 A 
ATOM     62  H   UNL A   1      46.704  29.061  27.258  1.00  0.00     0.167 HD
ATOM     63  C   UNL A   1      48.336  27.110  26.007  1.00  0.00     0.074 A 
ATOM     64  C   UNL A   1      48.758  25.879  25.373  1.00  0.00     0.031 C 
ATOM     65  C   UNL A   1      49.145  28.183  26.198  1.00  0.00     0.031 A 
BRANCH  52  66
ATOM     66  C   UNL A   1      46.349  32.991  28.903  1.00  0.00    -0.014 A 
ATOM     67  C   UNL A   1      46.174  34.088  28.041  1.00  0.00     0.010 A 
ATOM     68  C   UNL A   1      46.586  33.226  30.270  1.00  0.00     0.010 A 
ATOM     69  C   UNL A   1      46.275  35.394  28.529  1.00  0.00     0.020 A 
ATOM     70  C   UNL A   1      46.656  34.530  30.768  1.00  0.00     0.020 A 
ATOM     71  C   UNL A   1      46.516  35.607  29.890  1.00  0.00     0.054 A 
BRANCH  71  72
ATOM     72  S   UNL A   1      46.617  37.312  30.497  1.00  0.00     0.124 S 
ATOM     73  O   UNL A   1      45.495  37.944  29.805  1.00  0.00    -0.237 OA
ATOM     74  O   UNL A   1      46.453  37.147  31.939  1.00  0.00    -0.237 OA
ATOM     75  O   UNL A   1      47.940  37.757  30.068  1.00  0.00    -0.744 OA
ENDBRANCH  71  72
ENDBRANCH  52  66
BRANCH  53  76
ATOM     76  C   UNL A   1      45.195  23.622  25.596  1.00  0.00    -0.014 A 
ATOM     77  C   UNL A   1      44.963  23.393  24.229  1.00  0.00     0.010 A 
ATOM     78  C   UNL A   1      45.254  22.522  26.471  1.00  0.00     0.010 A 
ATOM     79  C   UNL A   1      44.775  22.093  23.749  1.00  0.00     0.020 A 
ATOM     80  C   UNL A   1      45.099  21.219  25.991  1.00  0.00     0.020 A 
ATOM     81  C   UNL A   1      44.849  21.012  24.634  1.00  0.00     0.054 A 
BRANCH  81  82
ATOM     82  S   UNL A   1      44.651  19.332  23.981  1.00  0.00     0.124 S 
ATOM     83  O   UNL A   1      43.484  18.855  24.716  1.00  0.00    -0.237 OA
ATOM     84  O   UNL A   1      44.448  19.572  22.554  1.00  0.00    -0.237 OA
ATOM     85  O   UNL A   1      45.915  18.682  24.321  1.00  0.00    -0.744 OA
ENDBRANCH  81  82
ENDBRANCH  53  76
BRANCH  65  86
ATOM     86  C   UNL A   1      50.585  28.066  25.770  1.00  0.00    -0.014 A 
ATOM     87  C   UNL A   1      51.576  27.587  26.643  1.00  0.00     0.010 A 
ATOM     88  C   UNL A   1      50.935  28.369  24.440  1.00  0.00     0.010 A 
ATOM     89  C   UNL A   1      52.895  27.437  26.202  1.00  0.00     0.020 A 
ATOM     90  C   UNL A   1      52.243  28.190  23.986  1.00  0.00     0.020 A 
ATOM     91  C   UNL A   1      53.219  27.735  24.873  1.00  0.00     0.054 A 
BRANCH  91  92
ATOM     92  S   UNL A   1      54.923  27.473  24.311  1.00  0.00     0.124 S 
ATOM     93  O   UNL A   1      54.864  27.949  22.931  1.00  0.00    -0.237 OA
ATOM     94  O   UNL A   1      55.693  28.307  25.230  1.00  0.00    -0.237 OA
ATOM     95  O   UNL A   1      55.123  26.035  24.465  1.00  0.00    -0.744 OA
ENDBRANCH  91  92
ENDBRANCH  65  86
ENDBRANCH  39  40
ENDBRANCH  32  34
ENDBRANCH  31  32
ENDBRANCH  30  31
ENDBRANCH  29  30
ENDBRANCH  28  29
ENDBRANCH  27  28
ENDBRANCH   1  27
TORSDOF 25
ENDMDL
MODEL 2
REMARK VINA RESULT:      -9.1      2.844      9.292
REMARK SMILES [NH3+][C@H]1CCCC[C@@H]1C(=O)N1CC(C(=O)OCCOCCOCCOCCOC(=O)c2ccc(-c3c4nc(c(-c5ccc(S(=O)(=O)[O-])cc5)c5ccc([nH]5)c(-c5ccc(S(=O)(=O)[O-])cc5)c5nc(c(-c6ccc(S(=O)(=O)[O-])cc6)c6ccc3[nH]6)C=C5)C=C4)cc2)C1
REMARK SMILES IDX 22 1 21 2 20 3 19 4 18 5 17 6 16 7 15 8 13 9 14 10 12 11
REMARK SMILES IDX 8 12 9 13 10 14 11 15 90 16 7 17 2 18 3 19 4 20 6 21 5 22
REMARK SMILES IDX 1 23 23 27 24 28 25 29 26 30 27 31 28 32 29 33 30 34 31 35
REMARK SMILES IDX 89 36 32 37 88 38 33 39 34 40 35 41 82 42 36 43 87 44 81 45
REMARK SMILES IDX 83 46 37 47 86 48 80 49 79 50 38 52 68 53 49 54 67 55 50 56
REMARK SMILES IDX 53 57 66 58 84 59 51 60 52 61 65 63 85 64 54 65 39 66 40 67
REMARK SMILES IDX 48 68 41 69 47 70 42 71 43 72 44 73 45 74 46 75 69 76 70 77
REMARK SMILES IDX 78 78 71 79 77 80 72 81 73 82 74 83 75 84 76 85 55 86 56 87
REMARK SMILES IDX 64 88 57 89 63 90 58 91 59 92 60 93 61 94 62 95
REMARK H PARENT 1 24 1 25 1 26 83 51 53 62
REMARK Flexibility Score: inf
ROOT
ATOM      1  C   UNL A   1      33.374  28.747  26.318  1.00  0.00     0.188 C 
ENDROOT
BRANCH   1   2
ATOM      2  O   UNL A   1      32.602  27.553  26.321  1.00  0.00    -0.377 OA
BRANCH   2   3
ATOM      3  C   UNL A   1      33.294  26.332  26.172  1.00  0.00     0.188 C 
BRANCH   3   4
ATOM      4  C   UNL A   1      32.401  25.081  26.187  1.00  0.00     0.188 C 
BRANCH   4   5
ATOM      5  O   UNL A   1      32.832  23.871  25.589  1.00  0.00    -0.376 OA
BRANCH   5   6
ATOM      6  C   UNL A   1      33.809  23.831  24.559  1.00  0.00     0.202 C 
BRANCH   6   7
ATOM      7  C   UNL A   1      33.548  24.176  23.078  1.00  0.00     0.261 C 
BRANCH   7   8
ATOM      8  O   UNL A   1      34.094  25.410  22.602  1.00  0.00    -0.463 OA
BRANCH   8   9
ATOM      9  C   UNL A   1      33.253  26.224  21.914  1.00  0.00     0.312 C 
ATOM     10  O   UNL A   1      33.333  26.404  20.698  1.00  0.00    -0.252 OA
BRANCH   9  11
ATOM     11  C   UNL A   1      32.125  26.792  22.782  1.00  0.00     0.138 C 
ATOM     12  C   UNL A   1      29.289  28.631  22.925  1.00  0.00     0.231 C 
ATOM     13  O   UNL A   1      28.285  28.076  23.384  1.00  0.00    -0.274 OA
ATOM     14  N   UNL A   1      30.479  27.975  22.923  1.00  0.00    -0.340 N 
ATOM     15  C   UNL A   1      30.737  26.771  22.141  1.00  0.00     0.136 C 
ATOM     16  C   UNL A   1      31.886  28.313  22.978  1.00  0.00     0.136 C 
BRANCH  12  17
ATOM     17  C   UNL A   1      29.176  30.035  22.348  1.00  0.00     0.136 C 
ATOM     18  C   UNL A   1      29.084  31.163  23.395  1.00  0.00     0.193 C 
ATOM     19  C   UNL A   1      29.085  32.540  22.722  1.00  0.00     0.066 C 
ATOM     20  C   UNL A   1      27.996  32.642  21.655  1.00  0.00     0.006 C 
ATOM     21  C   UNL A   1      28.072  30.144  21.295  1.00  0.00     0.020 C 
ATOM     22  C   UNL A   1      28.109  31.520  20.627  1.00  0.00     0.001 C 
BRANCH  18  23
ATOM     23  N   UNL A   1      30.175  31.097  24.369  1.00  0.00    -0.354 N 
ATOM     24  H   UNL A   1      30.563  30.154  24.382  1.00  0.00     0.344 HD
ATOM     25  H   UNL A   1      29.819  31.331  25.296  1.00  0.00     0.344 HD
ATOM     26  H   UNL A   1      30.904  31.760  24.108  1.00  0.00     0.344 HD
ENDBRANCH  18  23
ENDBRANCH  12  17
ENDBRANCH   9  11
ENDBRANCH   8   9
ENDBRANCH   7   8
ENDBRANCH   6   7
ENDBRANCH   5   6
ENDBRANCH   4   5
ENDBRANCH   3   4
ENDBRANCH   2   3
ENDBRANCH   1   2
BRANCH   1  27
ATOM     27  C   UNL A   1      34.720  28.778  27.074  1.00  0.00     0.188 C 
BRANCH  27  28
ATOM     28  O   UNL A   1      35.309  30.068  27.169  1.00  0.00    -0.376 OA
BRANCH  28  29
ATOM     29  C   UNL A   1      34.748  31.008  28.075  1.00  0.00     0.202 C 
BRANCH  29  30
ATOM     30  C   UNL A   1      35.438  31.181  29.437  1.00  0.00     0.261 C 
BRANCH  30  31
ATOM     31  O   UNL A   1      36.116  30.032  29.964  1.00  0.00    -0.460 OA
BRANCH  31  32
ATOM     32  C   UNL A   1      36.855  30.192  31.082  1.00  0.00     0.338 C 
ATOM     33  O   UNL A   1      36.447  30.245  32.230  1.00  0.00    -0.246 OA
BRANCH  32  34
ATOM     34  C   UNL A   1      38.279  30.087  30.695  1.00  0.00     0.060 A 
ATOM     35  C   UNL A   1      38.698  30.638  29.477  1.00  0.00     0.016 A 
ATOM     36  C   UNL A   1      39.195  29.456  31.539  1.00  0.00     0.016 A 
ATOM     37  C   UNL A   1      40.032  30.525  29.081  1.00  0.00     0.010 A 
ATOM     38  C   UNL A   1      40.525  29.325  31.131  1.00  0.00     0.010 A 
ATOM     39  C   UNL A   1      40.941  29.826  29.884  1.00  0.00    -0.014 A 
BRANCH  39  40
ATOM     40  C   UNL A   1      42.265  29.431  29.343  1.00  0.00     0.031 A 
ATOM     41  C   UNL A   1      42.423  28.028  28.820  1.00  0.00     0.074 A 
ATOM     42  C   UNL A   1      43.302  30.285  29.314  1.00  0.00     0.049 A 
ATOM     43  N   UNL A   1      43.495  27.419  28.385  1.00  0.00    -0.248 NA
ATOM     44  C   UNL A   1      41.205  27.199  28.790  1.00  0.00     0.031 C 
ATOM     45  C   UNL A   1      43.262  31.684  29.736  1.00  0.00     0.029 A 
ATOM     46  N   UNL A   1      44.603  30.089  28.918  1.00  0.00    -0.354 N 
ATOM     47  C   UNL A   1      43.085  26.135  28.042  1.00  0.00     0.074 A 
ATOM     48  C   UNL A   1      41.676  26.042  28.349  1.00  0.00     0.031 C 
ATOM     49  C   UNL A   1      44.489  32.218  29.587  1.00  0.00     0.029 A 
ATOM     50  C   UNL A   1      45.407  31.188  29.102  1.00  0.00     0.049 A 
ATOM     51  H   UNL A   1      44.928  29.241  28.539  1.00  0.00     0.167 HD
ATOM     52  C   UNL A   1      43.816  25.125  27.516  1.00  0.00     0.031 A 
ATOM     53  C   UNL A   1      46.736  31.337  28.925  1.00  0.00     0.031 A 
ATOM     54  C   UNL A   1      45.223  25.216  27.230  1.00  0.00     0.049 A 
ATOM     55  C   UNL A   1      47.551  30.168  28.430  1.00  0.00     0.074 A 
ATOM     56  C   UNL A   1      46.054  24.250  26.692  1.00  0.00     0.029 A 
ATOM     57  N   UNL A   1      46.008  26.334  27.467  1.00  0.00    -0.354 N 
ATOM     58  N   UNL A   1      47.150  28.963  28.097  1.00  0.00    -0.248 NA
ATOM     59  C   UNL A   1      48.998  30.379  28.282  1.00  0.00     0.031 C 
ATOM     60  C   UNL A   1      47.355  24.762  26.665  1.00  0.00     0.029 A 
ATOM     61  C   UNL A   1      47.320  26.073  27.113  1.00  0.00     0.049 A 
ATOM     62  H   UNL A   1      45.680  27.188  27.833  1.00  0.00     0.167 HD
ATOM     63  C   UNL A   1      48.287  28.288  27.665  1.00  0.00     0.074 A 
ATOM     64  C   UNL A   1      49.391  29.219  27.771  1.00  0.00     0.031 C 
ATOM     65  C   UNL A   1      48.408  27.014  27.215  1.00  0.00     0.031 A 
BRANCH  52  66
ATOM     66  C   UNL A   1      43.112  23.819  27.254  1.00  0.00    -0.014 A 
ATOM     67  C   UNL A   1      43.031  22.820  28.241  1.00  0.00     0.010 A 
ATOM     68  C   UNL A   1      42.490  23.604  26.010  1.00  0.00     0.010 A 
ATOM     69  C   UNL A   1      42.376  21.615  27.975  1.00  0.00     0.020 A 
ATOM     70  C   UNL A   1      41.806  22.413  25.752  1.00  0.00     0.020 A 
ATOM     71  C   UNL A   1      41.767  21.419  26.731  1.00  0.00     0.054 A 
BRANCH  71  72
ATOM     72  S   UNL A   1      40.903  19.855  26.425  1.00  0.00     0.124 S 
ATOM     73  O   UNL A   1      39.623  20.318  25.892  1.00  0.00    -0.237 OA
ATOM     74  O   UNL A   1      41.780  19.189  25.464  1.00  0.00    -0.237 OA
ATOM     75  O   UNL A   1      40.837  19.230  27.743  1.00  0.00    -0.744 OA
ENDBRANCH  71  72
ENDBRANCH  52  66
BRANCH  53  76
ATOM     76  C   UNL A   1      47.394  32.637  29.242  1.00  0.00    -0.014 A 
ATOM     77  C   UNL A   1      47.918  32.883  30.523  1.00  0.00     0.010 A 
ATOM     78  C   UNL A   1      47.485  33.645  28.264  1.00  0.00     0.010 A 
ATOM     79  C   UNL A   1      48.502  34.117  30.827  1.00  0.00     0.020 A 
ATOM     80  C   UNL A   1      48.097  34.867  28.553  1.00  0.00     0.020 A 
ATOM     81  C   UNL A   1      48.593  35.101  29.837  1.00  0.00     0.054 A 
BRANCH  81  82
ATOM     82  S   UNL A   1      49.398  36.675  30.239  1.00  0.00     0.124 S 
ATOM     83  O   UNL A   1      48.577  37.634  29.507  1.00  0.00    -0.237 OA
ATOM     84  O   UNL A   1      49.284  36.722  31.694  1.00  0.00    -0.237 OA
ATOM     85  O   UNL A   1      50.759  36.500  29.734  1.00  0.00    -0.744 OA
ENDBRANCH  81  82
ENDBRANCH  53  76
BRANCH  65  86
ATOM     86  C   UNL A   1      49.766  26.556  26.747  1.00  0.00    -0.014 A 
ATOM     87  C   UNL A   1      50.189  26.743  25.420  1.00  0.00     0.010 A 
ATOM     88  C   UNL A   1      50.663  25.999  27.678  1.00  0.00     0.010 A 
ATOM     89  C   UNL A   1      51.475  26.358  25.027  1.00  0.00     0.020 A 
ATOM     90  C   UNL A   1      51.960  25.643  27.298  1.00  0.00     0.020 A 
ATOM     91  C   UNL A   1      52.355  25.816  25.971  1.00  0.00     0.054 A 
BRANCH  91  92
ATOM     92  S   UNL A   1      54.036  25.382  25.449  1.00  0.00     0.124 S 
ATOM     93  O   UNL A   1      54.713  25.194  26.730  1.00  0.00    -0.237 OA
ATOM     94  O   UNL A   1      53.824  24.167  24.667  1.00  0.00    -0.237 OA
ATOM     95  O   UNL A   1      54.472  26.545  24.680  1.00  0.00    -0.744 OA
ENDBRANCH  91  92
ENDBRANCH  65  86
ENDBRANCH  39  40
ENDBRANCH  32  34
ENDBRANCH  31  32
ENDBRANCH  30  31
ENDBRANCH  29  30
ENDBRANCH  28  29
ENDBRANCH  27  28
ENDBRANCH   1  27
TORSDOF 25
ENDMDL
MODEL 3
REMARK VINA RESULT:      -9.1      6.786      9.162
REMARK SMILES [NH3+][C@H]1CCCC[C@@H]1C(=O)N1CC(C(=O)OCCOCCOCCOCCOC(=O)c2ccc(-c3c4nc(c(-c5ccc(S(=O)(=O)[O-])cc5)c5ccc([nH]5)c(-c5ccc(S(=O)(=O)[O-])cc5)c5nc(c(-c6ccc(S(=O)(=O)[O-])cc6)c6ccc3[nH]6)C=C5)C=C4)cc2)C1
REMARK SMILES IDX 22 1 21 2 20 3 19 4 18 5 17 6 16 7 15 8 13 9 14 10 12 11
REMARK SMILES IDX 8 12 9 13 10 14 11 15 90 16 7 17 2 18 3 19 4 20 6 21 5 22
REMARK SMILES IDX 1 23 23 27 24 28 25 29 26 30 27 31 28 32 29 33 30 34 31 35
REMARK SMILES IDX 89 36 32 37 88 38 33 39 34 40 35 41 82 42 36 43 87 44 81 45
REMARK SMILES IDX 83 46 37 47 86 48 80 49 79 50 38 52 68 53 49 54 67 55 50 56
REMARK SMILES IDX 53 57 66 58 84 59 51 60 52 61 65 63 85 64 54 65 39 66 40 67
REMARK SMILES IDX 48 68 41 69 47 70 42 71 43 72 44 73 45 74 46 75 69 76 70 77
REMARK SMILES IDX 78 78 71 79 77 80 72 81 73 82 74 83 75 84 76 85 55 86 56 87
REMARK SMILES IDX 64 88 57 89 63 90 58 91 59 92 60 93 61 94 62 95
REMARK H PARENT 1 24 1 25 1 26 83 51 53 62
REMARK Flexibility Score: inf
ROOT
ATOM      1  C   UNL A   1      34.440  31.128  27.250  1.00  0.00     0.188 C 
ENDROOT
BRANCH   1   2
ATOM      2  O   UNL A   1      33.198  30.453  27.101  1.00  0.00    -0.377 OA
BRANCH   2   3
ATOM      3  C   UNL A   1      33.127  29.430  26.130  1.00  0.00     0.188 C 
BRANCH   3   4
ATOM      4  C   UNL A   1      32.106  28.323  26.438  1.00  0.00     0.188 C 
BRANCH   4   5
ATOM      5  O   UNL A   1      31.941  27.221  25.563  1.00  0.00    -0.376 OA
BRANCH   5   6
ATOM      6  C   UNL A   1      31.558  27.372  24.204  1.00  0.00     0.202 C 
BRANCH   6   7
ATOM      7  C   UNL A   1      32.476  27.119  22.991  1.00  0.00     0.261 C 
BRANCH   7   8
ATOM      8  O   UNL A   1      32.257  25.906  22.264  1.00  0.00    -0.463 OA
BRANCH   8   9
ATOM      9  C   UNL A   1      33.061  24.856  22.574  1.00  0.00     0.312 C 
ATOM     10  O   UNL A   1      34.290  24.931  22.599  1.00  0.00    -0.252 OA
BRANCH   9  11
ATOM     11  C   UNL A   1      32.279  23.610  23.006  1.00  0.00     0.138 C 
ATOM     12  C   UNL A   1      32.359  20.558  24.461  1.00  0.00     0.231 C 
ATOM     13  O   UNL A   1      31.620  20.384  25.437  1.00  0.00    -0.274 OA
ATOM     14  N   UNL A   1      32.307  21.732  23.779  1.00  0.00    -0.340 N 
ATOM     15  C   UNL A   1      32.693  23.017  24.352  1.00  0.00     0.136 C 
ATOM     16  C   UNL A   1      32.547  22.195  22.428  1.00  0.00     0.136 C 
BRANCH  12  17
ATOM     17  C   UNL A   1      33.332  19.463  24.048  1.00  0.00     0.136 C 
ATOM     18  C   UNL A   1      32.673  18.155  23.567  1.00  0.00     0.193 C 
ATOM     19  C   UNL A   1      33.726  17.157  23.071  1.00  0.00     0.066 C 
ATOM     20  C   UNL A   1      34.807  16.915  24.124  1.00  0.00     0.006 C 
ATOM     21  C   UNL A   1      34.402  19.204  25.111  1.00  0.00     0.020 C 
ATOM     22  C   UNL A   1      35.448  18.222  24.582  1.00  0.00     0.001 C 
BRANCH  18  23
ATOM     23  N   UNL A   1      31.692  18.394  22.506  1.00  0.00    -0.354 N 
ATOM     24  H   UNL A   1      31.689  19.384  22.262  1.00  0.00     0.344 HD
ATOM     25  H   UNL A   1      30.765  18.121  22.832  1.00  0.00     0.344 HD
ATOM     26  H   UNL A   1      31.940  17.842  21.684  1.00  0.00     0.344 HD
ENDBRANCH  18  23
ENDBRANCH  12  17
ENDBRANCH   9  11
ENDBRANCH   8   9
ENDBRANCH   7   8
ENDBRANCH   6   7
ENDBRANCH   5   6
ENDBRANCH   4   5
ENDBRANCH   3   4
ENDBRANCH   2   3
ENDBRANCH   1   2
BRANCH   1  27
ATOM     27  C   UNL A   1      35.034  31.314  28.662  1.00  0.00     0.188 C 
BRANCH  27  28
ATOM     28  O   UNL A   1      34.618  32.504  29.321  1.00  0.00    -0.376 OA
BRANCH  28  29
ATOM     29  C   UNL A   1      34.586  33.716  28.581  1.00  0.00     0.202 C 
BRANCH  29  30
ATOM     30  C   UNL A   1      33.628  34.817  29.061  1.00  0.00     0.261 C 
BRANCH  30  31
ATOM     31  O   UNL A   1      32.847  34.524  30.229  1.00  0.00    -0.460 OA
BRANCH  31  32
ATOM     32  C   UNL A   1      33.079  35.251  31.343  1.00  0.00     0.338 C 
ATOM     33  O   UNL A   1      32.373  36.134  31.802  1.00  0.00    -0.246 OA
BRANCH  32  34
ATOM     34  C   UNL A   1      34.242  34.654  32.032  1.00  0.00     0.060 A 
ATOM     35  C   UNL A   1      35.388  35.434  32.241  1.00  0.00     0.016 A 
ATOM     36  C   UNL A   1      34.197  33.332  32.480  1.00  0.00     0.016 A 
ATOM     37  C   UNL A   1      36.507  34.881  32.865  1.00  0.00     0.010 A 
ATOM     38  C   UNL A   1      35.325  32.773  33.085  1.00  0.00     0.010 A 
ATOM     39  C   UNL A   1      36.497  33.533  33.247  1.00  0.00    -0.014 A 
BRANCH  39  40
ATOM     40  C   UNL A   1      37.763  32.854  33.619  1.00  0.00     0.031 A 
ATOM     41  C   UNL A   1      38.288  33.057  35.015  1.00  0.00     0.074 A 
ATOM     42  C   UNL A   1      38.433  32.079  32.749  1.00  0.00     0.049 A 
ATOM     43  N   UNL A   1      39.410  32.648  35.548  1.00  0.00    -0.248 NA
ATOM     44  C   UNL A   1      37.433  33.830  35.932  1.00  0.00     0.031 C 
ATOM     45  C   UNL A   1      38.000  31.757  31.390  1.00  0.00     0.029 A 
ATOM     46  N   UNL A   1      39.635  31.428  32.883  1.00  0.00    -0.354 N 
ATOM     47  C   UNL A   1      39.402  33.126  36.854  1.00  0.00     0.074 A 
ATOM     48  C   UNL A   1      38.180  33.879  37.024  1.00  0.00     0.031 C 
ATOM     49  C   UNL A   1      38.932  30.978  30.811  1.00  0.00     0.029 A 
ATOM     50  C   UNL A   1      40.044  30.783  31.741  1.00  0.00     0.049 A 
ATOM     51  H   UNL A   1      40.155  31.425  33.720  1.00  0.00     0.167 HD
ATOM     52  C   UNL A   1      40.327  32.950  37.827  1.00  0.00     0.031 A 
ATOM     53  C   UNL A   1      41.195  30.134  31.469  1.00  0.00     0.031 A 
ATOM     54  C   UNL A   1      41.550  32.215  37.647  1.00  0.00     0.049 A 
ATOM     55  C   UNL A   1      42.256  30.033  32.537  1.00  0.00     0.074 A 
ATOM     56  C   UNL A   1      42.550  31.975  38.572  1.00  0.00     0.029 A 
ATOM     57  N   UNL A   1      41.944  31.610  36.463  1.00  0.00    -0.354 N 
ATOM     58  N   UNL A   1      42.230  30.477  33.772  1.00  0.00    -0.248 NA
ATOM     59  C   UNL A   1      43.501  29.339  32.176  1.00  0.00     0.031 C 
ATOM     60  C   UNL A   1      43.579  31.281  37.928  1.00  0.00     0.029 A 
ATOM     61  C   UNL A   1      43.186  31.021  36.625  1.00  0.00     0.049 A 
ATOM     62  H   UNL A   1      41.418  31.600  35.631  1.00  0.00     0.167 HD
ATOM     63  C   UNL A   1      43.436  30.082  34.344  1.00  0.00     0.074 A 
ATOM     64  C   UNL A   1      44.165  29.357  33.324  1.00  0.00     0.031 C 
ATOM     65  C   UNL A   1      43.897  30.294  35.603  1.00  0.00     0.031 A 
BRANCH  52  66
ATOM     66  C   UNL A   1      40.066  33.599  39.161  1.00  0.00    -0.014 A 
ATOM     67  C   UNL A   1      40.524  34.897  39.445  1.00  0.00     0.010 A 
ATOM     68  C   UNL A   1      39.318  32.909  40.133  1.00  0.00     0.010 A 
ATOM     69  C   UNL A   1      40.274  35.479  40.691  1.00  0.00     0.020 A 
ATOM     70  C   UNL A   1      39.038  33.500  41.368  1.00  0.00     0.020 A 
ATOM     71  C   UNL A   1      39.532  34.775  41.645  1.00  0.00     0.054 A 
BRANCH  71  72
ATOM     72  S   UNL A   1      39.203  35.566  43.244  1.00  0.00     0.124 S 
ATOM     73  O   UNL A   1      39.679  36.928  43.009  1.00  0.00    -0.237 OA
ATOM     74  O   UNL A   1      37.756  35.421  43.378  1.00  0.00    -0.237 OA
ATOM     75  O   UNL A   1      39.997  34.786  44.188  1.00  0.00    -0.744 OA
ENDBRANCH  71  72
ENDBRANCH  52  66
BRANCH  53  76
ATOM     76  C   UNL A   1      41.424  29.548  30.117  1.00  0.00    -0.014 A 
ATOM     77  C   UNL A   1      42.192  30.232  29.159  1.00  0.00     0.010 A 
ATOM     78  C   UNL A   1      40.859  28.305  29.776  1.00  0.00     0.010 A 
ATOM     79  C   UNL A   1      42.375  29.694  27.881  1.00  0.00     0.020 A 
ATOM     80  C   UNL A   1      41.065  27.749  28.512  1.00  0.00     0.020 A 
ATOM     81  C   UNL A   1      41.814  28.453  27.566  1.00  0.00     0.054 A 
BRANCH  81  82
ATOM     82  S   UNL A   1      42.105  27.753  25.918  1.00  0.00     0.124 S 
ATOM     83  O   UNL A   1      42.007  28.933  25.064  1.00  0.00    -0.237 OA
ATOM     84  O   UNL A   1      43.440  27.177  26.054  1.00  0.00    -0.237 OA
ATOM     85  O   UNL A   1      41.026  26.778  25.766  1.00  0.00    -0.744 OA
ENDBRANCH  81  82
ENDBRANCH  53  76
BRANCH  65  86
ATOM     86  C   UNL A   1      45.227  29.693  35.977  1.00  0.00    -0.014 A 
ATOM     87  C   UNL A   1      46.424  30.421  35.855  1.00  0.00     0.010 A 
ATOM     88  C   UNL A   1      45.267  28.402  36.537  1.00  0.00     0.010 A 
ATOM     89  C   UNL A   1      47.638  29.858  36.262  1.00  0.00     0.020 A 
ATOM     90  C   UNL A   1      46.473  27.849  36.975  1.00  0.00     0.020 A 
ATOM     91  C   UNL A   1      47.653  28.577  36.825  1.00  0.00     0.054 A 
BRANCH  91  92
ATOM     92  S   UNL A   1      49.232  27.896  37.401  1.00  0.00     0.124 S 
ATOM     93  O   UNL A   1      50.179  28.483  36.456  1.00  0.00    -0.237 OA
ATOM     94  O   UNL A   1      49.317  28.399  38.769  1.00  0.00    -0.237 OA
ATOM     95  O   UNL A   1      49.051  26.451  37.283  1.00  0.00    -0.744 OA
ENDBRANCH  91  92
ENDBRANCH  65  86
ENDBRANCH  39  40
ENDBRANCH  32  34
ENDBRANCH  31  32
ENDBRANCH  30  31
ENDBRANCH  29  30
ENDBRANCH  28  29
ENDBRANCH  27  28
ENDBRANCH   1  27
TORSDOF 25
ENDMDL
