MODEL 1
REMARK VINA RESULT:      -8.8      0.000      0.000
REMARK SMILES NC(=O)C[C@H](NC(=O)[C@@H]1CCC[NH2+]1)C(=O)OCCOCCOCCOCCOC(=O)c1ccc(-c2c3nc(c(-c4ccc(S(=O)(=O)[O-])cc4)c4ccc([nH]4)c(-c4ccc(S(=O)(=O)[O-])cc4)c4nc(c(-c5ccc(S(=O)(=O)[O-])cc5)c5ccc2[nH]5)C=C4)C=C3)cc1
REMARK SMILES IDX 23 1 22 2 21 3 20 4 19 5 18 6 17 7 16 8 14 9 15 10 5 11 4 12
REMARK SMILES IDX 2 13 1 14 3 17 6 18 7 19 8 21 9 22 10 23 13 24 11 25 12 26
REMARK SMILES IDX 24 29 25 30 26 31 27 32 28 33 29 34 30 35 31 36 32 37 90 38
REMARK SMILES IDX 33 39 89 40 34 41 35 42 36 43 83 44 37 45 88 46 82 47 84 48
REMARK SMILES IDX 38 49 87 50 81 51 80 52 39 54 69 55 50 56 68 57 51 58 54 59
REMARK SMILES IDX 67 60 85 61 52 62 53 63 66 65 86 66 55 67 40 68 41 69 49 70
REMARK SMILES IDX 42 71 48 72 43 73 44 74 45 75 46 76 47 77 70 78 71 79 79 80
REMARK SMILES IDX 72 81 78 82 73 83 74 84 75 85 76 86 77 87 56 88 57 89 65 90
REMARK SMILES IDX 58 91 64 92 59 93 60 94 61 95 62 96 63 97
REMARK H PARENT 1 15 1 16 6 20 13 27 13 28 84 53 54 64
REMARK Flexibility Score: inf
ROOT
ATOM      1  C   UNL A   1      30.864  28.905  22.475  1.00  0.00     0.188 C 
ENDROOT
BRANCH   1   2
ATOM      2  O   UNL A   1      30.511  27.626  21.945  1.00  0.00    -0.377 OA
BRANCH   2   3
ATOM      3  C   UNL A   1      31.540  26.655  21.930  1.00  0.00     0.188 C 
BRANCH   3   4
ATOM      4  C   UNL A   1      31.384  25.539  22.979  1.00  0.00     0.188 C 
BRANCH   4   5
ATOM      5  O   UNL A   1      32.238  25.462  24.112  1.00  0.00    -0.376 OA
BRANCH   5   6
ATOM      6  C   UNL A   1      31.834  25.955  25.381  1.00  0.00     0.202 C 
BRANCH   6   7
ATOM      7  C   UNL A   1      31.709  25.037  26.602  1.00  0.00     0.261 C 
BRANCH   7   8
ATOM      8  O   UNL A   1      31.176  23.732  26.344  1.00  0.00    -0.462 OA
BRANCH   8   9
ATOM      9  C   UNL A   1      31.946  22.684  26.734  1.00  0.00     0.329 C 
ATOM     10  O   UNL A   1      32.511  22.589  27.817  1.00  0.00    -0.250 OA
BRANCH   9  11
ATOM     11  C   UNL A   1      32.155  21.666  25.599  1.00  0.00     0.201 C 
BRANCH  11  12
ATOM     12  C   UNL A   1      33.084  20.542  26.052  1.00  0.00     0.136 C 
BRANCH  12  13
ATOM     13  C   UNL A   1      32.749  19.192  25.466  1.00  0.00     0.220 C 
ATOM     14  N   UNL A   1      32.772  18.144  26.332  1.00  0.00    -0.370 N 
ATOM     15  H   UNL A   1      32.563  17.237  26.012  1.00  0.00     0.159 HD
ATOM     16  H   UNL A   1      32.999  18.292  27.278  1.00  0.00     0.159 HD
ATOM     17  O   UNL A   1      32.448  19.043  24.289  1.00  0.00    -0.275 OA
ENDBRANCH  12  13
ENDBRANCH  11  12
BRANCH  11  18
ATOM     18  N   UNL A   1      32.632  22.240  24.330  1.00  0.00    -0.337 N 
ATOM     19  C   UNL A   1      33.892  22.574  23.917  1.00  0.00     0.278 C 
ATOM     20  H   UNL A   1      31.924  22.412  23.667  1.00  0.00     0.164 HD
ATOM     21  O   UNL A   1      34.022  22.922  22.739  1.00  0.00    -0.268 OA
BRANCH  19  22
ATOM     22  C   UNL A   1      35.134  22.501  24.832  1.00  0.00     0.272 C 
ATOM     23  C   UNL A   1      35.335  23.676  25.779  1.00  0.00     0.081 C 
ATOM     24  N   UNL A   1      36.396  22.316  24.092  1.00  0.00    -0.336 N 
ATOM     25  C   UNL A   1      36.843  23.855  25.834  1.00  0.00     0.068 C 
ATOM     26  C   UNL A   1      37.334  23.358  24.488  1.00  0.00     0.261 C 
ATOM     27  H   UNL A   1      36.218  22.379  23.090  1.00  0.00     0.346 HD
ATOM     28  H   UNL A   1      36.790  21.399  24.304  1.00  0.00     0.346 HD
ENDBRANCH  19  22
ENDBRANCH  11  18
ENDBRANCH   9  11
ENDBRANCH   8   9
ENDBRANCH   7   8
ENDBRANCH   6   7
ENDBRANCH   5   6
ENDBRANCH   4   5
ENDBRANCH   3   4
ENDBRANCH   2   3
ENDBRANCH   1   2
BRANCH   1  29
ATOM     29  C   UNL A   1      32.165  29.010  23.302  1.00  0.00     0.188 C 
BRANCH  29  30
ATOM     30  O   UNL A   1      31.950  29.068  24.707  1.00  0.00    -0.376 OA
BRANCH  30  31
ATOM     31  C   UNL A   1      32.971  29.619  25.525  1.00  0.00     0.202 C 
BRANCH  31  32
ATOM     32  C   UNL A   1      32.549  30.296  26.840  1.00  0.00     0.261 C 
BRANCH  32  33
ATOM     33  O   UNL A   1      33.545  30.380  27.871  1.00  0.00    -0.460 OA
BRANCH  33  34
ATOM     34  C   UNL A   1      34.317  31.484  27.933  1.00  0.00     0.338 C 
ATOM     35  O   UNL A   1      33.956  32.642  27.806  1.00  0.00    -0.246 OA
BRANCH  34  36
ATOM     36  C   UNL A   1      35.657  31.062  28.392  1.00  0.00     0.060 A 
ATOM     37  C   UNL A   1      35.836  29.762  28.886  1.00  0.00     0.016 A 
ATOM     38  C   UNL A   1      36.733  31.950  28.333  1.00  0.00     0.016 A 
ATOM     39  C   UNL A   1      37.085  29.360  29.360  1.00  0.00     0.010 A 
ATOM     40  C   UNL A   1      37.977  31.554  28.828  1.00  0.00     0.010 A 
ATOM     41  C   UNL A   1      38.149  30.271  29.379  1.00  0.00    -0.014 A 
BRANCH  41  42
ATOM     42  C   UNL A   1      39.373  29.978  30.163  1.00  0.00     0.031 A 
ATOM     43  C   UNL A   1      40.241  28.833  29.712  1.00  0.00     0.074 A 
ATOM     44  C   UNL A   1      39.708  30.695  31.250  1.00  0.00     0.049 A 
ATOM     45  N   UNL A   1      41.296  28.316  30.284  1.00  0.00    -0.248 NA
ATOM     46  C   UNL A   1      39.861  28.183  28.446  1.00  0.00     0.031 C 
ATOM     47  C   UNL A   1      38.985  31.861  31.754  1.00  0.00     0.029 A 
ATOM     48  N   UNL A   1      40.743  30.531  32.137  1.00  0.00    -0.354 N 
ATOM     49  C   UNL A   1      41.696  27.271  29.460  1.00  0.00     0.074 A 
ATOM     50  C   UNL A   1      40.756  27.210  28.363  1.00  0.00     0.031 C 
ATOM     51  C   UNL A   1      39.591  32.299  32.872  1.00  0.00     0.029 A 
ATOM     52  C   UNL A   1      40.717  31.419  33.185  1.00  0.00     0.049 A 
ATOM     53  H   UNL A   1      41.439  29.843  32.031  1.00  0.00     0.167 HD
ATOM     54  C   UNL A   1      42.752  26.436  29.601  1.00  0.00     0.031 A 
ATOM     55  C   UNL A   1      41.492  31.491  34.287  1.00  0.00     0.031 A 
ATOM     56  C   UNL A   1      43.673  26.487  30.705  1.00  0.00     0.049 A 
ATOM     57  C   UNL A   1      42.605  30.490  34.474  1.00  0.00     0.074 A 
ATOM     58  C   UNL A   1      44.780  25.690  30.938  1.00  0.00     0.029 A 
ATOM     59  N   UNL A   1      43.590  27.379  31.764  1.00  0.00    -0.354 N 
ATOM     60  N   UNL A   1      42.983  29.516  33.680  1.00  0.00    -0.248 NA
ATOM     61  C   UNL A   1      43.401  30.602  35.706  1.00  0.00     0.031 C 
ATOM     62  C   UNL A   1      45.328  26.057  32.171  1.00  0.00     0.029 A 
ATOM     63  C   UNL A   1      44.608  27.133  32.668  1.00  0.00     0.049 A 
ATOM     64  H   UNL A   1      42.908  28.083  31.858  1.00  0.00     0.167 HD
ATOM     65  C   UNL A   1      44.080  28.924  34.299  1.00  0.00     0.074 A 
ATOM     66  C   UNL A   1      44.312  29.654  35.528  1.00  0.00     0.031 C 
ATOM     67  C   UNL A   1      44.833  27.875  33.884  1.00  0.00     0.031 A 
BRANCH  54  68
ATOM     68  C   UNL A   1      42.942  25.369  28.556  1.00  0.00    -0.014 A 
ATOM     69  C   UNL A   1      42.345  24.102  28.687  1.00  0.00     0.010 A 
ATOM     70  C   UNL A   1      43.703  25.651  27.406  1.00  0.00     0.010 A 
ATOM     71  C   UNL A   1      42.537  23.125  27.707  1.00  0.00     0.020 A 
ATOM     72  C   UNL A   1      43.872  24.688  26.409  1.00  0.00     0.020 A 
ATOM     73  C   UNL A   1      43.300  23.424  26.574  1.00  0.00     0.054 A 
BRANCH  73  74
ATOM     74  S   UNL A   1      43.511  22.145  25.307  1.00  0.00     0.124 S 
ATOM     75  O   UNL A   1      44.831  21.610  25.635  1.00  0.00    -0.237 OA
ATOM     76  O   UNL A   1      42.388  21.249  25.569  1.00  0.00    -0.237 OA
ATOM     77  O   UNL A   1      43.436  22.883  24.049  1.00  0.00    -0.744 OA
ENDBRANCH  73  74
ENDBRANCH  54  68
BRANCH  55  78
ATOM     78  C   UNL A   1      41.231  32.535  35.317  1.00  0.00    -0.014 A 
ATOM     79  C   UNL A   1      41.928  33.756  35.295  1.00  0.00     0.010 A 
ATOM     80  C   UNL A   1      40.290  32.307  36.339  1.00  0.00     0.010 A 
ATOM     81  C   UNL A   1      41.703  34.721  36.282  1.00  0.00     0.020 A 
ATOM     82  C   UNL A   1      40.038  33.281  37.309  1.00  0.00     0.020 A 
ATOM     83  C   UNL A   1      40.755  34.479  37.280  1.00  0.00     0.054 A 
BRANCH  83  84
ATOM     84  S   UNL A   1      40.441  35.766  38.519  1.00  0.00     0.124 S 
ATOM     85  O   UNL A   1      39.649  36.730  37.762  1.00  0.00    -0.237 OA
ATOM     86  O   UNL A   1      39.724  35.031  39.558  1.00  0.00    -0.237 OA
ATOM     87  O   UNL A   1      41.781  36.212  38.894  1.00  0.00    -0.744 OA
ENDBRANCH  83  84
ENDBRANCH  55  78
BRANCH  67  88
ATOM     88  C   UNL A   1      46.014  27.475  34.730  1.00  0.00    -0.014 A 
ATOM     89  C   UNL A   1      45.909  26.483  35.720  1.00  0.00     0.010 A 
ATOM     90  C   UNL A   1      47.273  28.050  34.470  1.00  0.00     0.010 A 
ATOM     91  C   UNL A   1      47.036  26.088  36.447  1.00  0.00     0.020 A 
ATOM     92  C   UNL A   1      48.407  27.637  35.173  1.00  0.00     0.020 A 
ATOM     93  C   UNL A   1      48.278  26.665  36.166  1.00  0.00     0.054 A 
BRANCH  93  94
ATOM     94  S   UNL A   1      49.736  26.088  37.080  1.00  0.00     0.124 S 
ATOM     95  O   UNL A   1      50.015  27.224  37.955  1.00  0.00    -0.237 OA
ATOM     96  O   UNL A   1      49.240  24.887  37.748  1.00  0.00    -0.237 OA
ATOM     97  O   UNL A   1      50.729  25.847  36.035  1.00  0.00    -0.744 OA
ENDBRANCH  93  94
ENDBRANCH  67  88
ENDBRANCH  41  42
ENDBRANCH  34  36
ENDBRANCH  33  34
ENDBRANCH  32  33
ENDBRANCH  31  32
ENDBRANCH  30  31
ENDBRANCH  29  30
ENDBRANCH   1  29
TORSDOF 27
ENDMDL
MODEL 2
REMARK VINA RESULT:      -7.8      1.956      8.563
REMARK SMILES NC(=O)C[C@H](NC(=O)[C@@H]1CCC[NH2+]1)C(=O)OCCOCCOCCOCCOC(=O)c1ccc(-c2c3nc(c(-c4ccc(S(=O)(=O)[O-])cc4)c4ccc([nH]4)c(-c4ccc(S(=O)(=O)[O-])cc4)c4nc(c(-c5ccc(S(=O)(=O)[O-])cc5)c5ccc2[nH]5)C=C4)C=C3)cc1
REMARK SMILES IDX 23 1 22 2 21 3 20 4 19 5 18 6 17 7 16 8 14 9 15 10 5 11 4 12
REMARK SMILES IDX 2 13 1 14 3 17 6 18 7 19 8 21 9 22 10 23 13 24 11 25 12 26
REMARK SMILES IDX 24 29 25 30 26 31 27 32 28 33 29 34 30 35 31 36 32 37 90 38
REMARK SMILES IDX 33 39 89 40 34 41 35 42 36 43 83 44 37 45 88 46 82 47 84 48
REMARK SMILES IDX 38 49 87 50 81 51 80 52 39 54 69 55 50 56 68 57 51 58 54 59
REMARK SMILES IDX 67 60 85 61 52 62 53 63 66 65 86 66 55 67 40 68 41 69 49 70
REMARK SMILES IDX 42 71 48 72 43 73 44 74 45 75 46 76 47 77 70 78 71 79 79 80
REMARK SMILES IDX 72 81 78 82 73 83 74 84 75 85 76 86 77 87 56 88 57 89 65 90
REMARK SMILES IDX 58 91 64 92 59 93 60 94 61 95 62 96 63 97
REMARK H PARENT 1 15 1 16 6 20 13 27 13 28 84 53 54 64
REMARK Flexibility Score: inf
ROOT
ATOM      1  C   UNL A   1      30.967  31.399  25.970  1.00  0.00     0.188 C 
ENDROOT
BRANCH   1   2
ATOM      2  O   UNL A   1      31.290  30.320  25.092  1.00  0.00    -0.377 OA
BRANCH   2   3
ATOM      3  C   UNL A   1      30.290  29.962  24.157  1.00  0.00     0.188 C 
BRANCH   3   4
ATOM      4  C   UNL A   1      30.785  29.080  22.996  1.00  0.00     0.188 C 
BRANCH   4   5
ATOM      5  O   UNL A   1      30.098  27.895  22.620  1.00  0.00    -0.376 OA
BRANCH   5   6
ATOM      6  C   UNL A   1      29.404  27.105  23.576  1.00  0.00     0.202 C 
BRANCH   6   7
ATOM      7  C   UNL A   1      30.100  25.986  24.358  1.00  0.00     0.261 C 
BRANCH   7   8
ATOM      8  O   UNL A   1      31.172  25.326  23.673  1.00  0.00    -0.462 OA
BRANCH   8   9
ATOM      9  C   UNL A   1      32.417  25.824  23.890  1.00  0.00     0.329 C 
ATOM     10  O   UNL A   1      33.238  26.074  23.016  1.00  0.00    -0.250 OA
BRANCH   9  11
ATOM     11  C   UNL A   1      32.750  25.913  25.389  1.00  0.00     0.201 C 
BRANCH  11  12
ATOM     12  C   UNL A   1      33.931  26.854  25.621  1.00  0.00     0.136 C 
BRANCH  12  13
ATOM     13  C   UNL A   1      33.576  28.116  26.367  1.00  0.00     0.220 C 
ATOM     14  N   UNL A   1      34.175  29.256  25.931  1.00  0.00    -0.370 N 
ATOM     15  H   UNL A   1      33.986  30.113  26.376  1.00  0.00     0.159 HD
ATOM     16  H   UNL A   1      34.799  29.224  25.170  1.00  0.00     0.159 HD
ATOM     17  O   UNL A   1      32.778  28.129  27.296  1.00  0.00    -0.275 OA
ENDBRANCH  12  13
ENDBRANCH  11  12
BRANCH  11  18
ATOM     18  N   UNL A   1      32.993  24.620  26.050  1.00  0.00    -0.337 N 
ATOM     19  C   UNL A   1      34.052  23.759  25.969  1.00  0.00     0.278 C 
ATOM     20  H   UNL A   1      32.271  24.327  26.653  1.00  0.00     0.164 HD
ATOM     21  O   UNL A   1      34.051  22.795  26.741  1.00  0.00    -0.268 OA
BRANCH  19  22
ATOM     22  C   UNL A   1      35.237  23.958  24.999  1.00  0.00     0.272 C 
ATOM     23  C   UNL A   1      35.154  23.202  23.681  1.00  0.00     0.081 C 
ATOM     24  N   UNL A   1      36.546  23.643  25.602  1.00  0.00    -0.336 N 
ATOM     25  C   UNL A   1      36.593  22.808  23.388  1.00  0.00     0.068 C 
ATOM     26  C   UNL A   1      37.238  22.682  24.754  1.00  0.00     0.261 C 
ATOM     27  H   UNL A   1      36.408  23.244  26.530  1.00  0.00     0.346 HD
ATOM     28  H   UNL A   1      37.102  24.494  25.683  1.00  0.00     0.346 HD
ENDBRANCH  19  22
ENDBRANCH  11  18
ENDBRANCH   9  11
ENDBRANCH   8   9
ENDBRANCH   7   8
ENDBRANCH   6   7
ENDBRANCH   5   6
ENDBRANCH   4   5
ENDBRANCH   3   4
ENDBRANCH   2   3
ENDBRANCH   1   2
BRANCH   1  29
ATOM     29  C   UNL A   1      32.090  31.954  26.877  1.00  0.00     0.188 C 
BRANCH  29  30
ATOM     30  O   UNL A   1      31.868  33.289  27.314  1.00  0.00    -0.376 OA
BRANCH  30  31
ATOM     31  C   UNL A   1      32.919  33.962  27.991  1.00  0.00     0.202 C 
BRANCH  31  32
ATOM     32  C   UNL A   1      34.308  33.300  27.996  1.00  0.00     0.261 C 
BRANCH  32  33
ATOM     33  O   UNL A   1      34.473  32.152  28.843  1.00  0.00    -0.460 OA
BRANCH  33  34
ATOM     34  C   UNL A   1      34.909  32.340  30.105  1.00  0.00     0.338 C 
ATOM     35  O   UNL A   1      34.302  32.862  31.023  1.00  0.00    -0.246 OA
BRANCH  34  36
ATOM     36  C   UNL A   1      36.188  31.610  30.243  1.00  0.00     0.060 A 
ATOM     37  C   UNL A   1      36.241  30.468  31.054  1.00  0.00     0.016 A 
ATOM     38  C   UNL A   1      37.328  32.055  29.572  1.00  0.00     0.016 A 
ATOM     39  C   UNL A   1      37.449  29.789  31.227  1.00  0.00     0.010 A 
ATOM     40  C   UNL A   1      38.540  31.389  29.764  1.00  0.00     0.010 A 
ATOM     41  C   UNL A   1      38.614  30.277  30.622  1.00  0.00    -0.014 A 
BRANCH  41  42
ATOM     42  C   UNL A   1      39.944  29.776  31.044  1.00  0.00     0.031 A 
ATOM     43  C   UNL A   1      40.649  30.499  32.160  1.00  0.00     0.074 A 
ATOM     44  C   UNL A   1      40.523  28.716  30.452  1.00  0.00     0.049 A 
ATOM     45  N   UNL A   1      41.854  30.323  32.634  1.00  0.00    -0.248 NA
ATOM     46  C   UNL A   1      39.890  31.571  32.827  1.00  0.00     0.031 C 
ATOM     47  C   UNL A   1      39.921  27.895  29.403  1.00  0.00     0.029 A 
ATOM     48  N   UNL A   1      41.763  28.159  30.646  1.00  0.00    -0.354 N 
ATOM     49  C   UNL A   1      42.005  31.269  33.640  1.00  0.00     0.074 A 
ATOM     50  C   UNL A   1      40.779  32.035  33.692  1.00  0.00     0.031 C 
ATOM     51  C   UNL A   1      40.800  26.947  29.034  1.00  0.00     0.029 A 
ATOM     52  C   UNL A   1      42.041  27.121  29.789  1.00  0.00     0.049 A 
ATOM     53  H   UNL A   1      42.392  28.472  31.335  1.00  0.00     0.167 HD
ATOM     54  C   UNL A   1      43.067  31.482  34.452  1.00  0.00     0.031 A 
ATOM     55  C   UNL A   1      43.178  26.416  29.613  1.00  0.00     0.031 A 
ATOM     56  C   UNL A   1      44.291  30.731  34.384  1.00  0.00     0.049 A 
ATOM     57  C   UNL A   1      44.384  26.734  30.462  1.00  0.00     0.074 A 
ATOM     58  C   UNL A   1      45.425  30.865  35.166  1.00  0.00     0.029 A 
ATOM     59  N   UNL A   1      44.545  29.712  33.478  1.00  0.00    -0.354 N 
ATOM     60  N   UNL A   1      44.509  27.621  31.420  1.00  0.00    -0.248 NA
ATOM     61  C   UNL A   1      45.602  25.951  30.208  1.00  0.00     0.031 C 
ATOM     62  C   UNL A   1      46.389  29.971  34.689  1.00  0.00     0.029 A 
ATOM     63  C   UNL A   1      45.829  29.228  33.661  1.00  0.00     0.049 A 
ATOM     64  H   UNL A   1      43.907  29.382  32.804  1.00  0.00     0.167 HD
ATOM     65  C   UNL A   1      45.805  27.477  31.906  1.00  0.00     0.074 A 
ATOM     66  C   UNL A   1      46.422  26.412  31.143  1.00  0.00     0.031 C 
ATOM     67  C   UNL A   1      46.427  28.160  32.900  1.00  0.00     0.031 A 
BRANCH  54  68
ATOM     68  C   UNL A   1      42.964  32.600  35.455  1.00  0.00    -0.014 A 
ATOM     69  C   UNL A   1      43.324  33.918  35.121  1.00  0.00     0.010 A 
ATOM     70  C   UNL A   1      42.466  32.334  36.744  1.00  0.00     0.010 A 
ATOM     71  C   UNL A   1      43.225  34.941  36.068  1.00  0.00     0.020 A 
ATOM     72  C   UNL A   1      42.336  33.358  37.685  1.00  0.00     0.020 A 
ATOM     73  C   UNL A   1      42.731  34.654  37.345  1.00  0.00     0.054 A 
BRANCH  73  74
ATOM     74  S   UNL A   1      42.590  36.005  38.545  1.00  0.00     0.124 S 
ATOM     75  O   UNL A   1      42.523  35.278  39.811  1.00  0.00    -0.237 OA
ATOM     76  O   UNL A   1      43.819  36.761  38.320  1.00  0.00    -0.237 OA
ATOM     77  O   UNL A   1      41.360  36.690  38.156  1.00  0.00    -0.744 OA
ENDBRANCH  73  74
ENDBRANCH  54  68
BRANCH  55  78
ATOM     78  C   UNL A   1      43.244  25.353  28.571  1.00  0.00    -0.014 A 
ATOM     79  C   UNL A   1      43.638  25.659  27.257  1.00  0.00     0.010 A 
ATOM     80  C   UNL A   1      42.897  24.026  28.886  1.00  0.00     0.010 A 
ATOM     81  C   UNL A   1      43.669  24.664  26.274  1.00  0.00     0.020 A 
ATOM     82  C   UNL A   1      42.957  23.022  27.916  1.00  0.00     0.020 A 
ATOM     83  C   UNL A   1      43.333  23.350  26.612  1.00  0.00     0.054 A 
BRANCH  83  84
ATOM     84  S   UNL A   1      43.432  22.067  25.334  1.00  0.00     0.124 S 
ATOM     85  O   UNL A   1      44.658  21.366  25.701  1.00  0.00    -0.237 OA
ATOM     86  O   UNL A   1      42.190  21.325  25.541  1.00  0.00    -0.237 OA
ATOM     87  O   UNL A   1      43.493  22.829  24.089  1.00  0.00    -0.744 OA
ENDBRANCH  83  84
ENDBRANCH  55  78
BRANCH  67  88
ATOM     88  C   UNL A   1      47.831  27.751  33.265  1.00  0.00    -0.014 A 
ATOM     89  C   UNL A   1      48.952  28.418  32.741  1.00  0.00     0.010 A 
ATOM     90  C   UNL A   1      48.025  26.732  34.217  1.00  0.00     0.010 A 
ATOM     91  C   UNL A   1      50.241  28.058  33.146  1.00  0.00     0.020 A 
ATOM     92  C   UNL A   1      49.309  26.391  34.647  1.00  0.00     0.020 A 
ATOM     93  C   UNL A   1      50.411  27.050  34.099  1.00  0.00     0.054 A 
BRANCH  93  94
ATOM     94  S   UNL A   1      52.091  26.647  34.655  1.00  0.00     0.124 S 
ATOM     95  O   UNL A   1      52.098  27.182  36.013  1.00  0.00    -0.237 OA
ATOM     96  O   UNL A   1      52.120  25.190  34.554  1.00  0.00    -0.237 OA
ATOM     97  O   UNL A   1      52.950  27.349  33.703  1.00  0.00    -0.744 OA
ENDBRANCH  93  94
ENDBRANCH  67  88
ENDBRANCH  41  42
ENDBRANCH  34  36
ENDBRANCH  33  34
ENDBRANCH  32  33
ENDBRANCH  31  32
ENDBRANCH  30  31
ENDBRANCH  29  30
ENDBRANCH   1  29
TORSDOF 27
ENDMDL
MODEL 3
REMARK VINA RESULT:      -7.7      5.262      6.736
REMARK SMILES NC(=O)C[C@H](NC(=O)[C@@H]1CCC[NH2+]1)C(=O)OCCOCCOCCOCCOC(=O)c1ccc(-c2c3nc(c(-c4ccc(S(=O)(=O)[O-])cc4)c4ccc([nH]4)c(-c4ccc(S(=O)(=O)[O-])cc4)c4nc(c(-c5ccc(S(=O)(=O)[O-])cc5)c5ccc2[nH]5)C=C4)C=C3)cc1
REMARK SMILES IDX 23 1 22 2 21 3 20 4 19 5 18 6 17 7 16 8 14 9 15 10 5 11 4 12
REMARK SMILES IDX 2 13 1 14 3 17 6 18 7 19 8 21 9 22 10 23 13 24 11 25 12 26
REMARK SMILES IDX 24 29 25 30 26 31 27 32 28 33 29 34 30 35 31 36 32 37 90 38
REMARK SMILES IDX 33 39 89 40 34 41 35 42 36 43 83 44 37 45 88 46 82 47 84 48
REMARK SMILES IDX 38 49 87 50 81 51 80 52 39 54 69 55 50 56 68 57 51 58 54 59
REMARK SMILES IDX 67 60 85 61 52 62 53 63 66 65 86 66 55 67 40 68 41 69 49 70
REMARK SMILES IDX 42 71 48 72 43 73 44 74 45 75 46 76 47 77 70 78 71 79 79 80
REMARK SMILES IDX 72 81 78 82 73 83 74 84 75 85 76 86 77 87 56 88 57 89 65 90
REMARK SMILES IDX 58 91 64 92 59 93 60 94 61 95 62 96 63 97
REMARK H PARENT 1 15 1 16 6 20 13 27 13 28 84 53 54 64
REMARK Flexibility Score: inf
ROOT
ATOM      1  C   UNL A   1      31.996  28.580  22.934  1.00  0.00     0.188 C 
ENDROOT
BRANCH   1   2
ATOM      2  O   UNL A   1      32.381  27.298  22.438  1.00  0.00    -0.377 OA
BRANCH   2   3
ATOM      3  C   UNL A   1      32.834  26.369  23.405  1.00  0.00     0.188 C 
BRANCH   3   4
ATOM      4  C   UNL A   1      31.721  25.524  24.051  1.00  0.00     0.188 C 
BRANCH   4   5
ATOM      5  O   UNL A   1      31.170  25.866  25.315  1.00  0.00    -0.376 OA
BRANCH   5   6
ATOM      6  C   UNL A   1      29.923  25.340  25.747  1.00  0.00     0.202 C 
BRANCH   6   7
ATOM      7  C   UNL A   1      29.837  24.228  26.799  1.00  0.00     0.261 C 
BRANCH   7   8
ATOM      8  O   UNL A   1      30.220  22.921  26.353  1.00  0.00    -0.462 OA
BRANCH   8   9
ATOM      9  C   UNL A   1      31.536  22.611  26.472  1.00  0.00     0.329 C 
ATOM     10  O   UNL A   1      32.318  23.143  27.251  1.00  0.00    -0.250 OA
BRANCH   9  11
ATOM     11  C   UNL A   1      31.989  21.597  25.407  1.00  0.00     0.201 C 
BRANCH  11  12
ATOM     12  C   UNL A   1      33.032  20.642  25.984  1.00  0.00     0.136 C 
BRANCH  12  13
ATOM     13  C   UNL A   1      32.976  19.248  25.411  1.00  0.00     0.220 C 
ATOM     14  N   UNL A   1      32.765  18.244  26.304  1.00  0.00    -0.370 N 
ATOM     15  H   UNL A   1      32.719  17.312  25.994  1.00  0.00     0.159 HD
ATOM     16  H   UNL A   1      32.660  18.450  27.261  1.00  0.00     0.159 HD
ATOM     17  O   UNL A   1      33.087  19.024  24.212  1.00  0.00    -0.275 OA
ENDBRANCH  12  13
ENDBRANCH  11  12
BRANCH  11  18
ATOM     18  N   UNL A   1      32.482  22.190  24.152  1.00  0.00    -0.337 N 
ATOM     19  C   UNL A   1      33.741  22.564  23.775  1.00  0.00     0.278 C 
ATOM     20  H   UNL A   1      31.787  22.343  23.471  1.00  0.00     0.164 HD
ATOM     21  O   UNL A   1      33.892  22.921  22.601  1.00  0.00    -0.268 OA
BRANCH  19  22
ATOM     22  C   UNL A   1      34.959  22.527  24.722  1.00  0.00     0.272 C 
ATOM     23  C   UNL A   1      35.221  23.794  25.524  1.00  0.00     0.081 C 
ATOM     24  N   UNL A   1      36.220  22.174  24.042  1.00  0.00    -0.336 N 
ATOM     25  C   UNL A   1      36.736  23.883  25.595  1.00  0.00     0.068 C 
ATOM     26  C   UNL A   1      37.216  23.195  24.333  1.00  0.00     0.261 C 
ATOM     27  H   UNL A   1      36.063  22.124  23.035  1.00  0.00     0.346 HD
ATOM     28  H   UNL A   1      36.549  21.267  24.374  1.00  0.00     0.346 HD
ENDBRANCH  19  22
ENDBRANCH  11  18
ENDBRANCH   9  11
ENDBRANCH   8   9
ENDBRANCH   7   8
ENDBRANCH   6   7
ENDBRANCH   5   6
ENDBRANCH   4   5
ENDBRANCH   3   4
ENDBRANCH   2   3
ENDBRANCH   1   2
BRANCH   1  29
ATOM     29  C   UNL A   1      32.950  29.289  23.923  1.00  0.00     0.188 C 
BRANCH  29  30
ATOM     30  O   UNL A   1      32.394  29.485  25.217  1.00  0.00    -0.376 OA
BRANCH  30  31
ATOM     31  C   UNL A   1      33.278  29.720  26.303  1.00  0.00     0.202 C 
BRANCH  31  32
ATOM     32  C   UNL A   1      33.061  30.992  27.141  1.00  0.00     0.261 C 
BRANCH  32  33
ATOM     33  O   UNL A   1      34.083  31.317  28.097  1.00  0.00    -0.460 OA
BRANCH  33  34
ATOM     34  C   UNL A   1      34.508  32.594  28.176  1.00  0.00     0.338 C 
ATOM     35  O   UNL A   1      33.866  33.600  27.928  1.00  0.00    -0.246 OA
BRANCH  34  36
ATOM     36  C   UNL A   1      35.838  32.578  28.823  1.00  0.00     0.060 A 
ATOM     37  C   UNL A   1      36.134  33.531  29.807  1.00  0.00     0.016 A 
ATOM     38  C   UNL A   1      36.786  31.621  28.456  1.00  0.00     0.016 A 
ATOM     39  C   UNL A   1      37.398  33.555  30.399  1.00  0.00     0.010 A 
ATOM     40  C   UNL A   1      38.057  31.660  29.032  1.00  0.00     0.010 A 
ATOM     41  C   UNL A   1      38.381  32.650  29.978  1.00  0.00    -0.014 A 
BRANCH  41  42
ATOM     42  C   UNL A   1      39.801  32.860  30.349  1.00  0.00     0.031 A 
ATOM     43  C   UNL A   1      40.423  31.901  31.329  1.00  0.00     0.074 A 
ATOM     44  C   UNL A   1      40.524  33.875  29.843  1.00  0.00     0.049 A 
ATOM     45  N   UNL A   1      41.604  31.934  31.888  1.00  0.00    -0.248 NA
ATOM     46  C   UNL A   1      39.594  30.754  31.737  1.00  0.00     0.031 C 
ATOM     47  C   UNL A   1      40.057  34.834  28.844  1.00  0.00     0.029 A 
ATOM     48  N   UNL A   1      41.808  34.274  30.119  1.00  0.00    -0.354 N 
ATOM     49  C   UNL A   1      41.655  30.825  32.724  1.00  0.00     0.074 A 
ATOM     50  C   UNL A   1      40.378  30.154  32.620  1.00  0.00     0.031 C 
ATOM     51  C   UNL A   1      41.039  35.722  28.601  1.00  0.00     0.029 A 
ATOM     52  C   UNL A   1      42.184  35.419  29.459  1.00  0.00     0.049 A 
ATOM     53  H   UNL A   1      42.404  33.785  30.731  1.00  0.00     0.167 HD
ATOM     54  C   UNL A   1      42.674  30.400  33.507  1.00  0.00     0.031 A 
ATOM     55  C   UNL A   1      43.310  36.155  29.562  1.00  0.00     0.031 A 
ATOM     56  C   UNL A   1      43.935  31.081  33.622  1.00  0.00     0.049 A 
ATOM     57  C   UNL A   1      44.395  35.718  30.514  1.00  0.00     0.074 A 
ATOM     58  C   UNL A   1      45.035  30.729  34.384  1.00  0.00     0.029 A 
ATOM     59  N   UNL A   1      44.262  32.257  32.964  1.00  0.00    -0.354 N 
ATOM     60  N   UNL A   1      44.438  34.659  31.288  1.00  0.00    -0.248 NA
ATOM     61  C   UNL A   1      45.588  36.573  30.603  1.00  0.00     0.031 C 
ATOM     62  C   UNL A   1      46.003  31.728  34.237  1.00  0.00     0.029 A 
ATOM     63  C   UNL A   1      45.536  32.661  33.325  1.00  0.00     0.049 A 
ATOM     64  H   UNL A   1      43.675  32.735  32.334  1.00  0.00     0.167 HD
ATOM     65  C   UNL A   1      45.674  34.704  31.926  1.00  0.00     0.074 A 
ATOM     66  C   UNL A   1      46.353  35.888  31.442  1.00  0.00     0.031 C 
ATOM     67  C   UNL A   1      46.203  33.838  32.827  1.00  0.00     0.031 A 
BRANCH  54  68
ATOM     68  C   UNL A   1      42.448  29.162  34.333  1.00  0.00    -0.014 A 
ATOM     69  C   UNL A   1      42.003  29.242  35.665  1.00  0.00     0.010 A 
ATOM     70  C   UNL A   1      42.652  27.894  33.755  1.00  0.00     0.010 A 
ATOM     71  C   UNL A   1      41.803  28.080  36.415  1.00  0.00     0.020 A 
ATOM     72  C   UNL A   1      42.424  26.729  34.491  1.00  0.00     0.020 A 
ATOM     73  C   UNL A   1      42.016  26.830  35.823  1.00  0.00     0.054 A 
BRANCH  73  74
ATOM     74  S   UNL A   1      41.725  25.340  36.813  1.00  0.00     0.124 S 
ATOM     75  O   UNL A   1      42.919  25.299  37.654  1.00  0.00    -0.237 OA
ATOM     76  O   UNL A   1      40.479  25.656  37.507  1.00  0.00    -0.237 OA
ATOM     77  O   UNL A   1      41.628  24.275  35.819  1.00  0.00    -0.744 OA
ENDBRANCH  73  74
ENDBRANCH  54  68
BRANCH  55  78
ATOM     78  C   UNL A   1      43.463  37.402  28.759  1.00  0.00    -0.014 A 
ATOM     79  C   UNL A   1      44.113  37.377  27.513  1.00  0.00     0.010 A 
ATOM     80  C   UNL A   1      42.971  38.627  29.246  1.00  0.00     0.010 A 
ATOM     81  C   UNL A   1      44.283  38.555  26.777  1.00  0.00     0.020 A 
ATOM     82  C   UNL A   1      43.109  39.800  28.500  1.00  0.00     0.020 A 
ATOM     83  C   UNL A   1      43.775  39.758  27.274  1.00  0.00     0.054 A 
BRANCH  83  84
ATOM     84  S   UNL A   1      43.959  41.263  26.278  1.00  0.00     0.124 S 
ATOM     85  O   UNL A   1      42.581  41.543  25.891  1.00  0.00    -0.237 OA
ATOM     86  O   UNL A   1      44.555  42.196  27.231  1.00  0.00    -0.237 OA
ATOM     87  O   UNL A   1      44.843  40.845  25.191  1.00  0.00    -0.744 OA
ENDBRANCH  83  84
ENDBRANCH  55  78
BRANCH  67  88
ATOM     88  C   UNL A   1      47.604  34.099  33.317  1.00  0.00    -0.014 A 
ATOM     89  C   UNL A   1      48.730  33.671  32.593  1.00  0.00     0.010 A 
ATOM     90  C   UNL A   1      47.793  34.863  34.486  1.00  0.00     0.010 A 
ATOM     91  C   UNL A   1      50.017  33.983  33.040  1.00  0.00     0.020 A 
ATOM     92  C   UNL A   1      49.076  35.202  34.918  1.00  0.00     0.020 A 
ATOM     93  C   UNL A   1      50.182  34.750  34.197  1.00  0.00     0.054 A 
BRANCH  93  94
ATOM     94  S   UNL A   1      51.863  35.194  34.719  1.00  0.00     0.124 S 
ATOM     95  O   UNL A   1      51.741  35.183  36.175  1.00  0.00    -0.237 OA
ATOM     96  O   UNL A   1      52.669  34.118  34.148  1.00  0.00    -0.237 OA
ATOM     97  O   UNL A   1      52.076  36.510  34.121  1.00  0.00    -0.744 OA
ENDBRANCH  93  94
ENDBRANCH  67  88
ENDBRANCH  41  42
ENDBRANCH  34  36
ENDBRANCH  33  34
ENDBRANCH  32  33
ENDBRANCH  31  32
ENDBRANCH  30  31
ENDBRANCH  29  30
ENDBRANCH   1  29
TORSDOF 27
ENDMDL
