MODEL 1
REMARK VINA RESULT:     -10.4      0.000      0.000
REMARK SMILES CC(=O)Nc1cnc(N2CC=C(c3ccccc3C)CC2)c(C(=O)OCCOCCOCCOCCOC(=O)c2ccc(-c3c4nc(c(-c5ccc(S(=O)(=O)[O-])cc5)c5ccc([nH]5)c(-c5ccc(S(=O)(=O)[O-])cc5)c5nc(c(-c6ccc(S(=O)(=O)[O-])cc6)c6ccc3[nH]6)C=C5)C=C4)cc2)c1
REMARK SMILES IDX 32 1 31 2 30 3 29 4 28 5 27 6 26 7 25 8 23 9 24 10 22 11
REMARK SMILES IDX 5 12 6 13 100 14 7 15 8 16 4 17 1 18 2 19 3 20 9 22 10 23
REMARK SMILES IDX 21 24 11 25 20 26 12 27 13 28 14 29 18 30 15 31 17 32 19 33
REMARK SMILES IDX 16 34 33 35 34 36 35 37 36 38 37 39 38 40 39 41 40 42 41 43
REMARK SMILES IDX 99 44 42 45 98 46 43 47 44 48 45 49 92 50 46 51 97 52 91 53
REMARK SMILES IDX 93 54 47 55 96 56 90 57 89 58 48 60 78 61 59 62 77 63 60 64
REMARK SMILES IDX 63 65 76 66 94 67 61 68 62 69 75 71 95 72 64 73 49 74 50 75
REMARK SMILES IDX 58 76 51 77 57 78 52 79 53 80 54 81 55 82 56 83 79 84 80 85
REMARK SMILES IDX 88 86 81 87 87 88 82 89 83 90 84 91 85 92 86 93 65 94 66 95
REMARK SMILES IDX 74 96 67 97 73 98 68 99 69 100 70 101 71 102 72 103
REMARK H PARENT 4 21 93 59 63 70
REMARK Flexibility Score: inf
ROOT
ATOM      1  C   UNL A   1      41.027  21.708  27.295  1.00  0.00     0.188 C 
ENDROOT
BRANCH   1   2
ATOM      2  O   UNL A   1      40.534  22.868  27.964  1.00  0.00    -0.377 OA
BRANCH   2   3
ATOM      3  C   UNL A   1      40.759  24.100  27.341  1.00  0.00     0.188 C 
BRANCH   3   4
ATOM      4  C   UNL A   1      39.577  25.009  27.003  1.00  0.00     0.188 C 
BRANCH   4   5
ATOM      5  O   UNL A   1      38.190  24.724  26.978  1.00  0.00    -0.376 OA
BRANCH   5   6
ATOM      6  C   UNL A   1      37.750  23.807  25.997  1.00  0.00     0.202 C 
BRANCH   6   7
ATOM      7  C   UNL A   1      36.381  23.915  25.352  1.00  0.00     0.261 C 
BRANCH   7   8
ATOM      8  O   UNL A   1      36.281  22.975  24.315  1.00  0.00    -0.460 OA
BRANCH   8   9
ATOM      9  C   UNL A   1      35.070  22.944  23.755  1.00  0.00     0.342 C 
ATOM     10  O   UNL A   1      34.677  23.464  22.724  1.00  0.00    -0.246 OA
BRANCH   9  11
ATOM     11  C   UNL A   1      34.368  21.951  24.524  1.00  0.00     0.104 A 
ATOM     12  C   UNL A   1      34.217  19.596  25.008  1.00  0.00     0.060 A 
ATOM     13  C   UNL A   1      32.979  19.929  25.555  1.00  0.00     0.139 A 
ATOM     14  C   UNL A   1      34.914  20.648  24.474  1.00  0.00     0.047 A 
ATOM     15  N   UNL A   1      32.408  21.179  25.566  1.00  0.00    -0.236 NA
ATOM     16  C   UNL A   1      33.088  22.221  25.029  1.00  0.00     0.143 A 
BRANCH  12  17
ATOM     17  N   UNL A   1      34.636  18.252  24.958  1.00  0.00    -0.325 N 
ATOM     18  C   UNL A   1      33.452  17.380  22.918  1.00  0.00     0.114 C 
ATOM     19  C   UNL A   1      34.298  17.200  24.150  1.00  0.00     0.221 C 
ATOM     20  O   UNL A   1      34.766  16.088  24.421  1.00  0.00    -0.275 OA
ATOM     21  H   UNL A   1      35.308  18.024  25.641  1.00  0.00     0.169 HD
ENDBRANCH  12  17
BRANCH  16  22
ATOM     22  N   UNL A   1      32.346  23.385  24.752  1.00  0.00    -0.352 N 
ATOM     23  C   UNL A   1      32.910  24.711  25.028  1.00  0.00     0.146 C 
ATOM     24  C   UNL A   1      31.598  23.276  23.503  1.00  0.00     0.123 C 
ATOM     25  C   UNL A   1      31.974  25.807  24.583  1.00  0.00    -0.002 C 
ATOM     26  C   UNL A   1      30.518  24.302  23.262  1.00  0.00     0.057 C 
ATOM     27  C   UNL A   1      30.883  25.634  23.816  1.00  0.00    -0.041 C 
BRANCH  27  28
ATOM     28  C   UNL A   1      29.944  26.734  23.562  1.00  0.00    -0.020 A 
ATOM     29  C   UNL A   1      28.591  26.575  23.897  1.00  0.00     0.008 A 
ATOM     30  C   UNL A   1      30.378  27.926  22.941  1.00  0.00    -0.044 A 
ATOM     31  C   UNL A   1      27.668  27.575  23.595  1.00  0.00     0.001 A 
ATOM     32  C   UNL A   1      29.437  28.927  22.660  1.00  0.00     0.004 A 
ATOM     33  C   UNL A   1      31.818  28.181  22.587  1.00  0.00     0.045 C 
ATOM     34  C   UNL A   1      28.090  28.745  22.970  1.00  0.00     0.000 A 
ENDBRANCH  27  28
ENDBRANCH  16  22
ENDBRANCH   9  11
ENDBRANCH   8   9
ENDBRANCH   7   8
ENDBRANCH   6   7
ENDBRANCH   5   6
ENDBRANCH   4   5
ENDBRANCH   3   4
ENDBRANCH   2   3
ENDBRANCH   1   2
BRANCH   1  35
ATOM     35  C   UNL A   1      41.307  21.754  25.799  1.00  0.00     0.188 C 
BRANCH  35  36
ATOM     36  O   UNL A   1      42.633  21.269  25.595  1.00  0.00    -0.376 OA
BRANCH  36  37
ATOM     37  C   UNL A   1      43.562  22.183  25.042  1.00  0.00     0.202 C 
BRANCH  37  38
ATOM     38  C   UNL A   1      44.888  22.253  25.805  1.00  0.00     0.261 C 
BRANCH  38  39
ATOM     39  O   UNL A   1      45.423  23.599  25.799  1.00  0.00    -0.460 OA
BRANCH  39  40
ATOM     40  C   UNL A   1      44.725  24.560  26.482  1.00  0.00     0.338 C 
ATOM     41  O   UNL A   1      44.035  25.400  25.931  1.00  0.00    -0.246 OA
BRANCH  40  42
ATOM     42  C   UNL A   1      44.795  24.349  27.959  1.00  0.00     0.060 A 
ATOM     43  C   UNL A   1      43.803  23.682  28.695  1.00  0.00     0.016 A 
ATOM     44  C   UNL A   1      45.831  24.927  28.655  1.00  0.00     0.016 A 
ATOM     45  C   UNL A   1      43.731  23.784  30.114  1.00  0.00     0.010 A 
ATOM     46  C   UNL A   1      45.726  25.053  30.027  1.00  0.00     0.010 A 
ATOM     47  C   UNL A   1      44.659  24.554  30.804  1.00  0.00    -0.014 A 
BRANCH  47  48
ATOM     48  C   UNL A   1      44.620  25.010  32.247  1.00  0.00     0.031 A 
ATOM     49  C   UNL A   1      44.029  26.405  32.481  1.00  0.00     0.074 A 
ATOM     50  C   UNL A   1      44.679  24.053  33.234  1.00  0.00     0.049 A 
ATOM     51  N   UNL A   1      43.654  26.918  33.606  1.00  0.00    -0.248 NA
ATOM     52  C   UNL A   1      43.744  27.343  31.377  1.00  0.00     0.031 C 
ATOM     53  C   UNL A   1      43.856  23.879  34.453  1.00  0.00     0.029 A 
ATOM     54  N   UNL A   1      45.437  22.893  33.305  1.00  0.00    -0.354 N 
ATOM     55  C   UNL A   1      42.801  28.007  33.355  1.00  0.00     0.074 A 
ATOM     56  C   UNL A   1      42.933  28.247  31.943  1.00  0.00     0.031 C 
ATOM     57  C   UNL A   1      44.199  22.799  35.164  1.00  0.00     0.029 A 
ATOM     58  C   UNL A   1      45.427  22.355  34.609  1.00  0.00     0.049 A 
ATOM     59  H   UNL A   1      45.919  22.497  32.545  1.00  0.00     0.167 HD
ATOM     60  C   UNL A   1      41.970  28.480  34.344  1.00  0.00     0.031 A 
ATOM     61  C   UNL A   1      46.564  22.356  35.358  1.00  0.00     0.031 A 
ATOM     62  C   UNL A   1      42.300  27.847  35.640  1.00  0.00     0.049 A 
ATOM     63  C   UNL A   1      46.534  23.530  36.362  1.00  0.00     0.074 A 
ATOM     64  C   UNL A   1      41.574  27.226  36.640  1.00  0.00     0.029 A 
ATOM     65  N   UNL A   1      43.636  27.628  35.982  1.00  0.00    -0.354 N 
ATOM     66  N   UNL A   1      45.866  24.657  36.182  1.00  0.00    -0.248 NA
ATOM     67  C   UNL A   1      47.026  23.420  37.740  1.00  0.00     0.031 C 
ATOM     68  C   UNL A   1      42.460  26.408  37.392  1.00  0.00     0.029 A 
ATOM     69  C   UNL A   1      43.754  26.678  36.971  1.00  0.00     0.049 A 
ATOM     70  H   UNL A   1      44.398  28.096  35.568  1.00  0.00     0.167 HD
ATOM     71  C   UNL A   1      45.780  25.351  37.367  1.00  0.00     0.074 A 
ATOM     72  C   UNL A   1      46.548  24.547  38.303  1.00  0.00     0.031 C 
ATOM     73  C   UNL A   1      45.030  26.468  37.627  1.00  0.00     0.031 A 
BRANCH  60  74
ATOM     74  C   UNL A   1      40.687  29.351  34.165  1.00  0.00    -0.014 A 
ATOM     75  C   UNL A   1      39.883  29.167  33.010  1.00  0.00     0.010 A 
ATOM     76  C   UNL A   1      40.240  30.396  35.005  1.00  0.00     0.010 A 
ATOM     77  C   UNL A   1      38.771  29.968  32.679  1.00  0.00     0.020 A 
ATOM     78  C   UNL A   1      39.090  31.188  34.712  1.00  0.00     0.020 A 
ATOM     79  C   UNL A   1      38.368  30.976  33.540  1.00  0.00     0.054 A 
BRANCH  79  80
ATOM     80  S   UNL A   1      36.877  31.933  33.121  1.00  0.00     0.124 S 
ATOM     81  O   UNL A   1      37.396  32.950  32.210  1.00  0.00    -0.237 OA
ATOM     82  O   UNL A   1      36.012  30.929  32.510  1.00  0.00    -0.237 OA
ATOM     83  O   UNL A   1      36.415  32.439  34.413  1.00  0.00    -0.744 OA
ENDBRANCH  79  80
ENDBRANCH  60  74
BRANCH  61  84
ATOM     84  C   UNL A   1      47.603  21.623  34.542  1.00  0.00    -0.014 A 
ATOM     85  C   UNL A   1      48.833  22.352  34.466  1.00  0.00     0.010 A 
ATOM     86  C   UNL A   1      47.694  20.220  34.667  1.00  0.00     0.010 A 
ATOM     87  C   UNL A   1      50.051  21.761  34.850  1.00  0.00     0.020 A 
ATOM     88  C   UNL A   1      48.927  19.624  35.026  1.00  0.00     0.020 A 
ATOM     89  C   UNL A   1      50.077  20.410  35.187  1.00  0.00     0.054 A 
BRANCH  89  90
ATOM     90  S   UNL A   1      51.549  19.765  36.059  1.00  0.00     0.124 S 
ATOM     91  O   UNL A   1      52.228  20.985  36.480  1.00  0.00    -0.237 OA
ATOM     92  O   UNL A   1      50.961  18.967  37.134  1.00  0.00    -0.237 OA
ATOM     93  O   UNL A   1      52.234  18.991  35.030  1.00  0.00    -0.744 OA
ENDBRANCH  89  90
ENDBRANCH  61  84
BRANCH  73  94
ATOM     94  C   UNL A   1      45.414  27.535  38.638  1.00  0.00    -0.014 A 
ATOM     95  C   UNL A   1      45.280  28.901  38.375  1.00  0.00     0.010 A 
ATOM     96  C   UNL A   1      45.708  27.166  39.982  1.00  0.00     0.010 A 
ATOM     97  C   UNL A   1      45.481  29.852  39.380  1.00  0.00     0.020 A 
ATOM     98  C   UNL A   1      45.860  28.103  41.003  1.00  0.00     0.020 A 
ATOM     99  C   UNL A   1      45.769  29.447  40.685  1.00  0.00     0.054 A 
BRANCH  99 100
ATOM    100  S   UNL A   1      45.972  30.707  41.960  1.00  0.00     0.124 S 
ATOM    101  O   UNL A   1      46.002  29.895  43.174  1.00  0.00    -0.237 OA
ATOM    102  O   UNL A   1      47.240  31.332  41.592  1.00  0.00    -0.237 OA
ATOM    103  O   UNL A   1      44.796  31.558  41.805  1.00  0.00    -0.744 OA
ENDBRANCH  99 100
ENDBRANCH  73  94
ENDBRANCH  47  48
ENDBRANCH  40  42
ENDBRANCH  39  40
ENDBRANCH  38  39
ENDBRANCH  37  38
ENDBRANCH  36  37
ENDBRANCH  35  36
ENDBRANCH   1  35
TORSDOF 26
ENDMDL
MODEL 2
REMARK VINA RESULT:     -10.4      1.483      4.442
REMARK SMILES CC(=O)Nc1cnc(N2CC=C(c3ccccc3C)CC2)c(C(=O)OCCOCCOCCOCCOC(=O)c2ccc(-c3c4nc(c(-c5ccc(S(=O)(=O)[O-])cc5)c5ccc([nH]5)c(-c5ccc(S(=O)(=O)[O-])cc5)c5nc(c(-c6ccc(S(=O)(=O)[O-])cc6)c6ccc3[nH]6)C=C5)C=C4)cc2)c1
REMARK SMILES IDX 32 1 31 2 30 3 29 4 28 5 27 6 26 7 25 8 23 9 24 10 22 11
REMARK SMILES IDX 5 12 6 13 100 14 7 15 8 16 4 17 1 18 2 19 3 20 9 22 10 23
REMARK SMILES IDX 21 24 11 25 20 26 12 27 13 28 14 29 18 30 15 31 17 32 19 33
REMARK SMILES IDX 16 34 33 35 34 36 35 37 36 38 37 39 38 40 39 41 40 42 41 43
REMARK SMILES IDX 99 44 42 45 98 46 43 47 44 48 45 49 92 50 46 51 97 52 91 53
REMARK SMILES IDX 93 54 47 55 96 56 90 57 89 58 48 60 78 61 59 62 77 63 60 64
REMARK SMILES IDX 63 65 76 66 94 67 61 68 62 69 75 71 95 72 64 73 49 74 50 75
REMARK SMILES IDX 58 76 51 77 57 78 52 79 53 80 54 81 55 82 56 83 79 84 80 85
REMARK SMILES IDX 88 86 81 87 87 88 82 89 83 90 84 91 85 92 86 93 65 94 66 95
REMARK SMILES IDX 74 96 67 97 73 98 68 99 69 100 70 101 71 102 72 103
REMARK H PARENT 4 21 93 59 63 70
REMARK Flexibility Score: inf
ROOT
ATOM      1  C   UNL A   1      42.416  22.480  26.740  1.00  0.00     0.188 C 
ENDROOT
BRANCH   1   2
ATOM      2  O   UNL A   1      41.656  23.065  27.796  1.00  0.00    -0.377 OA
BRANCH   2   3
ATOM      3  C   UNL A   1      40.743  24.062  27.439  1.00  0.00     0.188 C 
BRANCH   3   4
ATOM      4  C   UNL A   1      39.291  23.692  27.134  1.00  0.00     0.188 C 
BRANCH   4   5
ATOM      5  O   UNL A   1      38.704  23.238  25.928  1.00  0.00    -0.376 OA
BRANCH   5   6
ATOM      6  C   UNL A   1      37.312  23.000  25.953  1.00  0.00     0.202 C 
BRANCH   6   7
ATOM      7  C   UNL A   1      36.308  24.045  25.503  1.00  0.00     0.261 C 
BRANCH   7   8
ATOM      8  O   UNL A   1      35.200  23.407  24.924  1.00  0.00    -0.460 OA
BRANCH   8   9
ATOM      9  C   UNL A   1      34.724  24.055  23.859  1.00  0.00     0.342 C 
ATOM     10  O   UNL A   1      35.165  24.113  22.724  1.00  0.00    -0.246 OA
BRANCH   9  11
ATOM     11  C   UNL A   1      33.421  24.493  24.286  1.00  0.00     0.104 A 
ATOM     12  C   UNL A   1      32.159  26.375  25.104  1.00  0.00     0.060 A 
ATOM     13  C   UNL A   1      31.214  25.411  25.453  1.00  0.00     0.139 A 
ATOM     14  C   UNL A   1      33.293  25.882  24.512  1.00  0.00     0.047 A 
ATOM     15  N   UNL A   1      31.343  24.054  25.289  1.00  0.00    -0.236 NA
ATOM     16  C   UNL A   1      32.467  23.561  24.715  1.00  0.00     0.143 A 
BRANCH  12  17
ATOM     17  N   UNL A   1      31.953  27.729  25.433  1.00  0.00    -0.325 N 
ATOM     18  C   UNL A   1      30.633  28.579  23.469  1.00  0.00     0.114 C 
ATOM     19  C   UNL A   1      31.384  28.776  24.759  1.00  0.00     0.221 C 
ATOM     20  O   UNL A   1      31.445  29.897  25.274  1.00  0.00    -0.275 OA
ATOM     21  H   UNL A   1      32.285  27.971  26.328  1.00  0.00     0.169 HD
ENDBRANCH  12  17
BRANCH  16  22
ATOM     22  N   UNL A   1      32.708  22.183  24.877  1.00  0.00    -0.352 N 
ATOM     23  C   UNL A   1      32.664  21.571  26.210  1.00  0.00     0.146 C 
ATOM     24  C   UNL A   1      32.105  21.389  23.810  1.00  0.00     0.123 C 
ATOM     25  C   UNL A   1      32.876  20.079  26.135  1.00  0.00    -0.002 C 
ATOM     26  C   UNL A   1      32.563  19.957  23.682  1.00  0.00     0.057 C 
ATOM     27  C   UNL A   1      32.862  19.348  25.006  1.00  0.00    -0.041 C 
BRANCH  27  28
ATOM     28  C   UNL A   1      33.232  17.927  25.011  1.00  0.00    -0.020 A 
ATOM     29  C   UNL A   1      32.241  16.959  25.227  1.00  0.00     0.008 A 
ATOM     30  C   UNL A   1      34.578  17.530  24.852  1.00  0.00    -0.044 A 
ATOM     31  C   UNL A   1      32.580  15.609  25.313  1.00  0.00     0.001 A 
ATOM     32  C   UNL A   1      34.898  16.166  24.926  1.00  0.00     0.004 A 
ATOM     33  C   UNL A   1      35.688  18.510  24.581  1.00  0.00     0.045 C 
ATOM     34  C   UNL A   1      33.908  15.216  25.171  1.00  0.00     0.000 A 
ENDBRANCH  27  28
ENDBRANCH  16  22
ENDBRANCH   9  11
ENDBRANCH   8   9
ENDBRANCH   7   8
ENDBRANCH   6   7
ENDBRANCH   5   6
ENDBRANCH   4   5
ENDBRANCH   3   4
ENDBRANCH   2   3
ENDBRANCH   1   2
BRANCH   1  35
ATOM     35  C   UNL A   1      42.930  23.349  25.601  1.00  0.00     0.188 C 
BRANCH  35  36
ATOM     36  O   UNL A   1      44.100  22.722  25.076  1.00  0.00    -0.376 OA
BRANCH  36  37
ATOM     37  C   UNL A   1      45.191  23.572  24.776  1.00  0.00     0.202 C 
BRANCH  37  38
ATOM     38  C   UNL A   1      46.198  23.713  25.921  1.00  0.00     0.261 C 
BRANCH  38  39
ATOM     39  O   UNL A   1      46.615  25.090  26.082  1.00  0.00    -0.460 OA
BRANCH  39  40
ATOM     40  C   UNL A   1      45.783  25.925  26.780  1.00  0.00     0.338 C 
ATOM     41  O   UNL A   1      45.198  26.863  26.266  1.00  0.00    -0.246 OA
BRANCH  40  42
ATOM     42  C   UNL A   1      45.571  25.452  28.181  1.00  0.00     0.060 A 
ATOM     43  C   UNL A   1      44.363  24.903  28.639  1.00  0.00     0.016 A 
ATOM     44  C   UNL A   1      46.572  25.657  29.100  1.00  0.00     0.016 A 
ATOM     45  C   UNL A   1      44.083  24.770  30.029  1.00  0.00     0.010 A 
ATOM     46  C   UNL A   1      46.273  25.564  30.446  1.00  0.00     0.010 A 
ATOM     47  C   UNL A   1      45.017  25.186  30.969  1.00  0.00    -0.014 A 
BRANCH  47  48
ATOM     48  C   UNL A   1      44.835  25.381  32.459  1.00  0.00     0.031 A 
ATOM     49  C   UNL A   1      44.240  26.732  32.877  1.00  0.00     0.074 A 
ATOM     50  C   UNL A   1      44.777  24.265  33.261  1.00  0.00     0.049 A 
ATOM     51  N   UNL A   1      43.757  27.050  34.032  1.00  0.00    -0.248 NA
ATOM     52  C   UNL A   1      44.085  27.858  31.934  1.00  0.00     0.031 C 
ATOM     53  C   UNL A   1      43.828  23.905  34.340  1.00  0.00     0.029 A 
ATOM     54  N   UNL A   1      45.508  23.087  33.200  1.00  0.00    -0.354 N 
ATOM     55  C   UNL A   1      42.949  28.193  33.894  1.00  0.00     0.074 A 
ATOM     56  C   UNL A   1      43.232  28.673  32.568  1.00  0.00     0.031 C 
ATOM     57  C   UNL A   1      44.081  22.706  34.878  1.00  0.00     0.029 A 
ATOM     58  C   UNL A   1      45.354  22.328  34.379  1.00  0.00     0.049 A 
ATOM     59  H   UNL A   1      46.062  22.815  32.433  1.00  0.00     0.167 HD
ATOM     60  C   UNL A   1      42.026  28.511  34.864  1.00  0.00     0.031 A 
ATOM     61  C   UNL A   1      46.406  22.162  35.227  1.00  0.00     0.031 A 
ATOM     62  C   UNL A   1      42.210  27.650  36.053  1.00  0.00     0.049 A 
ATOM     63  C   UNL A   1      46.288  23.141  36.416  1.00  0.00     0.074 A 
ATOM     64  C   UNL A   1      41.375  26.886  36.847  1.00  0.00     0.029 A 
ATOM     65  N   UNL A   1      43.500  27.332  36.483  1.00  0.00    -0.354 N 
ATOM     66  N   UNL A   1      45.657  24.303  36.373  1.00  0.00    -0.248 NA
ATOM     67  C   UNL A   1      46.631  22.775  37.794  1.00  0.00     0.031 C 
ATOM     68  C   UNL A   1      42.167  25.921  37.527  1.00  0.00     0.029 A 
ATOM     69  C   UNL A   1      43.501  26.220  37.293  1.00  0.00     0.049 A 
ATOM     70  H   UNL A   1      44.307  27.841  36.237  1.00  0.00     0.167 HD
ATOM     71  C   UNL A   1      45.457  24.780  37.648  1.00  0.00     0.074 A 
ATOM     72  C   UNL A   1      46.113  23.800  38.498  1.00  0.00     0.031 C 
ATOM     73  C   UNL A   1      44.699  25.857  38.026  1.00  0.00     0.031 A 
BRANCH  60  74
ATOM     74  C   UNL A   1      40.781  29.440  34.715  1.00  0.00    -0.014 A 
ATOM     75  C   UNL A   1      40.158  29.562  33.444  1.00  0.00     0.010 A 
ATOM     76  C   UNL A   1      40.210  30.269  35.707  1.00  0.00     0.010 A 
ATOM     77  C   UNL A   1      39.105  30.455  33.158  1.00  0.00     0.020 A 
ATOM     78  C   UNL A   1      39.113  31.145  35.449  1.00  0.00     0.020 A 
ATOM     79  C   UNL A   1      38.575  31.241  34.168  1.00  0.00     0.054 A 
BRANCH  79  80
ATOM     80  S   UNL A   1      37.159  32.318  33.779  1.00  0.00     0.124 S 
ATOM     81  O   UNL A   1      36.655  32.673  35.103  1.00  0.00    -0.237 OA
ATOM     82  O   UNL A   1      37.781  33.409  33.034  1.00  0.00    -0.237 OA
ATOM     83  O   UNL A   1      36.275  31.460  32.991  1.00  0.00    -0.744 OA
ENDBRANCH  79  80
ENDBRANCH  60  74
BRANCH  61  84
ATOM     84  C   UNL A   1      47.515  21.551  34.402  1.00  0.00    -0.014 A 
ATOM     85  C   UNL A   1      48.679  22.384  34.373  1.00  0.00     0.010 A 
ATOM     86  C   UNL A   1      47.725  20.158  34.477  1.00  0.00     0.010 A 
ATOM     87  C   UNL A   1      49.938  21.885  34.754  1.00  0.00     0.020 A 
ATOM     88  C   UNL A   1      49.000  19.655  34.835  1.00  0.00     0.020 A 
ATOM     89  C   UNL A   1      50.076  20.530  35.043  1.00  0.00     0.054 A 
BRANCH  89  90
ATOM     90  S   UNL A   1      51.586  19.980  35.915  1.00  0.00     0.124 S 
ATOM     91  O   UNL A   1      51.596  20.832  37.098  1.00  0.00    -0.237 OA
ATOM     92  O   UNL A   1      51.317  18.564  36.160  1.00  0.00    -0.237 OA
ATOM     93  O   UNL A   1      52.644  20.241  34.946  1.00  0.00    -0.744 OA
ENDBRANCH  89  90
ENDBRANCH  61  84
BRANCH  73  94
ATOM     94  C   UNL A   1      44.990  26.717  39.244  1.00  0.00    -0.014 A 
ATOM     95  C   UNL A   1      45.541  27.998  39.145  1.00  0.00     0.010 A 
ATOM     96  C   UNL A   1      44.489  26.331  40.521  1.00  0.00     0.010 A 
ATOM     97  C   UNL A   1      45.641  28.829  40.264  1.00  0.00     0.020 A 
ATOM     98  C   UNL A   1      44.536  27.171  41.632  1.00  0.00     0.020 A 
ATOM     99  C   UNL A   1      45.139  28.411  41.499  1.00  0.00     0.054 A 
BRANCH  99 100
ATOM    100  S   UNL A   1      45.244  29.536  42.905  1.00  0.00     0.124 S 
ATOM    101  O   UNL A   1      44.300  28.927  43.840  1.00  0.00    -0.237 OA
ATOM    102  O   UNL A   1      46.652  29.441  43.284  1.00  0.00    -0.237 OA
ATOM    103  O   UNL A   1      44.838  30.826  42.355  1.00  0.00    -0.744 OA
ENDBRANCH  99 100
ENDBRANCH  73  94
ENDBRANCH  47  48
ENDBRANCH  40  42
ENDBRANCH  39  40
ENDBRANCH  38  39
ENDBRANCH  37  38
ENDBRANCH  36  37
ENDBRANCH  35  36
ENDBRANCH   1  35
TORSDOF 26
ENDMDL
MODEL 3
REMARK VINA RESULT:     -10.2      3.173      7.464
REMARK SMILES CC(=O)Nc1cnc(N2CC=C(c3ccccc3C)CC2)c(C(=O)OCCOCCOCCOCCOC(=O)c2ccc(-c3c4nc(c(-c5ccc(S(=O)(=O)[O-])cc5)c5ccc([nH]5)c(-c5ccc(S(=O)(=O)[O-])cc5)c5nc(c(-c6ccc(S(=O)(=O)[O-])cc6)c6ccc3[nH]6)C=C5)C=C4)cc2)c1
REMARK SMILES IDX 32 1 31 2 30 3 29 4 28 5 27 6 26 7 25 8 23 9 24 10 22 11
REMARK SMILES IDX 5 12 6 13 100 14 7 15 8 16 4 17 1 18 2 19 3 20 9 22 10 23
REMARK SMILES IDX 21 24 11 25 20 26 12 27 13 28 14 29 18 30 15 31 17 32 19 33
REMARK SMILES IDX 16 34 33 35 34 36 35 37 36 38 37 39 38 40 39 41 40 42 41 43
REMARK SMILES IDX 99 44 42 45 98 46 43 47 44 48 45 49 92 50 46 51 97 52 91 53
REMARK SMILES IDX 93 54 47 55 96 56 90 57 89 58 48 60 78 61 59 62 77 63 60 64
REMARK SMILES IDX 63 65 76 66 94 67 61 68 62 69 75 71 95 72 64 73 49 74 50 75
REMARK SMILES IDX 58 76 51 77 57 78 52 79 53 80 54 81 55 82 56 83 79 84 80 85
REMARK SMILES IDX 88 86 81 87 87 88 82 89 83 90 84 91 85 92 86 93 65 94 66 95
REMARK SMILES IDX 74 96 67 97 73 98 68 99 69 100 70 101 71 102 72 103
REMARK H PARENT 4 21 93 59 63 70
REMARK Flexibility Score: inf
ROOT
ATOM      1  C   UNL A   1      40.466  26.944  27.039  1.00  0.00     0.188 C 
ENDROOT
BRANCH   1   2
ATOM      2  O   UNL A   1      39.366  26.224  27.596  1.00  0.00    -0.377 OA
BRANCH   2   3
ATOM      3  C   UNL A   1      39.539  24.848  27.776  1.00  0.00     0.188 C 
BRANCH   3   4
ATOM      4  C   UNL A   1      39.101  23.875  26.681  1.00  0.00     0.188 C 
BRANCH   4   5
ATOM      5  O   UNL A   1      37.880  23.800  25.968  1.00  0.00    -0.376 OA
BRANCH   5   6
ATOM      6  C   UNL A   1      36.771  23.271  26.667  1.00  0.00     0.202 C 
BRANCH   6   7
ATOM      7  C   UNL A   1      35.470  22.925  25.968  1.00  0.00     0.261 C 
BRANCH   7   8
ATOM      8  O   UNL A   1      35.375  23.658  24.774  1.00  0.00    -0.460 OA
BRANCH   8   9
ATOM      9  C   UNL A   1      34.872  22.945  23.764  1.00  0.00     0.342 C 
ATOM     10  O   UNL A   1      35.138  22.987  22.575  1.00  0.00    -0.246 OA
BRANCH   9  11
ATOM     11  C   UNL A   1      34.096  21.928  24.424  1.00  0.00     0.104 A 
ATOM     12  C   UNL A   1      33.962  19.571  24.903  1.00  0.00     0.060 A 
ATOM     13  C   UNL A   1      32.641  19.858  25.244  1.00  0.00     0.139 A 
ATOM     14  C   UNL A   1      34.693  20.648  24.474  1.00  0.00     0.047 A 
ATOM     15  N   UNL A   1      32.028  21.084  25.151  1.00  0.00    -0.236 NA
ATOM     16  C   UNL A   1      32.744  22.149  24.718  1.00  0.00     0.143 A 
BRANCH  12  17
ATOM     17  N   UNL A   1      34.435  18.245  24.934  1.00  0.00    -0.325 N 
ATOM     18  C   UNL A   1      33.518  17.281  22.800  1.00  0.00     0.114 C 
ATOM     19  C   UNL A   1      34.229  17.163  24.121  1.00  0.00     0.221 C 
ATOM     20  O   UNL A   1      34.706  16.077  24.471  1.00  0.00    -0.275 OA
ATOM     21  H   UNL A   1      35.035  18.059  25.692  1.00  0.00     0.169 HD
ENDBRANCH  12  17
BRANCH  16  22
ATOM     22  N   UNL A   1      32.010  23.282  24.315  1.00  0.00    -0.352 N 
ATOM     23  C   UNL A   1      30.960  23.166  23.297  1.00  0.00     0.146 C 
ATOM     24  C   UNL A   1      31.692  24.160  25.438  1.00  0.00     0.123 C 
ATOM     25  C   UNL A   1      30.259  24.485  23.081  1.00  0.00    -0.002 C 
ATOM     26  C   UNL A   1      31.211  25.550  25.103  1.00  0.00     0.057 C 
ATOM     27  C   UNL A   1      30.385  25.569  23.866  1.00  0.00    -0.041 C 
BRANCH  27  28
ATOM     28  C   UNL A   1      29.787  26.858  23.491  1.00  0.00    -0.020 A 
ATOM     29  C   UNL A   1      28.429  27.089  23.756  1.00  0.00     0.008 A 
ATOM     30  C   UNL A   1      30.550  27.842  22.824  1.00  0.00    -0.044 A 
ATOM     31  C   UNL A   1      27.822  28.273  23.341  1.00  0.00     0.001 A 
ATOM     32  C   UNL A   1      29.924  29.033  22.428  1.00  0.00     0.004 A 
ATOM     33  C   UNL A   1      32.018  27.678  22.539  1.00  0.00     0.045 C 
ATOM     34  C   UNL A   1      28.567  29.238  22.670  1.00  0.00     0.000 A 
ENDBRANCH  27  28
ENDBRANCH  16  22
ENDBRANCH   9  11
ENDBRANCH   8   9
ENDBRANCH   7   8
ENDBRANCH   6   7
ENDBRANCH   5   6
ENDBRANCH   4   5
ENDBRANCH   3   4
ENDBRANCH   2   3
ENDBRANCH   1   2
BRANCH   1  35
ATOM     35  C   UNL A   1      41.869  26.736  27.591  1.00  0.00     0.188 C 
BRANCH  35  36
ATOM     36  O   UNL A   1      42.750  26.586  26.479  1.00  0.00    -0.376 OA
BRANCH  36  37
ATOM     37  C   UNL A   1      42.352  25.666  25.478  1.00  0.00     0.202 C 
BRANCH  37  38
ATOM     38  C   UNL A   1      43.391  24.577  25.193  1.00  0.00     0.261 C 
BRANCH  38  39
ATOM     39  O   UNL A   1      42.752  23.306  24.923  1.00  0.00    -0.460 OA
BRANCH  39  40
ATOM     40  C   UNL A   1      43.201  22.213  25.617  1.00  0.00     0.338 C 
ATOM     41  O   UNL A   1      43.390  21.126  25.098  1.00  0.00    -0.246 OA
BRANCH  40  42
ATOM     42  C   UNL A   1      43.569  22.562  27.022  1.00  0.00     0.060 A 
ATOM     43  C   UNL A   1      42.628  22.750  28.046  1.00  0.00     0.016 A 
ATOM     44  C   UNL A   1      44.889  22.816  27.310  1.00  0.00     0.016 A 
ATOM     45  C   UNL A   1      42.973  23.394  29.268  1.00  0.00     0.010 A 
ATOM     46  C   UNL A   1      45.203  23.478  28.481  1.00  0.00     0.010 A 
ATOM     47  C   UNL A   1      44.269  23.851  29.472  1.00  0.00    -0.014 A 
BRANCH  47  48
ATOM     48  C   UNL A   1      44.785  24.775  30.554  1.00  0.00     0.031 A 
ATOM     49  C   UNL A   1      44.552  24.298  31.993  1.00  0.00     0.074 A 
ATOM     50  C   UNL A   1      45.762  25.685  30.223  1.00  0.00     0.049 A 
ATOM     51  N   UNL A   1      45.101  24.757  33.068  1.00  0.00    -0.248 NA
ATOM     52  C   UNL A   1      43.677  23.154  32.319  1.00  0.00     0.031 C 
ATOM     53  C   UNL A   1      47.030  26.025  30.908  1.00  0.00     0.029 A 
ATOM     54  N   UNL A   1      45.912  26.452  29.076  1.00  0.00    -0.354 N 
ATOM     55  C   UNL A   1      44.962  23.809  34.097  1.00  0.00     0.074 A 
ATOM     56  C   UNL A   1      44.025  22.851  33.576  1.00  0.00     0.031 C 
ATOM     57  C   UNL A   1      47.742  26.953  30.258  1.00  0.00     0.029 A 
ATOM     58  C   UNL A   1      46.872  27.469  29.263  1.00  0.00     0.049 A 
ATOM     59  H   UNL A   1      45.413  26.306  28.241  1.00  0.00     0.167 HD
ATOM     60  C   UNL A   1      45.770  23.869  35.209  1.00  0.00     0.031 A 
ATOM     61  C   UNL A   1      46.489  28.775  29.290  1.00  0.00     0.031 A 
ATOM     62  C   UNL A   1      46.549  25.127  35.214  1.00  0.00     0.049 A 
ATOM     63  C   UNL A   1      46.390  29.267  30.750  1.00  0.00     0.074 A 
ATOM     64  C   UNL A   1      47.879  25.454  35.397  1.00  0.00     0.029 A 
ATOM     65  N   UNL A   1      45.942  26.316  34.804  1.00  0.00    -0.354 N 
ATOM     66  N   UNL A   1      46.141  28.489  31.791  1.00  0.00    -0.248 NA
ATOM     67  C   UNL A   1      46.820  30.602  31.179  1.00  0.00     0.031 C 
ATOM     68  C   UNL A   1      48.106  26.734  34.823  1.00  0.00     0.029 A 
ATOM     69  C   UNL A   1      46.877  27.266  34.461  1.00  0.00     0.049 A 
ATOM     70  H   UNL A   1      44.968  26.457  34.766  1.00  0.00     0.167 HD
ATOM     71  C   UNL A   1      46.430  29.156  32.959  1.00  0.00     0.074 A 
ATOM     72  C   UNL A   1      46.823  30.484  32.520  1.00  0.00     0.031 C 
ATOM     73  C   UNL A   1      46.466  28.637  34.228  1.00  0.00     0.031 A 
BRANCH  60  74
ATOM     74  C   UNL A   1      46.073  22.719  36.220  1.00  0.00    -0.014 A 
ATOM     75  C   UNL A   1      45.705  22.881  37.582  1.00  0.00     0.010 A 
ATOM     76  C   UNL A   1      46.760  21.511  35.960  1.00  0.00     0.010 A 
ATOM     77  C   UNL A   1      46.029  21.969  38.607  1.00  0.00     0.020 A 
ATOM     78  C   UNL A   1      47.056  20.553  36.975  1.00  0.00     0.020 A 
ATOM     79  C   UNL A   1      46.699  20.795  38.299  1.00  0.00     0.054 A 
BRANCH  79  80
ATOM     80  S   UNL A   1      47.023  19.602  39.635  1.00  0.00     0.124 S 
ATOM     81  O   UNL A   1      45.732  18.936  39.789  1.00  0.00    -0.237 OA
ATOM     82  O   UNL A   1      48.088  18.775  39.075  1.00  0.00    -0.237 OA
ATOM     83  O   UNL A   1      47.424  20.442  40.762  1.00  0.00    -0.744 OA
ENDBRANCH  79  80
ENDBRANCH  60  74
BRANCH  61  84
ATOM     84  C   UNL A   1      45.769  29.025  27.985  1.00  0.00    -0.014 A 
ATOM     85  C   UNL A   1      44.517  29.692  28.186  1.00  0.00     0.010 A 
ATOM     86  C   UNL A   1      46.526  29.409  26.857  1.00  0.00     0.010 A 
ATOM     87  C   UNL A   1      44.221  30.894  27.519  1.00  0.00     0.020 A 
ATOM     88  C   UNL A   1      46.210  30.605  26.170  1.00  0.00     0.020 A 
ATOM     89  C   UNL A   1      45.103  31.376  26.555  1.00  0.00     0.054 A 
BRANCH  89  90
ATOM     90  S   UNL A   1      44.918  33.108  26.001  1.00  0.00     0.124 S 
ATOM     91  O   UNL A   1      44.048  33.676  27.024  1.00  0.00    -0.237 OA
ATOM     92  O   UNL A   1      46.297  33.595  26.005  1.00  0.00    -0.237 OA
ATOM     93  O   UNL A   1      44.323  32.973  24.677  1.00  0.00    -0.744 OA
ENDBRANCH  89  90
ENDBRANCH  61  84
BRANCH  73  94
ATOM     94  C   UNL A   1      46.149  29.434  35.482  1.00  0.00    -0.014 A 
ATOM     95  C   UNL A   1      44.934  29.313  36.161  1.00  0.00     0.010 A 
ATOM     96  C   UNL A   1      47.183  30.161  36.140  1.00  0.00     0.010 A 
ATOM     97  C   UNL A   1      44.736  29.929  37.400  1.00  0.00     0.020 A 
ATOM     98  C   UNL A   1      47.013  30.735  37.399  1.00  0.00     0.020 A 
ATOM     99  C   UNL A   1      45.775  30.635  38.010  1.00  0.00     0.054 A 
BRANCH  99 100
ATOM    100  S   UNL A   1      45.490  31.371  39.632  1.00  0.00     0.124 S 
ATOM    101  O   UNL A   1      44.316  30.631  40.088  1.00  0.00    -0.237 OA
ATOM    102  O   UNL A   1      46.733  31.073  40.339  1.00  0.00    -0.237 OA
ATOM    103  O   UNL A   1      45.267  32.785  39.344  1.00  0.00    -0.744 OA
ENDBRANCH  99 100
ENDBRANCH  73  94
ENDBRANCH  47  48
ENDBRANCH  40  42
ENDBRANCH  39  40
ENDBRANCH  38  39
ENDBRANCH  37  38
ENDBRANCH  36  37
ENDBRANCH  35  36
ENDBRANCH   1  35
TORSDOF 26
ENDMDL
