MODEL 1
REMARK VINA RESULT:      -7.3      0.000      0.000
REMARK SMILES CC(C)c1ccc([C@]2(C(=O)OCCOCCOCCOCCOC(=O)c3ccc(-c4c5nc(c(-c6ccc(S(=O)(=O)[O-])cc6)c6ccc([nH]6)c(-c6ccc(S(=O)(=O)[O-])cc6)c6nc(c(-c7ccc(S(=O)(=O)[O-])cc7)c7ccc4[nH]7)C=C6)C=C5)cc3)CCC[C@@H]2C)cc1
REMARK SMILES IDX 18 1 17 2 16 3 15 4 14 5 13 6 12 7 11 8 9 9 10 10 8 11 86 12
REMARK SMILES IDX 89 13 87 14 88 15 90 16 7 17 4 18 5 19 92 20 6 21 91 22 2 23
REMARK SMILES IDX 1 24 3 25 19 26 20 27 21 28 22 29 23 30 24 31 25 32 26 33
REMARK SMILES IDX 27 34 85 35 28 36 84 37 29 38 30 39 31 40 78 41 32 42 83 43
REMARK SMILES IDX 77 44 79 45 33 46 82 47 76 48 75 49 34 51 64 52 45 53 63 54
REMARK SMILES IDX 46 55 49 56 62 57 80 58 47 59 48 60 61 62 81 63 50 64 35 65
REMARK SMILES IDX 36 66 44 67 37 68 43 69 38 70 39 71 40 72 41 73 42 74 65 75
REMARK SMILES IDX 66 76 74 77 67 78 73 79 68 80 69 81 70 82 71 83 72 84 51 85
REMARK SMILES IDX 52 86 60 87 53 88 59 89 54 90 55 91 56 92 57 93 58 94
REMARK H PARENT 79 50 49 61
REMARK Flexibility Score: inf
ROOT
ATOM      1  C   UNL A   1      43.048  21.672  25.457  1.00  0.00     0.188 C 
ENDROOT
BRANCH   1   2
ATOM      2  O   UNL A   1      42.953  22.836  24.666  1.00  0.00    -0.377 OA
BRANCH   2   3
ATOM      3  C   UNL A   1      43.682  23.950  25.130  1.00  0.00     0.188 C 
BRANCH   3   4
ATOM      4  C   UNL A   1      43.226  25.410  24.961  1.00  0.00     0.188 C 
BRANCH   4   5
ATOM      5  O   UNL A   1      44.124  26.406  25.399  1.00  0.00    -0.376 OA
BRANCH   5   6
ATOM      6  C   UNL A   1      45.188  26.175  26.301  1.00  0.00     0.202 C 
BRANCH   6   7
ATOM      7  C   UNL A   1      45.171  26.347  27.832  1.00  0.00     0.261 C 
BRANCH   7   8
ATOM      8  O   UNL A   1      46.230  27.077  28.456  1.00  0.00    -0.463 OA
BRANCH   8   9
ATOM      9  C   UNL A   1      47.006  26.396  29.333  1.00  0.00     0.316 C 
ATOM     10  O   UNL A   1      47.452  25.277  29.091  1.00  0.00    -0.251 OA
BRANCH   9  11
ATOM     11  C   UNL A   1      47.229  27.136  30.703  1.00  0.00     0.095 C 
ATOM     12  C   UNL A   1      48.661  27.320  31.268  1.00  0.00     0.024 C 
ATOM     13  C   UNL A   1      46.927  28.637  30.377  1.00  0.00     0.008 C 
ATOM     14  C   UNL A   1      49.365  28.339  30.387  1.00  0.00     0.002 C 
ATOM     15  C   UNL A   1      48.243  29.121  29.713  1.00  0.00     0.005 C 
ATOM     16  C   UNL A   1      46.630  29.536  31.584  1.00  0.00     0.009 C 
BRANCH  11  17
ATOM     17  C   UNL A   1      46.348  26.383  31.720  1.00  0.00    -0.030 A 
ATOM     18  C   UNL A   1      44.865  24.759  33.538  1.00  0.00    -0.045 A 
ATOM     19  C   UNL A   1      44.376  25.048  32.257  1.00  0.00     0.004 A 
ATOM     20  C   UNL A   1      46.111  25.273  33.896  1.00  0.00     0.004 A 
ATOM     21  C   UNL A   1      45.113  25.831  31.358  1.00  0.00     0.005 A 
ATOM     22  C   UNL A   1      46.828  26.080  33.009  1.00  0.00     0.005 A 
BRANCH  18  23
ATOM     23  C   UNL A   1      44.051  23.918  34.504  1.00  0.00     0.013 C 
ATOM     24  C   UNL A   1      42.878  24.702  35.099  1.00  0.00     0.012 C 
ATOM     25  C   UNL A   1      43.552  22.635  33.833  1.00  0.00     0.012 C 
ENDBRANCH  18  23
ENDBRANCH  11  17
ENDBRANCH   9  11
ENDBRANCH   8   9
ENDBRANCH   7   8
ENDBRANCH   6   7
ENDBRANCH   5   6
ENDBRANCH   4   5
ENDBRANCH   3   4
ENDBRANCH   2   3
ENDBRANCH   1   2
BRANCH   1  26
ATOM     26  C   UNL A   1      41.715  21.420  26.165  1.00  0.00     0.188 C 
BRANCH  26  27
ATOM     27  O   UNL A   1      40.734  22.395  25.825  1.00  0.00    -0.376 OA
BRANCH  27  28
ATOM     28  C   UNL A   1      39.704  22.699  26.761  1.00  0.00     0.202 C 
BRANCH  28  29
ATOM     29  C   UNL A   1      38.922  24.035  26.782  1.00  0.00     0.261 C 
BRANCH  29  30
ATOM     30  O   UNL A   1      39.635  25.255  27.033  1.00  0.00    -0.460 OA
BRANCH  30  31
ATOM     31  C   UNL A   1      40.713  25.229  27.838  1.00  0.00     0.338 C 
ATOM     32  O   UNL A   1      41.729  24.574  27.686  1.00  0.00    -0.246 OA
BRANCH  31  33
ATOM     33  C   UNL A   1      40.526  26.310  28.835  1.00  0.00     0.060 A 
ATOM     34  C   UNL A   1      41.505  27.308  28.938  1.00  0.00     0.016 A 
ATOM     35  C   UNL A   1      39.367  26.378  29.613  1.00  0.00     0.016 A 
ATOM     36  C   UNL A   1      41.337  28.363  29.835  1.00  0.00     0.010 A 
ATOM     37  C   UNL A   1      39.216  27.416  30.539  1.00  0.00     0.010 A 
ATOM     38  C   UNL A   1      40.216  28.395  30.674  1.00  0.00    -0.014 A 
BRANCH  38  39
ATOM     39  C   UNL A   1      40.218  29.297  31.850  1.00  0.00     0.031 A 
ATOM     40  C   UNL A   1      41.322  29.123  32.859  1.00  0.00     0.074 A 
ATOM     41  C   UNL A   1      39.299  30.265  32.008  1.00  0.00     0.049 A 
ATOM     42  N   UNL A   1      41.540  29.770  33.973  1.00  0.00    -0.248 NA
ATOM     43  C   UNL A   1      42.317  28.075  32.567  1.00  0.00     0.031 C 
ATOM     44  C   UNL A   1      38.215  30.568  31.075  1.00  0.00     0.029 A 
ATOM     45  N   UNL A   1      39.134  31.175  33.023  1.00  0.00    -0.354 N 
ATOM     46  C   UNL A   1      42.688  29.206  34.516  1.00  0.00     0.074 A 
ATOM     47  C   UNL A   1      43.106  28.146  33.626  1.00  0.00     0.031 C 
ATOM     48  C   UNL A   1      37.490  31.591  31.567  1.00  0.00     0.029 A 
ATOM     49  C   UNL A   1      38.040  31.991  32.862  1.00  0.00     0.049 A 
ATOM     50  H   UNL A   1      39.743  31.239  33.794  1.00  0.00     0.167 HD
ATOM     51  C   UNL A   1      43.341  29.542  35.652  1.00  0.00     0.031 A 
ATOM     52  C   UNL A   1      37.530  32.937  33.678  1.00  0.00     0.031 A 
ATOM     53  C   UNL A   1      42.909  30.581  36.547  1.00  0.00     0.049 A 
ATOM     54  C   UNL A   1      38.224  33.235  34.984  1.00  0.00     0.074 A 
ATOM     55  C   UNL A   1      43.502  31.003  37.723  1.00  0.00     0.029 A 
ATOM     56  N   UNL A   1      41.771  31.352  36.372  1.00  0.00    -0.354 N 
ATOM     57  N   UNL A   1      39.323  32.710  35.474  1.00  0.00    -0.248 NA
ATOM     58  C   UNL A   1      37.613  34.259  35.844  1.00  0.00     0.031 C 
ATOM     59  C   UNL A   1      42.687  31.987  38.291  1.00  0.00     0.029 A 
ATOM     60  C   UNL A   1      41.626  32.227  37.433  1.00  0.00     0.049 A 
ATOM     61  H   UNL A   1      41.156  31.286  35.605  1.00  0.00     0.167 HD
ATOM     62  C   UNL A   1      39.552  33.363  36.682  1.00  0.00     0.074 A 
ATOM     63  C   UNL A   1      38.484  34.329  36.842  1.00  0.00     0.031 C 
ATOM     64  C   UNL A   1      40.555  33.184  37.577  1.00  0.00     0.031 A 
BRANCH  51  65
ATOM     65  C   UNL A   1      44.565  28.743  36.010  1.00  0.00    -0.014 A 
ATOM     66  C   UNL A   1      44.478  27.590  36.812  1.00  0.00     0.010 A 
ATOM     67  C   UNL A   1      45.820  29.139  35.514  1.00  0.00     0.010 A 
ATOM     68  C   UNL A   1      45.629  26.870  37.141  1.00  0.00     0.020 A 
ATOM     69  C   UNL A   1      46.970  28.404  35.817  1.00  0.00     0.020 A 
ATOM     70  C   UNL A   1      46.868  27.283  36.642  1.00  0.00     0.054 A 
BRANCH  70  71
ATOM     71  S   UNL A   1      48.342  26.313  37.065  1.00  0.00     0.124 S 
ATOM     72  O   UNL A   1      47.800  24.959  37.138  1.00  0.00    -0.237 OA
ATOM     73  O   UNL A   1      49.230  26.574  35.935  1.00  0.00    -0.237 OA
ATOM     74  O   UNL A   1      48.775  26.879  38.340  1.00  0.00    -0.744 OA
ENDBRANCH  70  71
ENDBRANCH  51  65
BRANCH  52  75
ATOM     75  C   UNL A   1      36.282  33.659  33.299  1.00  0.00    -0.014 A 
ATOM     76  C   UNL A   1      35.018  33.087  33.528  1.00  0.00     0.010 A 
ATOM     77  C   UNL A   1      36.355  34.928  32.693  1.00  0.00     0.010 A 
ATOM     78  C   UNL A   1      33.854  33.760  33.145  1.00  0.00     0.020 A 
ATOM     79  C   UNL A   1      35.193  35.618  32.336  1.00  0.00     0.020 A 
ATOM     80  C   UNL A   1      33.948  35.025  32.555  1.00  0.00     0.054 A 
BRANCH  80  81
ATOM     81  S   UNL A   1      32.423  35.904  32.119  1.00  0.00     0.124 S 
ATOM     82  O   UNL A   1      32.606  37.186  32.793  1.00  0.00    -0.237 OA
ATOM     83  O   UNL A   1      32.487  35.940  30.660  1.00  0.00    -0.237 OA
ATOM     84  O   UNL A   1      31.369  35.053  32.666  1.00  0.00    -0.744 OA
ENDBRANCH  80  81
ENDBRANCH  52  75
BRANCH  64  85
ATOM     85  C   UNL A   1      40.579  34.075  38.792  1.00  0.00    -0.014 A 
ATOM     86  C   UNL A   1      41.244  35.313  38.782  1.00  0.00     0.010 A 
ATOM     87  C   UNL A   1      39.865  33.690  39.943  1.00  0.00     0.010 A 
ATOM     88  C   UNL A   1      41.222  36.136  39.912  1.00  0.00     0.020 A 
ATOM     89  C   UNL A   1      39.813  34.524  41.063  1.00  0.00     0.020 A 
ATOM     90  C   UNL A   1      40.504  35.737  41.045  1.00  0.00     0.054 A 
BRANCH  90  91
ATOM     91  S   UNL A   1      40.454  36.842  42.481  1.00  0.00     0.124 S 
ATOM     92  O   UNL A   1      39.921  35.968  43.521  1.00  0.00    -0.237 OA
ATOM     93  O   UNL A   1      41.856  37.226  42.639  1.00  0.00    -0.237 OA
ATOM     94  O   UNL A   1      39.565  37.922  42.058  1.00  0.00    -0.744 OA
ENDBRANCH  90  91
ENDBRANCH  64  85
ENDBRANCH  38  39
ENDBRANCH  31  33
ENDBRANCH  30  31
ENDBRANCH  29  30
ENDBRANCH  28  29
ENDBRANCH  27  28
ENDBRANCH  26  27
ENDBRANCH   1  26
TORSDOF 25
ENDMDL
MODEL 2
REMARK VINA RESULT:      -7.3      6.743     10.931
REMARK SMILES CC(C)c1ccc([C@]2(C(=O)OCCOCCOCCOCCOC(=O)c3ccc(-c4c5nc(c(-c6ccc(S(=O)(=O)[O-])cc6)c6ccc([nH]6)c(-c6ccc(S(=O)(=O)[O-])cc6)c6nc(c(-c7ccc(S(=O)(=O)[O-])cc7)c7ccc4[nH]7)C=C6)C=C5)cc3)CCC[C@@H]2C)cc1
REMARK SMILES IDX 18 1 17 2 16 3 15 4 14 5 13 6 12 7 11 8 9 9 10 10 8 11 86 12
REMARK SMILES IDX 89 13 87 14 88 15 90 16 7 17 4 18 5 19 92 20 6 21 91 22 2 23
REMARK SMILES IDX 1 24 3 25 19 26 20 27 21 28 22 29 23 30 24 31 25 32 26 33
REMARK SMILES IDX 27 34 85 35 28 36 84 37 29 38 30 39 31 40 78 41 32 42 83 43
REMARK SMILES IDX 77 44 79 45 33 46 82 47 76 48 75 49 34 51 64 52 45 53 63 54
REMARK SMILES IDX 46 55 49 56 62 57 80 58 47 59 48 60 61 62 81 63 50 64 35 65
REMARK SMILES IDX 36 66 44 67 37 68 43 69 38 70 39 71 40 72 41 73 42 74 65 75
REMARK SMILES IDX 66 76 74 77 67 78 73 79 68 80 69 81 70 82 71 83 72 84 51 85
REMARK SMILES IDX 52 86 60 87 53 88 59 89 54 90 55 91 56 92 57 93 58 94
REMARK H PARENT 79 50 49 61
REMARK Flexibility Score: inf
ROOT
ATOM      1  C   UNL A   1      43.697  22.504  24.789  1.00  0.00     0.188 C 
ENDROOT
BRANCH   1   2
ATOM      2  O   UNL A   1      42.374  22.073  25.019  1.00  0.00    -0.377 OA
BRANCH   2   3
ATOM      3  C   UNL A   1      41.767  22.566  26.192  1.00  0.00     0.188 C 
BRANCH   3   4
ATOM      4  C   UNL A   1      40.359  22.167  26.668  1.00  0.00     0.188 C 
BRANCH   4   5
ATOM      5  O   UNL A   1      39.599  21.365  25.791  1.00  0.00    -0.376 OA
BRANCH   5   6
ATOM      6  C   UNL A   1      38.226  21.566  25.521  1.00  0.00     0.202 C 
BRANCH   6   7
ATOM      7  C   UNL A   1      37.410  22.857  25.727  1.00  0.00     0.261 C 
BRANCH   7   8
ATOM      8  O   UNL A   1      36.131  22.973  25.100  1.00  0.00    -0.463 OA
BRANCH   8   9
ATOM      9  C   UNL A   1      35.057  22.586  25.829  1.00  0.00     0.316 C 
ATOM     10  O   UNL A   1      35.094  22.476  27.053  1.00  0.00    -0.251 OA
BRANCH   9  11
ATOM     11  C   UNL A   1      33.789  22.234  24.968  1.00  0.00     0.095 C 
ATOM     12  C   UNL A   1      32.378  22.671  25.440  1.00  0.00     0.024 C 
ATOM     13  C   UNL A   1      33.905  23.172  23.721  1.00  0.00     0.008 C 
ATOM     14  C   UNL A   1      32.298  24.181  25.282  1.00  0.00     0.002 C 
ATOM     15  C   UNL A   1      33.370  24.528  24.254  1.00  0.00     0.005 C 
ATOM     16  C   UNL A   1      33.071  22.766  22.499  1.00  0.00     0.009 C 
BRANCH  11  17
ATOM     17  C   UNL A   1      33.837  20.704  24.780  1.00  0.00    -0.030 A 
ATOM     18  C   UNL A   1      33.901  17.852  24.711  1.00  0.00    -0.045 A 
ATOM     19  C   UNL A   1      35.082  18.606  24.676  1.00  0.00     0.004 A 
ATOM     20  C   UNL A   1      32.688  18.536  24.801  1.00  0.00     0.004 A 
ATOM     21  C   UNL A   1      35.051  20.007  24.728  1.00  0.00     0.005 A 
ATOM     22  C   UNL A   1      32.660  19.932  24.819  1.00  0.00     0.005 A 
BRANCH  18  23
ATOM     23  C   UNL A   1      33.950  16.338  24.644  1.00  0.00     0.013 C 
ATOM     24  C   UNL A   1      35.240  15.777  25.250  1.00  0.00     0.012 C 
ATOM     25  C   UNL A   1      32.725  15.715  25.322  1.00  0.00     0.012 C 
ENDBRANCH  18  23
ENDBRANCH  11  17
ENDBRANCH   9  11
ENDBRANCH   8   9
ENDBRANCH   7   8
ENDBRANCH   6   7
ENDBRANCH   5   6
ENDBRANCH   4   5
ENDBRANCH   3   4
ENDBRANCH   2   3
ENDBRANCH   1   2
BRANCH   1  26
ATOM     26  C   UNL A   1      44.679  21.488  25.378  1.00  0.00     0.188 C 
BRANCH  26  27
ATOM     27  O   UNL A   1      45.809  22.116  25.975  1.00  0.00    -0.376 OA
BRANCH  27  28
ATOM     28  C   UNL A   1      45.621  22.932  27.128  1.00  0.00     0.202 C 
BRANCH  28  29
ATOM     29  C   UNL A   1      46.333  24.288  27.353  1.00  0.00     0.261 C 
BRANCH  29  30
ATOM     30  O   UNL A   1      47.547  24.564  26.639  1.00  0.00    -0.460 OA
BRANCH  30  31
ATOM     31  C   UNL A   1      47.497  25.335  25.537  1.00  0.00     0.338 C 
ATOM     32  O   UNL A   1      47.472  24.961  24.379  1.00  0.00    -0.246 OA
BRANCH  31  33
ATOM     33  C   UNL A   1      47.260  26.723  26.000  1.00  0.00     0.060 A 
ATOM     34  C   UNL A   1      47.837  27.139  27.208  1.00  0.00     0.016 A 
ATOM     35  C   UNL A   1      46.530  27.626  25.221  1.00  0.00     0.016 A 
ATOM     36  C   UNL A   1      47.668  28.452  27.649  1.00  0.00     0.010 A 
ATOM     37  C   UNL A   1      46.330  28.931  25.681  1.00  0.00     0.010 A 
ATOM     38  C   UNL A   1      46.873  29.339  26.912  1.00  0.00    -0.014 A 
BRANCH  38  39
ATOM     39  C   UNL A   1      46.408  30.593  27.551  1.00  0.00     0.031 A 
ATOM     40  C   UNL A   1      47.285  31.810  27.415  1.00  0.00     0.074 A 
ATOM     41  C   UNL A   1      45.233  30.670  28.198  1.00  0.00     0.049 A 
ATOM     42  N   UNL A   1      47.113  33.015  27.890  1.00  0.00    -0.248 NA
ATOM     43  C   UNL A   1      48.524  31.641  26.635  1.00  0.00     0.031 C 
ATOM     44  C   UNL A   1      44.273  29.579  28.350  1.00  0.00     0.029 A 
ATOM     45  N   UNL A   1      44.649  31.726  28.854  1.00  0.00    -0.354 N 
ATOM     46  C   UNL A   1      48.221  33.744  27.472  1.00  0.00     0.074 A 
ATOM     47  C   UNL A   1      49.072  32.841  26.732  1.00  0.00     0.031 C 
ATOM     48  C   UNL A   1      43.220  30.021  29.064  1.00  0.00     0.029 A 
ATOM     49  C   UNL A   1      43.448  31.414  29.445  1.00  0.00     0.049 A 
ATOM     50  H   UNL A   1      45.052  32.623  28.897  1.00  0.00     0.167 HD
ATOM     51  C   UNL A   1      48.503  35.050  27.682  1.00  0.00     0.031 A 
ATOM     52  C   UNL A   1      42.638  32.163  30.222  1.00  0.00     0.031 A 
ATOM     53  C   UNL A   1      47.666  35.939  28.440  1.00  0.00     0.049 A 
ATOM     54  C   UNL A   1      43.016  33.593  30.518  1.00  0.00     0.074 A 
ATOM     55  C   UNL A   1      47.860  37.282  28.708  1.00  0.00     0.029 A 
ATOM     56  N   UNL A   1      46.482  35.572  29.061  1.00  0.00    -0.354 N 
ATOM     57  N   UNL A   1      44.055  34.276  30.097  1.00  0.00    -0.248 NA
ATOM     58  C   UNL A   1      42.109  34.356  31.388  1.00  0.00     0.031 C 
ATOM     59  C   UNL A   1      46.825  37.711  29.545  1.00  0.00     0.029 A 
ATOM     60  C   UNL A   1      45.949  36.655  29.737  1.00  0.00     0.049 A 
ATOM     61  H   UNL A   1      46.079  34.674  29.025  1.00  0.00     0.167 HD
ATOM     62  C   UNL A   1      43.909  35.556  30.624  1.00  0.00     0.074 A 
ATOM     63  C   UNL A   1      42.675  35.555  31.384  1.00  0.00     0.031 C 
ATOM     64  C   UNL A   1      44.718  36.637  30.489  1.00  0.00     0.031 A 
BRANCH  51  65
ATOM     65  C   UNL A   1      49.796  35.578  27.121  1.00  0.00    -0.014 A 
ATOM     66  C   UNL A   1      50.956  35.663  27.913  1.00  0.00     0.010 A 
ATOM     67  C   UNL A   1      49.857  35.971  25.773  1.00  0.00     0.010 A 
ATOM     68  C   UNL A   1      52.144  36.167  27.374  1.00  0.00     0.020 A 
ATOM     69  C   UNL A   1      51.050  36.448  25.222  1.00  0.00     0.020 A 
ATOM     70  C   UNL A   1      52.181  36.557  26.032  1.00  0.00     0.054 A 
BRANCH  70  71
ATOM     71  S   UNL A   1      53.743  37.184  25.354  1.00  0.00     0.124 S 
ATOM     72  O   UNL A   1      53.279  38.235  24.452  1.00  0.00    -0.237 OA
ATOM     73  O   UNL A   1      54.447  37.645  26.548  1.00  0.00    -0.237 OA
ATOM     74  O   UNL A   1      54.329  36.016  24.699  1.00  0.00    -0.744 OA
ENDBRANCH  70  71
ENDBRANCH  51  65
BRANCH  52  75
ATOM     75  C   UNL A   1      41.396  31.571  30.797  1.00  0.00    -0.014 A 
ATOM     76  C   UNL A   1      40.150  31.757  30.172  1.00  0.00     0.010 A 
ATOM     77  C   UNL A   1      41.455  30.824  31.989  1.00  0.00     0.010 A 
ATOM     78  C   UNL A   1      38.987  31.221  30.734  1.00  0.00     0.020 A 
ATOM     79  C   UNL A   1      40.300  30.261  32.538  1.00  0.00     0.020 A 
ATOM     80  C   UNL A   1      39.070  30.472  31.912  1.00  0.00     0.054 A 
BRANCH  80  81
ATOM     81  S   UNL A   1      37.556  29.738  32.591  1.00  0.00     0.124 S 
ATOM     82  O   UNL A   1      37.897  29.590  34.003  1.00  0.00    -0.237 OA
ATOM     83  O   UNL A   1      36.550  30.752  32.285  1.00  0.00    -0.237 OA
ATOM     84  O   UNL A   1      37.416  28.489  31.846  1.00  0.00    -0.744 OA
ENDBRANCH  80  81
ENDBRANCH  52  75
BRANCH  64  85
ATOM     85  C   UNL A   1      44.282  37.925  31.139  1.00  0.00    -0.014 A 
ATOM     86  C   UNL A   1      44.619  38.225  32.471  1.00  0.00     0.010 A 
ATOM     87  C   UNL A   1      43.579  38.878  30.379  1.00  0.00     0.010 A 
ATOM     88  C   UNL A   1      44.232  39.443  33.040  1.00  0.00     0.020 A 
ATOM     89  C   UNL A   1      43.219  40.108  30.933  1.00  0.00     0.020 A 
ATOM     90  C   UNL A   1      43.536  40.377  32.266  1.00  0.00     0.054 A 
BRANCH  90  91
ATOM     91  S   UNL A   1      43.085  41.967  33.014  1.00  0.00     0.124 S 
ATOM     92  O   UNL A   1      41.895  41.615  33.783  1.00  0.00    -0.237 OA
ATOM     93  O   UNL A   1      44.269  42.297  33.803  1.00  0.00    -0.237 OA
ATOM     94  O   UNL A   1      42.848  42.838  31.864  1.00  0.00    -0.744 OA
ENDBRANCH  90  91
ENDBRANCH  64  85
ENDBRANCH  38  39
ENDBRANCH  31  33
ENDBRANCH  30  31
ENDBRANCH  29  30
ENDBRANCH  28  29
ENDBRANCH  27  28
ENDBRANCH  26  27
ENDBRANCH   1  26
TORSDOF 25
ENDMDL
MODEL 3
REMARK VINA RESULT:      -7.2      3.046      7.035
REMARK SMILES CC(C)c1ccc([C@]2(C(=O)OCCOCCOCCOCCOC(=O)c3ccc(-c4c5nc(c(-c6ccc(S(=O)(=O)[O-])cc6)c6ccc([nH]6)c(-c6ccc(S(=O)(=O)[O-])cc6)c6nc(c(-c7ccc(S(=O)(=O)[O-])cc7)c7ccc4[nH]7)C=C6)C=C5)cc3)CCC[C@@H]2C)cc1
REMARK SMILES IDX 18 1 17 2 16 3 15 4 14 5 13 6 12 7 11 8 9 9 10 10 8 11 86 12
REMARK SMILES IDX 89 13 87 14 88 15 90 16 7 17 4 18 5 19 92 20 6 21 91 22 2 23
REMARK SMILES IDX 1 24 3 25 19 26 20 27 21 28 22 29 23 30 24 31 25 32 26 33
REMARK SMILES IDX 27 34 85 35 28 36 84 37 29 38 30 39 31 40 78 41 32 42 83 43
REMARK SMILES IDX 77 44 79 45 33 46 82 47 76 48 75 49 34 51 64 52 45 53 63 54
REMARK SMILES IDX 46 55 49 56 62 57 80 58 47 59 48 60 61 62 81 63 50 64 35 65
REMARK SMILES IDX 36 66 44 67 37 68 43 69 38 70 39 71 40 72 41 73 42 74 65 75
REMARK SMILES IDX 66 76 74 77 67 78 73 79 68 80 69 81 70 82 71 83 72 84 51 85
REMARK SMILES IDX 52 86 60 87 53 88 59 89 54 90 55 91 56 92 57 93 58 94
REMARK H PARENT 79 50 49 61
REMARK Flexibility Score: inf
ROOT
ATOM      1  C   UNL A   1      44.067  22.349  26.916  1.00  0.00     0.188 C 
ENDROOT
BRANCH   1   2
ATOM      2  O   UNL A   1      42.803  21.756  26.712  1.00  0.00    -0.377 OA
BRANCH   2   3
ATOM      3  C   UNL A   1      41.761  22.250  27.523  1.00  0.00     0.188 C 
BRANCH   3   4
ATOM      4  C   UNL A   1      40.343  22.562  27.011  1.00  0.00     0.188 C 
BRANCH   4   5
ATOM      5  O   UNL A   1      39.759  21.609  26.150  1.00  0.00    -0.376 OA
BRANCH   5   6
ATOM      6  C   UNL A   1      38.494  21.764  25.536  1.00  0.00     0.202 C 
BRANCH   6   7
ATOM      7  C   UNL A   1      37.387  22.767  25.914  1.00  0.00     0.261 C 
BRANCH   7   8
ATOM      8  O   UNL A   1      36.914  23.678  24.920  1.00  0.00    -0.463 OA
BRANCH   8   9
ATOM      9  C   UNL A   1      36.081  23.175  23.978  1.00  0.00     0.316 C 
ATOM     10  O   UNL A   1      36.430  23.001  22.812  1.00  0.00    -0.251 OA
BRANCH   9  11
ATOM     11  C   UNL A   1      34.620  22.898  24.493  1.00  0.00     0.095 C 
ATOM     12  C   UNL A   1      34.170  23.422  25.881  1.00  0.00     0.024 C 
ATOM     13  C   UNL A   1      33.723  23.824  23.606  1.00  0.00     0.008 C 
ATOM     14  C   UNL A   1      34.047  24.934  25.774  1.00  0.00     0.002 C 
ATOM     15  C   UNL A   1      33.876  25.212  24.284  1.00  0.00     0.005 C 
ATOM     16  C   UNL A   1      32.232  23.465  23.561  1.00  0.00     0.009 C 
BRANCH  11  17
ATOM     17  C   UNL A   1      34.447  21.368  24.420  1.00  0.00    -0.030 A 
ATOM     18  C   UNL A   1      34.045  18.546  24.553  1.00  0.00    -0.045 A 
ATOM     19  C   UNL A   1      35.320  19.106  24.708  1.00  0.00     0.004 A 
ATOM     20  C   UNL A   1      32.968  19.410  24.351  1.00  0.00     0.004 A 
ATOM     21  C   UNL A   1      35.514  20.494  24.660  1.00  0.00     0.005 A 
ATOM     22  C   UNL A   1      33.171  20.790  24.271  1.00  0.00     0.005 A 
BRANCH  18  23
ATOM     23  C   UNL A   1      33.852  17.042  24.597  1.00  0.00     0.013 C 
ATOM     24  C   UNL A   1      35.028  16.332  25.273  1.00  0.00     0.012 C 
ATOM     25  C   UNL A   1      32.535  16.674  25.288  1.00  0.00     0.012 C 
ENDBRANCH  18  23
ENDBRANCH  11  17
ENDBRANCH   9  11
ENDBRANCH   8   9
ENDBRANCH   7   8
ENDBRANCH   6   7
ENDBRANCH   5   6
ENDBRANCH   4   5
ENDBRANCH   3   4
ENDBRANCH   2   3
ENDBRANCH   1   2
BRANCH   1  26
ATOM     26  C   UNL A   1      44.762  22.555  25.568  1.00  0.00     0.188 C 
BRANCH  26  27
ATOM     27  O   UNL A   1      45.057  23.926  25.321  1.00  0.00    -0.376 OA
BRANCH  27  28
ATOM     28  C   UNL A   1      43.985  24.834  25.080  1.00  0.00     0.202 C 
BRANCH  28  29
ATOM     29  C   UNL A   1      43.491  25.879  26.110  1.00  0.00     0.261 C 
BRANCH  29  30
ATOM     30  O   UNL A   1      42.445  26.786  25.735  1.00  0.00    -0.460 OA
BRANCH  30  31
ATOM     31  C   UNL A   1      41.172  26.482  26.048  1.00  0.00     0.338 C 
ATOM     32  O   UNL A   1      40.467  25.638  25.524  1.00  0.00    -0.246 OA
BRANCH  31  33
ATOM     33  C   UNL A   1      40.854  27.216  27.296  1.00  0.00     0.060 A 
ATOM     34  C   UNL A   1      40.743  28.613  27.247  1.00  0.00     0.016 A 
ATOM     35  C   UNL A   1      40.603  26.531  28.489  1.00  0.00     0.016 A 
ATOM     36  C   UNL A   1      40.402  29.328  28.395  1.00  0.00     0.010 A 
ATOM     37  C   UNL A   1      40.297  27.252  29.648  1.00  0.00     0.010 A 
ATOM     38  C   UNL A   1      40.226  28.656  29.611  1.00  0.00    -0.014 A 
BRANCH  38  39
ATOM     39  C   UNL A   1      40.222  29.433  30.873  1.00  0.00     0.031 A 
ATOM     40  C   UNL A   1      41.326  29.164  31.861  1.00  0.00     0.074 A 
ATOM     41  C   UNL A   1      39.296  30.375  31.127  1.00  0.00     0.049 A 
ATOM     42  N   UNL A   1      41.538  29.695  33.035  1.00  0.00    -0.248 NA
ATOM     43  C   UNL A   1      42.326  28.157  31.465  1.00  0.00     0.031 C 
ATOM     44  C   UNL A   1      38.212  30.765  30.228  1.00  0.00     0.029 A 
ATOM     45  N   UNL A   1      39.125  31.176  32.229  1.00  0.00    -0.354 N 
ATOM     46  C   UNL A   1      42.689  29.085  33.520  1.00  0.00     0.074 A 
ATOM     47  C   UNL A   1      43.114  28.124  32.527  1.00  0.00     0.031 C 
ATOM     48  C   UNL A   1      37.481  31.728  30.821  1.00  0.00     0.029 A 
ATOM     49  C   UNL A   1      38.026  31.998  32.151  1.00  0.00     0.049 A 
ATOM     50  H   UNL A   1      39.733  31.164  33.004  1.00  0.00     0.167 HD
ATOM     51  C   UNL A   1      43.339  29.307  34.685  1.00  0.00     0.031 A 
ATOM     52  C   UNL A   1      37.511  32.853  33.058  1.00  0.00     0.031 A 
ATOM     53  C   UNL A   1      42.899  30.246  35.681  1.00  0.00     0.049 A 
ATOM     54  C   UNL A   1      38.201  33.020  34.389  1.00  0.00     0.074 A 
ATOM     55  C   UNL A   1      43.489  30.550  36.895  1.00  0.00     0.029 A 
ATOM     56  N   UNL A   1      41.757  31.025  35.583  1.00  0.00    -0.354 N 
ATOM     57  N   UNL A   1      39.303  32.454  34.824  1.00  0.00    -0.248 NA
ATOM     58  C   UNL A   1      37.584  33.947  35.348  1.00  0.00     0.031 C 
ATOM     59  C   UNL A   1      42.667  31.466  37.559  1.00  0.00     0.029 A 
ATOM     60  C   UNL A   1      41.606  31.787  36.728  1.00  0.00     0.049 A 
ATOM     61  H   UNL A   1      41.144  31.034  34.812  1.00  0.00     0.167 HD
ATOM     62  C   UNL A   1      39.526  32.981  36.094  1.00  0.00     0.074 A 
ATOM     63  C   UNL A   1      38.452  33.920  36.349  1.00  0.00     0.031 C 
ATOM     64  C   UNL A   1      40.530  32.718  36.967  1.00  0.00     0.031 A 
BRANCH  51  65
ATOM     65  C   UNL A   1      44.568  28.483  34.962  1.00  0.00    -0.014 A 
ATOM     66  C   UNL A   1      44.470  27.155  35.417  1.00  0.00     0.010 A 
ATOM     67  C   UNL A   1      45.840  29.038  34.739  1.00  0.00     0.010 A 
ATOM     68  C   UNL A   1      45.624  26.411  35.679  1.00  0.00     0.020 A 
ATOM     69  C   UNL A   1      46.996  28.288  34.970  1.00  0.00     0.020 A 
ATOM     70  C   UNL A   1      46.879  26.984  35.454  1.00  0.00     0.054 A 
BRANCH  70  71
ATOM     71  S   UNL A   1      48.360  25.986  35.777  1.00  0.00     0.124 S 
ATOM     72  O   UNL A   1      49.327  26.575  34.855  1.00  0.00    -0.237 OA
ATOM     73  O   UNL A   1      48.610  26.237  37.195  1.00  0.00    -0.237 OA
ATOM     74  O   UNL A   1      47.938  24.625  35.452  1.00  0.00    -0.744 OA
ENDBRANCH  70  71
ENDBRANCH  51  65
BRANCH  52  75
ATOM     75  C   UNL A   1      36.259  33.603  32.752  1.00  0.00    -0.014 A 
ATOM     76  C   UNL A   1      36.235  35.009  32.778  1.00  0.00     0.010 A 
ATOM     77  C   UNL A   1      35.074  32.907  32.444  1.00  0.00     0.010 A 
ATOM     78  C   UNL A   1      35.050  35.703  32.516  1.00  0.00     0.020 A 
ATOM     79  C   UNL A   1      33.895  33.598  32.152  1.00  0.00     0.020 A 
ATOM     80  C   UNL A   1      33.887  34.993  32.200  1.00  0.00     0.054 A 
BRANCH  80  81
ATOM     81  S   UNL A   1      32.376  35.916  31.808  1.00  0.00     0.124 S 
ATOM     82  O   UNL A   1      32.150  35.554  30.413  1.00  0.00    -0.237 OA
ATOM     83  O   UNL A   1      31.418  35.372  32.767  1.00  0.00    -0.237 OA
ATOM     84  O   UNL A   1      32.754  37.308  32.042  1.00  0.00    -0.744 OA
ENDBRANCH  80  81
ENDBRANCH  52  75
BRANCH  64  85
ATOM     85  C   UNL A   1      40.547  33.480  38.267  1.00  0.00    -0.014 A 
ATOM     86  C   UNL A   1      41.031  34.797  38.339  1.00  0.00     0.010 A 
ATOM     87  C   UNL A   1      40.007  32.885  39.423  1.00  0.00     0.010 A 
ATOM     88  C   UNL A   1      41.004  35.495  39.551  1.00  0.00     0.020 A 
ATOM     89  C   UNL A   1      39.948  33.589  40.627  1.00  0.00     0.020 A 
ATOM     90  C   UNL A   1      40.460  34.886  40.687  1.00  0.00     0.054 A 
BRANCH  90  91
ATOM     91  S   UNL A   1      40.396  35.828  42.236  1.00  0.00     0.124 S 
ATOM     92  O   UNL A   1      41.122  37.044  41.884  1.00  0.00    -0.237 OA
ATOM     93  O   UNL A   1      38.960  35.992  42.451  1.00  0.00    -0.237 OA
ATOM     94  O   UNL A   1      41.068  34.958  43.200  1.00  0.00    -0.744 OA
ENDBRANCH  90  91
ENDBRANCH  64  85
ENDBRANCH  38  39
ENDBRANCH  31  33
ENDBRANCH  30  31
ENDBRANCH  29  30
ENDBRANCH  28  29
ENDBRANCH  27  28
ENDBRANCH  26  27
ENDBRANCH   1  26
TORSDOF 25
ENDMDL
