MODEL 1
REMARK VINA RESULT:      -6.6      0.000      0.000
REMARK SMILES [NH3+][C@]1(C(=O)OCCOCCOCCOCCOC(=O)c2ccc(-c3c4nc(c(-c5ccc(S(=O)(=O)[O-])cc5)c5ccc([nH]5)c(-c5ccc(S(=O)(=O)[O-])cc5)c5nc(c(-c6ccc(S(=O)(=O)[O-])cc6)c6ccc3[nH]6)C=C5)C=C4)cc2)CCC[C@@H]1CCn1cc(I)cn1
REMARK SMILES IDX 11 1 10 2 9 3 8 4 7 5 6 6 5 7 3 8 4 9 2 10 80 11 83 12 81 13
REMARK SMILES IDX 82 14 1 15 84 19 85 20 86 21 87 22 91 23 88 24 90 25 89 26
REMARK SMILES IDX 12 27 13 28 14 29 15 30 16 31 17 32 18 33 19 34 20 35 21 36
REMARK SMILES IDX 79 37 22 38 78 39 23 40 24 41 25 42 72 43 26 44 77 45 71 46
REMARK SMILES IDX 73 47 27 48 76 49 70 50 69 51 28 53 58 54 39 55 57 56 40 57
REMARK SMILES IDX 43 58 56 59 74 60 41 61 42 62 55 64 75 65 44 66 29 67 30 68
REMARK SMILES IDX 38 69 31 70 37 71 32 72 33 73 34 74 35 75 36 76 59 77 60 78
REMARK SMILES IDX 68 79 61 80 67 81 62 82 63 83 64 84 65 85 66 86 45 87 46 88
REMARK SMILES IDX 54 89 47 90 53 91 48 92 49 93 50 94 51 95 52 96
REMARK H PARENT 1 16 1 17 1 18 73 52 43 63
REMARK Flexibility Score: inf
ROOT
ATOM      1  O   UNL A   1      35.314  32.152  29.117  1.00  0.00    -0.377 OA
ENDROOT
BRANCH   1   2
ATOM      2  C   UNL A   1      36.432  31.733  28.358  1.00  0.00     0.188 C 
BRANCH   2   3
ATOM      3  C   UNL A   1      37.817  32.079  28.933  1.00  0.00     0.188 C 
BRANCH   3   4
ATOM      4  O   UNL A   1      38.553  30.926  29.293  1.00  0.00    -0.376 OA
BRANCH   4   5
ATOM      5  C   UNL A   1      37.981  29.641  29.111  1.00  0.00     0.202 C 
BRANCH   5   6
ATOM      6  C   UNL A   1      37.768  28.622  30.259  1.00  0.00     0.261 C 
BRANCH   6   7
ATOM      7  O   UNL A   1      38.788  28.611  31.258  1.00  0.00    -0.459 OA
BRANCH   7   8
ATOM      8  C   UNL A   1      38.410  28.844  32.562  1.00  0.00     0.368 C 
ATOM      9  O   UNL A   1      37.607  28.176  33.194  1.00  0.00    -0.245 OA
BRANCH   8  10
ATOM     10  C   UNL A   1      39.374  29.940  33.146  1.00  0.00     0.195 C 
ATOM     11  C   UNL A   1      38.727  30.499  34.443  1.00  0.00     0.081 C 
ATOM     12  C   UNL A   1      40.789  29.471  33.569  1.00  0.00     0.064 C 
ATOM     13  C   UNL A   1      39.799  30.459  35.519  1.00  0.00     0.008 C 
ATOM     14  C   UNL A   1      40.667  29.295  35.095  1.00  0.00     0.011 C 
BRANCH  10  15
ATOM     15  N   UNL A   1      39.538  30.888  32.036  1.00  0.00    -0.343 N 
ATOM     16  H   UNL A   1      39.036  30.544  31.218  1.00  0.00     0.345 HD
ATOM     17  H   UNL A   1      40.528  30.981  31.813  1.00  0.00     0.345 HD
ATOM     18  H   UNL A   1      39.163  31.796  32.308  1.00  0.00     0.345 HD
ENDBRANCH  10  15
BRANCH  12  19
ATOM     19  C   UNL A   1      42.062  30.343  33.233  1.00  0.00     0.034 C 
BRANCH  19  20
ATOM     20  C   UNL A   1      42.931  30.258  31.954  1.00  0.00     0.145 C 
BRANCH  20  21
ATOM     21  N   UNL A   1      42.564  29.332  30.897  1.00  0.00    -0.272 N 
ATOM     22  C   UNL A   1      43.142  28.126  30.594  1.00  0.00     0.123 A 
ATOM     23  N   UNL A   1      41.770  29.780  29.889  1.00  0.00    -0.180 NA
ATOM     24  C   UNL A   1      42.686  27.777  29.353  1.00  0.00     0.051 A 
ATOM     25  C   UNL A   1      41.863  28.829  28.952  1.00  0.00     0.149 A 
ATOM     26  I   UNL A   1      43.182  26.113  28.342  1.00  0.00    -0.041 I 
ENDBRANCH  20  21
ENDBRANCH  19  20
ENDBRANCH  12  19
ENDBRANCH   8  10
ENDBRANCH   7   8
ENDBRANCH   6   7
ENDBRANCH   5   6
ENDBRANCH   4   5
ENDBRANCH   3   4
ENDBRANCH   2   3
ENDBRANCH   1   2
BRANCH   1  27
ATOM     27  C   UNL A   1      34.026  32.077  28.508  1.00  0.00     0.188 C 
BRANCH  27  28
ATOM     28  C   UNL A   1      33.534  33.187  27.548  1.00  0.00     0.188 C 
BRANCH  28  29
ATOM     29  O   UNL A   1      34.441  34.262  27.340  1.00  0.00    -0.376 OA
BRANCH  29  30
ATOM     30  C   UNL A   1      34.475  35.293  28.317  1.00  0.00     0.202 C 
BRANCH  30  31
ATOM     31  C   UNL A   1      33.114  35.742  28.865  1.00  0.00     0.261 C 
BRANCH  31  32
ATOM     32  O   UNL A   1      32.611  34.991  29.981  1.00  0.00    -0.460 OA
BRANCH  32  33
ATOM     33  C   UNL A   1      32.552  35.600  31.186  1.00  0.00     0.338 C 
ATOM     34  O   UNL A   1      31.617  36.225  31.655  1.00  0.00    -0.246 OA
BRANCH  33  35
ATOM     35  C   UNL A   1      33.753  35.190  31.941  1.00  0.00     0.060 A 
ATOM     36  C   UNL A   1      34.340  36.103  32.827  1.00  0.00     0.016 A 
ATOM     37  C   UNL A   1      34.272  33.902  31.795  1.00  0.00     0.016 A 
ATOM     38  C   UNL A   1      35.471  35.736  33.554  1.00  0.00     0.010 A 
ATOM     39  C   UNL A   1      35.423  33.546  32.499  1.00  0.00     0.010 A 
ATOM     40  C   UNL A   1      36.044  34.473  33.354  1.00  0.00    -0.014 A 
BRANCH  40  41
ATOM     41  C   UNL A   1      37.419  34.215  33.838  1.00  0.00     0.031 A 
ATOM     42  C   UNL A   1      37.599  33.913  35.301  1.00  0.00     0.074 A 
ATOM     43  C   UNL A   1      38.477  34.232  33.009  1.00  0.00     0.049 A 
ATOM     44  N   UNL A   1      38.696  33.685  35.972  1.00  0.00    -0.248 NA
ATOM     45  C   UNL A   1      36.372  33.865  36.115  1.00  0.00     0.031 C 
ATOM     46  C   UNL A   1      38.424  34.467  31.567  1.00  0.00     0.029 A 
ATOM     47  N   UNL A   1      39.812  34.054  33.273  1.00  0.00    -0.354 N 
ATOM     48  C   UNL A   1      38.293  33.471  37.285  1.00  0.00     0.074 A 
ATOM     49  C   UNL A   1      36.856  33.621  37.322  1.00  0.00     0.031 C 
ATOM     50  C   UNL A   1      39.676  34.429  31.075  1.00  0.00     0.029 A 
ATOM     51  C   UNL A   1      40.618  34.199  32.170  1.00  0.00     0.049 A 
ATOM     52  H   UNL A   1      40.160  33.841  34.170  1.00  0.00     0.167 HD
ATOM     53  C   UNL A   1      39.052  33.172  38.364  1.00  0.00     0.031 A 
ATOM     54  C   UNL A   1      41.962  34.170  32.065  1.00  0.00     0.031 A 
ATOM     55  C   UNL A   1      40.483  33.051  38.331  1.00  0.00     0.049 A 
ATOM     56  C   UNL A   1      42.793  33.916  33.297  1.00  0.00     0.074 A 
ATOM     57  C   UNL A   1      41.344  32.747  39.369  1.00  0.00     0.029 A 
ATOM     58  N   UNL A   1      41.265  33.241  37.202  1.00  0.00    -0.354 N 
ATOM     59  N   UNL A   1      42.399  33.687  34.527  1.00  0.00    -0.248 NA
ATOM     60  C   UNL A   1      44.253  33.911  33.125  1.00  0.00     0.031 C 
ATOM     61  C   UNL A   1      42.653  32.810  38.880  1.00  0.00     0.029 A 
ATOM     62  C   UNL A   1      42.602  33.089  37.523  1.00  0.00     0.049 A 
ATOM     63  H   UNL A   1      40.919  33.453  36.304  1.00  0.00     0.167 HD
ATOM     64  C   UNL A   1      43.559  33.481  35.268  1.00  0.00     0.074 A 
ATOM     65  C   UNL A   1      44.669  33.602  34.345  1.00  0.00     0.031 C 
ATOM     66  C   UNL A   1      43.694  33.212  36.591  1.00  0.00     0.031 A 
BRANCH  53  67
ATOM     67  C   UNL A   1      38.342  33.001  39.679  1.00  0.00    -0.014 A 
ATOM     68  C   UNL A   1      37.672  31.804  39.996  1.00  0.00     0.010 A 
ATOM     69  C   UNL A   1      38.361  34.046  40.620  1.00  0.00     0.010 A 
ATOM     70  C   UNL A   1      37.002  31.672  41.214  1.00  0.00     0.020 A 
ATOM     71  C   UNL A   1      37.715  33.907  41.850  1.00  0.00     0.020 A 
ATOM     72  C   UNL A   1      37.025  32.726  42.133  1.00  0.00     0.054 A 
BRANCH  72  73
ATOM     73  S   UNL A   1      36.165  32.519  43.716  1.00  0.00     0.124 S 
ATOM     74  O   UNL A   1      35.360  31.324  43.466  1.00  0.00    -0.237 OA
ATOM     75  O   UNL A   1      37.266  32.348  44.659  1.00  0.00    -0.237 OA
ATOM     76  O   UNL A   1      35.408  33.760  43.864  1.00  0.00    -0.744 OA
ENDBRANCH  72  73
ENDBRANCH  53  67
BRANCH  54  77
ATOM     77  C   UNL A   1      42.611  34.407  30.746  1.00  0.00    -0.014 A 
ATOM     78  C   UNL A   1      42.850  33.342  29.859  1.00  0.00     0.010 A 
ATOM     79  C   UNL A   1      43.004  35.706  30.373  1.00  0.00     0.010 A 
ATOM     80  C   UNL A   1      43.480  33.570  28.631  1.00  0.00     0.020 A 
ATOM     81  C   UNL A   1      43.610  35.942  29.136  1.00  0.00     0.020 A 
ATOM     82  C   UNL A   1      43.854  34.869  28.276  1.00  0.00     0.054 A 
BRANCH  82  83
ATOM     83  S   UNL A   1      44.622  35.148  26.656  1.00  0.00     0.124 S 
ATOM     84  O   UNL A   1      45.087  36.526  26.772  1.00  0.00    -0.237 OA
ATOM     85  O   UNL A   1      45.667  34.128  26.623  1.00  0.00    -0.237 OA
ATOM     86  O   UNL A   1      43.524  34.934  25.716  1.00  0.00    -0.744 OA
ENDBRANCH  82  83
ENDBRANCH  54  77
BRANCH  66  87
ATOM     87  C   UNL A   1      45.086  32.991  37.121  1.00  0.00    -0.014 A 
ATOM     88  C   UNL A   1      45.833  34.043  37.681  1.00  0.00     0.010 A 
ATOM     89  C   UNL A   1      45.628  31.692  37.119  1.00  0.00     0.010 A 
ATOM     90  C   UNL A   1      47.107  33.804  38.203  1.00  0.00     0.020 A 
ATOM     91  C   UNL A   1      46.888  31.443  37.666  1.00  0.00     0.020 A 
ATOM     92  C   UNL A   1      47.627  32.504  38.193  1.00  0.00     0.054 A 
BRANCH  92  93
ATOM     93  S   UNL A   1      49.263  32.212  38.920  1.00  0.00     0.124 S 
ATOM     94  O   UNL A   1      49.639  30.936  38.316  1.00  0.00    -0.237 OA
ATOM     95  O   UNL A   1      50.027  33.371  38.466  1.00  0.00    -0.237 OA
ATOM     96  O   UNL A   1      49.002  32.168  40.356  1.00  0.00    -0.744 OA
ENDBRANCH  92  93
ENDBRANCH  66  87
ENDBRANCH  40  41
ENDBRANCH  33  35
ENDBRANCH  32  33
ENDBRANCH  31  32
ENDBRANCH  30  31
ENDBRANCH  29  30
ENDBRANCH  28  29
ENDBRANCH  27  28
ENDBRANCH   1  27
TORSDOF 27
ENDMDL
MODEL 2
REMARK VINA RESULT:      -6.2      5.325     10.879
REMARK SMILES [NH3+][C@]1(C(=O)OCCOCCOCCOCCOC(=O)c2ccc(-c3c4nc(c(-c5ccc(S(=O)(=O)[O-])cc5)c5ccc([nH]5)c(-c5ccc(S(=O)(=O)[O-])cc5)c5nc(c(-c6ccc(S(=O)(=O)[O-])cc6)c6ccc3[nH]6)C=C5)C=C4)cc2)CCC[C@@H]1CCn1cc(I)cn1
REMARK SMILES IDX 11 1 10 2 9 3 8 4 7 5 6 6 5 7 3 8 4 9 2 10 80 11 83 12 81 13
REMARK SMILES IDX 82 14 1 15 84 19 85 20 86 21 87 22 91 23 88 24 90 25 89 26
REMARK SMILES IDX 12 27 13 28 14 29 15 30 16 31 17 32 18 33 19 34 20 35 21 36
REMARK SMILES IDX 79 37 22 38 78 39 23 40 24 41 25 42 72 43 26 44 77 45 71 46
REMARK SMILES IDX 73 47 27 48 76 49 70 50 69 51 28 53 58 54 39 55 57 56 40 57
REMARK SMILES IDX 43 58 56 59 74 60 41 61 42 62 55 64 75 65 44 66 29 67 30 68
REMARK SMILES IDX 38 69 31 70 37 71 32 72 33 73 34 74 35 75 36 76 59 77 60 78
REMARK SMILES IDX 68 79 61 80 67 81 62 82 63 83 64 84 65 85 66 86 45 87 46 88
REMARK SMILES IDX 54 89 47 90 53 91 48 92 49 93 50 94 51 95 52 96
REMARK H PARENT 1 16 1 17 1 18 73 52 43 63
REMARK Flexibility Score: inf
ROOT
ATOM      1  O   UNL A   1      40.742  24.493  27.466  1.00  0.00    -0.377 OA
ENDROOT
BRANCH   1   2
ATOM      2  C   UNL A   1      39.506  23.825  27.632  1.00  0.00     0.188 C 
BRANCH   2   3
ATOM      3  C   UNL A   1      38.545  23.854  26.430  1.00  0.00     0.188 C 
BRANCH   3   4
ATOM      4  O   UNL A   1      38.688  22.719  25.599  1.00  0.00    -0.376 OA
BRANCH   4   5
ATOM      5  C   UNL A   1      37.584  21.852  25.396  1.00  0.00     0.202 C 
BRANCH   5   6
ATOM      6  C   UNL A   1      36.207  22.034  26.083  1.00  0.00     0.261 C 
BRANCH   6   7
ATOM      7  O   UNL A   1      35.087  22.055  25.199  1.00  0.00    -0.459 OA
BRANCH   7   8
ATOM      8  C   UNL A   1      34.199  23.102  25.316  1.00  0.00     0.368 C 
ATOM      9  O   UNL A   1      34.080  23.820  26.295  1.00  0.00    -0.245 OA
BRANCH   8  10
ATOM     10  C   UNL A   1      33.571  23.351  23.896  1.00  0.00     0.195 C 
ATOM     11  C   UNL A   1      32.373  22.377  23.729  1.00  0.00     0.081 C 
ATOM     12  C   UNL A   1      32.987  24.761  23.628  1.00  0.00     0.064 C 
ATOM     13  C   UNL A   1      31.193  23.211  23.257  1.00  0.00     0.008 C 
ATOM     14  C   UNL A   1      31.475  24.572  23.855  1.00  0.00     0.011 C 
BRANCH  10  15
ATOM     15  N   UNL A   1      34.700  23.161  22.977  1.00  0.00    -0.343 N 
ATOM     16  H   UNL A   1      34.632  22.242  22.539  1.00  0.00     0.345 HD
ATOM     17  H   UNL A   1      35.576  23.226  23.495  1.00  0.00     0.345 HD
ATOM     18  H   UNL A   1      34.676  23.883  22.256  1.00  0.00     0.345 HD
ENDBRANCH  10  15
BRANCH  12  19
ATOM     19  C   UNL A   1      33.233  25.487  22.248  1.00  0.00     0.034 C 
BRANCH  19  20
ATOM     20  C   UNL A   1      33.342  27.014  22.011  1.00  0.00     0.145 C 
BRANCH  20  21
ATOM     21  N   UNL A   1      32.910  27.934  23.049  1.00  0.00    -0.272 N 
ATOM     22  C   UNL A   1      33.526  28.208  24.243  1.00  0.00     0.123 A 
ATOM     23  N   UNL A   1      31.627  28.380  23.028  1.00  0.00    -0.180 NA
ATOM     24  C   UNL A   1      32.610  28.871  25.010  1.00  0.00     0.051 A 
ATOM     25  C   UNL A   1      31.454  28.938  24.232  1.00  0.00     0.149 A 
ATOM     26  I   UNL A   1      32.903  29.534  26.884  1.00  0.00    -0.041 I 
ENDBRANCH  20  21
ENDBRANCH  19  20
ENDBRANCH  12  19
ENDBRANCH   8  10
ENDBRANCH   7   8
ENDBRANCH   6   7
ENDBRANCH   5   6
ENDBRANCH   4   5
ENDBRANCH   3   4
ENDBRANCH   2   3
ENDBRANCH   1   2
BRANCH   1  27
ATOM     27  C   UNL A   1      41.933  23.708  27.472  1.00  0.00     0.188 C 
BRANCH  27  28
ATOM     28  C   UNL A   1      42.285  22.786  26.278  1.00  0.00     0.188 C 
BRANCH  28  29
ATOM     29  O   UNL A   1      42.601  23.453  25.063  1.00  0.00    -0.376 OA
BRANCH  29  30
ATOM     30  C   UNL A   1      43.973  23.571  24.715  1.00  0.00     0.202 C 
BRANCH  30  31
ATOM     31  C   UNL A   1      44.680  24.844  25.199  1.00  0.00     0.261 C 
BRANCH  31  32
ATOM     32  O   UNL A   1      43.822  25.900  25.659  1.00  0.00    -0.460 OA
BRANCH  32  33
ATOM     33  C   UNL A   1      44.333  27.148  25.740  1.00  0.00     0.338 C 
ATOM     34  O   UNL A   1      45.064  27.703  24.938  1.00  0.00    -0.246 OA
BRANCH  33  35
ATOM     35  C   UNL A   1      43.672  27.817  26.877  1.00  0.00     0.060 A 
ATOM     36  C   UNL A   1      44.135  29.076  27.285  1.00  0.00     0.016 A 
ATOM     37  C   UNL A   1      42.583  27.218  27.513  1.00  0.00     0.016 A 
ATOM     38  C   UNL A   1      43.523  29.729  28.353  1.00  0.00     0.010 A 
ATOM     39  C   UNL A   1      41.991  27.858  28.602  1.00  0.00     0.010 A 
ATOM     40  C   UNL A   1      42.481  29.098  29.046  1.00  0.00    -0.014 A 
BRANCH  40  41
ATOM     41  C   UNL A   1      42.076  29.612  30.374  1.00  0.00     0.031 A 
ATOM     42  C   UNL A   1      40.791  30.389  30.460  1.00  0.00     0.074 A 
ATOM     43  C   UNL A   1      42.815  29.388  31.475  1.00  0.00     0.049 A 
ATOM     44  N   UNL A   1      40.239  30.966  31.494  1.00  0.00    -0.248 NA
ATOM     45  C   UNL A   1      40.028  30.534  29.208  1.00  0.00     0.031 C 
ATOM     46  C   UNL A   1      44.052  28.612  31.526  1.00  0.00     0.029 A 
ATOM     47  N   UNL A   1      42.625  29.806  32.768  1.00  0.00    -0.354 N 
ATOM     48  C   UNL A   1      39.069  31.546  31.016  1.00  0.00     0.074 A 
ATOM     49  C   UNL A   1      39.003  31.273  29.599  1.00  0.00     0.031 C 
ATOM     50  C   UNL A   1      44.518  28.620  32.788  1.00  0.00     0.029 A 
ATOM     51  C   UNL A   1      43.628  29.425  33.626  1.00  0.00     0.049 A 
ATOM     52  H   UNL A   1      41.841  30.329  33.056  1.00  0.00     0.167 HD
ATOM     53  C   UNL A   1      38.130  32.241  31.699  1.00  0.00     0.031 A 
ATOM     54  C   UNL A   1      43.816  29.715  34.929  1.00  0.00     0.031 A 
ATOM     55  C   UNL A   1      38.211  32.536  33.102  1.00  0.00     0.049 A 
ATOM     56  C   UNL A   1      42.798  30.560  35.651  1.00  0.00     0.074 A 
ATOM     57  C   UNL A   1      37.310  33.229  33.889  1.00  0.00     0.029 A 
ATOM     58  N   UNL A   1      39.262  32.164  33.927  1.00  0.00    -0.354 N 
ATOM     59  N   UNL A   1      41.681  31.078  35.196  1.00  0.00    -0.248 NA
ATOM     60  C   UNL A   1      43.061  30.856  37.067  1.00  0.00     0.031 C 
ATOM     61  C   UNL A   1      37.843  33.327  35.178  1.00  0.00     0.029 A 
ATOM     62  C   UNL A   1      39.046  32.637  35.209  1.00  0.00     0.049 A 
ATOM     63  H   UNL A   1      40.046  31.640  33.642  1.00  0.00     0.167 HD
ATOM     64  C   UNL A   1      41.096  31.735  36.275  1.00  0.00     0.074 A 
ATOM     65  C   UNL A   1      41.977  31.539  37.408  1.00  0.00     0.031 C 
ATOM     66  C   UNL A   1      39.934  32.432  36.325  1.00  0.00     0.031 A 
BRANCH  53  67
ATOM     67  C   UNL A   1      36.958  32.766  30.916  1.00  0.00    -0.014 A 
ATOM     68  C   UNL A   1      35.767  32.024  30.800  1.00  0.00     0.010 A 
ATOM     69  C   UNL A   1      37.041  34.029  30.303  1.00  0.00     0.010 A 
ATOM     70  C   UNL A   1      34.697  32.520  30.053  1.00  0.00     0.020 A 
ATOM     71  C   UNL A   1      35.963  34.540  29.578  1.00  0.00     0.020 A 
ATOM     72  C   UNL A   1      34.803  33.774  29.444  1.00  0.00     0.054 A 
BRANCH  72  73
ATOM     73  S   UNL A   1      33.389  34.403  28.497  1.00  0.00     0.124 S 
ATOM     74  O   UNL A   1      32.535  34.940  29.554  1.00  0.00    -0.237 OA
ATOM     75  O   UNL A   1      34.005  35.397  27.623  1.00  0.00    -0.237 OA
ATOM     76  O   UNL A   1      32.871  33.217  27.819  1.00  0.00    -0.744 OA
ENDBRANCH  72  73
ENDBRANCH  53  67
BRANCH  54  77
ATOM     77  C   UNL A   1      45.029  29.217  35.636  1.00  0.00    -0.014 A 
ATOM     78  C   UNL A   1      45.013  27.982  36.309  1.00  0.00     0.010 A 
ATOM     79  C   UNL A   1      46.208  29.985  35.646  1.00  0.00     0.010 A 
ATOM     80  C   UNL A   1      46.149  27.532  36.990  1.00  0.00     0.020 A 
ATOM     81  C   UNL A   1      47.353  29.526  36.303  1.00  0.00     0.020 A 
ATOM     82  C   UNL A   1      47.314  28.306  36.979  1.00  0.00     0.054 A 
BRANCH  82  83
ATOM     83  S   UNL A   1      48.791  27.676  37.824  1.00  0.00     0.124 S 
ATOM     84  O   UNL A   1      49.409  26.857  36.786  1.00  0.00    -0.237 OA
ATOM     85  O   UNL A   1      49.504  28.904  38.169  1.00  0.00    -0.237 OA
ATOM     86  O   UNL A   1      48.247  26.941  38.963  1.00  0.00    -0.744 OA
ENDBRANCH  82  83
ENDBRANCH  54  77
BRANCH  66  87
ATOM     87  C   UNL A   1      39.521  33.007  37.655  1.00  0.00    -0.014 A 
ATOM     88  C   UNL A   1      40.037  34.231  38.116  1.00  0.00     0.010 A 
ATOM     89  C   UNL A   1      38.546  32.341  38.422  1.00  0.00     0.010 A 
ATOM     90  C   UNL A   1      39.606  34.763  39.335  1.00  0.00     0.020 A 
ATOM     91  C   UNL A   1      38.092  32.884  39.626  1.00  0.00     0.020 A 
ATOM     92  C   UNL A   1      38.636  34.086  40.082  1.00  0.00     0.054 A 
BRANCH  92  93
ATOM     93  S   UNL A   1      38.060  34.822  41.637  1.00  0.00     0.124 S 
ATOM     94  O   UNL A   1      38.208  36.250  41.370  1.00  0.00    -0.237 OA
ATOM     95  O   UNL A   1      36.685  34.338  41.730  1.00  0.00    -0.237 OA
ATOM     96  O   UNL A   1      38.974  34.278  42.638  1.00  0.00    -0.744 OA
ENDBRANCH  92  93
ENDBRANCH  66  87
ENDBRANCH  40  41
ENDBRANCH  33  35
ENDBRANCH  32  33
ENDBRANCH  31  32
ENDBRANCH  30  31
ENDBRANCH  29  30
ENDBRANCH  28  29
ENDBRANCH  27  28
ENDBRANCH   1  27
TORSDOF 27
ENDMDL
MODEL 3
REMARK VINA RESULT:      -5.4      8.621     13.191
REMARK SMILES [NH3+][C@]1(C(=O)OCCOCCOCCOCCOC(=O)c2ccc(-c3c4nc(c(-c5ccc(S(=O)(=O)[O-])cc5)c5ccc([nH]5)c(-c5ccc(S(=O)(=O)[O-])cc5)c5nc(c(-c6ccc(S(=O)(=O)[O-])cc6)c6ccc3[nH]6)C=C5)C=C4)cc2)CCC[C@@H]1CCn1cc(I)cn1
REMARK SMILES IDX 11 1 10 2 9 3 8 4 7 5 6 6 5 7 3 8 4 9 2 10 80 11 83 12 81 13
REMARK SMILES IDX 82 14 1 15 84 19 85 20 86 21 87 22 91 23 88 24 90 25 89 26
REMARK SMILES IDX 12 27 13 28 14 29 15 30 16 31 17 32 18 33 19 34 20 35 21 36
REMARK SMILES IDX 79 37 22 38 78 39 23 40 24 41 25 42 72 43 26 44 77 45 71 46
REMARK SMILES IDX 73 47 27 48 76 49 70 50 69 51 28 53 58 54 39 55 57 56 40 57
REMARK SMILES IDX 43 58 56 59 74 60 41 61 42 62 55 64 75 65 44 66 29 67 30 68
REMARK SMILES IDX 38 69 31 70 37 71 32 72 33 73 34 74 35 75 36 76 59 77 60 78
REMARK SMILES IDX 68 79 61 80 67 81 62 82 63 83 64 84 65 85 66 86 45 87 46 88
REMARK SMILES IDX 54 89 47 90 53 91 48 92 49 93 50 94 51 95 52 96
REMARK H PARENT 1 16 1 17 1 18 73 52 43 63
REMARK Flexibility Score: inf
ROOT
ATOM      1  O   UNL A   1      41.322  21.104  26.369  1.00  0.00    -0.377 OA
ENDROOT
BRANCH   1   2
ATOM      2  C   UNL A   1      39.951  21.368  26.595  1.00  0.00     0.188 C 
BRANCH   2   3
ATOM      3  C   UNL A   1      39.017  21.217  25.380  1.00  0.00     0.188 C 
BRANCH   3   4
ATOM      4  O   UNL A   1      37.757  21.824  25.592  1.00  0.00    -0.376 OA
BRANCH   4   5
ATOM      5  C   UNL A   1      36.590  21.019  25.659  1.00  0.00     0.202 C 
BRANCH   5   6
ATOM      6  C   UNL A   1      35.183  21.504  25.228  1.00  0.00     0.261 C 
BRANCH   6   7
ATOM      7  O   UNL A   1      35.164  22.714  24.471  1.00  0.00    -0.459 OA
BRANCH   7   8
ATOM      8  C   UNL A   1      34.402  23.757  24.951  1.00  0.00     0.368 C 
ATOM      9  O   UNL A   1      34.813  24.663  25.658  1.00  0.00    -0.245 OA
BRANCH   8  10
ATOM     10  C   UNL A   1      33.010  23.701  24.223  1.00  0.00     0.195 C 
ATOM     11  C   UNL A   1      32.105  22.709  25.003  1.00  0.00     0.081 C 
ATOM     12  C   UNL A   1      32.202  25.021  24.158  1.00  0.00     0.064 C 
ATOM     13  C   UNL A   1      30.786  23.421  25.250  1.00  0.00     0.008 C 
ATOM     14  C   UNL A   1      31.188  24.878  25.310  1.00  0.00     0.011 C 
BRANCH  10  15
ATOM     15  N   UNL A   1      33.352  23.327  22.844  1.00  0.00    -0.343 N 
ATOM     16  H   UNL A   1      34.244  23.750  22.588  1.00  0.00     0.345 HD
ATOM     17  H   UNL A   1      32.625  23.659  22.211  1.00  0.00     0.345 HD
ATOM     18  H   UNL A   1      33.425  22.312  22.776  1.00  0.00     0.345 HD
ENDBRANCH  10  15
BRANCH  12  19
ATOM     19  C   UNL A   1      31.450  25.443  22.836  1.00  0.00     0.034 C 
BRANCH  19  20
ATOM     20  C   UNL A   1      31.402  26.859  22.210  1.00  0.00     0.145 C 
BRANCH  20  21
ATOM     21  N   UNL A   1      30.720  27.932  22.912  1.00  0.00    -0.272 N 
ATOM     22  C   UNL A   1      29.622  28.644  22.504  1.00  0.00     0.123 A 
ATOM     23  N   UNL A   1      31.359  28.539  23.948  1.00  0.00    -0.180 NA
ATOM     24  C   UNL A   1      29.540  29.738  23.320  1.00  0.00     0.051 A 
ATOM     25  C   UNL A   1      30.636  29.642  24.177  1.00  0.00     0.149 A 
ATOM     26  I   UNL A   1      28.146  31.181  23.218  1.00  0.00    -0.041 I 
ENDBRANCH  20  21
ENDBRANCH  19  20
ENDBRANCH  12  19
ENDBRANCH   8  10
ENDBRANCH   7   8
ENDBRANCH   6   7
ENDBRANCH   5   6
ENDBRANCH   4   5
ENDBRANCH   3   4
ENDBRANCH   2   3
ENDBRANCH   1   2
BRANCH   1  27
ATOM     27  C   UNL A   1      41.850  19.863  26.836  1.00  0.00     0.188 C 
BRANCH  27  28
ATOM     28  C   UNL A   1      42.380  18.800  25.842  1.00  0.00     0.188 C 
BRANCH  28  29
ATOM     29  O   UNL A   1      43.634  18.221  26.178  1.00  0.00    -0.376 OA
BRANCH  29  30
ATOM     30  C   UNL A   1      44.802  18.817  25.631  1.00  0.00     0.202 C 
BRANCH  30  31
ATOM     31  C   UNL A   1      44.572  19.830  24.502  1.00  0.00     0.261 C 
BRANCH  31  32
ATOM     32  O   UNL A   1      44.111  21.129  24.910  1.00  0.00    -0.460 OA
BRANCH  32  33
ATOM     33  C   UNL A   1      44.637  22.213  24.300  1.00  0.00     0.338 C 
ATOM     34  O   UNL A   1      44.478  22.562  23.143  1.00  0.00    -0.246 OA
BRANCH  33  35
ATOM     35  C   UNL A   1      45.272  23.037  25.347  1.00  0.00     0.060 A 
ATOM     36  C   UNL A   1      45.925  24.221  24.974  1.00  0.00     0.016 A 
ATOM     37  C   UNL A   1      45.194  22.659  26.688  1.00  0.00     0.016 A 
ATOM     38  C   UNL A   1      46.528  25.017  25.945  1.00  0.00     0.010 A 
ATOM     39  C   UNL A   1      45.825  23.440  27.656  1.00  0.00     0.010 A 
ATOM     40  C   UNL A   1      46.522  24.603  27.283  1.00  0.00    -0.014 A 
BRANCH  40  41
ATOM     41  C   UNL A   1      47.448  25.241  28.246  1.00  0.00     0.031 A 
ATOM     42  C   UNL A   1      46.903  25.612  29.598  1.00  0.00     0.074 A 
ATOM     43  C   UNL A   1      48.737  25.473  27.941  1.00  0.00     0.049 A 
ATOM     44  N   UNL A   1      47.499  26.205  30.598  1.00  0.00    -0.248 NA
ATOM     45  C   UNL A   1      45.494  25.266  29.854  1.00  0.00     0.031 C 
ATOM     46  C   UNL A   1      49.390  25.118  26.683  1.00  0.00     0.029 A 
ATOM     47  N   UNL A   1      49.725  26.077  28.677  1.00  0.00    -0.354 N 
ATOM     48  C   UNL A   1      46.538  26.308  31.597  1.00  0.00     0.074 A 
ATOM     49  C   UNL A   1      45.315  25.741  31.076  1.00  0.00     0.031 C 
ATOM     50  C   UNL A   1      50.673  25.522  26.731  1.00  0.00     0.029 A 
ATOM     51  C   UNL A   1      50.920  26.190  28.009  1.00  0.00     0.049 A 
ATOM     52  H   UNL A   1      49.591  26.398  29.599  1.00  0.00     0.167 HD
ATOM     53  C   UNL A   1      46.663  26.827  32.840  1.00  0.00     0.031 A 
ATOM     54  C   UNL A   1      52.072  26.785  28.381  1.00  0.00     0.031 A 
ATOM     55  C   UNL A   1      47.871  27.417  33.346  1.00  0.00     0.049 A 
ATOM     56  C   UNL A   1      52.164  27.429  29.741  1.00  0.00     0.074 A 
ATOM     57  C   UNL A   1      48.102  27.966  34.594  1.00  0.00     0.029 A 
ATOM     58  N   UNL A   1      49.048  27.545  32.625  1.00  0.00    -0.354 N 
ATOM     59  N   UNL A   1      51.257  27.495  30.687  1.00  0.00    -0.248 NA
ATOM     60  C   UNL A   1      53.438  28.076  30.086  1.00  0.00     0.031 C 
ATOM     61  C   UNL A   1      49.403  28.479  34.609  1.00  0.00     0.029 A 
ATOM     62  C   UNL A   1      50.002  28.191  33.392  1.00  0.00     0.049 A 
ATOM     63  H   UNL A   1      49.185  27.224  31.704  1.00  0.00     0.167 HD
ATOM     64  C   UNL A   1      51.861  28.163  31.749  1.00  0.00     0.074 A 
ATOM     65  C   UNL A   1      53.214  28.470  31.332  1.00  0.00     0.031 C 
ATOM     66  C   UNL A   1      51.345  28.488  32.961  1.00  0.00     0.031 A 
BRANCH  53  67
ATOM     67  C   UNL A   1      45.441  26.815  33.717  1.00  0.00    -0.014 A 
ATOM     68  C   UNL A   1      44.725  27.997  33.987  1.00  0.00     0.010 A 
ATOM     69  C   UNL A   1      44.991  25.601  34.266  1.00  0.00     0.010 A 
ATOM     70  C   UNL A   1      43.605  27.969  34.819  1.00  0.00     0.020 A 
ATOM     71  C   UNL A   1      43.855  25.565  35.077  1.00  0.00     0.020 A 
ATOM     72  C   UNL A   1      43.178  26.752  35.362  1.00  0.00     0.054 A 
BRANCH  72  73
ATOM     73  S   UNL A   1      41.707  26.742  36.423  1.00  0.00     0.124 S 
ATOM     74  O   UNL A   1      42.266  26.320  37.706  1.00  0.00    -0.237 OA
ATOM     75  O   UNL A   1      41.257  28.130  36.361  1.00  0.00    -0.237 OA
ATOM     76  O   UNL A   1      40.823  25.774  35.780  1.00  0.00    -0.744 OA
ENDBRANCH  72  73
ENDBRANCH  53  67
BRANCH  54  77
ATOM     77  C   UNL A   1      53.230  26.818  27.444  1.00  0.00    -0.014 A 
ATOM     78  C   UNL A   1      53.480  27.951  26.650  1.00  0.00     0.010 A 
ATOM     79  C   UNL A   1      54.086  25.706  27.337  1.00  0.00     0.010 A 
ATOM     80  C   UNL A   1      54.556  27.966  25.756  1.00  0.00     0.020 A 
ATOM     81  C   UNL A   1      55.178  25.729  26.465  1.00  0.00     0.020 A 
ATOM     82  C   UNL A   1      55.401  26.855  25.672  1.00  0.00     0.054 A 
BRANCH  82  83
ATOM     83  S   UNL A   1      56.822  26.919  24.546  1.00  0.00     0.124 S 
ATOM     84  O   UNL A   1      57.703  25.900  25.109  1.00  0.00    -0.237 OA
ATOM     85  O   UNL A   1      56.218  26.591  23.257  1.00  0.00    -0.237 OA
ATOM     86  O   UNL A   1      57.296  28.295  24.671  1.00  0.00    -0.744 OA
ENDBRANCH  82  83
ENDBRANCH  54  77
BRANCH  66  87
ATOM     87  C   UNL A   1      52.252  29.180  33.944  1.00  0.00    -0.014 A 
ATOM     88  C   UNL A   1      53.178  28.459  34.718  1.00  0.00     0.010 A 
ATOM     89  C   UNL A   1      52.221  30.584  34.042  1.00  0.00     0.010 A 
ATOM     90  C   UNL A   1      54.038  29.129  35.594  1.00  0.00     0.020 A 
ATOM     91  C   UNL A   1      53.099  31.258  34.894  1.00  0.00     0.020 A 
ATOM     92  C   UNL A   1      53.993  30.525  35.676  1.00  0.00     0.054 A 
BRANCH  92  93
ATOM     93  S   UNL A   1      55.151  31.374  36.785  1.00  0.00     0.124 S 
ATOM     94  O   UNL A   1      55.905  32.208  35.853  1.00  0.00    -0.237 OA
ATOM     95  O   UNL A   1      54.259  32.092  37.692  1.00  0.00    -0.237 OA
ATOM     96  O   UNL A   1      55.906  30.284  37.397  1.00  0.00    -0.744 OA
ENDBRANCH  92  93
ENDBRANCH  66  87
ENDBRANCH  40  41
ENDBRANCH  33  35
ENDBRANCH  32  33
ENDBRANCH  31  32
ENDBRANCH  30  31
ENDBRANCH  29  30
ENDBRANCH  28  29
ENDBRANCH  27  28
ENDBRANCH   1  27
TORSDOF 27
ENDMDL
