MODEL 1
REMARK VINA RESULT:      -7.4      0.000      0.000
REMARK SMILES CCC(CC)NC(=O)NC[C@H]1CC[C@H](C(=O)OCCOCCOCCOCCOC(=O)c2ccc(-c3c4nc(c(-c5ccc(S(=O)(=O)[O-])cc5)c5ccc([nH]5)c(-c5ccc(S(=O)(=O)[O-])cc5)c5nc(c(-c6ccc(S(=O)(=O)[O-])cc6)c6ccc3[nH]6)C=C5)C=C4)cc2)O1
REMARK SMILES IDX 22 1 21 2 20 3 19 4 18 5 17 6 15 7 16 8 14 9 11 10 12 11
REMARK SMILES IDX 92 12 13 13 10 14 9 15 6 16 7 17 8 19 3 21 2 22 1 23 4 24
REMARK SMILES IDX 5 25 23 26 24 27 25 28 26 29 27 30 28 31 29 32 30 33 31 34
REMARK SMILES IDX 32 35 33 36 91 37 34 38 90 39 35 40 36 41 37 42 84 43 38 44
REMARK SMILES IDX 89 45 83 46 85 47 39 48 88 49 82 50 81 51 40 53 70 54 51 55
REMARK SMILES IDX 69 56 52 57 55 58 68 59 86 60 53 61 54 62 67 64 87 65 56 66
REMARK SMILES IDX 41 67 42 68 50 69 43 70 49 71 44 72 45 73 46 74 47 75 48 76
REMARK SMILES IDX 71 77 72 78 80 79 73 80 79 81 74 82 75 83 76 84 77 85 78 86
REMARK SMILES IDX 57 87 58 88 66 89 59 90 65 91 60 92 61 93 62 94 63 95 64 96
REMARK H PARENT 6 18 9 20 85 52 55 63
REMARK Flexibility Score: inf
ROOT
ATOM      1  C   UNL A   1      33.818  30.362  27.198  1.00  0.00     0.188 C 
ENDROOT
BRANCH   1   2
ATOM      2  C   UNL A   1      33.853  29.185  26.216  1.00  0.00     0.188 C 
BRANCH   2   3
ATOM      3  O   UNL A   1      32.850  29.042  25.228  1.00  0.00    -0.376 OA
BRANCH   3   4
ATOM      4  C   UNL A   1      33.148  29.140  23.840  1.00  0.00     0.202 C 
BRANCH   4   5
ATOM      5  C   UNL A   1      32.289  28.498  22.736  1.00  0.00     0.261 C 
BRANCH   5   6
ATOM      6  O   UNL A   1      32.150  27.069  22.784  1.00  0.00    -0.461 OA
BRANCH   6   7
ATOM      7  C   UNL A   1      33.175  26.363  22.253  1.00  0.00     0.335 C 
ATOM      8  O   UNL A   1      33.389  26.262  21.046  1.00  0.00    -0.249 OA
BRANCH   7   9
ATOM      9  C   UNL A   1      34.088  25.694  23.283  1.00  0.00     0.228 C 
ATOM     10  C   UNL A   1      33.874  23.402  23.736  1.00  0.00     0.138 C 
ATOM     11  C   UNL A   1      33.075  24.162  24.779  1.00  0.00     0.037 C 
ATOM     12  O   UNL A   1      34.377  24.374  22.804  1.00  0.00    -0.361 OA
ATOM     13  C   UNL A   1      33.706  25.523  24.742  1.00  0.00     0.047 C 
BRANCH  10  14
ATOM     14  C   UNL A   1      35.051  22.632  24.358  1.00  0.00     0.149 C 
BRANCH  14  15
ATOM     15  N   UNL A   1      34.830  22.359  25.767  1.00  0.00    -0.336 N 
ATOM     16  N   UNL A   1      33.830  20.217  25.970  1.00  0.00    -0.335 N 
ATOM     17  C   UNL A   1      34.305  21.358  26.473  1.00  0.00     0.315 C 
ATOM     18  H   UNL A   1      33.534  19.598  26.676  1.00  0.00     0.165 HD
ATOM     19  O   UNL A   1      34.273  21.486  27.701  1.00  0.00    -0.249 OA
ATOM     20  H   UNL A   1      35.147  23.093  26.342  1.00  0.00     0.165 HD
BRANCH  16  21
ATOM     21  C   UNL A   1      33.638  19.654  24.636  1.00  0.00     0.083 C 
BRANCH  21  22
ATOM     22  C   UNL A   1      33.926  18.145  24.668  1.00  0.00     0.021 C 
ATOM     23  C   UNL A   1      32.676  17.301  24.868  1.00  0.00     0.006 C 
ENDBRANCH  21  22
BRANCH  21  24
ATOM     24  C   UNL A   1      32.246  20.036  24.089  1.00  0.00     0.021 C 
ATOM     25  C   UNL A   1      32.212  20.478  22.631  1.00  0.00     0.006 C 
ENDBRANCH  21  24
ENDBRANCH  16  21
ENDBRANCH  14  15
ENDBRANCH  10  14
ENDBRANCH   7   9
ENDBRANCH   6   7
ENDBRANCH   5   6
ENDBRANCH   4   5
ENDBRANCH   3   4
ENDBRANCH   2   3
ENDBRANCH   1   2
BRANCH   1  26
ATOM     26  O   UNL A   1      35.000  30.551  27.949  1.00  0.00    -0.377 OA
BRANCH  26  27
ATOM     27  C   UNL A   1      36.206  29.933  27.516  1.00  0.00     0.188 C 
BRANCH  27  28
ATOM     28  C   UNL A   1      37.433  29.938  28.446  1.00  0.00     0.188 C 
BRANCH  28  29
ATOM     29  O   UNL A   1      38.047  28.668  28.603  1.00  0.00    -0.376 OA
BRANCH  29  30
ATOM     30  C   UNL A   1      39.465  28.586  28.581  1.00  0.00     0.202 C 
BRANCH  30  31
ATOM     31  C   UNL A   1      40.146  28.045  27.312  1.00  0.00     0.261 C 
BRANCH  31  32
ATOM     32  O   UNL A   1      40.909  26.834  27.445  1.00  0.00    -0.460 OA
BRANCH  32  33
ATOM     33  C   UNL A   1      41.630  26.411  26.382  1.00  0.00     0.338 C 
ATOM     34  O   UNL A   1      41.226  26.209  25.258  1.00  0.00    -0.246 OA
BRANCH  33  35
ATOM     35  C   UNL A   1      43.058  26.427  26.775  1.00  0.00     0.060 A 
ATOM     36  C   UNL A   1      43.762  25.217  26.811  1.00  0.00     0.016 A 
ATOM     37  C   UNL A   1      43.689  27.623  27.125  1.00  0.00     0.016 A 
ATOM     38  C   UNL A   1      45.088  25.193  27.245  1.00  0.00     0.010 A 
ATOM     39  C   UNL A   1      45.011  27.593  27.577  1.00  0.00     0.010 A 
ATOM     40  C   UNL A   1      45.704  26.374  27.677  1.00  0.00    -0.014 A 
BRANCH  40  41
ATOM     41  C   UNL A   1      46.987  26.305  28.421  1.00  0.00     0.031 A 
ATOM     42  C   UNL A   1      48.270  26.493  27.653  1.00  0.00     0.074 A 
ATOM     43  C   UNL A   1      47.021  26.108  29.752  1.00  0.00     0.049 A 
ATOM     44  N   UNL A   1      49.506  26.428  28.073  1.00  0.00    -0.248 NA
ATOM     45  C   UNL A   1      48.136  26.792  26.217  1.00  0.00     0.031 C 
ATOM     46  C   UNL A   1      45.851  25.965  30.617  1.00  0.00     0.029 A 
ATOM     47  N   UNL A   1      48.090  25.990  30.606  1.00  0.00    -0.354 N 
ATOM     48  C   UNL A   1      50.297  26.671  26.956  1.00  0.00     0.074 A 
ATOM     49  C   UNL A   1      49.403  26.848  25.832  1.00  0.00     0.031 C 
ATOM     50  C   UNL A   1      46.268  25.767  31.881  1.00  0.00     0.029 A 
ATOM     51  C   UNL A   1      47.729  25.731  31.907  1.00  0.00     0.049 A 
ATOM     52  H   UNL A   1      49.025  26.083  30.314  1.00  0.00     0.167 HD
ATOM     53  C   UNL A   1      51.647  26.752  26.870  1.00  0.00     0.031 A 
ATOM     54  C   UNL A   1      48.491  25.469  32.989  1.00  0.00     0.031 A 
ATOM     55  C   UNL A   1      52.536  26.555  27.984  1.00  0.00     0.049 A 
ATOM     56  C   UNL A   1      49.994  25.471  32.852  1.00  0.00     0.074 A 
ATOM     57  C   UNL A   1      53.919  26.616  28.002  1.00  0.00     0.029 A 
ATOM     58  N   UNL A   1      52.133  26.256  29.277  1.00  0.00    -0.354 N 
ATOM     59  N   UNL A   1      50.727  25.719  31.792  1.00  0.00    -0.248 NA
ATOM     60  C   UNL A   1      50.772  25.166  34.062  1.00  0.00     0.031 C 
ATOM     61  C   UNL A   1      54.353  26.288  29.290  1.00  0.00     0.029 A 
ATOM     62  C   UNL A   1      53.240  26.101  30.093  1.00  0.00     0.049 A 
ATOM     63  H   UNL A   1      51.197  26.168  29.570  1.00  0.00     0.167 HD
ATOM     64  C   UNL A   1      52.051  25.634  32.217  1.00  0.00     0.074 A 
ATOM     65  C   UNL A   1      52.016  25.327  33.632  1.00  0.00     0.031 C 
ATOM     66  C   UNL A   1      53.192  25.798  31.502  1.00  0.00     0.031 A 
BRANCH  53  67
ATOM     67  C   UNL A   1      52.243  27.030  25.515  1.00  0.00    -0.014 A 
ATOM     68  C   UNL A   1      52.355  28.343  25.023  1.00  0.00     0.010 A 
ATOM     69  C   UNL A   1      52.733  25.965  24.737  1.00  0.00     0.010 A 
ATOM     70  C   UNL A   1      52.910  28.582  23.762  1.00  0.00     0.020 A 
ATOM     71  C   UNL A   1      53.317  26.202  23.490  1.00  0.00     0.020 A 
ATOM     72  C   UNL A   1      53.387  27.509  23.003  1.00  0.00     0.054 A 
BRANCH  72  73
ATOM     73  S   UNL A   1      54.122  27.851  21.382  1.00  0.00     0.124 S 
ATOM     74  O   UNL A   1      55.140  28.844  21.717  1.00  0.00    -0.237 OA
ATOM     75  O   UNL A   1      54.632  26.543  20.979  1.00  0.00    -0.237 OA
ATOM     76  O   UNL A   1      53.002  28.352  20.590  1.00  0.00    -0.744 OA
ENDBRANCH  72  73
ENDBRANCH  53  67
BRANCH  54  77
ATOM     77  C   UNL A   1      47.850  25.152  34.297  1.00  0.00    -0.014 A 
ATOM     78  C   UNL A   1      47.625  26.157  35.254  1.00  0.00     0.010 A 
ATOM     79  C   UNL A   1      47.479  23.828  34.598  1.00  0.00     0.010 A 
ATOM     80  C   UNL A   1      47.063  25.840  36.495  1.00  0.00     0.020 A 
ATOM     81  C   UNL A   1      46.886  23.514  35.823  1.00  0.00     0.020 A 
ATOM     82  C   UNL A   1      46.695  24.520  36.771  1.00  0.00     0.054 A 
BRANCH  82  83
ATOM     83  S   UNL A   1      45.929  24.140  38.371  1.00  0.00     0.124 S 
ATOM     84  O   UNL A   1      46.985  24.507  39.308  1.00  0.00    -0.237 OA
ATOM     85  O   UNL A   1      44.754  25.008  38.369  1.00  0.00    -0.237 OA
ATOM     86  O   UNL A   1      45.639  22.712  38.279  1.00  0.00    -0.744 OA
ENDBRANCH  82  83
ENDBRANCH  54  77
BRANCH  66  87
ATOM     87  C   UNL A   1      54.503  25.697  32.242  1.00  0.00    -0.014 A 
ATOM     88  C   UNL A   1      55.153  26.835  32.749  1.00  0.00     0.010 A 
ATOM     89  C   UNL A   1      55.063  24.427  32.482  1.00  0.00     0.010 A 
ATOM     90  C   UNL A   1      56.357  26.710  33.449  1.00  0.00     0.020 A 
ATOM     91  C   UNL A   1      56.248  24.295  33.210  1.00  0.00     0.020 A 
ATOM     92  C   UNL A   1      56.896  25.439  33.676  1.00  0.00     0.054 A 
BRANCH  92  93
ATOM     93  S   UNL A   1      58.437  25.302  34.623  1.00  0.00     0.124 S 
ATOM     94  O   UNL A   1      58.626  23.855  34.687  1.00  0.00    -0.237 OA
ATOM     95  O   UNL A   1      59.392  26.024  33.786  1.00  0.00    -0.237 OA
ATOM     96  O   UNL A   1      58.121  25.945  35.896  1.00  0.00    -0.744 OA
ENDBRANCH  92  93
ENDBRANCH  66  87
ENDBRANCH  40  41
ENDBRANCH  33  35
ENDBRANCH  32  33
ENDBRANCH  31  32
ENDBRANCH  30  31
ENDBRANCH  29  30
ENDBRANCH  28  29
ENDBRANCH  27  28
ENDBRANCH  26  27
ENDBRANCH   1  26
TORSDOF 28
ENDMDL
MODEL 2
REMARK VINA RESULT:      -7.3      8.879     10.923
REMARK SMILES CCC(CC)NC(=O)NC[C@H]1CC[C@H](C(=O)OCCOCCOCCOCCOC(=O)c2ccc(-c3c4nc(c(-c5ccc(S(=O)(=O)[O-])cc5)c5ccc([nH]5)c(-c5ccc(S(=O)(=O)[O-])cc5)c5nc(c(-c6ccc(S(=O)(=O)[O-])cc6)c6ccc3[nH]6)C=C5)C=C4)cc2)O1
REMARK SMILES IDX 22 1 21 2 20 3 19 4 18 5 17 6 15 7 16 8 14 9 11 10 12 11
REMARK SMILES IDX 92 12 13 13 10 14 9 15 6 16 7 17 8 19 3 21 2 22 1 23 4 24
REMARK SMILES IDX 5 25 23 26 24 27 25 28 26 29 27 30 28 31 29 32 30 33 31 34
REMARK SMILES IDX 32 35 33 36 91 37 34 38 90 39 35 40 36 41 37 42 84 43 38 44
REMARK SMILES IDX 89 45 83 46 85 47 39 48 88 49 82 50 81 51 40 53 70 54 51 55
REMARK SMILES IDX 69 56 52 57 55 58 68 59 86 60 53 61 54 62 67 64 87 65 56 66
REMARK SMILES IDX 41 67 42 68 50 69 43 70 49 71 44 72 45 73 46 74 47 75 48 76
REMARK SMILES IDX 71 77 72 78 80 79 73 80 79 81 74 82 75 83 76 84 77 85 78 86
REMARK SMILES IDX 57 87 58 88 66 89 59 90 65 91 60 92 61 93 62 94 63 95 64 96
REMARK H PARENT 6 18 9 20 85 52 55 63
REMARK Flexibility Score: inf
ROOT
ATOM      1  C   UNL A   1      33.317  30.755  27.191  1.00  0.00     0.188 C 
ENDROOT
BRANCH   1   2
ATOM      2  C   UNL A   1      33.209  29.717  26.067  1.00  0.00     0.188 C 
BRANCH   2   3
ATOM      3  O   UNL A   1      32.128  29.754  25.154  1.00  0.00    -0.376 OA
BRANCH   3   4
ATOM      4  C   UNL A   1      32.138  28.990  23.954  1.00  0.00     0.202 C 
BRANCH   4   5
ATOM      5  C   UNL A   1      30.872  28.396  23.312  1.00  0.00     0.261 C 
BRANCH   5   6
ATOM      6  O   UNL A   1      30.500  27.074  23.737  1.00  0.00    -0.461 OA
BRANCH   6   7
ATOM      7  C   UNL A   1      31.302  26.074  23.303  1.00  0.00     0.335 C 
ATOM      8  O   UNL A   1      31.418  25.746  22.123  1.00  0.00    -0.249 OA
BRANCH   7   9
ATOM      9  C   UNL A   1      32.093  25.368  24.408  1.00  0.00     0.228 C 
ATOM     10  C   UNL A   1      31.006  23.906  25.885  1.00  0.00     0.138 C 
ATOM     11  C   UNL A   1      31.085  25.268  26.549  1.00  0.00     0.037 C 
ATOM     12  O   UNL A   1      31.537  24.055  24.558  1.00  0.00    -0.361 OA
ATOM     13  C   UNL A   1      32.221  25.919  25.816  1.00  0.00     0.047 C 
BRANCH  10  14
ATOM     14  C   UNL A   1      31.816  22.843  26.645  1.00  0.00     0.149 C 
BRANCH  14  15
ATOM     15  N   UNL A   1      31.704  21.535  26.023  1.00  0.00    -0.336 N 
ATOM     16  N   UNL A   1      33.688  21.120  24.789  1.00  0.00    -0.335 N 
ATOM     17  C   UNL A   1      32.470  20.791  25.225  1.00  0.00     0.315 C 
ATOM     18  H   UNL A   1      34.092  20.402  24.250  1.00  0.00     0.165 HD
ATOM     19  O   UNL A   1      32.025  19.694  24.874  1.00  0.00    -0.249 OA
ATOM     20  H   UNL A   1      30.856  21.089  26.246  1.00  0.00     0.165 HD
BRANCH  16  21
ATOM     21  C   UNL A   1      34.573  22.275  24.910  1.00  0.00     0.083 C 
BRANCH  21  22
ATOM     22  C   UNL A   1      35.577  22.038  26.050  1.00  0.00     0.021 C 
ATOM     23  C   UNL A   1      36.888  22.786  25.858  1.00  0.00     0.006 C 
ENDBRANCH  21  22
BRANCH  21  24
ATOM     24  C   UNL A   1      35.212  22.605  23.544  1.00  0.00     0.021 C 
ATOM     25  C   UNL A   1      34.418  23.560  22.662  1.00  0.00     0.006 C 
ENDBRANCH  21  24
ENDBRANCH  16  21
ENDBRANCH  14  15
ENDBRANCH  10  14
ENDBRANCH   7   9
ENDBRANCH   6   7
ENDBRANCH   5   6
ENDBRANCH   4   5
ENDBRANCH   3   4
ENDBRANCH   2   3
ENDBRANCH   1   2
BRANCH   1  26
ATOM     26  O   UNL A   1      34.592  30.860  27.790  1.00  0.00    -0.377 OA
BRANCH  26  27
ATOM     27  C   UNL A   1      35.551  29.832  27.570  1.00  0.00     0.188 C 
BRANCH  27  28
ATOM     28  C   UNL A   1      37.032  30.099  27.894  1.00  0.00     0.188 C 
BRANCH  28  29
ATOM     29  O   UNL A   1      37.241  31.134  28.842  1.00  0.00    -0.376 OA
BRANCH  29  30
ATOM     30  C   UNL A   1      37.370  30.790  30.214  1.00  0.00     0.202 C 
BRANCH  30  31
ATOM     31  C   UNL A   1      36.111  30.821  31.098  1.00  0.00     0.261 C 
BRANCH  31  32
ATOM     32  O   UNL A   1      35.250  31.965  30.969  1.00  0.00    -0.460 OA
BRANCH  32  33
ATOM     33  C   UNL A   1      34.855  32.600  32.096  1.00  0.00     0.338 C 
ATOM     34  O   UNL A   1      33.761  32.554  32.615  1.00  0.00    -0.246 OA
BRANCH  33  35
ATOM     35  C   UNL A   1      36.055  33.212  32.710  1.00  0.00     0.060 A 
ATOM     36  C   UNL A   1      36.520  34.435  32.211  1.00  0.00     0.016 A 
ATOM     37  C   UNL A   1      36.727  32.573  33.754  1.00  0.00     0.016 A 
ATOM     38  C   UNL A   1      37.689  35.000  32.723  1.00  0.00     0.010 A 
ATOM     39  C   UNL A   1      37.908  33.131  34.252  1.00  0.00     0.010 A 
ATOM     40  C   UNL A   1      38.415  34.326  33.712  1.00  0.00    -0.014 A 
BRANCH  40  41
ATOM     41  C   UNL A   1      39.799  34.760  34.033  1.00  0.00     0.031 A 
ATOM     42  C   UNL A   1      40.843  34.678  32.949  1.00  0.00     0.074 A 
ATOM     43  C   UNL A   1      40.123  35.242  35.246  1.00  0.00     0.049 A 
ATOM     44  N   UNL A   1      42.120  34.953  33.004  1.00  0.00    -0.248 NA
ATOM     45  C   UNL A   1      40.380  34.224  31.626  1.00  0.00     0.031 C 
ATOM     46  C   UNL A   1      39.196  35.422  36.363  1.00  0.00     0.029 A 
ATOM     47  N   UNL A   1      41.333  35.665  35.741  1.00  0.00    -0.354 N 
ATOM     48  C   UNL A   1      42.615  34.699  31.730  1.00  0.00     0.074 A 
ATOM     49  C   UNL A   1      41.509  34.213  30.933  1.00  0.00     0.031 C 
ATOM     50  C   UNL A   1      39.875  35.908  37.417  1.00  0.00     0.029 A 
ATOM     51  C   UNL A   1      41.287  36.038  37.063  1.00  0.00     0.049 A 
ATOM     52  H   UNL A   1      42.154  35.698  35.199  1.00  0.00     0.167 HD
ATOM     53  C   UNL A   1      43.874  34.864  31.259  1.00  0.00     0.031 A 
ATOM     54  C   UNL A   1      42.277  36.417  37.898  1.00  0.00     0.031 A 
ATOM     55  C   UNL A   1      44.978  35.328  32.058  1.00  0.00     0.049 A 
ATOM     56  C   UNL A   1      43.690  36.504  37.377  1.00  0.00     0.074 A 
ATOM     57  C   UNL A   1      46.292  35.529  31.674  1.00  0.00     0.029 A 
ATOM     58  N   UNL A   1      44.898  35.658  33.403  1.00  0.00    -0.354 N 
ATOM     59  N   UNL A   1      44.140  36.277  36.165  1.00  0.00    -0.248 NA
ATOM     60  C   UNL A   1      44.729  36.909  38.337  1.00  0.00     0.031 C 
ATOM     61  C   UNL A   1      47.021  35.917  32.803  1.00  0.00     0.029 A 
ATOM     62  C   UNL A   1      46.146  36.034  33.871  1.00  0.00     0.049 A 
ATOM     63  H   UNL A   1      44.076  35.629  33.944  1.00  0.00     0.167 HD
ATOM     64  C   UNL A   1      45.506  36.544  36.210  1.00  0.00     0.074 A 
ATOM     65  C   UNL A   1      45.805  36.965  37.563  1.00  0.00     0.031 C 
ATOM     66  C   UNL A   1      46.430  36.454  35.220  1.00  0.00     0.031 A 
BRANCH  53  67
ATOM     67  C   UNL A   1      44.131  34.505  29.818  1.00  0.00    -0.014 A 
ATOM     68  C   UNL A   1      44.535  33.209  29.450  1.00  0.00     0.010 A 
ATOM     69  C   UNL A   1      43.930  35.469  28.813  1.00  0.00     0.010 A 
ATOM     70  C   UNL A   1      44.771  32.895  28.109  1.00  0.00     0.020 A 
ATOM     71  C   UNL A   1      44.133  35.150  27.468  1.00  0.00     0.020 A 
ATOM     72  C   UNL A   1      44.569  33.869  27.126  1.00  0.00     0.054 A 
BRANCH  72  73
ATOM     73  S   UNL A   1      44.859  33.425  25.392  1.00  0.00     0.124 S 
ATOM     74  O   UNL A   1      45.270  32.027  25.504  1.00  0.00    -0.237 OA
ATOM     75  O   UNL A   1      43.551  33.648  24.782  1.00  0.00    -0.237 OA
ATOM     76  O   UNL A   1      45.908  34.349  24.967  1.00  0.00    -0.744 OA
ENDBRANCH  72  73
ENDBRANCH  53  67
BRANCH  54  77
ATOM     77  C   UNL A   1      41.977  36.714  39.328  1.00  0.00    -0.014 A 
ATOM     78  C   UNL A   1      41.682  38.024  39.747  1.00  0.00     0.010 A 
ATOM     79  C   UNL A   1      42.006  35.682  40.284  1.00  0.00     0.010 A 
ATOM     80  C   UNL A   1      41.446  38.299  41.098  1.00  0.00     0.020 A 
ATOM     81  C   UNL A   1      41.737  35.948  41.629  1.00  0.00     0.020 A 
ATOM     82  C   UNL A   1      41.472  37.258  42.030  1.00  0.00     0.054 A 
BRANCH  82  83
ATOM     83  S   UNL A   1      41.121  37.632  43.770  1.00  0.00     0.124 S 
ATOM     84  O   UNL A   1      39.685  37.891  43.742  1.00  0.00    -0.237 OA
ATOM     85  O   UNL A   1      41.529  36.401  44.443  1.00  0.00    -0.237 OA
ATOM     86  O   UNL A   1      41.963  38.793  44.046  1.00  0.00    -0.744 OA
ENDBRANCH  82  83
ENDBRANCH  54  77
BRANCH  66  87
ATOM     87  C   UNL A   1      47.846  36.860  35.544  1.00  0.00    -0.014 A 
ATOM     88  C   UNL A   1      48.303  38.173  35.335  1.00  0.00     0.010 A 
ATOM     89  C   UNL A   1      48.718  35.919  36.124  1.00  0.00     0.010 A 
ATOM     90  C   UNL A   1      49.615  38.527  35.664  1.00  0.00     0.020 A 
ATOM     91  C   UNL A   1      50.020  36.277  36.485  1.00  0.00     0.020 A 
ATOM     92  C   UNL A   1      50.464  37.576  36.239  1.00  0.00     0.054 A 
BRANCH  92  93
ATOM     93  S   UNL A   1      52.148  38.073  36.694  1.00  0.00     0.124 S 
ATOM     94  O   UNL A   1      52.945  36.973  36.159  1.00  0.00    -0.237 OA
ATOM     95  O   UNL A   1      52.301  39.353  36.006  1.00  0.00    -0.237 OA
ATOM     96  O   UNL A   1      52.104  38.157  38.152  1.00  0.00    -0.744 OA
ENDBRANCH  92  93
ENDBRANCH  66  87
ENDBRANCH  40  41
ENDBRANCH  33  35
ENDBRANCH  32  33
ENDBRANCH  31  32
ENDBRANCH  30  31
ENDBRANCH  29  30
ENDBRANCH  28  29
ENDBRANCH  27  28
ENDBRANCH  26  27
ENDBRANCH   1  26
TORSDOF 28
ENDMDL
MODEL 3
REMARK VINA RESULT:      -7.0      8.170     11.882
REMARK SMILES CCC(CC)NC(=O)NC[C@H]1CC[C@H](C(=O)OCCOCCOCCOCCOC(=O)c2ccc(-c3c4nc(c(-c5ccc(S(=O)(=O)[O-])cc5)c5ccc([nH]5)c(-c5ccc(S(=O)(=O)[O-])cc5)c5nc(c(-c6ccc(S(=O)(=O)[O-])cc6)c6ccc3[nH]6)C=C5)C=C4)cc2)O1
REMARK SMILES IDX 22 1 21 2 20 3 19 4 18 5 17 6 15 7 16 8 14 9 11 10 12 11
REMARK SMILES IDX 92 12 13 13 10 14 9 15 6 16 7 17 8 19 3 21 2 22 1 23 4 24
REMARK SMILES IDX 5 25 23 26 24 27 25 28 26 29 27 30 28 31 29 32 30 33 31 34
REMARK SMILES IDX 32 35 33 36 91 37 34 38 90 39 35 40 36 41 37 42 84 43 38 44
REMARK SMILES IDX 89 45 83 46 85 47 39 48 88 49 82 50 81 51 40 53 70 54 51 55
REMARK SMILES IDX 69 56 52 57 55 58 68 59 86 60 53 61 54 62 67 64 87 65 56 66
REMARK SMILES IDX 41 67 42 68 50 69 43 70 49 71 44 72 45 73 46 74 47 75 48 76
REMARK SMILES IDX 71 77 72 78 80 79 73 80 79 81 74 82 75 83 76 84 77 85 78 86
REMARK SMILES IDX 57 87 58 88 66 89 59 90 65 91 60 92 61 93 62 94 63 95 64 96
REMARK H PARENT 6 18 9 20 85 52 55 63
REMARK Flexibility Score: inf
ROOT
ATOM      1  C   UNL A   1      33.711  30.178  27.252  1.00  0.00     0.188 C 
ENDROOT
BRANCH   1   2
ATOM      2  C   UNL A   1      33.615  29.003  26.273  1.00  0.00     0.188 C 
BRANCH   2   3
ATOM      3  O   UNL A   1      32.745  29.063  25.158  1.00  0.00    -0.376 OA
BRANCH   3   4
ATOM      4  C   UNL A   1      33.232  28.978  23.824  1.00  0.00     0.202 C 
BRANCH   4   5
ATOM      5  C   UNL A   1      32.371  28.530  22.629  1.00  0.00     0.261 C 
BRANCH   5   6
ATOM      6  O   UNL A   1      32.009  27.140  22.589  1.00  0.00    -0.461 OA
BRANCH   6   7
ATOM      7  C   UNL A   1      33.000  26.287  22.240  1.00  0.00     0.335 C 
ATOM      8  O   UNL A   1      33.701  26.418  21.238  1.00  0.00    -0.249 OA
BRANCH   7   9
ATOM      9  C   UNL A   1      33.211  25.125  23.214  1.00  0.00     0.228 C 
ATOM     10  C   UNL A   1      31.563  24.602  24.800  1.00  0.00     0.138 C 
ATOM     11  C   UNL A   1      32.593  25.493  25.471  1.00  0.00     0.037 C 
ATOM     12  O   UNL A   1      31.936  24.501  23.415  1.00  0.00    -0.361 OA
ATOM     13  C   UNL A   1      33.801  25.303  24.601  1.00  0.00     0.047 C 
BRANCH  10  14
ATOM     14  C   UNL A   1      31.518  23.198  25.423  1.00  0.00     0.149 C 
BRANCH  14  15
ATOM     15  N   UNL A   1      31.634  22.159  24.415  1.00  0.00    -0.336 N 
ATOM     16  N   UNL A   1      33.805  21.213  24.558  1.00  0.00    -0.335 N 
ATOM     17  C   UNL A   1      32.589  21.318  24.019  1.00  0.00     0.315 C 
ATOM     18  H   UNL A   1      34.332  20.494  24.141  1.00  0.00     0.165 HD
ATOM     19  O   UNL A   1      32.321  20.554  23.086  1.00  0.00    -0.249 OA
ATOM     20  H   UNL A   1      30.803  22.047  23.899  1.00  0.00     0.165 HD
BRANCH  16  21
ATOM     21  C   UNL A   1      34.552  21.896  25.611  1.00  0.00     0.083 C 
BRANCH  21  22
ATOM     22  C   UNL A   1      34.085  21.389  26.985  1.00  0.00     0.021 C 
ATOM     23  C   UNL A   1      33.812  22.512  27.976  1.00  0.00     0.006 C 
ENDBRANCH  21  22
BRANCH  21  24
ATOM     24  C   UNL A   1      36.069  21.772  25.358  1.00  0.00     0.021 C 
ATOM     25  C   UNL A   1      36.558  20.386  24.957  1.00  0.00     0.006 C 
ENDBRANCH  21  24
ENDBRANCH  16  21
ENDBRANCH  14  15
ENDBRANCH  10  14
ENDBRANCH   7   9
ENDBRANCH   6   7
ENDBRANCH   5   6
ENDBRANCH   4   5
ENDBRANCH   3   4
ENDBRANCH   2   3
ENDBRANCH   1   2
BRANCH   1  26
ATOM     26  O   UNL A   1      34.979  30.360  27.848  1.00  0.00    -0.377 OA
BRANCH  26  27
ATOM     27  C   UNL A   1      35.986  29.372  27.657  1.00  0.00     0.188 C 
BRANCH  27  28
ATOM     28  C   UNL A   1      37.467  29.767  27.800  1.00  0.00     0.188 C 
BRANCH  28  29
ATOM     29  O   UNL A   1      37.685  30.935  28.576  1.00  0.00    -0.376 OA
BRANCH  29  30
ATOM     30  C   UNL A   1      38.050  30.791  29.941  1.00  0.00     0.202 C 
BRANCH  30  31
ATOM     31  C   UNL A   1      37.035  31.208  31.019  1.00  0.00     0.261 C 
BRANCH  31  32
ATOM     32  O   UNL A   1      36.490  32.536  30.925  1.00  0.00    -0.460 OA
BRANCH  32  33
ATOM     33  C   UNL A   1      35.845  33.041  32.000  1.00  0.00     0.338 C 
ATOM     34  O   UNL A   1      34.647  33.136  32.156  1.00  0.00    -0.246 OA
BRANCH  33  35
ATOM     35  C   UNL A   1      36.854  33.280  33.057  1.00  0.00     0.060 A 
ATOM     36  C   UNL A   1      38.059  33.906  32.713  1.00  0.00     0.016 A 
ATOM     37  C   UNL A   1      36.622  32.869  34.372  1.00  0.00     0.016 A 
ATOM     38  C   UNL A   1      39.056  34.080  33.673  1.00  0.00     0.010 A 
ATOM     39  C   UNL A   1      37.629  33.028  35.328  1.00  0.00     0.010 A 
ATOM     40  C   UNL A   1      38.865  33.597  34.974  1.00  0.00    -0.014 A 
BRANCH  40  41
ATOM     41  C   UNL A   1      40.022  33.500  35.899  1.00  0.00     0.031 A 
ATOM     42  C   UNL A   1      40.852  32.243  35.878  1.00  0.00     0.074 A 
ATOM     43  C   UNL A   1      40.352  34.511  36.723  1.00  0.00     0.049 A 
ATOM     44  N   UNL A   1      41.874  31.909  36.621  1.00  0.00    -0.248 NA
ATOM     45  C   UNL A   1      40.473  31.224  34.882  1.00  0.00     0.031 C 
ATOM     46  C   UNL A   1      39.665  35.799  36.803  1.00  0.00     0.029 A 
ATOM     47  N   UNL A   1      41.355  34.606  37.658  1.00  0.00    -0.354 N 
ATOM     48  C   UNL A   1      42.257  30.644  36.191  1.00  0.00     0.074 A 
ATOM     49  C   UNL A   1      41.335  30.253  35.146  1.00  0.00     0.031 C 
ATOM     50  C   UNL A   1      40.260  36.552  37.746  1.00  0.00     0.029 A 
ATOM     51  C   UNL A   1      41.344  35.787  38.360  1.00  0.00     0.049 A 
ATOM     52  H   UNL A   1      42.018  33.894  37.809  1.00  0.00     0.167 HD
ATOM     53  C   UNL A   1      43.289  29.877  36.616  1.00  0.00     0.031 A 
ATOM     54  C   UNL A   1      42.104  36.193  39.398  1.00  0.00     0.031 A 
ATOM     55  C   UNL A   1      44.193  30.257  37.669  1.00  0.00     0.049 A 
ATOM     56  C   UNL A   1      43.189  35.283  39.920  1.00  0.00     0.074 A 
ATOM     57  C   UNL A   1      45.271  29.551  38.174  1.00  0.00     0.029 A 
ATOM     58  N   UNL A   1      44.124  31.445  38.382  1.00  0.00    -0.354 N 
ATOM     59  N   UNL A   1      43.550  34.096  39.491  1.00  0.00    -0.248 NA
ATOM     60  C   UNL A   1      43.977  35.774  41.061  1.00  0.00     0.031 C 
ATOM     61  C   UNL A   1      45.812  30.282  39.236  1.00  0.00     0.029 A 
ATOM     62  C   UNL A   1      45.121  31.478  39.342  1.00  0.00     0.049 A 
ATOM     63  H   UNL A   1      43.463  32.158  38.228  1.00  0.00     0.167 HD
ATOM     64  C   UNL A   1      44.627  33.716  40.287  1.00  0.00     0.074 A 
ATOM     65  C   UNL A   1      44.868  34.804  41.211  1.00  0.00     0.031 C 
ATOM     66  C   UNL A   1      45.353  32.570  40.255  1.00  0.00     0.031 A 
BRANCH  53  67
ATOM     67  C   UNL A   1      43.472  28.530  35.964  1.00  0.00    -0.014 A 
ATOM     68  C   UNL A   1      44.335  28.362  34.867  1.00  0.00     0.010 A 
ATOM     69  C   UNL A   1      42.797  27.409  36.481  1.00  0.00     0.010 A 
ATOM     70  C   UNL A   1      44.490  27.106  34.273  1.00  0.00     0.020 A 
ATOM     71  C   UNL A   1      42.974  26.145  35.910  1.00  0.00     0.020 A 
ATOM     72  C   UNL A   1      43.807  26.005  34.800  1.00  0.00     0.054 A 
BRANCH  72  73
ATOM     73  S   UNL A   1      44.046  24.384  34.024  1.00  0.00     0.124 S 
ATOM     74  O   UNL A   1      42.865  23.655  34.480  1.00  0.00    -0.237 OA
ATOM     75  O   UNL A   1      44.070  24.712  32.601  1.00  0.00    -0.237 OA
ATOM     76  O   UNL A   1      45.316  23.918  34.575  1.00  0.00    -0.744 OA
ENDBRANCH  72  73
ENDBRANCH  53  67
BRANCH  54  77
ATOM     77  C   UNL A   1      41.850  37.515  40.039  1.00  0.00    -0.014 A 
ATOM     78  C   UNL A   1      42.552  38.663  39.631  1.00  0.00     0.010 A 
ATOM     79  C   UNL A   1      40.912  37.624  41.083  1.00  0.00     0.010 A 
ATOM     80  C   UNL A   1      42.338  39.889  40.270  1.00  0.00     0.020 A 
ATOM     81  C   UNL A   1      40.672  38.854  41.700  1.00  0.00     0.020 A 
ATOM     82  C   UNL A   1      41.397  39.977  41.299  1.00  0.00     0.054 A 
BRANCH  82  83
ATOM     83  S   UNL A   1      41.105  41.586  42.084  1.00  0.00     0.124 S 
ATOM     84  O   UNL A   1      41.191  42.498  40.949  1.00  0.00    -0.237 OA
ATOM     85  O   UNL A   1      39.774  41.416  42.662  1.00  0.00    -0.237 OA
ATOM     86  O   UNL A   1      42.190  41.692  43.057  1.00  0.00    -0.744 OA
ENDBRANCH  82  83
ENDBRANCH  54  77
BRANCH  66  87
ATOM     87  C   UNL A   1      46.511  32.447  41.214  1.00  0.00    -0.014 A 
ATOM     88  C   UNL A   1      46.360  31.854  42.480  1.00  0.00     0.010 A 
ATOM     89  C   UNL A   1      47.788  32.885  40.814  1.00  0.00     0.010 A 
ATOM     90  C   UNL A   1      47.455  31.735  43.341  1.00  0.00     0.020 A 
ATOM     91  C   UNL A   1      48.892  32.737  41.658  1.00  0.00     0.020 A 
ATOM     92  C   UNL A   1      48.714  32.176  42.923  1.00  0.00     0.054 A 
BRANCH  92  93
ATOM     93  S   UNL A   1      50.126  31.972  44.043  1.00  0.00     0.124 S 
ATOM     94  O   UNL A   1      50.295  30.522  44.059  1.00  0.00    -0.237 OA
ATOM     95  O   UNL A   1      51.183  32.720  43.366  1.00  0.00    -0.237 OA
ATOM     96  O   UNL A   1      49.662  32.558  45.298  1.00  0.00    -0.744 OA
ENDBRANCH  92  93
ENDBRANCH  66  87
ENDBRANCH  40  41
ENDBRANCH  33  35
ENDBRANCH  32  33
ENDBRANCH  31  32
ENDBRANCH  30  31
ENDBRANCH  29  30
ENDBRANCH  28  29
ENDBRANCH  27  28
ENDBRANCH  26  27
ENDBRANCH   1  26
TORSDOF 28
ENDMDL
