MODEL 1
REMARK VINA RESULT:      -8.6      0.000      0.000
REMARK SMILES CCn1nc(C(=O)OCCOCCOCCOCCOC(=O)c2ccc(-c3c4nc(c(-c5ccc(S(=O)(=O)[O-])cc5)c5ccc([nH]5)c(-c5ccc(S(=O)(=O)[O-])cc5)c5nc(c(-c6ccc(S(=O)(=O)[O-])cc6)c6ccc3[nH]6)C=C5)C=C4)cc2)c2c1CC[C@H]([NH2+]Cc1nn(CC)c3ccccc13)C2
REMARK SMILES IDX 13 1 12 2 11 3 10 4 9 5 8 6 6 7 7 8 5 9 3 10 4 11 84 12
REMARK SMILES IDX 83 13 85 14 101 15 86 16 87 17 2 18 1 19 88 20 89 23 90 24
REMARK SMILES IDX 91 25 100 26 92 27 95 28 99 29 96 30 98 31 97 32 93 33 94 34
REMARK SMILES IDX 14 35 15 36 16 37 17 38 18 39 19 40 20 41 21 42 22 43 23 44
REMARK SMILES IDX 24 45 82 46 25 47 81 48 26 49 27 50 28 51 75 52 29 53 80 54
REMARK SMILES IDX 74 55 76 56 30 57 79 58 73 59 72 60 31 62 61 63 42 64 60 65
REMARK SMILES IDX 43 66 46 67 59 68 77 69 44 70 45 71 58 73 78 74 47 75 32 76
REMARK SMILES IDX 33 77 41 78 34 79 40 80 35 81 36 82 37 83 38 84 39 85 62 86
REMARK SMILES IDX 63 87 71 88 64 89 70 90 65 91 66 92 67 93 68 94 69 95 48 96
REMARK SMILES IDX 49 97 57 98 50 99 56 100 51 101 52 102 53 103 54 104 55 105
REMARK H PARENT 88 21 88 22 76 61 46 72
REMARK Flexibility Score: inf
ROOT
ATOM      1  C   UNL A   1      41.392  28.988  30.198  1.00  0.00     0.188 C 
ENDROOT
BRANCH   1   2
ATOM      2  C   UNL A   1      41.919  27.542  30.341  1.00  0.00     0.188 C 
BRANCH   2   3
ATOM      3  O   UNL A   1      41.183  26.593  29.595  1.00  0.00    -0.376 OA
BRANCH   3   4
ATOM      4  C   UNL A   1      39.835  26.891  29.306  1.00  0.00     0.202 C 
BRANCH   4   5
ATOM      5  C   UNL A   1      39.459  27.007  27.843  1.00  0.00     0.261 C 
BRANCH   5   6
ATOM      6  O   UNL A   1      39.652  25.879  26.984  1.00  0.00    -0.458 OA
BRANCH   6   7
ATOM      7  C   UNL A   1      40.646  25.551  26.114  1.00  0.00     0.359 C 
ATOM      8  O   UNL A   1      40.815  26.038  25.012  1.00  0.00    -0.244 OA
BRANCH   7   9
ATOM      9  C   UNL A   1      41.500  24.508  26.732  1.00  0.00     0.174 A 
ATOM     10  N   UNL A   1      43.153  23.405  27.546  1.00  0.00    -0.269 N 
ATOM     11  N   UNL A   1      42.773  24.650  27.123  1.00  0.00    -0.165 NA
ATOM     12  C   UNL A   1      42.180  22.459  27.334  1.00  0.00     0.043 A 
ATOM     13  C   UNL A   1      41.081  23.184  26.968  1.00  0.00     0.014 A 
ATOM     14  C   UNL A   1      42.174  20.967  27.353  1.00  0.00     0.062 C 
ATOM     15  C   UNL A   1      39.790  22.637  26.577  1.00  0.00     0.105 C 
ATOM     16  C   UNL A   1      41.030  20.419  26.410  1.00  0.00     0.072 C 
ATOM     17  C   UNL A   1      39.641  21.133  26.534  1.00  0.00     0.187 C 
BRANCH  10  18
ATOM     18  C   UNL A   1      44.450  23.342  28.188  1.00  0.00     0.141 C 
ATOM     19  C   UNL A   1      45.667  23.138  27.314  1.00  0.00     0.029 C 
ENDBRANCH  10  18
BRANCH  17  20
ATOM     20  N   UNL A   1      38.695  20.815  25.416  1.00  0.00    -0.338 N 
ATOM     21  H   UNL A   1      38.124  20.020  25.702  1.00  0.00     0.346 HD
ATOM     22  H   UNL A   1      39.274  20.625  24.598  1.00  0.00     0.346 HD
BRANCH  20  23
ATOM     23  C   UNL A   1      37.773  21.932  25.024  1.00  0.00     0.320 C 
BRANCH  23  24
ATOM     24  C   UNL A   1      36.266  21.808  25.394  1.00  0.00     0.124 A 
ATOM     25  N   UNL A   1      35.530  22.746  26.041  1.00  0.00    -0.171 NA
ATOM     26  C   UNL A   1      35.465  20.642  25.147  1.00  0.00     0.029 A 
ATOM     27  N   UNL A   1      34.317  22.149  26.265  1.00  0.00    -0.265 N 
ATOM     28  C   UNL A   1      34.175  20.971  25.568  1.00  0.00     0.069 A 
ATOM     29  C   UNL A   1      35.698  19.341  24.659  1.00  0.00     0.012 A 
ATOM     30  C   UNL A   1      33.076  20.121  25.391  1.00  0.00     0.028 A 
ATOM     31  C   UNL A   1      34.636  18.426  24.628  1.00  0.00     0.001 A 
ATOM     32  C   UNL A   1      33.341  18.824  24.952  1.00  0.00     0.002 A 
BRANCH  27  33
ATOM     33  C   UNL A   1      33.350  22.707  27.218  1.00  0.00     0.141 C 
ATOM     34  C   UNL A   1      32.112  23.496  26.719  1.00  0.00     0.029 C 
ENDBRANCH  27  33
ENDBRANCH  23  24
ENDBRANCH  20  23
ENDBRANCH  17  20
ENDBRANCH   7   9
ENDBRANCH   6   7
ENDBRANCH   5   6
ENDBRANCH   4   5
ENDBRANCH   3   4
ENDBRANCH   2   3
ENDBRANCH   1   2
BRANCH   1  35
ATOM     35  O   UNL A   1      40.400  29.456  31.097  1.00  0.00    -0.377 OA
BRANCH  35  36
ATOM     36  C   UNL A   1      40.698  30.528  31.972  1.00  0.00     0.188 C 
BRANCH  36  37
ATOM     37  C   UNL A   1      39.775  31.767  31.901  1.00  0.00     0.188 C 
BRANCH  37  38
ATOM     38  O   UNL A   1      38.359  31.691  31.749  1.00  0.00    -0.376 OA
BRANCH  38  39
ATOM     39  C   UNL A   1      37.689  32.179  30.599  1.00  0.00     0.202 C 
BRANCH  39  40
ATOM     40  C   UNL A   1      38.480  32.898  29.506  1.00  0.00     0.261 C 
BRANCH  40  41
ATOM     41  O   UNL A   1      38.565  34.297  29.673  1.00  0.00    -0.460 OA
BRANCH  41  42
ATOM     42  C   UNL A   1      39.720  34.713  30.217  1.00  0.00     0.338 C 
ATOM     43  O   UNL A   1      39.899  35.148  31.347  1.00  0.00    -0.246 OA
BRANCH  42  44
ATOM     44  C   UNL A   1      40.750  34.685  29.174  1.00  0.00     0.060 A 
ATOM     45  C   UNL A   1      42.044  34.675  29.678  1.00  0.00     0.016 A 
ATOM     46  C   UNL A   1      40.432  35.184  27.899  1.00  0.00     0.016 A 
ATOM     47  C   UNL A   1      42.914  35.565  29.116  1.00  0.00     0.010 A 
ATOM     48  C   UNL A   1      41.313  36.062  27.327  1.00  0.00     0.010 A 
ATOM     49  C   UNL A   1      42.477  36.341  28.028  1.00  0.00    -0.014 A 
BRANCH  49  50
ATOM     50  C   UNL A   1      43.354  37.389  27.576  1.00  0.00     0.031 A 
ATOM     51  C   UNL A   1      44.748  36.929  27.600  1.00  0.00     0.074 A 
ATOM     52  C   UNL A   1      42.949  38.617  27.213  1.00  0.00     0.049 A 
ATOM     53  N   UNL A   1      45.588  37.142  28.553  1.00  0.00    -0.248 NA
ATOM     54  C   UNL A   1      45.159  35.899  26.636  1.00  0.00     0.031 C 
ATOM     55  C   UNL A   1      41.598  39.125  26.969  1.00  0.00     0.029 A 
ATOM     56  N   UNL A   1      43.729  39.687  26.920  1.00  0.00    -0.354 N 
ATOM     57  C   UNL A   1      46.734  36.468  28.180  1.00  0.00     0.074 A 
ATOM     58  C   UNL A   1      46.347  35.554  27.134  1.00  0.00     0.031 C 
ATOM     59  C   UNL A   1      41.680  40.323  26.334  1.00  0.00     0.029 A 
ATOM     60  C   UNL A   1      43.076  40.730  26.277  1.00  0.00     0.049 A 
ATOM     61  H   UNL A   1      44.687  39.721  27.145  1.00  0.00     0.167 HD
ATOM     62  C   UNL A   1      47.954  36.931  28.558  1.00  0.00     0.031 A 
ATOM     63  C   UNL A   1      43.669  41.816  25.715  1.00  0.00     0.031 A 
ATOM     64  C   UNL A   1      47.846  37.918  29.604  1.00  0.00     0.049 A 
ATOM     65  C   UNL A   1      44.990  41.970  26.380  1.00  0.00     0.074 A 
ATOM     66  C   UNL A   1      47.389  37.910  30.907  1.00  0.00     0.029 A 
ATOM     67  N   UNL A   1      47.848  39.234  29.200  1.00  0.00    -0.354 N 
ATOM     68  N   UNL A   1      45.115  42.285  27.639  1.00  0.00    -0.248 NA
ATOM     69  C   UNL A   1      46.142  41.305  25.789  1.00  0.00     0.031 C 
ATOM     70  C   UNL A   1      46.738  39.165  31.083  1.00  0.00     0.029 A 
ATOM     71  C   UNL A   1      46.888  39.911  29.910  1.00  0.00     0.049 A 
ATOM     72  H   UNL A   1      48.439  39.625  28.518  1.00  0.00     0.167 HD
ATOM     73  C   UNL A   1      46.140  41.473  28.108  1.00  0.00     0.074 A 
ATOM     74  C   UNL A   1      46.798  40.966  26.904  1.00  0.00     0.031 C 
ATOM     75  C   UNL A   1      46.175  41.072  29.413  1.00  0.00     0.031 A 
BRANCH  62  76
ATOM     76  C   UNL A   1      49.157  36.831  27.669  1.00  0.00    -0.014 A 
ATOM     77  C   UNL A   1      50.433  36.877  28.256  1.00  0.00     0.010 A 
ATOM     78  C   UNL A   1      49.083  36.969  26.266  1.00  0.00     0.010 A 
ATOM     79  C   UNL A   1      51.575  37.095  27.478  1.00  0.00     0.020 A 
ATOM     80  C   UNL A   1      50.216  37.144  25.477  1.00  0.00     0.020 A 
ATOM     81  C   UNL A   1      51.455  37.232  26.094  1.00  0.00     0.054 A 
BRANCH  81  82
ATOM     82  S   UNL A   1      52.930  37.575  25.110  1.00  0.00     0.124 S 
ATOM     83  O   UNL A   1      52.444  37.353  23.752  1.00  0.00    -0.237 OA
ATOM     84  O   UNL A   1      53.217  38.962  25.464  1.00  0.00    -0.237 OA
ATOM     85  O   UNL A   1      53.901  36.598  25.597  1.00  0.00    -0.744 OA
ENDBRANCH  81  82
ENDBRANCH  62  76
BRANCH  63  86
ATOM     86  C   UNL A   1      43.356  42.466  24.414  1.00  0.00    -0.014 A 
ATOM     87  C   UNL A   1      44.193  43.470  23.885  1.00  0.00     0.010 A 
ATOM     88  C   UNL A   1      42.411  41.882  23.548  1.00  0.00     0.010 A 
ATOM     89  C   UNL A   1      44.134  43.824  22.523  1.00  0.00     0.020 A 
ATOM     90  C   UNL A   1      42.345  42.232  22.191  1.00  0.00     0.020 A 
ATOM     91  C   UNL A   1      43.225  43.184  21.678  1.00  0.00     0.054 A 
BRANCH  91  92
ATOM     92  S   UNL A   1      43.281  43.503  19.888  1.00  0.00     0.124 S 
ATOM     93  O   UNL A   1      42.583  44.781  19.775  1.00  0.00    -0.237 OA
ATOM     94  O   UNL A   1      44.715  43.542  19.615  1.00  0.00    -0.237 OA
ATOM     95  O   UNL A   1      42.575  42.360  19.311  1.00  0.00    -0.744 OA
ENDBRANCH  91  92
ENDBRANCH  63  86
BRANCH  75  96
ATOM     96  C   UNL A   1      45.266  41.775  30.399  1.00  0.00    -0.014 A 
ATOM     97  C   UNL A   1      43.857  41.727  30.363  1.00  0.00     0.010 A 
ATOM     98  C   UNL A   1      45.884  42.410  31.490  1.00  0.00     0.010 A 
ATOM     99  C   UNL A   1      43.093  42.327  31.380  1.00  0.00     0.020 A 
ATOM    100  C   UNL A   1      45.132  42.991  32.511  1.00  0.00     0.020 A 
ATOM    101  C   UNL A   1      43.739  42.959  32.447  1.00  0.00     0.054 A 
BRANCH 101 102
ATOM    102  S   UNL A   1      42.759  43.719  33.773  1.00  0.00     0.124 S 
ATOM    103  O   UNL A   1      41.998  42.588  34.294  1.00  0.00    -0.237 OA
ATOM    104  O   UNL A   1      43.782  44.255  34.668  1.00  0.00    -0.237 OA
ATOM    105  O   UNL A   1      41.962  44.732  33.082  1.00  0.00    -0.744 OA
ENDBRANCH 101 102
ENDBRANCH  75  96
ENDBRANCH  49  50
ENDBRANCH  42  44
ENDBRANCH  41  42
ENDBRANCH  40  41
ENDBRANCH  39  40
ENDBRANCH  38  39
ENDBRANCH  37  38
ENDBRANCH  36  37
ENDBRANCH  35  36
ENDBRANCH   1  35
TORSDOF 28
ENDMDL
MODEL 2
REMARK VINA RESULT:      -8.5      9.859     15.463
REMARK SMILES CCn1nc(C(=O)OCCOCCOCCOCCOC(=O)c2ccc(-c3c4nc(c(-c5ccc(S(=O)(=O)[O-])cc5)c5ccc([nH]5)c(-c5ccc(S(=O)(=O)[O-])cc5)c5nc(c(-c6ccc(S(=O)(=O)[O-])cc6)c6ccc3[nH]6)C=C5)C=C4)cc2)c2c1CC[C@H]([NH2+]Cc1nn(CC)c3ccccc13)C2
REMARK SMILES IDX 13 1 12 2 11 3 10 4 9 5 8 6 6 7 7 8 5 9 3 10 4 11 84 12
REMARK SMILES IDX 83 13 85 14 101 15 86 16 87 17 2 18 1 19 88 20 89 23 90 24
REMARK SMILES IDX 91 25 100 26 92 27 95 28 99 29 96 30 98 31 97 32 93 33 94 34
REMARK SMILES IDX 14 35 15 36 16 37 17 38 18 39 19 40 20 41 21 42 22 43 23 44
REMARK SMILES IDX 24 45 82 46 25 47 81 48 26 49 27 50 28 51 75 52 29 53 80 54
REMARK SMILES IDX 74 55 76 56 30 57 79 58 73 59 72 60 31 62 61 63 42 64 60 65
REMARK SMILES IDX 43 66 46 67 59 68 77 69 44 70 45 71 58 73 78 74 47 75 32 76
REMARK SMILES IDX 33 77 41 78 34 79 40 80 35 81 36 82 37 83 38 84 39 85 62 86
REMARK SMILES IDX 63 87 71 88 64 89 70 90 65 91 66 92 67 93 68 94 69 95 48 96
REMARK SMILES IDX 49 97 57 98 50 99 56 100 51 101 52 102 53 103 54 104 55 105
REMARK H PARENT 88 21 88 22 76 61 46 72
REMARK Flexibility Score: inf
ROOT
ATOM      1  C   UNL A   1      39.738  28.994  32.345  1.00  0.00     0.188 C 
ENDROOT
BRANCH   1   2
ATOM      2  C   UNL A   1      39.917  29.608  30.938  1.00  0.00     0.188 C 
BRANCH   2   3
ATOM      3  O   UNL A   1      39.477  28.765  29.891  1.00  0.00    -0.376 OA
BRANCH   3   4
ATOM      4  C   UNL A   1      40.257  28.717  28.717  1.00  0.00     0.202 C 
BRANCH   4   5
ATOM      5  C   UNL A   1      41.099  27.475  28.507  1.00  0.00     0.261 C 
BRANCH   5   6
ATOM      6  O   UNL A   1      40.448  26.206  28.389  1.00  0.00    -0.458 OA
BRANCH   6   7
ATOM      7  C   UNL A   1      40.289  25.354  27.340  1.00  0.00     0.359 C 
ATOM      8  O   UNL A   1      39.301  25.273  26.634  1.00  0.00    -0.244 OA
BRANCH   7   9
ATOM      9  C   UNL A   1      41.521  24.544  27.187  1.00  0.00     0.174 A 
ATOM     10  N   UNL A   1      43.541  23.896  26.850  1.00  0.00    -0.269 N 
ATOM     11  N   UNL A   1      42.766  25.010  27.033  1.00  0.00    -0.165 NA
ATOM     12  C   UNL A   1      42.795  22.744  26.784  1.00  0.00     0.043 A 
ATOM     13  C   UNL A   1      41.540  23.135  27.155  1.00  0.00     0.014 A 
ATOM     14  C   UNL A   1      43.092  21.350  26.341  1.00  0.00     0.062 C 
ATOM     15  C   UNL A   1      40.358  22.285  27.192  1.00  0.00     0.105 C 
ATOM     16  C   UNL A   1      41.767  20.647  25.845  1.00  0.00     0.072 C 
ATOM     17  C   UNL A   1      40.506  20.847  26.753  1.00  0.00     0.187 C 
BRANCH  10  18
ATOM     18  C   UNL A   1      44.970  24.135  26.837  1.00  0.00     0.141 C 
ATOM     19  C   UNL A   1      45.815  23.452  27.889  1.00  0.00     0.029 C 
ENDBRANCH  10  18
BRANCH  17  20
ATOM     20  N   UNL A   1      39.218  20.451  26.095  1.00  0.00    -0.338 N 
ATOM     21  H   UNL A   1      38.625  20.013  26.800  1.00  0.00     0.346 HD
ATOM     22  H   UNL A   1      39.470  19.826  25.330  1.00  0.00     0.346 HD
BRANCH  20  23
ATOM     23  C   UNL A   1      38.447  21.579  25.475  1.00  0.00     0.320 C 
BRANCH  23  24
ATOM     24  C   UNL A   1      36.898  21.454  25.393  1.00  0.00     0.124 A 
ATOM     25  N   UNL A   1      36.206  20.308  25.173  1.00  0.00    -0.171 NA
ATOM     26  C   UNL A   1      35.990  22.564  25.480  1.00  0.00     0.029 A 
ATOM     27  N   UNL A   1      34.900  20.703  25.046  1.00  0.00    -0.265 N 
ATOM     28  C   UNL A   1      34.709  22.013  25.425  1.00  0.00     0.069 A 
ATOM     29  C   UNL A   1      36.113  23.966  25.554  1.00  0.00     0.012 A 
ATOM     30  C   UNL A   1      33.545  22.774  25.588  1.00  0.00     0.028 A 
ATOM     31  C   UNL A   1      34.951  24.751  25.556  1.00  0.00     0.001 A 
ATOM     32  C   UNL A   1      33.691  24.160  25.611  1.00  0.00     0.002 A 
BRANCH  27  33
ATOM     33  C   UNL A   1      33.878  19.812  24.484  1.00  0.00     0.141 C 
ATOM     34  C   UNL A   1      32.711  19.292  25.362  1.00  0.00     0.029 C 
ENDBRANCH  27  33
ENDBRANCH  23  24
ENDBRANCH  20  23
ENDBRANCH  17  20
ENDBRANCH   7   9
ENDBRANCH   6   7
ENDBRANCH   5   6
ENDBRANCH   4   5
ENDBRANCH   3   4
ENDBRANCH   2   3
ENDBRANCH   1   2
BRANCH   1  35
ATOM     35  O   UNL A   1      40.782  29.124  33.295  1.00  0.00    -0.377 OA
BRANCH  35  36
ATOM     36  C   UNL A   1      42.120  29.249  32.852  1.00  0.00     0.188 C 
BRANCH  36  37
ATOM     37  C   UNL A   1      43.107  29.970  33.800  1.00  0.00     0.188 C 
BRANCH  37  38
ATOM     38  O   UNL A   1      43.303  29.607  35.165  1.00  0.00    -0.376 OA
BRANCH  38  39
ATOM     39  C   UNL A   1      42.764  30.359  36.239  1.00  0.00     0.202 C 
BRANCH  39  40
ATOM     40  C   UNL A   1      43.699  30.973  37.281  1.00  0.00     0.261 C 
BRANCH  40  41
ATOM     41  O   UNL A   1      43.982  30.131  38.378  1.00  0.00    -0.460 OA
BRANCH  41  42
ATOM     42  C   UNL A   1      44.936  30.601  39.196  1.00  0.00     0.338 C 
ATOM     43  O   UNL A   1      45.085  31.753  39.584  1.00  0.00    -0.246 OA
BRANCH  42  44
ATOM     44  C   UNL A   1      45.880  29.514  39.469  1.00  0.00     0.060 A 
ATOM     45  C   UNL A   1      47.172  29.782  39.037  1.00  0.00     0.016 A 
ATOM     46  C   UNL A   1      45.380  28.207  39.610  1.00  0.00     0.016 A 
ATOM     47  C   UNL A   1      47.782  28.794  38.319  1.00  0.00     0.010 A 
ATOM     48  C   UNL A   1      46.004  27.213  38.906  1.00  0.00     0.010 A 
ATOM     49  C   UNL A   1      47.116  27.568  38.158  1.00  0.00    -0.014 A 
BRANCH  49  50
ATOM     50  C   UNL A   1      47.706  26.616  37.253  1.00  0.00     0.031 A 
ATOM     51  C   UNL A   1      47.074  26.713  35.932  1.00  0.00     0.074 A 
ATOM     52  C   UNL A   1      48.676  25.747  37.586  1.00  0.00     0.049 A 
ATOM     53  N   UNL A   1      46.113  25.967  35.507  1.00  0.00    -0.248 NA
ATOM     54  C   UNL A   1      47.315  27.922  35.130  1.00  0.00     0.031 C 
ATOM     55  C   UNL A   1      49.504  25.684  38.792  1.00  0.00     0.029 A 
ATOM     56  N   UNL A   1      49.169  24.736  36.830  1.00  0.00    -0.354 N 
ATOM     57  C   UNL A   1      45.795  26.466  34.258  1.00  0.00     0.074 A 
ATOM     58  C   UNL A   1      46.392  27.777  34.180  1.00  0.00     0.031 C 
ATOM     59  C   UNL A   1      50.547  24.842  38.572  1.00  0.00     0.029 A 
ATOM     60  C   UNL A   1      50.366  24.197  37.280  1.00  0.00     0.049 A 
ATOM     61  H   UNL A   1      48.712  24.408  36.021  1.00  0.00     0.167 HD
ATOM     62  C   UNL A   1      45.322  25.638  33.291  1.00  0.00     0.031 A 
ATOM     63  C   UNL A   1      51.148  23.315  36.603  1.00  0.00     0.031 A 
ATOM     64  C   UNL A   1      44.903  24.370  33.837  1.00  0.00     0.049 A 
ATOM     65  C   UNL A   1      50.266  22.630  35.623  1.00  0.00     0.074 A 
ATOM     66  C   UNL A   1      43.930  23.968  34.728  1.00  0.00     0.029 A 
ATOM     67  N   UNL A   1      45.827  23.350  33.782  1.00  0.00    -0.354 N 
ATOM     68  N   UNL A   1      49.301  21.829  35.980  1.00  0.00    -0.248 NA
ATOM     69  C   UNL A   1      50.135  23.204  34.291  1.00  0.00     0.031 C 
ATOM     70  C   UNL A   1      44.527  22.918  35.486  1.00  0.00     0.029 A 
ATOM     71  C   UNL A   1      45.807  22.678  34.978  1.00  0.00     0.049 A 
ATOM     72  H   UNL A   1      46.405  23.139  33.015  1.00  0.00     0.167 HD
ATOM     73  C   UNL A   1      48.244  22.147  35.137  1.00  0.00     0.074 A 
ATOM     74  C   UNL A   1      48.848  22.928  34.057  1.00  0.00     0.031 C 
ATOM     75  C   UNL A   1      46.950  21.988  35.545  1.00  0.00     0.031 A 
BRANCH  62  76
ATOM     76  C   UNL A   1      45.678  25.812  31.845  1.00  0.00    -0.014 A 
ATOM     77  C   UNL A   1      47.037  25.857  31.489  1.00  0.00     0.010 A 
ATOM     78  C   UNL A   1      44.738  26.207  30.869  1.00  0.00     0.010 A 
ATOM     79  C   UNL A   1      47.434  26.316  30.228  1.00  0.00     0.020 A 
ATOM     80  C   UNL A   1      45.120  26.626  29.598  1.00  0.00     0.020 A 
ATOM     81  C   UNL A   1      46.470  26.702  29.295  1.00  0.00     0.054 A 
BRANCH  81  82
ATOM     82  S   UNL A   1      47.000  27.352  27.696  1.00  0.00     0.124 S 
ATOM     83  O   UNL A   1      45.724  27.595  27.032  1.00  0.00    -0.237 OA
ATOM     84  O   UNL A   1      47.753  28.541  28.084  1.00  0.00    -0.237 OA
ATOM     85  O   UNL A   1      47.804  26.268  27.135  1.00  0.00    -0.744 OA
ENDBRANCH  81  82
ENDBRANCH  62  76
BRANCH  63  86
ATOM     86  C   UNL A   1      52.630  23.311  36.473  1.00  0.00    -0.014 A 
ATOM     87  C   UNL A   1      53.333  22.117  36.209  1.00  0.00     0.010 A 
ATOM     88  C   UNL A   1      53.323  24.526  36.298  1.00  0.00     0.010 A 
ATOM     89  C   UNL A   1      54.653  22.141  35.721  1.00  0.00     0.020 A 
ATOM     90  C   UNL A   1      54.639  24.556  35.813  1.00  0.00     0.020 A 
ATOM     91  C   UNL A   1      55.290  23.364  35.503  1.00  0.00     0.054 A 
BRANCH  91  92
ATOM     92  S   UNL A   1      56.919  23.399  34.693  1.00  0.00     0.124 S 
ATOM     93  O   UNL A   1      56.583  23.122  33.300  1.00  0.00    -0.237 OA
ATOM     94  O   UNL A   1      57.386  24.755  34.973  1.00  0.00    -0.237 OA
ATOM     95  O   UNL A   1      57.665  22.340  35.372  1.00  0.00    -0.744 OA
ENDBRANCH  91  92
ENDBRANCH  63  86
BRANCH  75  96
ATOM     96  C   UNL A   1      46.692  21.173  36.794  1.00  0.00    -0.014 A 
ATOM     97  C   UNL A   1      46.481  19.779  36.810  1.00  0.00     0.010 A 
ATOM     98  C   UNL A   1      46.800  21.846  38.023  1.00  0.00     0.010 A 
ATOM     99  C   UNL A   1      46.351  19.087  38.028  1.00  0.00     0.020 A 
ATOM    100  C   UNL A   1      46.691  21.163  39.235  1.00  0.00     0.020 A 
ATOM    101  C   UNL A   1      46.454  19.788  39.234  1.00  0.00     0.054 A 
BRANCH 101 102
ATOM    102  S   UNL A   1      46.308  18.898  40.809  1.00  0.00     0.124 S 
ATOM    103  O   UNL A   1      47.305  19.562  41.644  1.00  0.00    -0.237 OA
ATOM    104  O   UNL A   1      44.915  19.130  41.186  1.00  0.00    -0.237 OA
ATOM    105  O   UNL A   1      46.621  17.513  40.458  1.00  0.00    -0.744 OA
ENDBRANCH 101 102
ENDBRANCH  75  96
ENDBRANCH  49  50
ENDBRANCH  42  44
ENDBRANCH  41  42
ENDBRANCH  40  41
ENDBRANCH  39  40
ENDBRANCH  38  39
ENDBRANCH  37  38
ENDBRANCH  36  37
ENDBRANCH  35  36
ENDBRANCH   1  35
TORSDOF 28
ENDMDL
MODEL 3
REMARK VINA RESULT:      -8.5      2.718      5.891
REMARK SMILES CCn1nc(C(=O)OCCOCCOCCOCCOC(=O)c2ccc(-c3c4nc(c(-c5ccc(S(=O)(=O)[O-])cc5)c5ccc([nH]5)c(-c5ccc(S(=O)(=O)[O-])cc5)c5nc(c(-c6ccc(S(=O)(=O)[O-])cc6)c6ccc3[nH]6)C=C5)C=C4)cc2)c2c1CC[C@H]([NH2+]Cc1nn(CC)c3ccccc13)C2
REMARK SMILES IDX 13 1 12 2 11 3 10 4 9 5 8 6 6 7 7 8 5 9 3 10 4 11 84 12
REMARK SMILES IDX 83 13 85 14 101 15 86 16 87 17 2 18 1 19 88 20 89 23 90 24
REMARK SMILES IDX 91 25 100 26 92 27 95 28 99 29 96 30 98 31 97 32 93 33 94 34
REMARK SMILES IDX 14 35 15 36 16 37 17 38 18 39 19 40 20 41 21 42 22 43 23 44
REMARK SMILES IDX 24 45 82 46 25 47 81 48 26 49 27 50 28 51 75 52 29 53 80 54
REMARK SMILES IDX 74 55 76 56 30 57 79 58 73 59 72 60 31 62 61 63 42 64 60 65
REMARK SMILES IDX 43 66 46 67 59 68 77 69 44 70 45 71 58 73 78 74 47 75 32 76
REMARK SMILES IDX 33 77 41 78 34 79 40 80 35 81 36 82 37 83 38 84 39 85 62 86
REMARK SMILES IDX 63 87 71 88 64 89 70 90 65 91 66 92 67 93 68 94 69 95 48 96
REMARK SMILES IDX 49 97 57 98 50 99 56 100 51 101 52 102 53 103 54 104 55 105
REMARK H PARENT 88 21 88 22 76 61 46 72
REMARK Flexibility Score: inf
ROOT
ATOM      1  C   UNL A   1      42.304  28.410  35.279  1.00  0.00     0.188 C 
ENDROOT
BRANCH   1   2
ATOM      2  C   UNL A   1      41.546  27.144  34.821  1.00  0.00     0.188 C 
BRANCH   2   3
ATOM      3  O   UNL A   1      40.444  27.416  33.978  1.00  0.00    -0.376 OA
BRANCH   3   4
ATOM      4  C   UNL A   1      40.526  28.547  33.139  1.00  0.00     0.202 C 
BRANCH   4   5
ATOM      5  C   UNL A   1      39.488  28.660  32.041  1.00  0.00     0.261 C 
BRANCH   5   6
ATOM      6  O   UNL A   1      39.577  27.790  30.908  1.00  0.00    -0.458 OA
BRANCH   6   7
ATOM      7  C   UNL A   1      39.366  27.994  29.579  1.00  0.00     0.359 C 
ATOM      8  O   UNL A   1      38.899  29.001  29.081  1.00  0.00    -0.244 OA
BRANCH   7   9
ATOM      9  C   UNL A   1      39.808  26.792  28.833  1.00  0.00     0.174 A 
ATOM     10  N   UNL A   1      39.872  24.942  27.744  1.00  0.00    -0.269 N 
ATOM     11  N   UNL A   1      39.021  25.909  28.207  1.00  0.00    -0.165 NA
ATOM     12  C   UNL A   1      41.167  25.143  28.155  1.00  0.00     0.043 A 
ATOM     13  C   UNL A   1      41.154  26.393  28.707  1.00  0.00     0.014 A 
ATOM     14  C   UNL A   1      42.388  24.285  28.168  1.00  0.00     0.062 C 
ATOM     15  C   UNL A   1      42.282  27.056  29.346  1.00  0.00     0.105 C 
ATOM     16  C   UNL A   1      43.364  24.750  29.321  1.00  0.00     0.072 C 
ATOM     17  C   UNL A   1      43.585  26.296  29.447  1.00  0.00     0.187 C 
BRANCH  10  18
ATOM     18  C   UNL A   1      39.269  23.956  26.871  1.00  0.00     0.141 C 
ATOM     19  C   UNL A   1      39.841  22.556  26.875  1.00  0.00     0.029 C 
ENDBRANCH  10  18
BRANCH  17  20
ATOM     20  N   UNL A   1      44.240  26.711  30.729  1.00  0.00    -0.338 N 
ATOM     21  H   UNL A   1      44.528  25.868  31.225  1.00  0.00     0.346 HD
ATOM     22  H   UNL A   1      43.550  27.264  31.236  1.00  0.00     0.346 HD
BRANCH  20  23
ATOM     23  C   UNL A   1      45.446  27.591  30.573  1.00  0.00     0.320 C 
BRANCH  23  24
ATOM     24  C   UNL A   1      45.655  28.320  29.213  1.00  0.00     0.124 A 
ATOM     25  N   UNL A   1      46.480  27.913  28.216  1.00  0.00    -0.171 NA
ATOM     26  C   UNL A   1      45.038  29.567  28.859  1.00  0.00     0.029 A 
ATOM     27  N   UNL A   1      46.440  28.924  27.291  1.00  0.00    -0.265 N 
ATOM     28  C   UNL A   1      45.436  29.830  27.547  1.00  0.00     0.069 A 
ATOM     29  C   UNL A   1      44.228  30.516  29.516  1.00  0.00     0.012 A 
ATOM     30  C   UNL A   1      44.951  30.915  26.807  1.00  0.00     0.028 A 
ATOM     31  C   UNL A   1      43.867  31.688  28.835  1.00  0.00     0.001 A 
ATOM     32  C   UNL A   1      44.192  31.863  27.492  1.00  0.00     0.002 A 
BRANCH  27  33
ATOM     33  C   UNL A   1      47.436  29.023  26.218  1.00  0.00     0.141 C 
ATOM     34  C   UNL A   1      48.786  28.267  26.319  1.00  0.00     0.029 C 
ENDBRANCH  27  33
ENDBRANCH  23  24
ENDBRANCH  20  23
ENDBRANCH  17  20
ENDBRANCH   7   9
ENDBRANCH   6   7
ENDBRANCH   5   6
ENDBRANCH   4   5
ENDBRANCH   3   4
ENDBRANCH   2   3
ENDBRANCH   1   2
BRANCH   1  35
ATOM     35  O   UNL A   1      41.783  29.180  36.350  1.00  0.00    -0.377 OA
BRANCH  35  36
ATOM     36  C   UNL A   1      41.793  30.593  36.265  1.00  0.00     0.188 C 
BRANCH  36  37
ATOM     37  C   UNL A   1      42.492  31.216  35.035  1.00  0.00     0.188 C 
BRANCH  37  38
ATOM     38  O   UNL A   1      41.801  31.910  33.998  1.00  0.00    -0.376 OA
BRANCH  38  39
ATOM     39  C   UNL A   1      40.593  32.615  34.228  1.00  0.00     0.202 C 
BRANCH  39  40
ATOM     40  C   UNL A   1      39.433  32.478  33.241  1.00  0.00     0.261 C 
BRANCH  40  41
ATOM     41  O   UNL A   1      39.794  32.668  31.889  1.00  0.00    -0.460 OA
BRANCH  41  42
ATOM     42  C   UNL A   1      40.140  33.929  31.588  1.00  0.00     0.338 C 
ATOM     43  O   UNL A   1      39.600  34.962  31.963  1.00  0.00    -0.246 OA
BRANCH  42  44
ATOM     44  C   UNL A   1      41.229  33.882  30.607  1.00  0.00     0.060 A 
ATOM     45  C   UNL A   1      42.489  34.026  31.173  1.00  0.00     0.016 A 
ATOM     46  C   UNL A   1      40.948  34.225  29.273  1.00  0.00     0.016 A 
ATOM     47  C   UNL A   1      43.319  34.924  30.567  1.00  0.00     0.010 A 
ATOM     48  C   UNL A   1      41.792  35.111  28.659  1.00  0.00     0.010 A 
ATOM     49  C   UNL A   1      42.889  35.550  29.385  1.00  0.00    -0.014 A 
BRANCH  49  50
ATOM     50  C   UNL A   1      43.709  36.616  28.871  1.00  0.00     0.031 A 
ATOM     51  C   UNL A   1      45.092  36.156  28.704  1.00  0.00     0.074 A 
ATOM     52  C   UNL A   1      43.268  37.859  28.611  1.00  0.00     0.049 A 
ATOM     53  N   UNL A   1      46.044  36.329  29.555  1.00  0.00    -0.248 NA
ATOM     54  C   UNL A   1      45.377  35.167  27.655  1.00  0.00     0.031 C 
ATOM     55  C   UNL A   1      41.900  38.376  28.555  1.00  0.00     0.029 A 
ATOM     56  N   UNL A   1      44.012  38.939  28.268  1.00  0.00    -0.354 N 
ATOM     57  C   UNL A   1      47.133  35.671  29.017  1.00  0.00     0.074 A 
ATOM     58  C   UNL A   1      46.615  34.801  27.989  1.00  0.00     0.031 C 
ATOM     59  C   UNL A   1      41.910  39.599  27.965  1.00  0.00     0.029 A 
ATOM     60  C   UNL A   1      43.290  40.008  27.753  1.00  0.00     0.049 A 
ATOM     61  H   UNL A   1      44.991  38.964  28.374  1.00  0.00     0.167 HD
ATOM     62  C   UNL A   1      48.392  36.118  29.260  1.00  0.00     0.031 A 
ATOM     63  C   UNL A   1      43.815  41.117  27.168  1.00  0.00     0.031 A 
ATOM     64  C   UNL A   1      48.418  37.061  30.351  1.00  0.00     0.049 A 
ATOM     65  C   UNL A   1      45.208  41.243  27.670  1.00  0.00     0.074 A 
ATOM     66  C   UNL A   1      48.125  37.000  31.698  1.00  0.00     0.029 A 
ATOM     67  N   UNL A   1      48.377  38.393  30.004  1.00  0.00    -0.354 N 
ATOM     68  N   UNL A   1      45.489  41.505  28.916  1.00  0.00    -0.248 NA
ATOM     69  C   UNL A   1      46.276  40.603  26.915  1.00  0.00     0.031 C 
ATOM     70  C   UNL A   1      47.507  38.247  32.004  1.00  0.00     0.029 A 
ATOM     71  C   UNL A   1      47.515  39.040  30.853  1.00  0.00     0.049 A 
ATOM     72  H   UNL A   1      48.882  38.812  29.270  1.00  0.00     0.167 HD
ATOM     73  C   UNL A   1      46.560  40.676  29.223  1.00  0.00     0.074 A 
ATOM     74  C   UNL A   1      47.062  40.218  27.927  1.00  0.00     0.031 C 
ATOM     75  C   UNL A   1      46.753  40.221  30.496  1.00  0.00     0.031 A 
BRANCH  62  76
ATOM     76  C   UNL A   1      49.476  36.055  28.226  1.00  0.00    -0.014 A 
ATOM     77  C   UNL A   1      49.435  36.959  27.152  1.00  0.00     0.010 A 
ATOM     78  C   UNL A   1      50.373  34.969  28.126  1.00  0.00     0.010 A 
ATOM     79  C   UNL A   1      50.223  36.760  26.013  1.00  0.00     0.020 A 
ATOM     80  C   UNL A   1      51.192  34.784  27.016  1.00  0.00     0.020 A 
ATOM     81  C   UNL A   1      51.092  35.669  25.954  1.00  0.00     0.054 A 
BRANCH  81  82
ATOM     82  S   UNL A   1      52.056  35.389  24.453  1.00  0.00     0.124 S 
ATOM     83  O   UNL A   1      53.423  35.518  24.945  1.00  0.00    -0.237 OA
ATOM     84  O   UNL A   1      51.641  34.042  24.071  1.00  0.00    -0.237 OA
ATOM     85  O   UNL A   1      51.608  36.452  23.555  1.00  0.00    -0.744 OA
ENDBRANCH  81  82
ENDBRANCH  62  76
BRANCH  63  86
ATOM     86  C   UNL A   1      43.348  41.820  25.943  1.00  0.00    -0.014 A 
ATOM     87  C   UNL A   1      44.171  42.756  25.285  1.00  0.00     0.010 A 
ATOM     88  C   UNL A   1      42.221  41.341  25.246  1.00  0.00     0.010 A 
ATOM     89  C   UNL A   1      43.916  43.143  23.956  1.00  0.00     0.020 A 
ATOM     90  C   UNL A   1      41.960  41.724  23.922  1.00  0.00     0.020 A 
ATOM     91  C   UNL A   1      42.823  42.605  23.273  1.00  0.00     0.054 A 
BRANCH  91  92
ATOM     92  S   UNL A   1      42.605  42.956  21.501  1.00  0.00     0.124 S 
ATOM     93  O   UNL A   1      42.926  41.672  20.886  1.00  0.00    -0.237 OA
ATOM     94  O   UNL A   1      41.203  43.360  21.426  1.00  0.00    -0.237 OA
ATOM     95  O   UNL A   1      43.568  44.025  21.241  1.00  0.00    -0.744 OA
ENDBRANCH  91  92
ENDBRANCH  63  86
BRANCH  75  96
ATOM     96  C   UNL A   1      45.975  40.883  31.613  1.00  0.00    -0.014 A 
ATOM     97  C   UNL A   1      46.470  41.925  32.424  1.00  0.00     0.010 A 
ATOM     98  C   UNL A   1      44.627  40.509  31.755  1.00  0.00     0.010 A 
ATOM     99  C   UNL A   1      45.641  42.551  33.373  1.00  0.00     0.020 A 
ATOM    100  C   UNL A   1      43.795  41.139  32.681  1.00  0.00     0.020 A 
ATOM    101  C   UNL A   1      44.307  42.149  33.496  1.00  0.00     0.054 A 
BRANCH 101 102
ATOM    102  S   UNL A   1      43.226  42.967  34.703  1.00  0.00     0.124 S 
ATOM    103  O   UNL A   1      41.917  42.400  34.394  1.00  0.00    -0.237 OA
ATOM    104  O   UNL A   1      43.802  42.561  35.983  1.00  0.00    -0.237 OA
ATOM    105  O   UNL A   1      43.370  44.389  34.393  1.00  0.00    -0.744 OA
ENDBRANCH 101 102
ENDBRANCH  75  96
ENDBRANCH  49  50
ENDBRANCH  42  44
ENDBRANCH  41  42
ENDBRANCH  40  41
ENDBRANCH  39  40
ENDBRANCH  38  39
ENDBRANCH  37  38
ENDBRANCH  36  37
ENDBRANCH  35  36
ENDBRANCH   1  35
TORSDOF 28
ENDMDL
