MODEL 1
REMARK VINA RESULT:     -10.3      0.000      0.000
REMARK SMILES C[C@@H]1Cc2ccccc2N1S(=O)(=O)c1c[nH]c(C(=O)OCCOCCOCCOCCOC(=O)c2ccc(-c3c4nc(c(-c5ccc(S(=O)(=O)[O-])cc5)c5ccc([nH]5)c(-c5ccc(S(=O)(=O)[O-])cc5)c5nc(c(-c6ccc(S(=O)(=O)[O-])cc6)c6ccc3[nH]6)C=C5)C=C4)cc2)c1
REMARK SMILES IDX 27 1 26 2 25 3 24 4 23 5 22 6 21 7 20 8 18 9 19 10 17 11
REMARK SMILES IDX 14 12 15 13 95 14 16 15 11 17 12 18 13 19 10 20 1 21 2 22
REMARK SMILES IDX 3 23 4 24 9 25 5 26 8 27 6 28 7 29 28 30 29 31 30 32 31 33
REMARK SMILES IDX 32 34 33 35 34 36 35 37 36 38 94 39 37 40 93 41 38 42 39 43
REMARK SMILES IDX 40 44 87 45 41 46 92 47 86 48 88 49 42 50 91 51 85 52 84 53
REMARK SMILES IDX 43 55 73 56 54 57 72 58 55 59 58 60 71 61 89 62 56 63 57 64
REMARK SMILES IDX 70 66 90 67 59 68 44 69 45 70 53 71 46 72 52 73 47 74 48 75
REMARK SMILES IDX 49 76 50 77 51 78 74 79 75 80 83 81 76 82 82 83 77 84 78 85
REMARK SMILES IDX 79 86 80 87 81 88 60 89 61 90 69 91 62 92 68 93 63 94 64 95
REMARK SMILES IDX 65 96 66 97 67 98
REMARK H PARENT 16 16 88 54 58 65
REMARK Flexibility Score: inf
ROOT
ATOM      1  C   UNL A   1      32.313  28.553  27.590  1.00  0.00     0.188 C 
ENDROOT
BRANCH   1   2
ATOM      2  O   UNL A   1      32.524  27.454  26.726  1.00  0.00    -0.377 OA
BRANCH   2   3
ATOM      3  C   UNL A   1      33.736  27.441  26.006  1.00  0.00     0.188 C 
BRANCH   3   4
ATOM      4  C   UNL A   1      33.783  26.657  24.689  1.00  0.00     0.188 C 
BRANCH   4   5
ATOM      5  O   UNL A   1      33.813  27.456  23.525  1.00  0.00    -0.376 OA
BRANCH   5   6
ATOM      6  C   UNL A   1      32.661  28.170  23.129  1.00  0.00     0.202 C 
BRANCH   6   7
ATOM      7  C   UNL A   1      31.309  27.450  23.071  1.00  0.00     0.261 C 
BRANCH   7   8
ATOM      8  O   UNL A   1      30.482  27.456  24.206  1.00  0.00    -0.459 OA
BRANCH   8   9
ATOM      9  C   UNL A   1      29.628  26.411  24.288  1.00  0.00     0.354 C 
ATOM     10  O   UNL A   1      28.577  26.291  23.703  1.00  0.00    -0.244 OA
BRANCH   9  11
ATOM     11  C   UNL A   1      30.327  25.390  25.007  1.00  0.00     0.126 A 
ATOM     12  C   UNL A   1      31.346  23.518  25.710  1.00  0.00     0.106 A 
ATOM     13  C   UNL A   1      31.059  24.305  26.811  1.00  0.00     0.105 A 
ATOM     14  C   UNL A   1      30.865  24.195  24.568  1.00  0.00     0.057 A 
ATOM     15  N   UNL A   1      30.501  25.466  26.363  1.00  0.00    -0.354 N 
ATOM     16  H   UNL A   1      30.262  26.237  26.925  1.00  0.00     0.166 HD
BRANCH  12  17
ATOM     17  S   UNL A   1      32.213  22.031  25.735  1.00  0.00     0.266 S 
ATOM     18  O   UNL A   1      31.163  21.064  25.473  1.00  0.00    -0.201 OA
ATOM     19  O   UNL A   1      32.924  22.034  26.996  1.00  0.00    -0.201 OA
BRANCH  17  20
ATOM     20  N   UNL A   1      33.383  21.883  24.503  1.00  0.00    -0.263 N 
ATOM     21  C   UNL A   1      32.147  21.790  22.337  1.00  0.00     0.032 C 
ATOM     22  C   UNL A   1      32.993  22.652  23.259  1.00  0.00     0.101 C 
ATOM     23  C   UNL A   1      34.308  23.133  22.612  1.00  0.00     0.063 C 
ATOM     24  C   UNL A   1      35.325  22.843  23.668  1.00  0.00    -0.021 A 
ATOM     25  C   UNL A   1      34.769  22.138  24.734  1.00  0.00     0.055 A 
ATOM     26  C   UNL A   1      36.683  23.127  23.612  1.00  0.00     0.006 A 
ATOM     27  C   UNL A   1      35.592  21.599  25.708  1.00  0.00     0.027 A 
ATOM     28  C   UNL A   1      37.503  22.656  24.635  1.00  0.00     0.000 A 
ATOM     29  C   UNL A   1      36.963  21.883  25.670  1.00  0.00     0.002 A 
ENDBRANCH  17  20
ENDBRANCH  12  17
ENDBRANCH   9  11
ENDBRANCH   8   9
ENDBRANCH   7   8
ENDBRANCH   6   7
ENDBRANCH   5   6
ENDBRANCH   4   5
ENDBRANCH   3   4
ENDBRANCH   2   3
ENDBRANCH   1   2
BRANCH   1  30
ATOM     30  C   UNL A   1      32.012  29.873  26.846  1.00  0.00     0.188 C 
BRANCH  30  31
ATOM     31  O   UNL A   1      33.063  30.814  26.667  1.00  0.00    -0.376 OA
BRANCH  31  32
ATOM     32  C   UNL A   1      33.162  31.861  27.621  1.00  0.00     0.202 C 
BRANCH  32  33
ATOM     33  C   UNL A   1      32.680  33.291  27.264  1.00  0.00     0.261 C 
BRANCH  33  34
ATOM     34  O   UNL A   1      32.239  34.112  28.368  1.00  0.00    -0.460 OA
BRANCH  34  35
ATOM     35  C   UNL A   1      32.983  35.196  28.734  1.00  0.00     0.338 C 
ATOM     36  O   UNL A   1      32.593  36.348  28.805  1.00  0.00    -0.246 OA
BRANCH  35  37
ATOM     37  C   UNL A   1      34.251  34.683  29.358  1.00  0.00     0.060 A 
ATOM     38  C   UNL A   1      35.459  34.645  28.659  1.00  0.00     0.016 A 
ATOM     39  C   UNL A   1      34.129  33.939  30.547  1.00  0.00     0.016 A 
ATOM     40  C   UNL A   1      36.481  33.780  29.095  1.00  0.00     0.010 A 
ATOM     41  C   UNL A   1      35.125  33.023  30.942  1.00  0.00     0.010 A 
ATOM     42  C   UNL A   1      36.320  32.932  30.224  1.00  0.00    -0.014 A 
BRANCH  42  43
ATOM     43  C   UNL A   1      37.588  32.376  30.824  1.00  0.00     0.031 A 
ATOM     44  C   UNL A   1      37.880  31.037  30.167  1.00  0.00     0.074 A 
ATOM     45  C   UNL A   1      38.228  32.921  31.912  1.00  0.00     0.049 A 
ATOM     46  N   UNL A   1      38.320  29.949  30.695  1.00  0.00    -0.248 NA
ATOM     47  C   UNL A   1      37.617  30.867  28.709  1.00  0.00     0.031 C 
ATOM     48  C   UNL A   1      38.483  34.358  32.080  1.00  0.00     0.029 A 
ATOM     49  N   UNL A   1      38.891  32.423  33.036  1.00  0.00    -0.354 N 
ATOM     50  C   UNL A   1      38.604  29.070  29.636  1.00  0.00     0.074 A 
ATOM     51  C   UNL A   1      38.002  29.615  28.463  1.00  0.00     0.031 C 
ATOM     52  C   UNL A   1      39.034  34.626  33.294  1.00  0.00     0.029 A 
ATOM     53  C   UNL A   1      39.196  33.401  34.045  1.00  0.00     0.049 A 
ATOM     54  H   UNL A   1      39.133  31.473  33.129  1.00  0.00     0.167 HD
ATOM     55  C   UNL A   1      39.496  28.051  29.764  1.00  0.00     0.031 A 
ATOM     56  C   UNL A   1      39.627  33.232  35.346  1.00  0.00     0.031 A 
ATOM     57  C   UNL A   1      40.004  28.034  31.094  1.00  0.00     0.049 A 
ATOM     58  C   UNL A   1      40.573  32.123  35.176  1.00  0.00     0.074 A 
ATOM     59  C   UNL A   1      39.398  27.759  32.294  1.00  0.00     0.029 A 
ATOM     60  N   UNL A   1      41.142  28.779  31.307  1.00  0.00    -0.354 N 
ATOM     61  N   UNL A   1      41.658  32.209  34.460  1.00  0.00    -0.248 NA
ATOM     62  C   UNL A   1      40.308  30.825  35.798  1.00  0.00     0.031 C 
ATOM     63  C   UNL A   1      39.909  28.760  33.138  1.00  0.00     0.029 A 
ATOM     64  C   UNL A   1      40.993  29.394  32.520  1.00  0.00     0.049 A 
ATOM     65  H   UNL A   1      41.914  28.855  30.702  1.00  0.00     0.167 HD
ATOM     66  C   UNL A   1      41.851  30.897  34.130  1.00  0.00     0.074 A 
ATOM     67  C   UNL A   1      41.283  30.124  35.222  1.00  0.00     0.031 C 
ATOM     68  C   UNL A   1      41.798  30.554  32.814  1.00  0.00     0.031 A 
BRANCH  55  69
ATOM     69  C   UNL A   1      40.176  27.195  28.746  1.00  0.00    -0.014 A 
ATOM     70  C   UNL A   1      41.419  27.474  28.166  1.00  0.00     0.010 A 
ATOM     71  C   UNL A   1      39.639  25.897  28.564  1.00  0.00     0.010 A 
ATOM     72  C   UNL A   1      42.110  26.483  27.452  1.00  0.00     0.020 A 
ATOM     73  C   UNL A   1      40.334  24.898  27.891  1.00  0.00     0.020 A 
ATOM     74  C   UNL A   1      41.569  25.198  27.332  1.00  0.00     0.054 A 
BRANCH  74  75
ATOM     75  S   UNL A   1      42.510  23.901  26.490  1.00  0.00     0.124 S 
ATOM     76  O   UNL A   1      43.535  23.584  27.481  1.00  0.00    -0.237 OA
ATOM     77  O   UNL A   1      41.507  22.866  26.265  1.00  0.00    -0.237 OA
ATOM     78  O   UNL A   1      43.004  24.560  25.282  1.00  0.00    -0.744 OA
ENDBRANCH  74  75
ENDBRANCH  55  69
BRANCH  56  79
ATOM     79  C   UNL A   1      39.658  33.845  36.761  1.00  0.00    -0.014 A 
ATOM     80  C   UNL A   1      39.590  35.272  36.865  1.00  0.00     0.010 A 
ATOM     81  C   UNL A   1      40.096  33.205  37.933  1.00  0.00     0.010 A 
ATOM     82  C   UNL A   1      40.167  36.014  37.907  1.00  0.00     0.020 A 
ATOM     83  C   UNL A   1      40.612  33.950  39.041  1.00  0.00     0.020 A 
ATOM     84  C   UNL A   1      40.734  35.344  38.973  1.00  0.00     0.054 A 
BRANCH  84  85
ATOM     85  S   UNL A   1      41.677  36.319  40.193  1.00  0.00     0.124 S 
ATOM     86  O   UNL A   1      40.635  36.695  41.148  1.00  0.00    -0.237 OA
ATOM     87  O   UNL A   1      42.661  35.363  40.700  1.00  0.00    -0.237 OA
ATOM     88  O   UNL A   1      42.231  37.416  39.406  1.00  0.00    -0.744 OA
ENDBRANCH  84  85
ENDBRANCH  56  79
BRANCH  68  89
ATOM     89  C   UNL A   1      42.282  31.579  31.791  1.00  0.00    -0.014 A 
ATOM     90  C   UNL A   1      43.631  31.971  31.650  1.00  0.00     0.010 A 
ATOM     91  C   UNL A   1      41.348  32.205  30.943  1.00  0.00     0.010 A 
ATOM     92  C   UNL A   1      44.019  32.982  30.746  1.00  0.00     0.020 A 
ATOM     93  C   UNL A   1      41.721  33.218  30.045  1.00  0.00     0.020 A 
ATOM     94  C   UNL A   1      43.053  33.619  29.966  1.00  0.00     0.054 A 
BRANCH  94  95
ATOM     95  S   UNL A   1      43.530  35.036  28.928  1.00  0.00     0.124 S 
ATOM     96  O   UNL A   1      43.545  36.139  29.886  1.00  0.00    -0.237 OA
ATOM     97  O   UNL A   1      44.841  34.636  28.421  1.00  0.00    -0.237 OA
ATOM     98  O   UNL A   1      42.471  35.107  27.923  1.00  0.00    -0.744 OA
ENDBRANCH  94  95
ENDBRANCH  68  89
ENDBRANCH  42  43
ENDBRANCH  35  37
ENDBRANCH  34  35
ENDBRANCH  33  34
ENDBRANCH  32  33
ENDBRANCH  31  32
ENDBRANCH  30  31
ENDBRANCH   1  30
TORSDOF 25
ENDMDL
MODEL 2
REMARK VINA RESULT:     -10.2      1.732      3.898
REMARK SMILES C[C@@H]1Cc2ccccc2N1S(=O)(=O)c1c[nH]c(C(=O)OCCOCCOCCOCCOC(=O)c2ccc(-c3c4nc(c(-c5ccc(S(=O)(=O)[O-])cc5)c5ccc([nH]5)c(-c5ccc(S(=O)(=O)[O-])cc5)c5nc(c(-c6ccc(S(=O)(=O)[O-])cc6)c6ccc3[nH]6)C=C5)C=C4)cc2)c1
REMARK SMILES IDX 27 1 26 2 25 3 24 4 23 5 22 6 21 7 20 8 18 9 19 10 17 11
REMARK SMILES IDX 14 12 15 13 95 14 16 15 11 17 12 18 13 19 10 20 1 21 2 22
REMARK SMILES IDX 3 23 4 24 9 25 5 26 8 27 6 28 7 29 28 30 29 31 30 32 31 33
REMARK SMILES IDX 32 34 33 35 34 36 35 37 36 38 94 39 37 40 93 41 38 42 39 43
REMARK SMILES IDX 40 44 87 45 41 46 92 47 86 48 88 49 42 50 91 51 85 52 84 53
REMARK SMILES IDX 43 55 73 56 54 57 72 58 55 59 58 60 71 61 89 62 56 63 57 64
REMARK SMILES IDX 70 66 90 67 59 68 44 69 45 70 53 71 46 72 52 73 47 74 48 75
REMARK SMILES IDX 49 76 50 77 51 78 74 79 75 80 83 81 76 82 82 83 77 84 78 85
REMARK SMILES IDX 79 86 80 87 81 88 60 89 61 90 69 91 62 92 68 93 63 94 64 95
REMARK SMILES IDX 65 96 66 97 67 98
REMARK H PARENT 16 16 88 54 58 65
REMARK Flexibility Score: inf
ROOT
ATOM      1  C   UNL A   1      31.792  28.596  27.319  1.00  0.00     0.188 C 
ENDROOT
BRANCH   1   2
ATOM      2  O   UNL A   1      31.399  27.535  26.469  1.00  0.00    -0.377 OA
BRANCH   2   3
ATOM      3  C   UNL A   1      30.941  26.360  27.098  1.00  0.00     0.188 C 
BRANCH   3   4
ATOM      4  C   UNL A   1      31.214  25.019  26.405  1.00  0.00     0.188 C 
BRANCH   4   5
ATOM      5  O   UNL A   1      31.127  23.890  27.248  1.00  0.00    -0.376 OA
BRANCH   5   6
ATOM      6  C   UNL A   1      32.165  22.933  27.257  1.00  0.00     0.202 C 
BRANCH   6   7
ATOM      7  C   UNL A   1      32.988  22.699  25.985  1.00  0.00     0.261 C 
BRANCH   7   8
ATOM      8  O   UNL A   1      34.367  22.964  26.003  1.00  0.00    -0.459 OA
BRANCH   8   9
ATOM      9  C   UNL A   1      34.883  23.356  24.817  1.00  0.00     0.354 C 
ATOM     10  O   UNL A   1      35.473  22.662  24.023  1.00  0.00    -0.244 OA
BRANCH   9  11
ATOM     11  C   UNL A   1      34.384  24.677  24.592  1.00  0.00     0.126 A 
ATOM     12  C   UNL A   1      33.622  26.613  23.747  1.00  0.00     0.106 A 
ATOM     13  C   UNL A   1      34.042  26.832  25.047  1.00  0.00     0.105 A 
ATOM     14  C   UNL A   1      33.857  25.253  23.450  1.00  0.00     0.057 A 
ATOM     15  N   UNL A   1      34.439  25.636  25.568  1.00  0.00    -0.354 N 
ATOM     16  H   UNL A   1      34.720  25.485  26.499  1.00  0.00     0.166 HD
BRANCH  12  17
ATOM     17  S   UNL A   1      32.870  27.773  22.723  1.00  0.00     0.266 S 
ATOM     18  O   UNL A   1      33.566  27.567  21.467  1.00  0.00    -0.201 OA
ATOM     19  O   UNL A   1      32.979  29.029  23.437  1.00  0.00    -0.201 OA
BRANCH  17  20
ATOM     20  N   UNL A   1      31.208  27.497  22.454  1.00  0.00    -0.263 N 
ATOM     21  C   UNL A   1      30.823  25.050  22.759  1.00  0.00     0.032 C 
ATOM     22  C   UNL A   1      30.658  26.429  23.375  1.00  0.00     0.101 C 
ATOM     23  C   UNL A   1      29.188  26.805  23.651  1.00  0.00     0.063 C 
ATOM     24  C   UNL A   1      29.088  28.189  23.097  1.00  0.00    -0.021 A 
ATOM     25  C   UNL A   1      30.253  28.558  22.428  1.00  0.00     0.055 A 
ATOM     26  C   UNL A   1      27.972  29.016  23.126  1.00  0.00     0.006 A 
ATOM     27  C   UNL A   1      30.277  29.718  21.672  1.00  0.00     0.027 A 
ATOM     28  C   UNL A   1      28.021  30.223  22.433  1.00  0.00     0.000 A 
ATOM     29  C   UNL A   1      29.163  30.566  21.698  1.00  0.00     0.002 A 
ENDBRANCH  17  20
ENDBRANCH  12  17
ENDBRANCH   9  11
ENDBRANCH   8   9
ENDBRANCH   7   8
ENDBRANCH   6   7
ENDBRANCH   5   6
ENDBRANCH   4   5
ENDBRANCH   3   4
ENDBRANCH   2   3
ENDBRANCH   1   2
BRANCH   1  30
ATOM     30  C   UNL A   1      31.780  29.977  26.625  1.00  0.00     0.188 C 
BRANCH  30  31
ATOM     31  O   UNL A   1      32.942  30.793  26.703  1.00  0.00    -0.376 OA
BRANCH  31  32
ATOM     32  C   UNL A   1      32.929  31.844  27.657  1.00  0.00     0.202 C 
BRANCH  32  33
ATOM     33  C   UNL A   1      32.719  33.311  27.200  1.00  0.00     0.261 C 
BRANCH  33  34
ATOM     34  O   UNL A   1      32.158  34.213  28.179  1.00  0.00    -0.460 OA
BRANCH  34  35
ATOM     35  C   UNL A   1      32.903  35.265  28.625  1.00  0.00     0.338 C 
ATOM     36  O   UNL A   1      32.523  36.416  28.752  1.00  0.00    -0.246 OA
BRANCH  35  37
ATOM     37  C   UNL A   1      34.150  34.703  29.249  1.00  0.00     0.060 A 
ATOM     38  C   UNL A   1      35.347  34.587  28.538  1.00  0.00     0.016 A 
ATOM     39  C   UNL A   1      34.003  33.994  30.456  1.00  0.00     0.016 A 
ATOM     40  C   UNL A   1      36.328  33.681  28.986  1.00  0.00     0.010 A 
ATOM     41  C   UNL A   1      34.956  33.038  30.863  1.00  0.00     0.010 A 
ATOM     42  C   UNL A   1      36.137  32.869  30.136  1.00  0.00    -0.014 A 
BRANCH  42  43
ATOM     43  C   UNL A   1      37.381  32.264  30.737  1.00  0.00     0.031 A 
ATOM     44  C   UNL A   1      37.657  30.944  30.034  1.00  0.00     0.074 A 
ATOM     45  C   UNL A   1      38.012  32.753  31.856  1.00  0.00     0.049 A 
ATOM     46  N   UNL A   1      38.064  29.828  30.529  1.00  0.00    -0.248 NA
ATOM     47  C   UNL A   1      37.418  30.835  28.567  1.00  0.00     0.031 C 
ATOM     48  C   UNL A   1      38.294  34.177  32.083  1.00  0.00     0.029 A 
ATOM     49  N   UNL A   1      38.644  32.199  32.972  1.00  0.00    -0.354 N 
ATOM     50  C   UNL A   1      38.349  28.983  29.442  1.00  0.00     0.074 A 
ATOM     51  C   UNL A   1      37.780  29.585  28.280  1.00  0.00     0.031 C 
ATOM     52  C   UNL A   1      38.829  34.387  33.316  1.00  0.00     0.029 A 
ATOM     53  C   UNL A   1      38.951  33.132  34.023  1.00  0.00     0.049 A 
ATOM     54  H   UNL A   1      38.864  31.242  33.033  1.00  0.00     0.167 HD
ATOM     55  C   UNL A   1      39.217  27.941  29.547  1.00  0.00     0.031 A 
ATOM     56  C   UNL A   1      39.353  32.905  35.324  1.00  0.00     0.031 A 
ATOM     57  C   UNL A   1      39.700  27.863  30.885  1.00  0.00     0.049 A 
ATOM     58  C   UNL A   1      40.279  31.782  35.129  1.00  0.00     0.074 A 
ATOM     59  C   UNL A   1      39.065  27.557  32.062  1.00  0.00     0.029 A 
ATOM     60  N   UNL A   1      40.849  28.575  31.146  1.00  0.00    -0.354 N 
ATOM     61  N   UNL A   1      41.379  31.872  34.436  1.00  0.00    -0.248 NA
ATOM     62  C   UNL A   1      39.975  30.468  35.696  1.00  0.00     0.031 C 
ATOM     63  C   UNL A   1      39.582  28.513  32.953  1.00  0.00     0.029 A 
ATOM     64  C   UNL A   1      40.690  29.146  32.379  1.00  0.00     0.049 A 
ATOM     65  H   UNL A   1      41.634  28.656  30.558  1.00  0.00     0.167 HD
ATOM     66  C   UNL A   1      41.550  30.569  34.060  1.00  0.00     0.074 A 
ATOM     67  C   UNL A   1      40.945  29.768  35.111  1.00  0.00     0.031 C 
ATOM     68  C   UNL A   1      41.514  30.277  32.731  1.00  0.00     0.031 A 
BRANCH  55  69
ATOM     69  C   UNL A   1      39.897  27.109  28.510  1.00  0.00    -0.014 A 
ATOM     70  C   UNL A   1      40.809  27.595  27.566  1.00  0.00     0.010 A 
ATOM     71  C   UNL A   1      39.801  25.706  28.675  1.00  0.00     0.010 A 
ATOM     72  C   UNL A   1      41.614  26.708  26.832  1.00  0.00     0.020 A 
ATOM     73  C   UNL A   1      40.622  24.823  27.980  1.00  0.00     0.020 A 
ATOM     74  C   UNL A   1      41.524  25.330  27.056  1.00  0.00     0.054 A 
BRANCH  74  75
ATOM     75  S   UNL A   1      42.632  24.203  26.172  1.00  0.00     0.124 S 
ATOM     76  O   UNL A   1      43.675  23.967  27.168  1.00  0.00    -0.237 OA
ATOM     77  O   UNL A   1      41.769  23.064  25.880  1.00  0.00    -0.237 OA
ATOM     78  O   UNL A   1      43.056  24.976  25.006  1.00  0.00    -0.744 OA
ENDBRANCH  74  75
ENDBRANCH  55  69
BRANCH  56  79
ATOM     79  C   UNL A   1      39.372  33.463  36.762  1.00  0.00    -0.014 A 
ATOM     80  C   UNL A   1      40.609  33.394  37.480  1.00  0.00     0.010 A 
ATOM     81  C   UNL A   1      38.251  33.707  37.572  1.00  0.00     0.010 A 
ATOM     82  C   UNL A   1      40.704  33.284  38.876  1.00  0.00     0.020 A 
ATOM     83  C   UNL A   1      38.343  33.681  39.000  1.00  0.00     0.020 A 
ATOM     84  C   UNL A   1      39.553  33.369  39.634  1.00  0.00     0.054 A 
BRANCH  84  85
ATOM     85  S   UNL A   1      39.671  32.994  41.416  1.00  0.00     0.124 S 
ATOM     86  O   UNL A   1      40.725  33.911  41.848  1.00  0.00    -0.237 OA
ATOM     87  O   UNL A   1      38.335  33.311  41.916  1.00  0.00    -0.237 OA
ATOM     88  O   UNL A   1      40.022  31.577  41.449  1.00  0.00    -0.744 OA
ENDBRANCH  84  85
ENDBRANCH  56  79
BRANCH  68  89
ATOM     89  C   UNL A   1      42.039  31.328  31.756  1.00  0.00    -0.014 A 
ATOM     90  C   UNL A   1      43.400  31.685  31.643  1.00  0.00     0.010 A 
ATOM     91  C   UNL A   1      41.133  32.018  30.928  1.00  0.00     0.010 A 
ATOM     92  C   UNL A   1      43.827  32.721  30.786  1.00  0.00     0.020 A 
ATOM     93  C   UNL A   1      41.544  33.056  30.076  1.00  0.00     0.020 A 
ATOM     94  C   UNL A   1      42.888  33.419  30.026  1.00  0.00     0.054 A 
BRANCH  94  95
ATOM     95  S   UNL A   1      43.418  34.863  29.053  1.00  0.00     0.124 S 
ATOM     96  O   UNL A   1      44.698  34.422  28.503  1.00  0.00    -0.237 OA
ATOM     97  O   UNL A   1      42.339  35.008  28.078  1.00  0.00    -0.237 OA
ATOM     98  O   UNL A   1      43.509  35.938  30.041  1.00  0.00    -0.744 OA
ENDBRANCH  94  95
ENDBRANCH  68  89
ENDBRANCH  42  43
ENDBRANCH  35  37
ENDBRANCH  34  35
ENDBRANCH  33  34
ENDBRANCH  32  33
ENDBRANCH  31  32
ENDBRANCH  30  31
ENDBRANCH   1  30
TORSDOF 25
ENDMDL
MODEL 3
REMARK VINA RESULT:      -9.5      2.876      5.415
REMARK SMILES C[C@@H]1Cc2ccccc2N1S(=O)(=O)c1c[nH]c(C(=O)OCCOCCOCCOCCOC(=O)c2ccc(-c3c4nc(c(-c5ccc(S(=O)(=O)[O-])cc5)c5ccc([nH]5)c(-c5ccc(S(=O)(=O)[O-])cc5)c5nc(c(-c6ccc(S(=O)(=O)[O-])cc6)c6ccc3[nH]6)C=C5)C=C4)cc2)c1
REMARK SMILES IDX 27 1 26 2 25 3 24 4 23 5 22 6 21 7 20 8 18 9 19 10 17 11
REMARK SMILES IDX 14 12 15 13 95 14 16 15 11 17 12 18 13 19 10 20 1 21 2 22
REMARK SMILES IDX 3 23 4 24 9 25 5 26 8 27 6 28 7 29 28 30 29 31 30 32 31 33
REMARK SMILES IDX 32 34 33 35 34 36 35 37 36 38 94 39 37 40 93 41 38 42 39 43
REMARK SMILES IDX 40 44 87 45 41 46 92 47 86 48 88 49 42 50 91 51 85 52 84 53
REMARK SMILES IDX 43 55 73 56 54 57 72 58 55 59 58 60 71 61 89 62 56 63 57 64
REMARK SMILES IDX 70 66 90 67 59 68 44 69 45 70 53 71 46 72 52 73 47 74 48 75
REMARK SMILES IDX 49 76 50 77 51 78 74 79 75 80 83 81 76 82 82 83 77 84 78 85
REMARK SMILES IDX 79 86 80 87 81 88 60 89 61 90 69 91 62 92 68 93 63 94 64 95
REMARK SMILES IDX 65 96 66 97 67 98
REMARK H PARENT 16 16 88 54 58 65
REMARK Flexibility Score: inf
ROOT
ATOM      1  C   UNL A   1      30.665  24.361  24.353  1.00  0.00     0.188 C 
ENDROOT
BRANCH   1   2
ATOM      2  O   UNL A   1      31.571  23.403  24.864  1.00  0.00    -0.377 OA
BRANCH   2   3
ATOM      3  C   UNL A   1      31.268  22.859  26.128  1.00  0.00     0.188 C 
BRANCH   3   4
ATOM      4  C   UNL A   1      32.269  23.080  27.268  1.00  0.00     0.188 C 
BRANCH   4   5
ATOM      5  O   UNL A   1      32.945  21.916  27.696  1.00  0.00    -0.376 OA
BRANCH   5   6
ATOM      6  C   UNL A   1      33.688  21.151  26.772  1.00  0.00     0.202 C 
BRANCH   6   7
ATOM      7  C   UNL A   1      34.962  21.739  26.155  1.00  0.00     0.261 C 
BRANCH   7   8
ATOM      8  O   UNL A   1      35.429  21.230  24.932  1.00  0.00    -0.459 OA
BRANCH   8   9
ATOM      9  C   UNL A   1      36.535  21.841  24.452  1.00  0.00     0.354 C 
ATOM     10  O   UNL A   1      36.576  22.888  23.848  1.00  0.00    -0.244 OA
BRANCH   9  11
ATOM     11  C   UNL A   1      37.645  21.129  25.004  1.00  0.00     0.126 A 
ATOM     12  C   UNL A   1      39.612  20.471  25.865  1.00  0.00     0.106 A 
ATOM     13  C   UNL A   1      38.936  19.356  25.401  1.00  0.00     0.105 A 
ATOM     14  C   UNL A   1      38.804  21.597  25.596  1.00  0.00     0.057 A 
ATOM     15  N   UNL A   1      37.718  19.763  24.943  1.00  0.00    -0.354 N 
ATOM     16  H   UNL A   1      37.003  19.169  24.620  1.00  0.00     0.166 HD
BRANCH  12  17
ATOM     17  S   UNL A   1      41.118  20.461  26.696  1.00  0.00     0.266 S 
ATOM     18  O   UNL A   1      41.481  19.057  26.651  1.00  0.00    -0.201 OA
ATOM     19  O   UNL A   1      40.853  21.121  27.958  1.00  0.00    -0.201 OA
BRANCH  17  20
ATOM     20  N   UNL A   1      42.351  21.349  25.921  1.00  0.00    -0.263 N 
ATOM     21  C   UNL A   1      41.748  23.761  26.130  1.00  0.00     0.032 C 
ATOM     22  C   UNL A   1      42.648  22.648  26.639  1.00  0.00     0.101 C 
ATOM     23  C   UNL A   1      44.150  22.929  26.429  1.00  0.00     0.063 C 
ATOM     24  C   UNL A   1      44.652  21.648  25.849  1.00  0.00    -0.021 A 
ATOM     25  C   UNL A   1      43.608  20.766  25.576  1.00  0.00     0.055 A 
ATOM     26  C   UNL A   1      45.966  21.349  25.510  1.00  0.00     0.006 A 
ATOM     27  C   UNL A   1      43.851  19.614  24.847  1.00  0.00     0.027 A 
ATOM     28  C   UNL A   1      46.225  20.151  24.848  1.00  0.00     0.000 A 
ATOM     29  C   UNL A   1      45.171  19.294  24.505  1.00  0.00     0.002 A 
ENDBRANCH  17  20
ENDBRANCH  12  17
ENDBRANCH   9  11
ENDBRANCH   8   9
ENDBRANCH   7   8
ENDBRANCH   6   7
ENDBRANCH   5   6
ENDBRANCH   4   5
ENDBRANCH   3   4
ENDBRANCH   2   3
ENDBRANCH   1   2
BRANCH   1  30
ATOM     30  C   UNL A   1      30.501  25.601  25.262  1.00  0.00     0.188 C 
BRANCH  30  31
ATOM     31  O   UNL A   1      31.661  26.333  25.639  1.00  0.00    -0.376 OA
BRANCH  31  32
ATOM     32  C   UNL A   1      31.460  27.505  26.414  1.00  0.00     0.202 C 
BRANCH  32  33
ATOM     33  C   UNL A   1      32.091  28.851  25.973  1.00  0.00     0.261 C 
BRANCH  33  34
ATOM     34  O   UNL A   1      33.190  29.337  26.775  1.00  0.00    -0.460 OA
BRANCH  34  35
ATOM     35  C   UNL A   1      33.250  30.661  27.097  1.00  0.00     0.338 C 
ATOM     36  O   UNL A   1      32.341  31.467  27.007  1.00  0.00    -0.246 OA
BRANCH  35  37
ATOM     37  C   UNL A   1      34.506  30.875  27.895  1.00  0.00     0.060 A 
ATOM     38  C   UNL A   1      35.217  32.076  27.851  1.00  0.00     0.016 A 
ATOM     39  C   UNL A   1      35.131  29.733  28.430  1.00  0.00     0.016 A 
ATOM     40  C   UNL A   1      36.572  32.090  28.236  1.00  0.00     0.010 A 
ATOM     41  C   UNL A   1      36.505  29.733  28.749  1.00  0.00     0.010 A 
ATOM     42  C   UNL A   1      37.247  30.913  28.661  1.00  0.00    -0.014 A 
BRANCH  42  43
ATOM     43  C   UNL A   1      38.533  31.122  29.420  1.00  0.00     0.031 A 
ATOM     44  C   UNL A   1      39.525  30.057  28.982  1.00  0.00     0.074 A 
ATOM     45  C   UNL A   1      38.677  32.009  30.461  1.00  0.00     0.049 A 
ATOM     46  N   UNL A   1      40.366  29.388  29.688  1.00  0.00    -0.248 NA
ATOM     47  C   UNL A   1      39.572  29.650  27.548  1.00  0.00     0.031 C 
ATOM     48  C   UNL A   1      38.174  33.389  30.441  1.00  0.00     0.029 A 
ATOM     49  N   UNL A   1      39.346  32.012  31.688  1.00  0.00    -0.354 N 
ATOM     50  C   UNL A   1      41.180  28.678  28.787  1.00  0.00     0.074 A 
ATOM     51  C   UNL A   1      40.547  28.743  27.510  1.00  0.00     0.031 C 
ATOM     52  C   UNL A   1      38.360  34.004  31.639  1.00  0.00     0.029 A 
ATOM     53  C   UNL A   1      38.999  33.097  32.566  1.00  0.00     0.049 A 
ATOM     54  H   UNL A   1      40.006  31.323  31.932  1.00  0.00     0.167 HD
ATOM     55  C   UNL A   1      42.430  28.259  29.120  1.00  0.00     0.031 A 
ATOM     56  C   UNL A   1      39.283  33.282  33.905  1.00  0.00     0.031 A 
ATOM     57  C   UNL A   1      42.703  28.617  30.471  1.00  0.00     0.049 A 
ATOM     58  C   UNL A   1      40.663  32.786  33.960  1.00  0.00     0.074 A 
ATOM     59  C   UNL A   1      42.157  28.184  31.653  1.00  0.00     0.029 A 
ATOM     60  N   UNL A   1      43.293  29.847  30.654  1.00  0.00    -0.354 N 
ATOM     61  N   UNL A   1      41.652  33.340  33.316  1.00  0.00    -0.248 NA
ATOM     62  C   UNL A   1      40.987  31.591  34.740  1.00  0.00     0.031 C 
ATOM     63  C   UNL A   1      41.999  29.376  32.380  1.00  0.00     0.029 A 
ATOM     64  C   UNL A   1      42.706  30.410  31.755  1.00  0.00     0.049 A 
ATOM     65  H   UNL A   1      44.001  30.245  30.100  1.00  0.00     0.167 HD
ATOM     66  C   UNL A   1      42.501  32.277  33.190  1.00  0.00     0.074 A 
ATOM     67  C   UNL A   1      42.246  31.424  34.339  1.00  0.00     0.031 C 
ATOM     68  C   UNL A   1      42.795  31.838  31.936  1.00  0.00     0.031 A 
BRANCH  55  69
ATOM     69  C   UNL A   1      43.567  27.772  28.284  1.00  0.00    -0.014 A 
ATOM     70  C   UNL A   1      43.608  26.535  27.629  1.00  0.00     0.010 A 
ATOM     71  C   UNL A   1      44.539  28.740  27.929  1.00  0.00     0.010 A 
ATOM     72  C   UNL A   1      44.571  26.286  26.638  1.00  0.00     0.020 A 
ATOM     73  C   UNL A   1      45.471  28.514  26.921  1.00  0.00     0.020 A 
ATOM     74  C   UNL A   1      45.486  27.282  26.282  1.00  0.00     0.054 A 
BRANCH  74  75
ATOM     75  S   UNL A   1      46.662  26.983  24.938  1.00  0.00     0.124 S 
ATOM     76  O   UNL A   1      46.146  27.858  23.889  1.00  0.00    -0.237 OA
ATOM     77  O   UNL A   1      47.935  27.385  25.527  1.00  0.00    -0.237 OA
ATOM     78  O   UNL A   1      46.526  25.552  24.671  1.00  0.00    -0.744 OA
ENDBRANCH  74  75
ENDBRANCH  55  69
BRANCH  56  79
ATOM     79  C   UNL A   1      38.827  33.951  35.217  1.00  0.00    -0.014 A 
ATOM     80  C   UNL A   1      39.580  35.079  35.680  1.00  0.00     0.010 A 
ATOM     81  C   UNL A   1      37.988  33.384  36.190  1.00  0.00     0.010 A 
ATOM     82  C   UNL A   1      39.717  35.433  37.031  1.00  0.00     0.020 A 
ATOM     83  C   UNL A   1      38.055  33.790  37.561  1.00  0.00     0.020 A 
ATOM     84  C   UNL A   1      38.993  34.741  37.982  1.00  0.00     0.054 A 
BRANCH  84  85
ATOM     85  S   UNL A   1      39.361  35.063  39.740  1.00  0.00     0.124 S 
ATOM     86  O   UNL A   1      38.758  33.901  40.392  1.00  0.00    -0.237 OA
ATOM     87  O   UNL A   1      40.822  35.101  39.776  1.00  0.00    -0.237 OA
ATOM     88  O   UNL A   1      38.704  36.339  40.003  1.00  0.00    -0.744 OA
ENDBRANCH  84  85
ENDBRANCH  56  79
BRANCH  68  89
ATOM     89  C   UNL A   1      42.847  32.872  30.813  1.00  0.00    -0.014 A 
ATOM     90  C   UNL A   1      41.742  33.656  30.416  1.00  0.00     0.010 A 
ATOM     91  C   UNL A   1      44.045  33.057  30.097  1.00  0.00     0.010 A 
ATOM     92  C   UNL A   1      41.815  34.540  29.319  1.00  0.00     0.020 A 
ATOM     93  C   UNL A   1      44.128  33.928  28.998  1.00  0.00     0.020 A 
ATOM     94  C   UNL A   1      43.005  34.649  28.599  1.00  0.00     0.054 A 
BRANCH  94  95
ATOM     95  S   UNL A   1      43.047  35.659  27.085  1.00  0.00     0.124 S 
ATOM     96  O   UNL A   1      41.647  36.044  26.924  1.00  0.00    -0.237 OA
ATOM     97  O   UNL A   1      43.953  36.745  27.448  1.00  0.00    -0.237 OA
ATOM     98  O   UNL A   1      43.555  34.741  26.066  1.00  0.00    -0.744 OA
ENDBRANCH  94  95
ENDBRANCH  68  89
ENDBRANCH  42  43
ENDBRANCH  35  37
ENDBRANCH  34  35
ENDBRANCH  33  34
ENDBRANCH  32  33
ENDBRANCH  31  32
ENDBRANCH  30  31
ENDBRANCH   1  30
TORSDOF 25
ENDMDL
