MODEL 1
REMARK VINA RESULT:     -10.6      0.000      0.000
REMARK SMILES Cc1ccc(C2=NN(C(=O)CCC(=O)OCCOCCOCCOCCOC(=O)c3ccc(-c4c5nc(c(-c6ccc(S(=O)(=O)[O-])cc6)c6ccc([nH]6)c(-c6ccc(S(=O)(=O)[O-])cc6)c6nc(c(-c7ccc(S(=O)(=O)[O-])cc7)c7ccc4[nH]7)C=C6)C=C5)cc3)[C@H](C[C@H]3C=c4cccc(C)c4=NC3=O)C2)cc1
REMARK SMILES IDX 20 1 19 2 18 3 17 4 16 5 15 6 13 7 14 8 12 9 11 10 9 11
REMARK SMILES IDX 10 12 8 13 6 14 7 15 104 16 90 17 5 18 1 19 2 20 3 21 106 22
REMARK SMILES IDX 4 23 105 24 91 25 92 26 93 27 102 28 94 29 101 30 103 31
REMARK SMILES IDX 95 32 100 33 96 34 98 35 97 36 99 37 21 38 22 39 23 40 24 41
REMARK SMILES IDX 25 42 26 43 27 44 28 45 29 46 30 47 31 48 89 49 32 50 88 51
REMARK SMILES IDX 33 52 34 53 35 54 82 55 36 56 87 57 81 58 83 59 37 60 86 61
REMARK SMILES IDX 80 62 79 63 38 65 68 66 49 67 67 68 50 69 53 70 66 71 84 72
REMARK SMILES IDX 51 73 52 74 65 76 85 77 54 78 39 79 40 80 48 81 41 82 47 83
REMARK SMILES IDX 42 84 43 85 44 86 45 87 46 88 69 89 70 90 78 91 71 92 77 93
REMARK SMILES IDX 72 94 73 95 74 96 75 97 76 98 55 99 56 100 64 101 57 102
REMARK SMILES IDX 63 103 58 104 59 105 60 106 61 107 62 108
REMARK H PARENT 83 64 53 75
REMARK Flexibility Score: inf
ROOT
ATOM      1  C   UNL A   1      36.304  30.215  28.669  1.00  0.00     0.188 C 
ENDROOT
BRANCH   1   2
ATOM      2  C   UNL A   1      36.047  31.855  28.517  1.00  0.00     0.188 C 
BRANCH   2   3
ATOM      3  O   UNL A   1      34.850  32.541  28.906  1.00  0.00    -0.376 OA
BRANCH   3   4
ATOM      4  C   UNL A   1      33.671  32.199  28.198  1.00  0.00     0.202 C 
BRANCH   4   5
ATOM      5  C   UNL A   1      33.766  31.071  27.212  1.00  0.00     0.261 C 
BRANCH   5   6
ATOM      6  O   UNL A   1      32.747  30.128  27.619  1.00  0.00    -0.463 OA
BRANCH   6   7
ATOM      7  C   UNL A   1      31.910  29.518  26.792  1.00  0.00     0.306 C 
ATOM      8  O   UNL A   1      31.388  30.088  25.839  1.00  0.00    -0.252 OA
BRANCH   7   9
ATOM      9  C   UNL A   1      31.765  27.980  27.032  1.00  0.00     0.132 C 
BRANCH   9  10
ATOM     10  C   UNL A   1      31.619  26.553  26.235  1.00  0.00     0.114 C 
BRANCH  10  11
ATOM     11  C   UNL A   1      31.016  24.942  25.871  1.00  0.00     0.243 C 
ATOM     12  O   UNL A   1      29.960  24.772  26.534  1.00  0.00    -0.273 OA
BRANCH  11  13
ATOM     13  N   UNL A   1      31.571  23.817  24.938  1.00  0.00    -0.230 N 
ATOM     14  C   UNL A   1      32.386  20.935  24.281  1.00  0.00     0.070 C 
ATOM     15  N   UNL A   1      31.429  21.769  25.218  1.00  0.00    -0.174 NA
ATOM     16  C   UNL A   1      33.422  22.126  23.058  1.00  0.00     0.086 C 
ATOM     17  C   UNL A   1      32.764  24.042  23.357  1.00  0.00     0.118 C 
BRANCH  14  18
ATOM     18  C   UNL A   1      32.633  19.544  24.472  1.00  0.00    -0.002 A 
ATOM     19  C   UNL A   1      33.285  15.405  24.891  1.00  0.00     0.044 C 
ATOM     20  C   UNL A   1      32.950  16.855  24.779  1.00  0.00    -0.051 A 
ATOM     21  C   UNL A   1      32.707  17.388  23.503  1.00  0.00     0.004 A 
ATOM     22  C   UNL A   1      32.941  17.681  25.916  1.00  0.00     0.004 A 
ATOM     23  C   UNL A   1      32.527  18.746  23.346  1.00  0.00     0.010 A 
ATOM     24  C   UNL A   1      32.782  19.048  25.764  1.00  0.00     0.010 A 
ENDBRANCH  14  18
BRANCH  17  25
ATOM     25  C   UNL A   1      32.695  25.644  22.206  1.00  0.00     0.045 C 
BRANCH  25  26
ATOM     26  C   UNL A   1      31.668  27.376  22.387  1.00  0.00     0.106 C 
ATOM     27  C   UNL A   1      30.093  27.434  23.060  1.00  0.00    -0.003 C 
ATOM     28  C   UNL A   1      32.029  28.898  22.726  1.00  0.00     0.253 C 
ATOM     29  C   UNL A   1      29.346  28.411  23.543  1.00  0.00    -0.003 A 
ATOM     30  N   UNL A   1      30.996  29.817  22.380  1.00  0.00    -0.212 NA
ATOM     31  O   UNL A   1      33.131  29.289  23.088  1.00  0.00    -0.272 OA
ATOM     32  C   UNL A   1      27.972  28.051  23.869  1.00  0.00     0.010 A 
ATOM     33  C   UNL A   1      29.759  29.519  22.684  1.00  0.00     0.077 A 
ATOM     34  C   UNL A   1      26.982  28.576  23.145  1.00  0.00     0.001 A 
ATOM     35  C   UNL A   1      28.544  30.088  21.970  1.00  0.00    -0.025 A 
ATOM     36  C   UNL A   1      27.294  29.604  22.179  1.00  0.00     0.005 A 
ATOM     37  C   UNL A   1      28.853  31.012  20.855  1.00  0.00     0.047 C 
ENDBRANCH  25  26
ENDBRANCH  17  25
ENDBRANCH  11  13
ENDBRANCH  10  11
ENDBRANCH   9  10
ENDBRANCH   7   9
ENDBRANCH   6   7
ENDBRANCH   5   6
ENDBRANCH   4   5
ENDBRANCH   3   4
ENDBRANCH   2   3
ENDBRANCH   1   2
BRANCH   1  38
ATOM     38  O   UNL A   1      37.221  29.064  29.546  1.00  0.00    -0.377 OA
BRANCH  38  39
ATOM     39  C   UNL A   1      37.844  28.746  31.131  1.00  0.00     0.188 C 
BRANCH  39  40
ATOM     40  C   UNL A   1      37.531  29.445  32.669  1.00  0.00     0.188 C 
BRANCH  40  41
ATOM     41  O   UNL A   1      38.602  29.449  33.647  1.00  0.00    -0.376 OA
BRANCH  41  42
ATOM     42  C   UNL A   1      39.331  30.500  34.191  1.00  0.00     0.202 C 
BRANCH  42  43
ATOM     43  C   UNL A   1      40.016  31.138  33.065  1.00  0.00     0.261 C 
BRANCH  43  44
ATOM     44  O   UNL A   1      41.342  30.514  32.835  1.00  0.00    -0.460 OA
BRANCH  44  45
ATOM     45  C   UNL A   1      41.946  29.312  32.536  1.00  0.00     0.338 C 
ATOM     46  O   UNL A   1      41.252  28.561  31.839  1.00  0.00    -0.246 OA
BRANCH  45  47
ATOM     47  C   UNL A   1      43.342  28.712  32.885  1.00  0.00     0.060 A 
ATOM     48  C   UNL A   1      44.493  29.524  32.949  1.00  0.00     0.016 A 
ATOM     49  C   UNL A   1      43.638  27.425  33.304  1.00  0.00     0.016 A 
ATOM     50  C   UNL A   1      45.866  29.000  33.104  1.00  0.00     0.010 A 
ATOM     51  C   UNL A   1      45.011  26.914  33.298  1.00  0.00     0.010 A 
ATOM     52  C   UNL A   1      46.186  27.640  32.932  1.00  0.00    -0.014 A 
BRANCH  52  53
ATOM     53  C   UNL A   1      47.718  26.847  32.696  1.00  0.00     0.031 A 
ATOM     54  C   UNL A   1      48.164  26.600  34.123  1.00  0.00     0.074 A 
ATOM     55  C   UNL A   1      48.471  26.139  31.595  1.00  0.00     0.049 A 
ATOM     56  N   UNL A   1      49.123  25.824  34.435  1.00  0.00    -0.248 NA
ATOM     57  C   UNL A   1      47.399  26.965  35.331  1.00  0.00     0.031 C 
ATOM     58  C   UNL A   1      49.576  25.122  31.549  1.00  0.00     0.029 A 
ATOM     59  N   UNL A   1      48.399  25.964  30.184  1.00  0.00    -0.354 N 
ATOM     60  C   UNL A   1      48.779  25.183  35.611  1.00  0.00     0.074 A 
ATOM     61  C   UNL A   1      47.733  25.986  36.180  1.00  0.00     0.031 C 
ATOM     62  C   UNL A   1      50.158  24.829  30.340  1.00  0.00     0.029 A 
ATOM     63  C   UNL A   1      49.547  25.708  29.421  1.00  0.00     0.049 A 
ATOM     64  H   UNL A   1      47.525  26.025  29.735  1.00  0.00     0.167 HD
ATOM     65  C   UNL A   1      49.340  23.957  35.825  1.00  0.00     0.031 A 
ATOM     66  C   UNL A   1      50.117  26.697  28.660  1.00  0.00     0.031 A 
ATOM     67  C   UNL A   1      50.384  23.678  34.786  1.00  0.00     0.049 A 
ATOM     68  C   UNL A   1      51.184  27.215  29.722  1.00  0.00     0.074 A 
ATOM     69  C   UNL A   1      50.677  22.642  33.914  1.00  0.00     0.029 A 
ATOM     70  N   UNL A   1      51.176  24.749  34.332  1.00  0.00    -0.354 N 
ATOM     71  N   UNL A   1      51.060  27.057  31.036  1.00  0.00    -0.248 NA
ATOM     72  C   UNL A   1      52.562  27.595  29.419  1.00  0.00     0.031 C 
ATOM     73  C   UNL A   1      51.557  23.160  32.887  1.00  0.00     0.029 A 
ATOM     74  C   UNL A   1      51.755  24.539  33.084  1.00  0.00     0.049 A 
ATOM     75  H   UNL A   1      51.309  25.575  34.852  1.00  0.00     0.167 HD
ATOM     76  C   UNL A   1      52.281  26.646  31.549  1.00  0.00     0.074 A 
ATOM     77  C   UNL A   1      53.153  27.378  30.617  1.00  0.00     0.031 C 
ATOM     78  C   UNL A   1      52.597  25.620  32.467  1.00  0.00     0.031 A 
BRANCH  65  79
ATOM     79  C   UNL A   1      48.880  22.922  36.855  1.00  0.00    -0.014 A 
ATOM     80  C   UNL A   1      47.599  22.362  36.670  1.00  0.00     0.010 A 
ATOM     81  C   UNL A   1      49.578  22.456  37.998  1.00  0.00     0.010 A 
ATOM     82  C   UNL A   1      47.056  21.381  37.509  1.00  0.00     0.020 A 
ATOM     83  C   UNL A   1      49.051  21.440  38.844  1.00  0.00     0.020 A 
ATOM     84  C   UNL A   1      47.796  20.896  38.578  1.00  0.00     0.054 A 
BRANCH  84  85
ATOM     85  S   UNL A   1      47.102  19.504  39.520  1.00  0.00     0.124 S 
ATOM     86  O   UNL A   1      45.792  19.325  38.901  1.00  0.00    -0.237 OA
ATOM     87  O   UNL A   1      48.068  18.440  39.259  1.00  0.00    -0.237 OA
ATOM     88  O   UNL A   1      47.077  19.991  40.898  1.00  0.00    -0.744 OA
ENDBRANCH  84  85
ENDBRANCH  65  79
BRANCH  66  89
ATOM     89  C   UNL A   1      48.949  27.434  27.970  1.00  0.00    -0.014 A 
ATOM     90  C   UNL A   1      47.548  26.899  27.036  1.00  0.00     0.010 A 
ATOM     91  C   UNL A   1      48.753  29.006  28.691  1.00  0.00     0.010 A 
ATOM     92  C   UNL A   1      46.053  27.864  26.768  1.00  0.00     0.020 A 
ATOM     93  C   UNL A   1      46.998  30.019  28.369  1.00  0.00     0.020 A 
ATOM     94  C   UNL A   1      45.783  29.385  27.418  1.00  0.00     0.054 A 
BRANCH  94  95
ATOM     95  S   UNL A   1      44.621  30.727  26.905  1.00  0.00     0.124 S 
ATOM     96  O   UNL A   1      44.404  31.491  28.124  1.00  0.00    -0.237 OA
ATOM     97  O   UNL A   1      45.320  31.399  25.813  1.00  0.00    -0.237 OA
ATOM     98  O   UNL A   1      43.430  29.998  26.444  1.00  0.00    -0.744 OA
ENDBRANCH  94  95
ENDBRANCH  66  89
BRANCH  78  99
ATOM     99  C   UNL A   1      53.956  25.552  33.074  1.00  0.00    -0.014 A 
ATOM    100  C   UNL A   1      54.953  24.718  32.616  1.00  0.00     0.010 A 
ATOM    101  C   UNL A   1      54.249  26.414  34.163  1.00  0.00     0.010 A 
ATOM    102  C   UNL A   1      56.257  24.976  32.991  1.00  0.00     0.020 A 
ATOM    103  C   UNL A   1      55.524  26.618  34.617  1.00  0.00     0.020 A 
ATOM    104  C   UNL A   1      56.529  25.944  33.963  1.00  0.00     0.054 A 
BRANCH 104 105
ATOM    105  S   UNL A   1      58.225  26.261  34.410  1.00  0.00     0.124 S 
ATOM    106  O   UNL A   1      58.118  26.447  35.854  1.00  0.00    -0.237 OA
ATOM    107  O   UNL A   1      58.876  25.031  33.971  1.00  0.00    -0.237 OA
ATOM    108  O   UNL A   1      58.566  27.460  33.649  1.00  0.00    -0.744 OA
ENDBRANCH 104 105
ENDBRANCH  78  99
ENDBRANCH  52  53
ENDBRANCH  45  47
ENDBRANCH  44  45
ENDBRANCH  43  44
ENDBRANCH  42  43
ENDBRANCH  41  42
ENDBRANCH  40  41
ENDBRANCH  39  40
ENDBRANCH  38  39
ENDBRANCH   1  38
TORSDOF 29
ENDMDL
MODEL 2
REMARK VINA RESULT:     -10.6      8.177     11.840
REMARK SMILES Cc1ccc(C2=NN(C(=O)CCC(=O)OCCOCCOCCOCCOC(=O)c3ccc(-c4c5nc(c(-c6ccc(S(=O)(=O)[O-])cc6)c6ccc([nH]6)c(-c6ccc(S(=O)(=O)[O-])cc6)c6nc(c(-c7ccc(S(=O)(=O)[O-])cc7)c7ccc4[nH]7)C=C6)C=C5)cc3)[C@H](C[C@H]3C=c4cccc(C)c4=NC3=O)C2)cc1
REMARK SMILES IDX 20 1 19 2 18 3 17 4 16 5 15 6 13 7 14 8 12 9 11 10 9 11
REMARK SMILES IDX 10 12 8 13 6 14 7 15 104 16 90 17 5 18 1 19 2 20 3 21 106 22
REMARK SMILES IDX 4 23 105 24 91 25 92 26 93 27 102 28 94 29 101 30 103 31
REMARK SMILES IDX 95 32 100 33 96 34 98 35 97 36 99 37 21 38 22 39 23 40 24 41
REMARK SMILES IDX 25 42 26 43 27 44 28 45 29 46 30 47 31 48 89 49 32 50 88 51
REMARK SMILES IDX 33 52 34 53 35 54 82 55 36 56 87 57 81 58 83 59 37 60 86 61
REMARK SMILES IDX 80 62 79 63 38 65 68 66 49 67 67 68 50 69 53 70 66 71 84 72
REMARK SMILES IDX 51 73 52 74 65 76 85 77 54 78 39 79 40 80 48 81 41 82 47 83
REMARK SMILES IDX 42 84 43 85 44 86 45 87 46 88 69 89 70 90 78 91 71 92 77 93
REMARK SMILES IDX 72 94 73 95 74 96 75 97 76 98 55 99 56 100 64 101 57 102
REMARK SMILES IDX 63 103 58 104 59 105 60 106 61 107 62 108
REMARK H PARENT 83 64 53 75
REMARK Flexibility Score: inf
ROOT
ATOM      1  C   UNL A   1      34.120  35.074  29.007  1.00  0.00     0.188 C 
ENDROOT
BRANCH   1   2
ATOM      2  C   UNL A   1      32.842  36.129  29.179  1.00  0.00     0.188 C 
BRANCH   2   3
ATOM      3  O   UNL A   1      32.372  36.659  30.425  1.00  0.00    -0.376 OA
BRANCH   3   4
ATOM      4  C   UNL A   1      33.365  37.013  31.371  1.00  0.00     0.202 C 
BRANCH   4   5
ATOM      5  C   UNL A   1      33.063  36.745  32.818  1.00  0.00     0.261 C 
BRANCH   5   6
ATOM      6  O   UNL A   1      34.123  35.870  33.268  1.00  0.00    -0.463 OA
BRANCH   6   7
ATOM      7  C   UNL A   1      34.080  34.547  33.217  1.00  0.00     0.306 C 
ATOM      8  O   UNL A   1      33.119  33.931  32.767  1.00  0.00    -0.252 OA
BRANCH   7   9
ATOM      9  C   UNL A   1      35.413  33.839  33.627  1.00  0.00     0.132 C 
BRANCH   9  10
ATOM     10  C   UNL A   1      37.005  34.132  33.897  1.00  0.00     0.114 C 
BRANCH  10  11
ATOM     11  C   UNL A   1      38.733  34.174  33.576  1.00  0.00     0.243 C 
ATOM     12  O   UNL A   1      39.166  35.289  33.965  1.00  0.00    -0.273 OA
BRANCH  11  13
ATOM     13  N   UNL A   1      39.691  33.119  32.932  1.00  0.00    -0.230 N 
ATOM     14  C   UNL A   1      41.248  30.478  32.886  1.00  0.00     0.070 C 
ATOM     15  N   UNL A   1      39.972  31.153  33.522  1.00  0.00    -0.174 NA
ATOM     16  C   UNL A   1      42.190  31.731  31.649  1.00  0.00     0.086 C 
ATOM     17  C   UNL A   1      41.069  33.440  31.529  1.00  0.00     0.118 C 
BRANCH  14  18
ATOM     18  C   UNL A   1      41.767  29.229  33.337  1.00  0.00    -0.002 A 
ATOM     19  C   UNL A   1      43.308  25.603  34.822  1.00  0.00     0.044 C 
ATOM     20  C   UNL A   1      42.866  26.927  34.293  1.00  0.00    -0.051 A 
ATOM     21  C   UNL A   1      42.259  27.831  35.179  1.00  0.00     0.004 A 
ATOM     22  C   UNL A   1      42.997  27.236  32.929  1.00  0.00     0.004 A 
ATOM     23  C   UNL A   1      41.718  29.006  34.702  1.00  0.00     0.010 A 
ATOM     24  C   UNL A   1      42.438  28.404  32.439  1.00  0.00     0.010 A 
ENDBRANCH  14  18
BRANCH  17  25
ATOM     25  C   UNL A   1      40.847  34.817  30.132  1.00  0.00     0.045 C 
BRANCH  25  26
ATOM     26  C   UNL A   1      42.172  35.642  28.846  1.00  0.00     0.106 C 
ATOM     27  C   UNL A   1      42.547  34.920  27.338  1.00  0.00    -0.003 C 
ATOM     28  C   UNL A   1      42.574  37.126  28.402  1.00  0.00     0.253 C 
ATOM     29  C   UNL A   1      43.122  35.364  26.234  1.00  0.00    -0.003 A 
ATOM     30  N   UNL A   1      43.823  37.195  27.720  1.00  0.00    -0.212 NA
ATOM     31  O   UNL A   1      41.980  38.141  28.743  1.00  0.00    -0.272 OA
ATOM     32  C   UNL A   1      43.405  34.355  25.221  1.00  0.00     0.010 A 
ATOM     33  C   UNL A   1      44.086  36.310  26.793  1.00  0.00     0.077 A 
ATOM     34  C   UNL A   1      44.678  34.061  24.947  1.00  0.00     0.001 A 
ATOM     35  C   UNL A   1      45.489  35.924  26.354  1.00  0.00    -0.025 A 
ATOM     36  C   UNL A   1      45.722  34.865  25.540  1.00  0.00     0.005 A 
ATOM     37  C   UNL A   1      46.580  36.613  27.080  1.00  0.00     0.047 C 
ENDBRANCH  25  26
ENDBRANCH  17  25
ENDBRANCH  11  13
ENDBRANCH  10  11
ENDBRANCH   9  10
ENDBRANCH   7   9
ENDBRANCH   6   7
ENDBRANCH   5   6
ENDBRANCH   4   5
ENDBRANCH   3   4
ENDBRANCH   2   3
ENDBRANCH   1   2
BRANCH   1  38
ATOM     38  O   UNL A   1      35.218  34.119  29.912  1.00  0.00    -0.377 OA
BRANCH  38  39
ATOM     39  C   UNL A   1      36.714  33.257  29.761  1.00  0.00     0.188 C 
BRANCH  39  40
ATOM     40  C   UNL A   1      37.111  31.718  29.108  1.00  0.00     0.188 C 
BRANCH  40  41
ATOM     41  O   UNL A   1      37.987  30.856  29.879  1.00  0.00    -0.376 OA
BRANCH  41  42
ATOM     42  C   UNL A   1      37.760  29.610  30.452  1.00  0.00     0.202 C 
BRANCH  42  43
ATOM     43  C   UNL A   1      38.568  28.661  29.684  1.00  0.00     0.261 C 
BRANCH  43  44
ATOM     44  O   UNL A   1      39.607  29.371  28.899  1.00  0.00    -0.460 OA
BRANCH  44  45
ATOM     45  C   UNL A   1      40.551  29.180  27.913  1.00  0.00     0.338 C 
ATOM     46  O   UNL A   1      40.073  28.886  26.810  1.00  0.00    -0.246 OA
BRANCH  45  47
ATOM     47  C   UNL A   1      42.108  29.278  27.903  1.00  0.00     0.060 A 
ATOM     48  C   UNL A   1      42.867  28.991  29.056  1.00  0.00     0.016 A 
ATOM     49  C   UNL A   1      42.943  29.496  26.819  1.00  0.00     0.016 A 
ATOM     50  C   UNL A   1      44.320  29.227  29.167  1.00  0.00     0.010 A 
ATOM     51  C   UNL A   1      44.348  29.871  26.998  1.00  0.00     0.010 A 
ATOM     52  C   UNL A   1      45.039  30.007  28.241  1.00  0.00    -0.014 A 
BRANCH  52  53
ATOM     53  C   UNL A   1      46.621  30.727  28.336  1.00  0.00     0.031 A 
ATOM     54  C   UNL A   1      46.284  32.196  28.507  1.00  0.00     0.074 A 
ATOM     55  C   UNL A   1      48.048  30.303  28.589  1.00  0.00     0.049 A 
ATOM     56  N   UNL A   1      47.134  33.074  28.862  1.00  0.00    -0.248 NA
ATOM     57  C   UNL A   1      44.921  32.754  28.581  1.00  0.00     0.031 C 
ATOM     58  C   UNL A   1      49.291  30.994  29.076  1.00  0.00     0.029 A 
ATOM     59  N   UNL A   1      48.817  29.107  28.656  1.00  0.00    -0.354 N 
ATOM     60  C   UNL A   1      46.485  33.976  29.685  1.00  0.00     0.074 A 
ATOM     61  C   UNL A   1      45.087  33.787  29.417  1.00  0.00     0.031 C 
ATOM     62  C   UNL A   1      50.489  30.326  29.008  1.00  0.00     0.029 A 
ATOM     63  C   UNL A   1      50.190  29.105  28.369  1.00  0.00     0.049 A 
ATOM     64  H   UNL A   1      48.377  28.264  28.909  1.00  0.00     0.167 HD
ATOM     65  C   UNL A   1      47.257  34.631  30.601  1.00  0.00     0.031 A 
ATOM     66  C   UNL A   1      50.654  28.617  27.173  1.00  0.00     0.031 A 
ATOM     67  C   UNL A   1      48.708  34.347  30.352  1.00  0.00     0.049 A 
ATOM     68  C   UNL A   1      50.692  29.990  26.368  1.00  0.00     0.074 A 
ATOM     69  C   UNL A   1      49.788  33.922  31.107  1.00  0.00     0.029 A 
ATOM     70  N   UNL A   1      49.144  34.221  29.019  1.00  0.00    -0.354 N 
ATOM     71  N   UNL A   1      49.952  31.052  26.674  1.00  0.00    -0.248 NA
ATOM     72  C   UNL A   1      51.750  30.400  25.446  1.00  0.00     0.031 C 
ATOM     73  C   UNL A   1      50.808  33.444  30.196  1.00  0.00     0.029 A 
ATOM     74  C   UNL A   1      50.330  33.508  28.874  1.00  0.00     0.049 A 
ATOM     75  H   UNL A   1      48.652  34.605  28.257  1.00  0.00     0.167 HD
ATOM     76  C   UNL A   1      50.753  32.182  26.608  1.00  0.00     0.074 A 
ATOM     77  C   UNL A   1      51.634  31.747  25.513  1.00  0.00     0.031 C 
ATOM     78  C   UNL A   1      50.887  33.270  27.499  1.00  0.00     0.031 A 
BRANCH  65  79
ATOM     79  C   UNL A   1      46.749  35.409  31.818  1.00  0.00    -0.014 A 
ATOM     80  C   UNL A   1      45.368  35.329  32.095  1.00  0.00     0.010 A 
ATOM     81  C   UNL A   1      47.493  36.224  32.709  1.00  0.00     0.010 A 
ATOM     82  C   UNL A   1      44.763  35.958  33.191  1.00  0.00     0.020 A 
ATOM     83  C   UNL A   1      46.897  36.846  33.841  1.00  0.00     0.020 A 
ATOM     84  C   UNL A   1      45.534  36.690  34.083  1.00  0.00     0.054 A 
BRANCH  84  85
ATOM     85  S   UNL A   1      44.713  37.332  35.573  1.00  0.00     0.124 S 
ATOM     86  O   UNL A   1      45.776  38.102  36.214  1.00  0.00    -0.237 OA
ATOM     87  O   UNL A   1      43.621  38.122  35.010  1.00  0.00    -0.237 OA
ATOM     88  O   UNL A   1      44.298  36.129  36.291  1.00  0.00    -0.744 OA
ENDBRANCH  84  85
ENDBRANCH  65  79
BRANCH  66  89
ATOM     89  C   UNL A   1      49.865  27.318  26.904  1.00  0.00    -0.014 A 
ATOM     90  C   UNL A   1      49.240  26.031  27.941  1.00  0.00     0.010 A 
ATOM     91  C   UNL A   1      49.043  27.448  25.375  1.00  0.00     0.010 A 
ATOM     92  C   UNL A   1      47.922  24.891  27.495  1.00  0.00     0.020 A 
ATOM     93  C   UNL A   1      47.523  26.133  24.967  1.00  0.00     0.020 A 
ATOM     94  C   UNL A   1      47.083  24.940  26.045  1.00  0.00     0.054 A 
BRANCH  94  95
ATOM     95  S   UNL A   1      46.097  23.640  25.178  1.00  0.00     0.124 S 
ATOM     96  O   UNL A   1      44.715  24.027  25.420  1.00  0.00    -0.237 OA
ATOM     97  O   UNL A   1      46.574  23.698  23.800  1.00  0.00    -0.237 OA
ATOM     98  O   UNL A   1      46.489  22.395  25.856  1.00  0.00    -0.744 OA
ENDBRANCH  94  95
ENDBRANCH  66  89
BRANCH  78  99
ATOM     99  C   UNL A   1      51.611  34.501  27.074  1.00  0.00    -0.014 A 
ATOM    100  C   UNL A   1      52.796  34.920  27.640  1.00  0.00     0.010 A 
ATOM    101  C   UNL A   1      51.068  35.265  26.008  1.00  0.00     0.010 A 
ATOM    102  C   UNL A   1      53.566  35.842  26.958  1.00  0.00     0.020 A 
ATOM    103  C   UNL A   1      51.777  36.249  25.374  1.00  0.00     0.020 A 
ATOM    104  C   UNL A   1      53.060  36.472  25.816  1.00  0.00     0.054 A 
BRANCH 104 105
ATOM    105  S   UNL A   1      54.088  37.643  24.953  1.00  0.00     0.124 S 
ATOM    106  O   UNL A   1      55.387  37.409  25.578  1.00  0.00    -0.237 OA
ATOM    107  O   UNL A   1      53.953  37.188  23.572  1.00  0.00    -0.237 OA
ATOM    108  O   UNL A   1      53.473  38.933  25.253  1.00  0.00    -0.744 OA
ENDBRANCH 104 105
ENDBRANCH  78  99
ENDBRANCH  52  53
ENDBRANCH  45  47
ENDBRANCH  44  45
ENDBRANCH  43  44
ENDBRANCH  42  43
ENDBRANCH  41  42
ENDBRANCH  40  41
ENDBRANCH  39  40
ENDBRANCH  38  39
ENDBRANCH   1  38
TORSDOF 29
ENDMDL
MODEL 3
REMARK VINA RESULT:     -10.5      6.716     18.165
REMARK SMILES Cc1ccc(C2=NN(C(=O)CCC(=O)OCCOCCOCCOCCOC(=O)c3ccc(-c4c5nc(c(-c6ccc(S(=O)(=O)[O-])cc6)c6ccc([nH]6)c(-c6ccc(S(=O)(=O)[O-])cc6)c6nc(c(-c7ccc(S(=O)(=O)[O-])cc7)c7ccc4[nH]7)C=C6)C=C5)cc3)[C@H](C[C@H]3C=c4cccc(C)c4=NC3=O)C2)cc1
REMARK SMILES IDX 20 1 19 2 18 3 17 4 16 5 15 6 13 7 14 8 12 9 11 10 9 11
REMARK SMILES IDX 10 12 8 13 6 14 7 15 104 16 90 17 5 18 1 19 2 20 3 21 106 22
REMARK SMILES IDX 4 23 105 24 91 25 92 26 93 27 102 28 94 29 101 30 103 31
REMARK SMILES IDX 95 32 100 33 96 34 98 35 97 36 99 37 21 38 22 39 23 40 24 41
REMARK SMILES IDX 25 42 26 43 27 44 28 45 29 46 30 47 31 48 89 49 32 50 88 51
REMARK SMILES IDX 33 52 34 53 35 54 82 55 36 56 87 57 81 58 83 59 37 60 86 61
REMARK SMILES IDX 80 62 79 63 38 65 68 66 49 67 67 68 50 69 53 70 66 71 84 72
REMARK SMILES IDX 51 73 52 74 65 76 85 77 54 78 39 79 40 80 48 81 41 82 47 83
REMARK SMILES IDX 42 84 43 85 44 86 45 87 46 88 69 89 70 90 78 91 71 92 77 93
REMARK SMILES IDX 72 94 73 95 74 96 75 97 76 98 55 99 56 100 64 101 57 102
REMARK SMILES IDX 63 103 58 104 59 105 60 106 61 107 62 108
REMARK H PARENT 83 64 53 75
REMARK Flexibility Score: inf
ROOT
ATOM      1  C   UNL A   1      51.618  26.429  39.407  1.00  0.00     0.188 C 
ENDROOT
BRANCH   1   2
ATOM      2  C   UNL A   1      52.120  25.412  38.185  1.00  0.00     0.188 C 
BRANCH   2   3
ATOM      3  O   UNL A   1      53.450  25.359  37.652  1.00  0.00    -0.376 OA
BRANCH   3   4
ATOM      4  C   UNL A   1      54.480  25.868  38.480  1.00  0.00     0.202 C 
BRANCH   4   5
ATOM      5  C   UNL A   1      55.516  24.894  38.965  1.00  0.00     0.261 C 
BRANCH   5   6
ATOM      6  O   UNL A   1      54.770  23.861  39.648  1.00  0.00    -0.463 OA
BRANCH   6   7
ATOM      7  C   UNL A   1      54.145  24.021  40.806  1.00  0.00     0.306 C 
ATOM      8  O   UNL A   1      54.345  24.985  41.539  1.00  0.00    -0.252 OA
BRANCH   7   9
ATOM      9  C   UNL A   1      53.021  22.972  41.088  1.00  0.00     0.132 C 
BRANCH   9  10
ATOM     10  C   UNL A   1      51.840  22.108  40.344  1.00  0.00     0.114 C 
BRANCH  10  11
ATOM     11  C   UNL A   1      50.707  21.645  39.083  1.00  0.00     0.243 C 
ATOM     12  O   UNL A   1      51.304  21.742  37.980  1.00  0.00    -0.273 OA
BRANCH  11  13
ATOM     13  N   UNL A   1      49.214  21.185  39.152  1.00  0.00    -0.230 N 
ATOM     14  C   UNL A   1      46.893  19.520  40.267  1.00  0.00     0.070 C 
ATOM     15  N   UNL A   1      48.300  20.110  40.669  1.00  0.00    -0.174 NA
ATOM     16  C   UNL A   1      46.395  20.040  38.405  1.00  0.00     0.086 C 
ATOM     17  C   UNL A   1      47.850  21.298  37.703  1.00  0.00     0.118 C 
BRANCH  14  18
ATOM     18  C   UNL A   1      46.207  18.553  41.058  1.00  0.00    -0.002 A 
ATOM     19  C   UNL A   1      44.134  15.819  43.498  1.00  0.00     0.044 C 
ATOM     20  C   UNL A   1      44.952  16.783  42.707  1.00  0.00    -0.051 A 
ATOM     21  C   UNL A   1      44.611  18.145  42.754  1.00  0.00     0.004 A 
ATOM     22  C   UNL A   1      45.998  16.334  41.884  1.00  0.00     0.004 A 
ATOM     23  C   UNL A   1      45.257  19.046  41.935  1.00  0.00     0.010 A 
ATOM     24  C   UNL A   1      46.638  17.229  41.044  1.00  0.00     0.010 A 
ENDBRANCH  14  18
BRANCH  17  25
ATOM     25  C   UNL A   1      47.854  22.750  36.365  1.00  0.00     0.045 C 
BRANCH  25  26
ATOM     26  C   UNL A   1      49.139  23.182  34.866  1.00  0.00     0.106 C 
ATOM     27  C   UNL A   1      50.203  24.523  34.938  1.00  0.00    -0.003 C 
ATOM     28  C   UNL A   1      50.031  22.342  33.836  1.00  0.00     0.253 C 
ATOM     29  C   UNL A   1      51.294  24.856  34.270  1.00  0.00    -0.003 A 
ATOM     30  N   UNL A   1      50.497  23.111  32.730  1.00  0.00    -0.212 NA
ATOM     31  O   UNL A   1      50.179  21.127  33.872  1.00  0.00    -0.272 OA
ATOM     32  C   UNL A   1      51.812  26.192  34.535  1.00  0.00     0.010 A 
ATOM     33  C   UNL A   1      50.984  24.304  32.952  1.00  0.00     0.077 A 
ATOM     34  C   UNL A   1      51.766  27.103  33.560  1.00  0.00     0.001 A 
ATOM     35  C   UNL A   1      51.037  25.412  31.913  1.00  0.00    -0.025 A 
ATOM     36  C   UNL A   1      51.360  26.688  32.237  1.00  0.00     0.005 A 
ATOM     37  C   UNL A   1      50.460  25.058  30.596  1.00  0.00     0.047 C 
ENDBRANCH  25  26
ENDBRANCH  17  25
ENDBRANCH  11  13
ENDBRANCH  10  11
ENDBRANCH   9  10
ENDBRANCH   7   9
ENDBRANCH   6   7
ENDBRANCH   5   6
ENDBRANCH   4   5
ENDBRANCH   3   4
ENDBRANCH   2   3
ENDBRANCH   1   2
BRANCH   1  38
ATOM     38  O   UNL A   1      50.291  26.750  40.442  1.00  0.00    -0.377 OA
BRANCH  38  39
ATOM     39  C   UNL A   1      48.940  27.819  40.628  1.00  0.00     0.188 C 
BRANCH  39  40
ATOM     40  C   UNL A   1      47.578  28.160  39.638  1.00  0.00     0.188 C 
BRANCH  40  41
ATOM     41  O   UNL A   1      46.332  27.480  39.935  1.00  0.00    -0.376 OA
BRANCH  41  42
ATOM     42  C   UNL A   1      45.061  27.635  39.394  1.00  0.00     0.202 C 
BRANCH  42  43
ATOM     43  C   UNL A   1      44.562  26.281  39.149  1.00  0.00     0.261 C 
BRANCH  43  44
ATOM     44  O   UNL A   1      44.756  25.898  37.729  1.00  0.00    -0.460 OA
BRANCH  44  45
ATOM     45  C   UNL A   1      44.078  25.447  36.618  1.00  0.00     0.338 C 
ATOM     46  O   UNL A   1      44.131  24.221  36.459  1.00  0.00    -0.246 OA
BRANCH  45  47
ATOM     47  C   UNL A   1      43.237  26.174  35.523  1.00  0.00     0.060 A 
ATOM     48  C   UNL A   1      43.852  26.972  34.537  1.00  0.00     0.016 A 
ATOM     49  C   UNL A   1      41.881  26.049  35.265  1.00  0.00     0.016 A 
ATOM     50  C   UNL A   1      43.111  27.820  33.581  1.00  0.00     0.010 A 
ATOM     51  C   UNL A   1      41.171  27.012  34.419  1.00  0.00     0.010 A 
ATOM     52  C   UNL A   1      41.745  28.125  33.734  1.00  0.00    -0.014 A 
BRANCH  52  53
ATOM     53  C   UNL A   1      40.758  29.355  32.994  1.00  0.00     0.031 A 
ATOM     54  C   UNL A   1      40.236  30.104  34.203  1.00  0.00     0.074 A 
ATOM     55  C   UNL A   1      40.567  29.993  31.638  1.00  0.00     0.049 A 
ATOM     56  N   UNL A   1      39.664  31.238  34.132  1.00  0.00    -0.248 NA
ATOM     57  C   UNL A   1      40.567  29.793  35.607  1.00  0.00     0.031 C 
ATOM     58  C   UNL A   1      40.025  31.307  31.151  1.00  0.00     0.029 A 
ATOM     59  N   UNL A   1      40.933  29.764  30.282  1.00  0.00    -0.354 N 
ATOM     60  C   UNL A   1      40.054  31.975  35.236  1.00  0.00     0.074 A 
ATOM     61  C   UNL A   1      40.551  31.007  36.174  1.00  0.00     0.031 C 
ATOM     62  C   UNL A   1      39.827  31.483  29.803  1.00  0.00     0.029 A 
ATOM     63  C   UNL A   1      40.144  30.236  29.223  1.00  0.00     0.049 A 
ATOM     64  H   UNL A   1      41.757  29.264  30.083  1.00  0.00     0.167 HD
ATOM     65  C   UNL A   1      40.044  33.333  35.099  1.00  0.00     0.031 A 
ATOM     66  C   UNL A   1      39.337  29.381  28.516  1.00  0.00     0.031 A 
ATOM     67  C   UNL A   1      39.401  33.717  33.800  1.00  0.00     0.049 A 
ATOM     68  C   UNL A   1      37.996  29.596  29.347  1.00  0.00     0.074 A 
ATOM     69  C   UNL A   1      39.723  34.529  32.725  1.00  0.00     0.029 A 
ATOM     70  N   UNL A   1      38.312  32.951  33.343  1.00  0.00    -0.354 N 
ATOM     71  N   UNL A   1      37.962  30.021  30.606  1.00  0.00    -0.248 NA
ATOM     72  C   UNL A   1      36.655  29.705  28.774  1.00  0.00     0.031 C 
ATOM     73  C   UNL A   1      38.884  34.144  31.609  1.00  0.00     0.029 A 
ATOM     74  C   UNL A   1      38.088  33.043  31.973  1.00  0.00     0.049 A 
ATOM     75  H   UNL A   1      37.758  32.399  33.941  1.00  0.00     0.167 HD
ATOM     76  C   UNL A   1      36.968  30.981  30.721  1.00  0.00     0.074 A 
ATOM     77  C   UNL A   1      36.029  30.426  29.732  1.00  0.00     0.031 C 
ATOM     78  C   UNL A   1      36.977  32.246  31.349  1.00  0.00     0.031 A 
BRANCH  65  79
ATOM     79  C   UNL A   1      40.729  34.339  36.028  1.00  0.00    -0.014 A 
ATOM     80  C   UNL A   1      39.910  35.323  36.619  1.00  0.00     0.010 A 
ATOM     81  C   UNL A   1      42.104  34.421  36.368  1.00  0.00     0.010 A 
ATOM     82  C   UNL A   1      40.386  36.288  37.515  1.00  0.00     0.020 A 
ATOM     83  C   UNL A   1      42.597  35.378  37.298  1.00  0.00     0.020 A 
ATOM     84  C   UNL A   1      41.725  36.295  37.880  1.00  0.00     0.054 A 
BRANCH  84  85
ATOM     85  S   UNL A   1      42.238  37.462  39.176  1.00  0.00     0.124 S 
ATOM     86  O   UNL A   1      43.425  38.081  38.594  1.00  0.00    -0.237 OA
ATOM     87  O   UNL A   1      41.070  38.333  39.289  1.00  0.00    -0.237 OA
ATOM     88  O   UNL A   1      42.486  36.610  40.337  1.00  0.00    -0.744 OA
ENDBRANCH  84  85
ENDBRANCH  65  79
BRANCH  66  89
ATOM     89  C   UNL A   1      40.173  28.107  28.272  1.00  0.00    -0.014 A 
ATOM     90  C   UNL A   1      39.966  26.407  28.708  1.00  0.00     0.010 A 
ATOM     91  C   UNL A   1      41.221  28.358  26.904  1.00  0.00     0.010 A 
ATOM     92  C   UNL A   1      40.779  25.024  27.895  1.00  0.00     0.020 A 
ATOM     93  C   UNL A   1      42.071  26.719  26.010  1.00  0.00     0.020 A 
ATOM     94  C   UNL A   1      41.805  25.174  26.579  1.00  0.00     0.054 A 
BRANCH  94  95
ATOM     95  S   UNL A   1      43.098  24.029  25.921  1.00  0.00     0.124 S 
ATOM     96  O   UNL A   1      43.714  24.779  24.836  1.00  0.00    -0.237 OA
ATOM     97  O   UNL A   1      43.931  23.735  27.084  1.00  0.00    -0.237 OA
ATOM     98  O   UNL A   1      42.331  22.859  25.470  1.00  0.00    -0.744 OA
ENDBRANCH  94  95
ENDBRANCH  66  89
BRANCH  78  99
ATOM     99  C   UNL A   1      35.699  32.978  31.577  1.00  0.00    -0.014 A 
ATOM    100  C   UNL A   1      35.045  33.007  32.790  1.00  0.00     0.010 A 
ATOM    101  C   UNL A   1      35.141  33.709  30.495  1.00  0.00     0.010 A 
ATOM    102  C   UNL A   1      34.089  33.981  33.004  1.00  0.00     0.020 A 
ATOM    103  C   UNL A   1      34.129  34.614  30.664  1.00  0.00     0.020 A 
ATOM    104  C   UNL A   1      33.666  34.794  31.947  1.00  0.00     0.054 A 
BRANCH 104 105
ATOM    105  S   UNL A   1      32.444  36.050  32.265  1.00  0.00     0.124 S 
ATOM    106  O   UNL A   1      31.267  35.244  32.573  1.00  0.00    -0.237 OA
ATOM    107  O   UNL A   1      33.043  36.761  33.391  1.00  0.00    -0.237 OA
ATOM    108  O   UNL A   1      32.380  36.798  31.013  1.00  0.00    -0.744 OA
ENDBRANCH 104 105
ENDBRANCH  78  99
ENDBRANCH  52  53
ENDBRANCH  45  47
ENDBRANCH  44  45
ENDBRANCH  43  44
ENDBRANCH  42  43
ENDBRANCH  41  42
ENDBRANCH  40  41
ENDBRANCH  39  40
ENDBRANCH  38  39
ENDBRANCH   1  38
TORSDOF 29
ENDMDL
