MODEL 1
REMARK VINA RESULT:      -8.0      0.000      0.000
REMARK SMILES CC[C@H](NC(=O)N1CCO[C@@H](CC(=O)OCCOCCOCCOCCOC(=O)c2ccc(-c3c4nc(c(-c5ccc(S(=O)(=O)[O-])cc5)c5ccc([nH]5)c(-c5ccc(S(=O)(=O)[O-])cc5)c5nc(c(-c6ccc(S(=O)(=O)[O-])cc6)c6ccc3[nH]6)C=C5)C=C4)cc2)C1)c1cccs1
REMARK SMILES IDX 20 1 19 2 18 3 17 4 16 5 15 6 13 7 14 8 12 9 11 10 7 11 8 12
REMARK SMILES IDX 90 13 9 14 10 15 5 16 4 17 6 19 3 20 2 21 1 22 91 23 92 24
REMARK SMILES IDX 95 25 93 26 94 27 21 28 22 29 23 30 24 31 25 32 26 33 27 34
REMARK SMILES IDX 28 35 29 36 30 37 31 38 89 39 32 40 88 41 33 42 34 43 35 44
REMARK SMILES IDX 82 45 36 46 87 47 81 48 83 49 37 50 86 51 80 52 79 53 38 55
REMARK SMILES IDX 68 56 49 57 67 58 50 59 53 60 66 61 84 62 51 63 52 64 65 66
REMARK SMILES IDX 85 67 54 68 39 69 40 70 48 71 41 72 47 73 42 74 43 75 44 76
REMARK SMILES IDX 45 77 46 78 69 79 70 80 78 81 71 82 77 83 72 84 73 85 74 86
REMARK SMILES IDX 75 87 76 88 55 89 56 90 64 91 57 92 63 93 58 94 59 95 60 96
REMARK SMILES IDX 61 97 62 98
REMARK H PARENT 4 18 83 54 53 65
REMARK Flexibility Score: inf
ROOT
ATOM      1  C   UNL A   1      36.102  29.807  28.615  1.00  0.00     0.188 C 
ENDROOT
BRANCH   1   2
ATOM      2  C   UNL A   1      35.501  29.542  27.229  1.00  0.00     0.188 C 
BRANCH   2   3
ATOM      3  O   UNL A   1      34.101  29.345  27.106  1.00  0.00    -0.376 OA
BRANCH   3   4
ATOM      4  C   UNL A   1      33.522  29.212  25.809  1.00  0.00     0.202 C 
BRANCH   4   5
ATOM      5  C   UNL A   1      33.647  27.903  25.013  1.00  0.00     0.261 C 
BRANCH   5   6
ATOM      6  O   UNL A   1      32.610  27.652  24.038  1.00  0.00    -0.463 OA
BRANCH   6   7
ATOM      7  C   UNL A   1      31.439  27.183  24.520  1.00  0.00     0.308 C 
ATOM      8  O   UNL A   1      30.342  27.417  24.016  1.00  0.00    -0.252 OA
BRANCH   7   9
ATOM      9  C   UNL A   1      31.541  26.412  25.813  1.00  0.00     0.156 C 
BRANCH   9  10
ATOM     10  C   UNL A   1      31.746  24.900  25.838  1.00  0.00     0.149 C 
ATOM     11  N   UNL A   1      33.278  22.986  26.136  1.00  0.00    -0.320 N 
ATOM     12  C   UNL A   1      32.552  22.580  27.332  1.00  0.00     0.150 C 
ATOM     13  C   UNL A   1      33.216  24.442  25.909  1.00  0.00     0.154 C 
ATOM     14  C   UNL A   1      31.100  23.030  27.216  1.00  0.00     0.182 C 
ATOM     15  O   UNL A   1      31.022  24.450  27.026  1.00  0.00    -0.374 OA
BRANCH  11  16
ATOM     16  C   UNL A   1      34.182  22.245  25.442  1.00  0.00     0.318 C 
ATOM     17  N   UNL A   1      33.955  20.963  25.106  1.00  0.00    -0.330 N 
ATOM     18  H   UNL A   1      34.795  20.470  24.965  1.00  0.00     0.166 HD
ATOM     19  O   UNL A   1      35.261  22.711  25.069  1.00  0.00    -0.249 OA
BRANCH  17  20
ATOM     20  C   UNL A   1      32.784  20.110  24.894  1.00  0.00     0.124 C 
BRANCH  20  21
ATOM     21  C   UNL A   1      32.179  20.380  23.498  1.00  0.00     0.027 C 
ATOM     22  C   UNL A   1      32.787  21.595  22.811  1.00  0.00     0.006 C 
ENDBRANCH  20  21
BRANCH  20  23
ATOM     23  C   UNL A   1      33.199  18.643  25.027  1.00  0.00     0.027 A 
ATOM     24  C   UNL A   1      32.595  17.650  25.785  1.00  0.00     0.017 A 
ATOM     25  S   UNL A   1      34.601  18.015  24.242  1.00  0.00    -0.147 S 
ATOM     26  C   UNL A   1      33.233  16.382  25.662  1.00  0.00     0.012 A 
ATOM     27  C   UNL A   1      34.340  16.444  24.850  1.00  0.00     0.065 A 
ENDBRANCH  20  23
ENDBRANCH  17  20
ENDBRANCH  11  16
ENDBRANCH   9  10
ENDBRANCH   7   9
ENDBRANCH   6   7
ENDBRANCH   5   6
ENDBRANCH   4   5
ENDBRANCH   3   4
ENDBRANCH   2   3
ENDBRANCH   1   2
BRANCH   1  28
ATOM     28  O   UNL A   1      36.281  31.175  28.899  1.00  0.00    -0.377 OA
BRANCH  28  29
ATOM     29  C   UNL A   1      35.161  32.052  28.791  1.00  0.00     0.188 C 
BRANCH  29  30
ATOM     30  C   UNL A   1      35.371  33.504  28.303  1.00  0.00     0.188 C 
BRANCH  30  31
ATOM     31  O   UNL A   1      34.700  34.501  29.069  1.00  0.00    -0.376 OA
BRANCH  31  32
ATOM     32  C   UNL A   1      34.051  34.077  30.264  1.00  0.00     0.202 C 
BRANCH  32  33
ATOM     33  C   UNL A   1      34.820  34.371  31.557  1.00  0.00     0.261 C 
BRANCH  33  34
ATOM     34  O   UNL A   1      36.223  34.069  31.490  1.00  0.00    -0.460 OA
BRANCH  34  35
ATOM     35  C   UNL A   1      36.605  32.852  31.912  1.00  0.00     0.338 C 
ATOM     36  O   UNL A   1      35.878  31.981  32.376  1.00  0.00    -0.246 OA
BRANCH  35  37
ATOM     37  C   UNL A   1      38.017  32.647  31.547  1.00  0.00     0.060 A 
ATOM     38  C   UNL A   1      38.427  33.058  30.275  1.00  0.00     0.016 A 
ATOM     39  C   UNL A   1      38.911  32.003  32.409  1.00  0.00     0.016 A 
ATOM     40  C   UNL A   1      39.711  32.757  29.830  1.00  0.00     0.010 A 
ATOM     41  C   UNL A   1      40.201  31.699  31.956  1.00  0.00     0.010 A 
ATOM     42  C   UNL A   1      40.587  32.024  30.644  1.00  0.00    -0.014 A 
BRANCH  42  43
ATOM     43  C   UNL A   1      41.799  31.434  30.018  1.00  0.00     0.031 A 
ATOM     44  C   UNL A   1      43.074  32.240  30.016  1.00  0.00     0.074 A 
ATOM     45  C   UNL A   1      41.803  30.169  29.558  1.00  0.00     0.049 A 
ATOM     46  N   UNL A   1      44.280  31.885  29.654  1.00  0.00    -0.248 NA
ATOM     47  C   UNL A   1      42.976  33.629  30.495  1.00  0.00     0.031 C 
ATOM     48  C   UNL A   1      40.647  29.275  29.528  1.00  0.00     0.029 A 
ATOM     49  N   UNL A   1      42.829  29.412  29.046  1.00  0.00    -0.354 N 
ATOM     50  C   UNL A   1      45.082  33.001  29.864  1.00  0.00     0.074 A 
ATOM     51  C   UNL A   1      44.221  34.056  30.350  1.00  0.00     0.031 C 
ATOM     52  C   UNL A   1      41.032  28.084  29.036  1.00  0.00     0.029 A 
ATOM     53  C   UNL A   1      42.454  28.136  28.701  1.00  0.00     0.049 A 
ATOM     54  H   UNL A   1      43.747  29.753  28.938  1.00  0.00     0.167 HD
ATOM     55  C   UNL A   1      46.418  33.136  29.682  1.00  0.00     0.031 A 
ATOM     56  C   UNL A   1      43.174  27.125  28.175  1.00  0.00     0.031 A 
ATOM     57  C   UNL A   1      47.275  32.094  29.183  1.00  0.00     0.049 A 
ATOM     58  C   UNL A   1      44.651  27.313  27.935  1.00  0.00     0.074 A 
ATOM     59  C   UNL A   1      48.643  32.131  28.977  1.00  0.00     0.029 A 
ATOM     60  N   UNL A   1      46.846  30.833  28.801  1.00  0.00    -0.354 N 
ATOM     61  N   UNL A   1      45.402  28.362  28.181  1.00  0.00    -0.248 NA
ATOM     62  C   UNL A   1      45.381  26.172  27.364  1.00  0.00     0.031 C 
ATOM     63  C   UNL A   1      49.033  30.909  28.419  1.00  0.00     0.029 A 
ATOM     64  C   UNL A   1      47.919  30.090  28.335  1.00  0.00     0.049 A 
ATOM     65  H   UNL A   1      45.917  30.512  28.855  1.00  0.00     0.167 HD
ATOM     66  C   UNL A   1      46.696  27.997  27.817  1.00  0.00     0.074 A 
ATOM     67  C   UNL A   1      46.628  26.627  27.354  1.00  0.00     0.031 C 
ATOM     68  C   UNL A   1      47.836  28.730  27.866  1.00  0.00     0.031 A 
BRANCH  55  69
ATOM     69  C   UNL A   1      47.025  34.479  29.993  1.00  0.00    -0.014 A 
ATOM     70  C   UNL A   1      47.131  35.478  29.009  1.00  0.00     0.010 A 
ATOM     71  C   UNL A   1      47.477  34.751  31.297  1.00  0.00     0.010 A 
ATOM     72  C   UNL A   1      47.717  36.712  29.313  1.00  0.00     0.020 A 
ATOM     73  C   UNL A   1      48.038  35.992  31.612  1.00  0.00     0.020 A 
ATOM     74  C   UNL A   1      48.172  36.957  30.612  1.00  0.00     0.054 A 
BRANCH  74  75
ATOM     75  S   UNL A   1      48.919  38.568  30.983  1.00  0.00     0.124 S 
ATOM     76  O   UNL A   1      48.962  39.192  29.663  1.00  0.00    -0.237 OA
ATOM     77  O   UNL A   1      47.969  39.155  31.925  1.00  0.00    -0.237 OA
ATOM     78  O   UNL A   1      50.221  38.224  31.551  1.00  0.00    -0.744 OA
ENDBRANCH  74  75
ENDBRANCH  55  69
BRANCH  56  79
ATOM     79  C   UNL A   1      42.508  25.838  27.833  1.00  0.00    -0.014 A 
ATOM     80  C   UNL A   1      42.501  24.760  28.736  1.00  0.00     0.010 A 
ATOM     81  C   UNL A   1      41.870  25.686  26.587  1.00  0.00     0.010 A 
ATOM     82  C   UNL A   1      41.884  23.552  28.395  1.00  0.00     0.020 A 
ATOM     83  C   UNL A   1      41.230  24.491  26.253  1.00  0.00     0.020 A 
ATOM     84  C   UNL A   1      41.249  23.426  27.155  1.00  0.00     0.054 A 
BRANCH  84  85
ATOM     85  S   UNL A   1      40.403  21.871  26.756  1.00  0.00     0.124 S 
ATOM     86  O   UNL A   1      40.477  21.151  28.023  1.00  0.00    -0.237 OA
ATOM     87  O   UNL A   1      39.072  22.327  26.363  1.00  0.00    -0.237 OA
ATOM     88  O   UNL A   1      41.207  21.315  25.670  1.00  0.00    -0.744 OA
ENDBRANCH  84  85
ENDBRANCH  56  79
BRANCH  68  89
ATOM     89  C   UNL A   1      49.114  28.054  27.436  1.00  0.00    -0.014 A 
ATOM     90  C   UNL A   1      49.502  28.016  26.084  1.00  0.00     0.010 A 
ATOM     91  C   UNL A   1      49.955  27.478  28.405  1.00  0.00     0.010 A 
ATOM     92  C   UNL A   1      50.684  27.374  25.707  1.00  0.00     0.020 A 
ATOM     93  C   UNL A   1      51.152  26.860  28.034  1.00  0.00     0.020 A 
ATOM     94  C   UNL A   1      51.499  26.793  26.684  1.00  0.00     0.054 A 
BRANCH  94  95
ATOM     95  S   UNL A   1      53.036  25.975  26.172  1.00  0.00     0.124 S 
ATOM     96  O   UNL A   1      52.560  24.651  25.782  1.00  0.00    -0.237 OA
ATOM     97  O   UNL A   1      53.503  26.823  25.078  1.00  0.00    -0.237 OA
ATOM     98  O   UNL A   1      53.864  26.011  27.376  1.00  0.00    -0.744 OA
ENDBRANCH  94  95
ENDBRANCH  68  89
ENDBRANCH  42  43
ENDBRANCH  35  37
ENDBRANCH  34  35
ENDBRANCH  33  34
ENDBRANCH  32  33
ENDBRANCH  31  32
ENDBRANCH  30  31
ENDBRANCH  29  30
ENDBRANCH  28  29
ENDBRANCH   1  28
TORSDOF 28
ENDMDL
MODEL 2
REMARK VINA RESULT:      -8.0      2.236      8.606
REMARK SMILES CC[C@H](NC(=O)N1CCO[C@@H](CC(=O)OCCOCCOCCOCCOC(=O)c2ccc(-c3c4nc(c(-c5ccc(S(=O)(=O)[O-])cc5)c5ccc([nH]5)c(-c5ccc(S(=O)(=O)[O-])cc5)c5nc(c(-c6ccc(S(=O)(=O)[O-])cc6)c6ccc3[nH]6)C=C5)C=C4)cc2)C1)c1cccs1
REMARK SMILES IDX 20 1 19 2 18 3 17 4 16 5 15 6 13 7 14 8 12 9 11 10 7 11 8 12
REMARK SMILES IDX 90 13 9 14 10 15 5 16 4 17 6 19 3 20 2 21 1 22 91 23 92 24
REMARK SMILES IDX 95 25 93 26 94 27 21 28 22 29 23 30 24 31 25 32 26 33 27 34
REMARK SMILES IDX 28 35 29 36 30 37 31 38 89 39 32 40 88 41 33 42 34 43 35 44
REMARK SMILES IDX 82 45 36 46 87 47 81 48 83 49 37 50 86 51 80 52 79 53 38 55
REMARK SMILES IDX 68 56 49 57 67 58 50 59 53 60 66 61 84 62 51 63 52 64 65 66
REMARK SMILES IDX 85 67 54 68 39 69 40 70 48 71 41 72 47 73 42 74 43 75 44 76
REMARK SMILES IDX 45 77 46 78 69 79 70 80 78 81 71 82 77 83 72 84 73 85 74 86
REMARK SMILES IDX 75 87 76 88 55 89 56 90 64 91 57 92 63 93 58 94 59 95 60 96
REMARK SMILES IDX 61 97 62 98
REMARK H PARENT 4 18 83 54 53 65
REMARK Flexibility Score: inf
ROOT
ATOM      1  C   UNL A   1      34.672  25.164  25.002  1.00  0.00     0.188 C 
ENDROOT
BRANCH   1   2
ATOM      2  C   UNL A   1      33.612  25.806  25.904  1.00  0.00     0.188 C 
BRANCH   2   3
ATOM      3  O   UNL A   1      33.706  27.189  26.208  1.00  0.00    -0.376 OA
BRANCH   3   4
ATOM      4  C   UNL A   1      33.075  28.141  25.352  1.00  0.00     0.202 C 
BRANCH   4   5
ATOM      5  C   UNL A   1      31.543  28.216  25.241  1.00  0.00     0.261 C 
BRANCH   5   6
ATOM      6  O   UNL A   1      31.003  28.220  23.901  1.00  0.00    -0.463 OA
BRANCH   6   7
ATOM      7  C   UNL A   1      30.320  27.116  23.530  1.00  0.00     0.308 C 
ATOM      8  O   UNL A   1      29.230  26.791  23.995  1.00  0.00    -0.252 OA
BRANCH   7   9
ATOM      9  C   UNL A   1      31.036  26.217  22.552  1.00  0.00     0.156 C 
BRANCH   9  10
ATOM     10  C   UNL A   1      31.826  24.994  23.009  1.00  0.00     0.149 C 
ATOM     11  N   UNL A   1      31.814  22.672  23.853  1.00  0.00    -0.320 N 
ATOM     12  C   UNL A   1      32.439  22.212  22.620  1.00  0.00     0.150 C 
ATOM     13  C   UNL A   1      30.981  23.873  23.646  1.00  0.00     0.154 C 
ATOM     14  C   UNL A   1      33.281  23.339  22.032  1.00  0.00     0.182 C 
ATOM     15  O   UNL A   1      32.478  24.504  21.795  1.00  0.00    -0.374 OA
BRANCH  11  16
ATOM     16  C   UNL A   1      31.697  21.977  25.015  1.00  0.00     0.318 C 
ATOM     17  N   UNL A   1      32.386  20.847  25.249  1.00  0.00    -0.330 N 
ATOM     18  H   UNL A   1      31.937  20.279  25.917  1.00  0.00     0.166 HD
ATOM     19  O   UNL A   1      30.959  22.352  25.928  1.00  0.00    -0.249 OA
BRANCH  17  20
ATOM     20  C   UNL A   1      33.630  20.241  24.772  1.00  0.00     0.124 C 
BRANCH  20  21
ATOM     21  C   UNL A   1      34.820  20.731  25.628  1.00  0.00     0.027 C 
ATOM     22  C   UNL A   1      34.384  21.434  26.905  1.00  0.00     0.006 C 
ENDBRANCH  20  21
BRANCH  20  23
ATOM     23  C   UNL A   1      33.507  18.717  24.841  1.00  0.00     0.027 A 
ATOM     24  C   UNL A   1      32.475  17.968  25.387  1.00  0.00     0.017 A 
ATOM     25  S   UNL A   1      34.751  17.672  24.261  1.00  0.00    -0.147 S 
ATOM     26  C   UNL A   1      32.673  16.562  25.264  1.00  0.00     0.012 A 
ATOM     27  C   UNL A   1      33.876  16.267  24.668  1.00  0.00     0.065 A 
ENDBRANCH  20  23
ENDBRANCH  17  20
ENDBRANCH  11  16
ENDBRANCH   9  10
ENDBRANCH   7   9
ENDBRANCH   6   7
ENDBRANCH   5   6
ENDBRANCH   4   5
ENDBRANCH   3   4
ENDBRANCH   2   3
ENDBRANCH   1   2
BRANCH   1  28
ATOM     28  O   UNL A   1      35.604  24.372  25.703  1.00  0.00    -0.377 OA
BRANCH  28  29
ATOM     29  C   UNL A   1      36.645  23.727  24.971  1.00  0.00     0.188 C 
BRANCH  29  30
ATOM     30  C   UNL A   1      37.923  23.265  25.707  1.00  0.00     0.188 C 
BRANCH  30  31
ATOM     31  O   UNL A   1      38.188  21.866  25.638  1.00  0.00    -0.376 OA
BRANCH  31  32
ATOM     32  C   UNL A   1      39.231  21.360  26.466  1.00  0.00     0.202 C 
BRANCH  32  33
ATOM     33  C   UNL A   1      40.564  21.114  25.751  1.00  0.00     0.261 C 
BRANCH  33  34
ATOM     34  O   UNL A   1      41.646  21.934  26.222  1.00  0.00    -0.460 OA
BRANCH  34  35
ATOM     35  C   UNL A   1      41.905  21.901  27.541  1.00  0.00     0.338 C 
ATOM     36  O   UNL A   1      42.141  20.902  28.211  1.00  0.00    -0.246 OA
BRANCH  35  37
ATOM     37  C   UNL A   1      42.058  23.282  28.027  1.00  0.00     0.060 A 
ATOM     38  C   UNL A   1      41.399  24.296  27.324  1.00  0.00     0.016 A 
ATOM     39  C   UNL A   1      42.885  23.590  29.111  1.00  0.00     0.016 A 
ATOM     40  C   UNL A   1      41.627  25.629  27.655  1.00  0.00     0.010 A 
ATOM     41  C   UNL A   1      43.115  24.933  29.439  1.00  0.00     0.010 A 
ATOM     42  C   UNL A   1      42.530  25.958  28.675  1.00  0.00    -0.014 A 
BRANCH  42  43
ATOM     43  C   UNL A   1      43.002  27.366  28.768  1.00  0.00     0.031 A 
ATOM     44  C   UNL A   1      44.364  27.706  28.216  1.00  0.00     0.074 A 
ATOM     45  C   UNL A   1      42.201  28.343  29.228  1.00  0.00     0.049 A 
ATOM     46  N   UNL A   1      44.929  28.876  28.063  1.00  0.00    -0.248 NA
ATOM     47  C   UNL A   1      45.197  26.576  27.772  1.00  0.00     0.031 C 
ATOM     48  C   UNL A   1      40.853  28.152  29.762  1.00  0.00     0.029 A 
ATOM     49  N   UNL A   1      42.403  29.700  29.299  1.00  0.00    -0.354 N 
ATOM     50  C   UNL A   1      46.176  28.624  27.503  1.00  0.00     0.074 A 
ATOM     51  C   UNL A   1      46.302  27.189  27.377  1.00  0.00     0.031 C 
ATOM     52  C   UNL A   1      40.343  29.352  30.093  1.00  0.00     0.029 A 
ATOM     53  C   UNL A   1      41.332  30.392  29.812  1.00  0.00     0.049 A 
ATOM     54  H   UNL A   1      43.237  30.136  29.008  1.00  0.00     0.167 HD
ATOM     55  C   UNL A   1      47.129  29.505  27.114  1.00  0.00     0.031 A 
ATOM     56  C   UNL A   1      41.167  31.712  30.030  1.00  0.00     0.031 A 
ATOM     57  C   UNL A   1      47.015  30.932  27.252  1.00  0.00     0.049 A 
ATOM     58  C   UNL A   1      42.260  32.672  29.634  1.00  0.00     0.074 A 
ATOM     59  C   UNL A   1      47.921  31.909  26.875  1.00  0.00     0.029 A 
ATOM     60  N   UNL A   1      45.933  31.588  27.820  1.00  0.00    -0.354 N 
ATOM     61  N   UNL A   1      43.416  32.419  29.065  1.00  0.00    -0.248 NA
ATOM     62  C   UNL A   1      42.017  34.098  29.893  1.00  0.00     0.031 C 
ATOM     63  C   UNL A   1      47.411  33.151  27.266  1.00  0.00     0.029 A 
ATOM     64  C   UNL A   1      46.160  32.955  27.829  1.00  0.00     0.049 A 
ATOM     65  H   UNL A   1      45.123  31.147  28.164  1.00  0.00     0.167 HD
ATOM     66  C   UNL A   1      44.026  33.656  28.876  1.00  0.00     0.074 A 
ATOM     67  C   UNL A   1      43.104  34.656  29.374  1.00  0.00     0.031 C 
ATOM     68  C   UNL A   1      45.238  33.939  28.337  1.00  0.00     0.031 A 
BRANCH  55  69
ATOM     69  C   UNL A   1      48.398  28.939  26.534  1.00  0.00    -0.014 A 
ATOM     70  C   UNL A   1      48.375  28.093  25.410  1.00  0.00     0.010 A 
ATOM     71  C   UNL A   1      49.636  29.275  27.112  1.00  0.00     0.010 A 
ATOM     72  C   UNL A   1      49.563  27.561  24.899  1.00  0.00     0.020 A 
ATOM     73  C   UNL A   1      50.828  28.767  26.589  1.00  0.00     0.020 A 
ATOM     74  C   UNL A   1      50.782  27.898  25.497  1.00  0.00     0.054 A 
BRANCH  74  75
ATOM     75  S   UNL A   1      52.311  27.202  24.810  1.00  0.00     0.124 S 
ATOM     76  O   UNL A   1      53.312  27.680  25.761  1.00  0.00    -0.237 OA
ATOM     77  O   UNL A   1      52.052  25.764  24.840  1.00  0.00    -0.237 OA
ATOM     78  O   UNL A   1      52.390  27.790  23.475  1.00  0.00    -0.744 OA
ENDBRANCH  74  75
ENDBRANCH  55  69
BRANCH  56  79
ATOM     79  C   UNL A   1      39.912  32.209  30.660  1.00  0.00    -0.014 A 
ATOM     80  C   UNL A   1      39.870  32.551  32.023  1.00  0.00     0.010 A 
ATOM     81  C   UNL A   1      38.743  32.343  29.887  1.00  0.00     0.010 A 
ATOM     82  C   UNL A   1      38.679  33.002  32.605  1.00  0.00     0.020 A 
ATOM     83  C   UNL A   1      37.560  32.819  30.458  1.00  0.00     0.020 A 
ATOM     84  C   UNL A   1      37.532  33.137  31.817  1.00  0.00     0.054 A 
BRANCH  84  85
ATOM     85  S   UNL A   1      36.015  33.780  32.576  1.00  0.00     0.124 S 
ATOM     86  O   UNL A   1      36.541  34.749  33.532  1.00  0.00    -0.237 OA
ATOM     87  O   UNL A   1      35.302  34.341  31.432  1.00  0.00    -0.237 OA
ATOM     88  O   UNL A   1      35.397  32.592  33.163  1.00  0.00    -0.744 OA
ENDBRANCH  84  85
ENDBRANCH  56  79
BRANCH  68  89
ATOM     89  C   UNL A   1      45.627  35.391  28.227  1.00  0.00    -0.014 A 
ATOM     90  C   UNL A   1      45.343  36.139  27.069  1.00  0.00     0.010 A 
ATOM     91  C   UNL A   1      46.258  36.025  29.313  1.00  0.00     0.010 A 
ATOM     92  C   UNL A   1      45.724  37.481  26.985  1.00  0.00     0.020 A 
ATOM     93  C   UNL A   1      46.615  37.374  29.242  1.00  0.00     0.020 A 
ATOM     94  C   UNL A   1      46.365  38.089  28.070  1.00  0.00     0.054 A 
BRANCH  94  95
ATOM     95  S   UNL A   1      46.838  39.835  27.942  1.00  0.00     0.124 S 
ATOM     96  O   UNL A   1      45.542  40.492  27.794  1.00  0.00    -0.237 OA
ATOM     97  O   UNL A   1      47.525  40.077  29.209  1.00  0.00    -0.237 OA
ATOM     98  O   UNL A   1      47.696  39.876  26.760  1.00  0.00    -0.744 OA
ENDBRANCH  94  95
ENDBRANCH  68  89
ENDBRANCH  42  43
ENDBRANCH  35  37
ENDBRANCH  34  35
ENDBRANCH  33  34
ENDBRANCH  32  33
ENDBRANCH  31  32
ENDBRANCH  30  31
ENDBRANCH  29  30
ENDBRANCH  28  29
ENDBRANCH   1  28
TORSDOF 28
ENDMDL
MODEL 3
REMARK VINA RESULT:      -7.9      4.085      9.331
REMARK SMILES CC[C@H](NC(=O)N1CCO[C@@H](CC(=O)OCCOCCOCCOCCOC(=O)c2ccc(-c3c4nc(c(-c5ccc(S(=O)(=O)[O-])cc5)c5ccc([nH]5)c(-c5ccc(S(=O)(=O)[O-])cc5)c5nc(c(-c6ccc(S(=O)(=O)[O-])cc6)c6ccc3[nH]6)C=C5)C=C4)cc2)C1)c1cccs1
REMARK SMILES IDX 20 1 19 2 18 3 17 4 16 5 15 6 13 7 14 8 12 9 11 10 7 11 8 12
REMARK SMILES IDX 90 13 9 14 10 15 5 16 4 17 6 19 3 20 2 21 1 22 91 23 92 24
REMARK SMILES IDX 95 25 93 26 94 27 21 28 22 29 23 30 24 31 25 32 26 33 27 34
REMARK SMILES IDX 28 35 29 36 30 37 31 38 89 39 32 40 88 41 33 42 34 43 35 44
REMARK SMILES IDX 82 45 36 46 87 47 81 48 83 49 37 50 86 51 80 52 79 53 38 55
REMARK SMILES IDX 68 56 49 57 67 58 50 59 53 60 66 61 84 62 51 63 52 64 65 66
REMARK SMILES IDX 85 67 54 68 39 69 40 70 48 71 41 72 47 73 42 74 43 75 44 76
REMARK SMILES IDX 45 77 46 78 69 79 70 80 78 81 71 82 77 83 72 84 73 85 74 86
REMARK SMILES IDX 75 87 76 88 55 89 56 90 64 91 57 92 63 93 58 94 59 95 60 96
REMARK SMILES IDX 61 97 62 98
REMARK H PARENT 4 18 83 54 53 65
REMARK Flexibility Score: inf
ROOT
ATOM      1  C   UNL A   1      34.869  24.572  25.223  1.00  0.00     0.188 C 
ENDROOT
BRANCH   1   2
ATOM      2  C   UNL A   1      33.625  25.010  26.004  1.00  0.00     0.188 C 
BRANCH   2   3
ATOM      3  O   UNL A   1      33.575  26.317  26.553  1.00  0.00    -0.376 OA
BRANCH   3   4
ATOM      4  C   UNL A   1      33.180  27.411  25.727  1.00  0.00     0.202 C 
BRANCH   4   5
ATOM      5  C   UNL A   1      31.695  27.742  25.504  1.00  0.00     0.261 C 
BRANCH   5   6
ATOM      6  O   UNL A   1      31.307  28.035  24.142  1.00  0.00    -0.463 OA
BRANCH   6   7
ATOM      7  C   UNL A   1      30.460  27.158  23.562  1.00  0.00     0.308 C 
ATOM      8  O   UNL A   1      29.278  27.029  23.877  1.00  0.00    -0.252 OA
BRANCH   7   9
ATOM      9  C   UNL A   1      31.086  26.242  22.539  1.00  0.00     0.156 C 
BRANCH   9  10
ATOM     10  C   UNL A   1      31.866  24.995  22.942  1.00  0.00     0.149 C 
ATOM     11  N   UNL A   1      31.839  22.631  23.659  1.00  0.00    -0.320 N 
ATOM     12  C   UNL A   1      32.484  22.237  22.413  1.00  0.00     0.150 C 
ATOM     13  C   UNL A   1      31.010  23.842  23.503  1.00  0.00     0.154 C 
ATOM     14  C   UNL A   1      33.337  23.393  21.902  1.00  0.00     0.182 C 
ATOM     15  O   UNL A   1      32.539  24.570  21.715  1.00  0.00    -0.374 OA
BRANCH  11  16
ATOM     16  C   UNL A   1      31.702  21.874  24.779  1.00  0.00     0.318 C 
ATOM     17  N   UNL A   1      32.243  20.649  24.891  1.00  0.00    -0.330 N 
ATOM     18  H   UNL A   1      31.764  20.098  25.551  1.00  0.00     0.166 HD
ATOM     19  O   UNL A   1      31.081  22.275  25.767  1.00  0.00    -0.249 OA
BRANCH  17  20
ATOM     20  C   UNL A   1      33.360  19.920  24.286  1.00  0.00     0.124 C 
BRANCH  20  21
ATOM     21  C   UNL A   1      34.702  20.487  24.801  1.00  0.00     0.027 C 
ATOM     22  C   UNL A   1      35.806  19.441  24.861  1.00  0.00     0.006 C 
ENDBRANCH  20  21
BRANCH  20  23
ATOM     23  C   UNL A   1      33.235  18.434  24.628  1.00  0.00     0.027 A 
ATOM     24  C   UNL A   1      32.674  17.862  25.761  1.00  0.00     0.017 A 
ATOM     25  S   UNL A   1      33.875  17.203  23.602  1.00  0.00    -0.147 S 
ATOM     26  C   UNL A   1      32.706  16.438  25.748  1.00  0.00     0.012 A 
ATOM     27  C   UNL A   1      33.335  15.952  24.626  1.00  0.00     0.065 A 
ENDBRANCH  20  23
ENDBRANCH  17  20
ENDBRANCH  11  16
ENDBRANCH   9  10
ENDBRANCH   7   9
ENDBRANCH   6   7
ENDBRANCH   5   6
ENDBRANCH   4   5
ENDBRANCH   3   4
ENDBRANCH   2   3
ENDBRANCH   1   2
BRANCH   1  28
ATOM     28  O   UNL A   1      35.679  23.654  25.921  1.00  0.00    -0.377 OA
BRANCH  28  29
ATOM     29  C   UNL A   1      37.062  23.561  25.582  1.00  0.00     0.188 C 
BRANCH  29  30
ATOM     30  C   UNL A   1      38.122  24.173  26.525  1.00  0.00     0.188 C 
BRANCH  30  31
ATOM     31  O   UNL A   1      39.150  23.277  26.941  1.00  0.00    -0.376 OA
BRANCH  31  32
ATOM     32  C   UNL A   1      40.249  23.834  27.655  1.00  0.00     0.202 C 
BRANCH  32  33
ATOM     33  C   UNL A   1      41.327  24.483  26.780  1.00  0.00     0.261 C 
BRANCH  33  34
ATOM     34  O   UNL A   1      41.811  25.741  27.276  1.00  0.00    -0.460 OA
BRANCH  34  35
ATOM     35  C   UNL A   1      42.672  25.700  28.307  1.00  0.00     0.338 C 
ATOM     36  O   UNL A   1      43.142  24.692  28.822  1.00  0.00    -0.246 OA
BRANCH  35  37
ATOM     37  C   UNL A   1      43.123  27.070  28.601  1.00  0.00     0.060 A 
ATOM     38  C   UNL A   1      44.038  27.245  29.644  1.00  0.00     0.016 A 
ATOM     39  C   UNL A   1      42.609  28.174  27.914  1.00  0.00     0.016 A 
ATOM     40  C   UNL A   1      44.384  28.529  30.055  1.00  0.00     0.010 A 
ATOM     41  C   UNL A   1      42.956  29.466  28.332  1.00  0.00     0.010 A 
ATOM     42  C   UNL A   1      43.801  29.647  29.441  1.00  0.00    -0.014 A 
BRANCH  42  43
ATOM     43  C   UNL A   1      43.925  30.964  30.120  1.00  0.00     0.031 A 
ATOM     44  C   UNL A   1      44.858  31.993  29.530  1.00  0.00     0.074 A 
ATOM     45  C   UNL A   1      43.148  31.286  31.170  1.00  0.00     0.049 A 
ATOM     46  N   UNL A   1      45.029  33.246  29.864  1.00  0.00    -0.248 NA
ATOM     47  C   UNL A   1      45.705  31.550  28.410  1.00  0.00     0.031 C 
ATOM     48  C   UNL A   1      42.187  30.395  31.817  1.00  0.00     0.029 A 
ATOM     49  N   UNL A   1      43.035  32.466  31.865  1.00  0.00    -0.354 N 
ATOM     50  C   UNL A   1      45.996  33.740  28.996  1.00  0.00     0.074 A 
ATOM     51  C   UNL A   1      46.401  32.644  28.145  1.00  0.00     0.031 C 
ATOM     52  C   UNL A   1      41.570  31.065  32.807  1.00  0.00     0.029 A 
ATOM     53  C   UNL A   1      42.104  32.425  32.875  1.00  0.00     0.049 A 
ATOM     54  H   UNL A   1      43.570  33.266  31.656  1.00  0.00     0.167 HD
ATOM     55  C   UNL A   1      46.495  34.997  28.902  1.00  0.00     0.031 A 
ATOM     56  C   UNL A   1      41.726  33.374  33.755  1.00  0.00     0.031 A 
ATOM     57  C   UNL A   1      46.107  36.086  29.758  1.00  0.00     0.049 A 
ATOM     58  C   UNL A   1      42.330  34.752  33.665  1.00  0.00     0.074 A 
ATOM     59  C   UNL A   1      46.546  37.398  29.733  1.00  0.00     0.029 A 
ATOM     60  N   UNL A   1      45.196  35.989  30.799  1.00  0.00    -0.354 N 
ATOM     61  N   UNL A   1      43.212  35.214  32.808  1.00  0.00    -0.248 NA
ATOM     62  C   UNL A   1      41.872  35.743  34.649  1.00  0.00     0.031 C 
ATOM     63  C   UNL A   1      45.942  38.081  30.794  1.00  0.00     0.029 A 
ATOM     64  C   UNL A   1      45.079  37.211  31.441  1.00  0.00     0.049 A 
ATOM     65  H   UNL A   1      44.704  35.172  31.044  1.00  0.00     0.167 HD
ATOM     66  C   UNL A   1      43.394  36.555  33.137  1.00  0.00     0.074 A 
ATOM     67  C   UNL A   1      42.518  36.833  34.256  1.00  0.00     0.031 C 
ATOM     68  C   UNL A   1      44.211  37.472  32.561  1.00  0.00     0.031 A 
BRANCH  55  69
ATOM     69  C   UNL A   1      47.549  35.245  27.856  1.00  0.00    -0.014 A 
ATOM     70  C   UNL A   1      47.228  35.844  26.624  1.00  0.00     0.010 A 
ATOM     71  C   UNL A   1      48.885  34.893  28.118  1.00  0.00     0.010 A 
ATOM     72  C   UNL A   1      48.218  36.048  25.657  1.00  0.00     0.020 A 
ATOM     73  C   UNL A   1      49.882  35.120  27.166  1.00  0.00     0.020 A 
ATOM     74  C   UNL A   1      49.538  35.678  25.933  1.00  0.00     0.054 A 
BRANCH  74  75
ATOM     75  S   UNL A   1      50.805  35.961  24.666  1.00  0.00     0.124 S 
ATOM     76  O   UNL A   1      51.136  34.597  24.261  1.00  0.00    -0.237 OA
ATOM     77  O   UNL A   1      50.092  36.757  23.669  1.00  0.00    -0.237 OA
ATOM     78  O   UNL A   1      51.861  36.671  25.384  1.00  0.00    -0.744 OA
ENDBRANCH  74  75
ENDBRANCH  55  69
BRANCH  56  79
ATOM     79  C   UNL A   1      40.721  33.053  34.806  1.00  0.00    -0.014 A 
ATOM     80  C   UNL A   1      41.100  32.427  36.007  1.00  0.00     0.010 A 
ATOM     81  C   UNL A   1      39.366  33.377  34.605  1.00  0.00     0.010 A 
ATOM     82  C   UNL A   1      40.141  32.118  36.979  1.00  0.00     0.020 A 
ATOM     83  C   UNL A   1      38.410  33.095  35.584  1.00  0.00     0.020 A 
ATOM     84  C   UNL A   1      38.802  32.458  36.763  1.00  0.00     0.054 A 
BRANCH  84  85
ATOM     85  S   UNL A   1      37.585  32.102  38.061  1.00  0.00     0.124 S 
ATOM     86  O   UNL A   1      36.477  32.975  37.686  1.00  0.00    -0.237 OA
ATOM     87  O   UNL A   1      37.351  30.671  37.891  1.00  0.00    -0.237 OA
ATOM     88  O   UNL A   1      38.283  32.468  39.292  1.00  0.00    -0.744 OA
ENDBRANCH  84  85
ENDBRANCH  56  79
BRANCH  68  89
ATOM     89  C   UNL A   1      44.175  38.876  33.111  1.00  0.00    -0.014 A 
ATOM     90  C   UNL A   1      43.192  39.796  32.702  1.00  0.00     0.010 A 
ATOM     91  C   UNL A   1      45.119  39.268  34.076  1.00  0.00     0.010 A 
ATOM     92  C   UNL A   1      43.185  41.096  33.216  1.00  0.00     0.020 A 
ATOM     93  C   UNL A   1      45.098  40.558  34.613  1.00  0.00     0.020 A 
ATOM     94  C   UNL A   1      44.143  41.471  34.164  1.00  0.00     0.054 A 
BRANCH  94  95
ATOM     95  S   UNL A   1      44.107  43.159  34.827  1.00  0.00     0.124 S 
ATOM     96  O   UNL A   1      44.880  43.894  33.829  1.00  0.00    -0.237 OA
ATOM     97  O   UNL A   1      42.678  43.462  34.862  1.00  0.00    -0.237 OA
ATOM     98  O   UNL A   1      44.741  43.031  36.137  1.00  0.00    -0.744 OA
ENDBRANCH  94  95
ENDBRANCH  68  89
ENDBRANCH  42  43
ENDBRANCH  35  37
ENDBRANCH  34  35
ENDBRANCH  33  34
ENDBRANCH  32  33
ENDBRANCH  31  32
ENDBRANCH  30  31
ENDBRANCH  29  30
ENDBRANCH  28  29
ENDBRANCH   1  28
TORSDOF 28
ENDMDL
