MODEL 1
REMARK VINA RESULT:      -9.8      0.000      0.000
REMARK SMILES NC(=O)c1ccc(N(CC(=O)OCCOCCOCCOCCOC(=O)c2ccc(-c3c4nc(c(-c5ccc(S(=O)(=O)[O-])cc5)c5ccc([nH]5)c(-c5ccc(S(=O)(=O)[O-])cc5)c5nc(c(-c6ccc(S(=O)(=O)[O-])cc6)c6ccc3[nH]6)C=C5)C=C4)cc2)C2CCCC2)nn1
REMARK SMILES IDX 18 1 17 2 16 3 15 4 14 5 13 6 12 7 10 8 11 9 9 10 8 11 7 12
REMARK SMILES IDX 4 13 5 14 93 15 6 16 92 17 2 18 1 19 3 22 87 23 88 24 91 25
REMARK SMILES IDX 89 26 90 27 19 28 20 29 21 30 22 31 23 32 24 33 25 34 26 35
REMARK SMILES IDX 27 36 28 37 86 38 29 39 85 40 30 41 31 42 32 43 79 44 33 45
REMARK SMILES IDX 84 46 78 47 80 48 34 49 83 50 77 51 76 52 35 54 65 55 46 56
REMARK SMILES IDX 64 57 47 58 50 59 63 60 81 61 48 62 49 63 62 65 82 66 51 67
REMARK SMILES IDX 36 68 37 69 45 70 38 71 44 72 39 73 40 74 41 75 42 76 43 77
REMARK SMILES IDX 66 78 67 79 75 80 68 81 74 82 69 83 70 84 71 85 72 86 73 87
REMARK SMILES IDX 52 88 53 89 61 90 54 91 60 92 55 93 56 94 57 95 58 96 59 97
REMARK H PARENT 1 20 1 21 80 53 50 64
REMARK Flexibility Score: inf
ROOT
ATOM      1  O   UNL A   1      30.953  29.680  24.182  1.00  0.00    -0.377 OA
ENDROOT
BRANCH   1   2
ATOM      2  C   UNL A   1      30.243  29.029  23.153  1.00  0.00     0.188 C 
BRANCH   2   3
ATOM      3  C   UNL A   1      30.134  27.510  23.296  1.00  0.00     0.188 C 
BRANCH   3   4
ATOM      4  O   UNL A   1      30.663  26.648  22.295  1.00  0.00    -0.376 OA
BRANCH   4   5
ATOM      5  C   UNL A   1      32.025  26.778  21.906  1.00  0.00     0.202 C 
BRANCH   5   6
ATOM      6  C   UNL A   1      33.053  25.790  22.507  1.00  0.00     0.261 C 
BRANCH   6   7
ATOM      7  O   UNL A   1      32.747  24.371  22.401  1.00  0.00    -0.462 OA
BRANCH   7   8
ATOM      8  C   UNL A   1      33.738  23.490  22.704  1.00  0.00     0.325 C 
ATOM      9  O   UNL A   1      34.675  23.258  21.937  1.00  0.00    -0.250 OA
BRANCH   8  10
ATOM     10  C   UNL A   1      33.787  22.943  24.151  1.00  0.00     0.241 C 
BRANCH  10  11
ATOM     11  N   UNL A   1      32.690  22.114  24.745  1.00  0.00    -0.341 N 
BRANCH  11  12
ATOM     12  C   UNL A   1      32.951  20.747  24.828  1.00  0.00     0.152 A 
ATOM     13  C   UNL A   1      33.412  18.010  24.978  1.00  0.00     0.150 A 
ATOM     14  C   UNL A   1      34.477  18.845  24.744  1.00  0.00     0.040 A 
ATOM     15  N   UNL A   1      32.162  18.487  25.099  1.00  0.00    -0.143 NA
ATOM     16  C   UNL A   1      34.230  20.211  24.671  1.00  0.00     0.051 A 
ATOM     17  N   UNL A   1      31.945  19.868  25.031  1.00  0.00    -0.132 NA
BRANCH  13  18
ATOM     18  C   UNL A   1      33.641  16.551  25.110  1.00  0.00     0.269 C 
ATOM     19  N   UNL A   1      32.512  15.765  25.098  1.00  0.00    -0.364 N 
ATOM     20  H   UNL A   1      32.594  14.787  25.180  1.00  0.00     0.160 HD
ATOM     21  H   UNL A   1      31.624  16.180  25.006  1.00  0.00     0.160 HD
ATOM     22  O   UNL A   1      34.753  16.067  25.262  1.00  0.00    -0.268 OA
ENDBRANCH  13  18
ENDBRANCH  11  12
BRANCH  11  23
ATOM     23  C   UNL A   1      31.658  22.798  25.553  1.00  0.00     0.084 C 
ATOM     24  C   UNL A   1      32.185  23.475  26.836  1.00  0.00     0.025 C 
ATOM     25  C   UNL A   1      30.819  23.855  24.827  1.00  0.00     0.025 C 
ATOM     26  C   UNL A   1      31.488  24.832  26.924  1.00  0.00     0.002 C 
ATOM     27  C   UNL A   1      30.313  24.740  25.963  1.00  0.00     0.002 C 
ENDBRANCH  11  23
ENDBRANCH  10  11
ENDBRANCH   8  10
ENDBRANCH   7   8
ENDBRANCH   6   7
ENDBRANCH   5   6
ENDBRANCH   4   5
ENDBRANCH   3   4
ENDBRANCH   2   3
ENDBRANCH   1   2
BRANCH   1  28
ATOM     28  C   UNL A   1      31.529  28.876  25.185  1.00  0.00     0.188 C 
BRANCH  28  29
ATOM     29  C   UNL A   1      33.059  28.820  25.157  1.00  0.00     0.188 C 
BRANCH  29  30
ATOM     30  O   UNL A   1      33.624  28.924  26.460  1.00  0.00    -0.376 OA
BRANCH  30  31
ATOM     31  C   UNL A   1      33.661  30.197  27.083  1.00  0.00     0.202 C 
BRANCH  31  32
ATOM     32  C   UNL A   1      34.844  30.576  27.995  1.00  0.00     0.261 C 
BRANCH  32  33
ATOM     33  O   UNL A   1      35.709  29.526  28.449  1.00  0.00    -0.460 OA
BRANCH  33  34
ATOM     34  C   UNL A   1      36.389  29.722  29.598  1.00  0.00     0.338 C 
ATOM     35  O   UNL A   1      35.901  29.840  30.711  1.00  0.00    -0.246 OA
BRANCH  34  36
ATOM     36  C   UNL A   1      37.839  29.573  29.321  1.00  0.00     0.060 A 
ATOM     37  C   UNL A   1      38.259  29.494  27.987  1.00  0.00     0.016 A 
ATOM     38  C   UNL A   1      38.780  29.508  30.354  1.00  0.00     0.016 A 
ATOM     39  C   UNL A   1      39.614  29.329  27.681  1.00  0.00     0.010 A 
ATOM     40  C   UNL A   1      40.134  29.307  30.045  1.00  0.00     0.010 A 
ATOM     41  C   UNL A   1      40.554  29.188  28.708  1.00  0.00    -0.014 A 
BRANCH  41  42
ATOM     42  C   UNL A   1      41.929  28.721  28.384  1.00  0.00     0.031 A 
ATOM     43  C   UNL A   1      43.048  29.730  28.391  1.00  0.00     0.074 A 
ATOM     44  C   UNL A   1      42.198  27.427  28.126  1.00  0.00     0.049 A 
ATOM     45  N   UNL A   1      44.315  29.569  28.111  1.00  0.00    -0.248 NA
ATOM     46  C   UNL A   1      42.684  31.106  28.770  1.00  0.00     0.031 C 
ATOM     47  C   UNL A   1      41.225  26.337  28.153  1.00  0.00     0.029 A 
ATOM     48  N   UNL A   1      43.380  26.814  27.787  1.00  0.00    -0.354 N 
ATOM     49  C   UNL A   1      44.899  30.820  28.271  1.00  0.00     0.074 A 
ATOM     50  C   UNL A   1      43.844  31.735  28.648  1.00  0.00     0.031 C 
ATOM     51  C   UNL A   1      41.849  25.188  27.834  1.00  0.00     0.029 A 
ATOM     52  C   UNL A   1      43.256  25.466  27.543  1.00  0.00     0.049 A 
ATOM     53  H   UNL A   1      44.238  27.295  27.725  1.00  0.00     0.167 HD
ATOM     54  C   UNL A   1      46.197  31.179  28.122  1.00  0.00     0.031 A 
ATOM     55  C   UNL A   1      44.162  24.566  27.109  1.00  0.00     0.031 A 
ATOM     56  C   UNL A   1      47.243  30.273  27.727  1.00  0.00     0.049 A 
ATOM     57  C   UNL A   1      45.582  25.009  26.848  1.00  0.00     0.074 A 
ATOM     58  C   UNL A   1      48.589  30.543  27.552  1.00  0.00     0.029 A 
ATOM     59  N   UNL A   1      47.063  28.931  27.434  1.00  0.00    -0.354 N 
ATOM     60  N   UNL A   1      46.122  26.192  27.020  1.00  0.00    -0.248 NA
ATOM     61  C   UNL A   1      46.514  23.992  26.335  1.00  0.00     0.031 C 
ATOM     62  C   UNL A   1      49.211  29.380  27.086  1.00  0.00     0.029 A 
ATOM     63  C   UNL A   1      48.265  28.366  27.043  1.00  0.00     0.049 A 
ATOM     64  H   UNL A   1      46.205  28.450  27.494  1.00  0.00     0.167 HD
ATOM     65  C   UNL A   1      47.462  26.053  26.667  1.00  0.00     0.074 A 
ATOM     66  C   UNL A   1      47.653  24.670  26.283  1.00  0.00     0.031 C 
ATOM     67  C   UNL A   1      48.446  26.987  26.664  1.00  0.00     0.031 A 
BRANCH  54  68
ATOM     68  C   UNL A   1      46.549  32.627  28.342  1.00  0.00    -0.014 A 
ATOM     69  C   UNL A   1      46.292  33.600  27.361  1.00  0.00     0.010 A 
ATOM     70  C   UNL A   1      47.115  33.023  29.568  1.00  0.00     0.010 A 
ATOM     71  C   UNL A   1      46.630  34.938  27.586  1.00  0.00     0.020 A 
ATOM     72  C   UNL A   1      47.425  34.363  29.810  1.00  0.00     0.020 A 
ATOM     73  C   UNL A   1      47.196  35.310  28.810  1.00  0.00     0.054 A 
BRANCH  73  74
ATOM     74  S   UNL A   1      47.608  37.055  29.082  1.00  0.00     0.124 S 
ATOM     75  O   UNL A   1      46.774  37.384  30.236  1.00  0.00    -0.237 OA
ATOM     76  O   UNL A   1      49.044  37.008  29.338  1.00  0.00    -0.237 OA
ATOM     77  O   UNL A   1      47.220  37.703  27.831  1.00  0.00    -0.744 OA
ENDBRANCH  73  74
ENDBRANCH  54  68
BRANCH  55  78
ATOM     78  C   UNL A   1      43.755  23.154  26.860  1.00  0.00    -0.014 A 
ATOM     79  C   UNL A   1      44.119  22.496  25.671  1.00  0.00     0.010 A 
ATOM     80  C   UNL A   1      42.982  22.461  27.811  1.00  0.00     0.010 A 
ATOM     81  C   UNL A   1      43.704  21.182  25.430  1.00  0.00     0.020 A 
ATOM     82  C   UNL A   1      42.593  21.137  27.588  1.00  0.00     0.020 A 
ATOM     83  C   UNL A   1      42.947  20.510  26.393  1.00  0.00     0.054 A 
BRANCH  83  84
ATOM     84  S   UNL A   1      42.459  18.791  26.078  1.00  0.00     0.124 S 
ATOM     85  O   UNL A   1      43.367  18.411  25.000  1.00  0.00    -0.237 OA
ATOM     86  O   UNL A   1      42.708  18.154  27.368  1.00  0.00    -0.237 OA
ATOM     87  O   UNL A   1      41.052  18.898  25.702  1.00  0.00    -0.744 OA
ENDBRANCH  83  84
ENDBRANCH  55  78
BRANCH  67  88
ATOM     88  C   UNL A   1      49.835  26.549  26.270  1.00  0.00    -0.014 A 
ATOM     89  C   UNL A   1      50.324  26.748  24.968  1.00  0.00     0.010 A 
ATOM     90  C   UNL A   1      50.690  26.001  27.246  1.00  0.00     0.010 A 
ATOM     91  C   UNL A   1      51.636  26.387  24.642  1.00  0.00     0.020 A 
ATOM     92  C   UNL A   1      52.010  25.668  26.932  1.00  0.00     0.020 A 
ATOM     93  C   UNL A   1      52.472  25.854  25.628  1.00  0.00     0.054 A 
BRANCH  93  94
ATOM     94  S   UNL A   1      54.187  25.454  25.194  1.00  0.00     0.124 S 
ATOM     95  O   UNL A   1      54.936  26.140  26.242  1.00  0.00    -0.237 OA
ATOM     96  O   UNL A   1      54.202  23.994  25.264  1.00  0.00    -0.237 OA
ATOM     97  O   UNL A   1      54.345  26.009  23.851  1.00  0.00    -0.744 OA
ENDBRANCH  93  94
ENDBRANCH  67  88
ENDBRANCH  41  42
ENDBRANCH  34  36
ENDBRANCH  33  34
ENDBRANCH  32  33
ENDBRANCH  31  32
ENDBRANCH  30  31
ENDBRANCH  29  30
ENDBRANCH  28  29
ENDBRANCH   1  28
TORSDOF 27
ENDMDL
MODEL 2
REMARK VINA RESULT:      -9.1      6.354      8.621
REMARK SMILES NC(=O)c1ccc(N(CC(=O)OCCOCCOCCOCCOC(=O)c2ccc(-c3c4nc(c(-c5ccc(S(=O)(=O)[O-])cc5)c5ccc([nH]5)c(-c5ccc(S(=O)(=O)[O-])cc5)c5nc(c(-c6ccc(S(=O)(=O)[O-])cc6)c6ccc3[nH]6)C=C5)C=C4)cc2)C2CCCC2)nn1
REMARK SMILES IDX 18 1 17 2 16 3 15 4 14 5 13 6 12 7 10 8 11 9 9 10 8 11 7 12
REMARK SMILES IDX 4 13 5 14 93 15 6 16 92 17 2 18 1 19 3 22 87 23 88 24 91 25
REMARK SMILES IDX 89 26 90 27 19 28 20 29 21 30 22 31 23 32 24 33 25 34 26 35
REMARK SMILES IDX 27 36 28 37 86 38 29 39 85 40 30 41 31 42 32 43 79 44 33 45
REMARK SMILES IDX 84 46 78 47 80 48 34 49 83 50 77 51 76 52 35 54 65 55 46 56
REMARK SMILES IDX 64 57 47 58 50 59 63 60 81 61 48 62 49 63 62 65 82 66 51 67
REMARK SMILES IDX 36 68 37 69 45 70 38 71 44 72 39 73 40 74 41 75 42 76 43 77
REMARK SMILES IDX 66 78 67 79 75 80 68 81 74 82 69 83 70 84 71 85 72 86 73 87
REMARK SMILES IDX 52 88 53 89 61 90 54 91 60 92 55 93 56 94 57 95 58 96 59 97
REMARK H PARENT 1 20 1 21 80 53 50 64
REMARK Flexibility Score: inf
ROOT
ATOM      1  O   UNL A   1      34.262  27.870  26.404  1.00  0.00    -0.377 OA
ENDROOT
BRANCH   1   2
ATOM      2  C   UNL A   1      33.021  27.207  26.483  1.00  0.00     0.188 C 
BRANCH   2   3
ATOM      3  C   UNL A   1      32.970  25.837  25.803  1.00  0.00     0.188 C 
BRANCH   3   4
ATOM      4  O   UNL A   1      32.155  25.629  24.656  1.00  0.00    -0.376 OA
BRANCH   4   5
ATOM      5  C   UNL A   1      32.542  24.662  23.686  1.00  0.00     0.202 C 
BRANCH   5   6
ATOM      6  C   UNL A   1      31.889  23.261  23.752  1.00  0.00     0.261 C 
BRANCH   6   7
ATOM      7  O   UNL A   1      32.299  22.292  22.746  1.00  0.00    -0.462 OA
BRANCH   7   8
ATOM      8  C   UNL A   1      32.253  20.976  23.087  1.00  0.00     0.325 C 
ATOM      9  O   UNL A   1      31.992  20.089  22.273  1.00  0.00    -0.250 OA
BRANCH   8  10
ATOM     10  C   UNL A   1      32.767  20.586  24.495  1.00  0.00     0.241 C 
BRANCH  10  11
ATOM     11  N   UNL A   1      34.061  19.865  24.718  1.00  0.00    -0.341 N 
BRANCH  11  12
ATOM     12  C   UNL A   1      35.140  20.671  25.080  1.00  0.00     0.152 A 
ATOM     13  C   UNL A   1      37.255  22.306  25.840  1.00  0.00     0.150 A 
ATOM     14  C   UNL A   1      37.536  21.057  25.344  1.00  0.00     0.040 A 
ATOM     15  N   UNL A   1      35.990  22.730  25.995  1.00  0.00    -0.143 NA
ATOM     16  C   UNL A   1      36.467  20.251  24.968  1.00  0.00     0.051 A 
ATOM     17  N   UNL A   1      34.935  21.901  25.600  1.00  0.00    -0.132 NA
BRANCH  13  18
ATOM     18  C   UNL A   1      38.369  23.214  26.208  1.00  0.00     0.269 C 
ATOM     19  N   UNL A   1      39.438  22.624  26.840  1.00  0.00    -0.364 N 
ATOM     20  H   UNL A   1      40.212  23.170  27.110  1.00  0.00     0.160 HD
ATOM     21  H   UNL A   1      39.431  21.656  27.020  1.00  0.00     0.160 HD
ATOM     22  O   UNL A   1      38.333  24.420  26.006  1.00  0.00    -0.268 OA
ENDBRANCH  13  18
ENDBRANCH  11  12
BRANCH  11  23
ATOM     23  C   UNL A   1      34.016  18.407  24.955  1.00  0.00     0.084 C 
ATOM     24  C   UNL A   1      32.703  17.895  25.584  1.00  0.00     0.025 C 
ATOM     25  C   UNL A   1      34.284  17.514  23.740  1.00  0.00     0.025 C 
ATOM     26  C   UNL A   1      32.345  16.607  24.844  1.00  0.00     0.002 C 
ATOM     27  C   UNL A   1      33.618  16.194  24.122  1.00  0.00     0.002 C 
ENDBRANCH  11  23
ENDBRANCH  10  11
ENDBRANCH   8  10
ENDBRANCH   7   8
ENDBRANCH   6   7
ENDBRANCH   5   6
ENDBRANCH   4   5
ENDBRANCH   3   4
ENDBRANCH   2   3
ENDBRANCH   1   2
BRANCH   1  28
ATOM     28  C   UNL A   1      34.250  29.278  26.412  1.00  0.00     0.188 C 
BRANCH  28  29
ATOM     29  C   UNL A   1      32.912  29.907  26.012  1.00  0.00     0.188 C 
BRANCH  29  30
ATOM     30  O   UNL A   1      32.521  30.948  26.901  1.00  0.00    -0.376 OA
BRANCH  30  31
ATOM     31  C   UNL A   1      33.492  31.490  27.779  1.00  0.00     0.202 C 
BRANCH  31  32
ATOM     32  C   UNL A   1      33.644  33.017  27.915  1.00  0.00     0.261 C 
BRANCH  32  33
ATOM     33  O   UNL A   1      32.841  33.690  28.894  1.00  0.00    -0.460 OA
BRANCH  33  34
ATOM     34  C   UNL A   1      33.397  34.721  29.565  1.00  0.00     0.338 C 
ATOM     35  O   UNL A   1      32.946  35.853  29.647  1.00  0.00    -0.246 OA
BRANCH  34  36
ATOM     36  C   UNL A   1      34.544  34.208  30.355  1.00  0.00     0.060 A 
ATOM     37  C   UNL A   1      35.811  34.763  30.131  1.00  0.00     0.016 A 
ATOM     38  C   UNL A   1      34.385  33.193  31.304  1.00  0.00     0.016 A 
ATOM     39  C   UNL A   1      36.923  34.294  30.835  1.00  0.00     0.010 A 
ATOM     40  C   UNL A   1      35.509  32.700  31.983  1.00  0.00     0.010 A 
ATOM     41  C   UNL A   1      36.788  33.228  31.732  1.00  0.00    -0.014 A 
BRANCH  41  42
ATOM     42  C   UNL A   1      38.005  32.545  32.247  1.00  0.00     0.031 A 
ATOM     43  C   UNL A   1      38.431  32.817  33.667  1.00  0.00     0.074 A 
ATOM     44  C   UNL A   1      38.703  31.672  31.497  1.00  0.00     0.049 A 
ATOM     45  N   UNL A   1      39.469  32.368  34.324  1.00  0.00    -0.248 NA
ATOM     46  C   UNL A   1      37.564  33.714  34.449  1.00  0.00     0.031 C 
ATOM     47  C   UNL A   1      38.364  31.265  30.134  1.00  0.00     0.029 A 
ATOM     48  N   UNL A   1      39.850  30.970  31.781  1.00  0.00    -0.354 N 
ATOM     49  C   UNL A   1      39.386  32.932  35.593  1.00  0.00     0.074 A 
ATOM     50  C   UNL A   1      38.210  33.777  35.604  1.00  0.00     0.031 C 
ATOM     51  C   UNL A   1      39.289  30.392  29.697  1.00  0.00     0.029 A 
ATOM     52  C   UNL A   1      40.307  30.206  30.733  1.00  0.00     0.049 A 
ATOM     53  H   UNL A   1      40.303  31.010  32.655  1.00  0.00     0.167 HD
ATOM     54  C   UNL A   1      40.209  32.764  36.655  1.00  0.00     0.031 A 
ATOM     55  C   UNL A   1      41.426  29.464  30.612  1.00  0.00     0.031 A 
ATOM     56  C   UNL A   1      41.389  31.940  36.638  1.00  0.00     0.049 A 
ATOM     57  C   UNL A   1      42.387  29.372  31.773  1.00  0.00     0.074 A 
ATOM     58  C   UNL A   1      42.285  31.704  37.666  1.00  0.00     0.029 A 
ATOM     59  N   UNL A   1      41.846  31.231  35.538  1.00  0.00    -0.354 N 
ATOM     60  N   UNL A   1      42.285  29.899  32.971  1.00  0.00    -0.248 NA
ATOM     61  C   UNL A   1      43.612  28.584  31.566  1.00  0.00     0.031 C 
ATOM     62  C   UNL A   1      43.321  30.907  37.168  1.00  0.00     0.029 A 
ATOM     63  C   UNL A   1      43.030  30.585  35.851  1.00  0.00     0.049 A 
ATOM     64  H   UNL A   1      41.394  31.191  34.664  1.00  0.00     0.167 HD
ATOM     65  C   UNL A   1      43.415  29.480  33.668  1.00  0.00     0.074 A 
ATOM     66  C   UNL A   1      44.181  28.647  32.763  1.00  0.00     0.031 C 
ATOM     67  C   UNL A   1      43.785  29.756  34.943  1.00  0.00     0.031 A 
BRANCH  54  68
ATOM     68  C   UNL A   1      39.886  33.524  37.914  1.00  0.00    -0.014 A 
ATOM     69  C   UNL A   1      38.971  33.025  38.858  1.00  0.00     0.010 A 
ATOM     70  C   UNL A   1      40.538  34.744  38.173  1.00  0.00     0.010 A 
ATOM     71  C   UNL A   1      38.685  33.749  40.018  1.00  0.00     0.020 A 
ATOM     72  C   UNL A   1      40.279  35.457  39.346  1.00  0.00     0.020 A 
ATOM     73  C   UNL A   1      39.341  34.962  40.253  1.00  0.00     0.054 A 
BRANCH  73  74
ATOM     74  S   UNL A   1      38.963  35.873  41.776  1.00  0.00     0.124 S 
ATOM     75  O   UNL A   1      38.933  37.255  41.300  1.00  0.00    -0.237 OA
ATOM     76  O   UNL A   1      37.673  35.315  42.169  1.00  0.00    -0.237 OA
ATOM     77  O   UNL A   1      40.078  35.546  42.662  1.00  0.00    -0.744 OA
ENDBRANCH  73  74
ENDBRANCH  54  68
BRANCH  55  78
ATOM     78  C   UNL A   1      41.728  28.767  29.328  1.00  0.00    -0.014 A 
ATOM     79  C   UNL A   1      42.184  29.484  28.207  1.00  0.00     0.010 A 
ATOM     80  C   UNL A   1      41.543  27.376  29.217  1.00  0.00     0.010 A 
ATOM     81  C   UNL A   1      42.432  28.827  26.997  1.00  0.00     0.020 A 
ATOM     82  C   UNL A   1      41.821  26.712  28.019  1.00  0.00     0.020 A 
ATOM     83  C   UNL A   1      42.253  27.444  26.912  1.00  0.00     0.054 A 
BRANCH  83  84
ATOM     84  S   UNL A   1      42.625  26.609  25.345  1.00  0.00     0.124 S 
ATOM     85  O   UNL A   1      43.732  25.737  25.722  1.00  0.00    -0.237 OA
ATOM     86  O   UNL A   1      41.364  25.938  25.042  1.00  0.00    -0.237 OA
ATOM     87  O   UNL A   1      42.971  27.708  24.447  1.00  0.00    -0.744 OA
ENDBRANCH  83  84
ENDBRANCH  55  78
BRANCH  67  88
ATOM     88  C   UNL A   1      45.054  29.130  35.464  1.00  0.00    -0.014 A 
ATOM     89  C   UNL A   1      45.033  27.924  36.185  1.00  0.00     0.010 A 
ATOM     90  C   UNL A   1      46.294  29.721  35.155  1.00  0.00     0.010 A 
ATOM     91  C   UNL A   1      46.228  27.332  36.607  1.00  0.00     0.020 A 
ATOM     92  C   UNL A   1      47.491  29.116  35.547  1.00  0.00     0.020 A 
ATOM     93  C   UNL A   1      47.450  27.929  36.281  1.00  0.00     0.054 A 
BRANCH  93  94
ATOM     94  S   UNL A   1      48.986  27.107  36.786  1.00  0.00     0.124 S 
ATOM     95  O   UNL A   1      48.608  25.697  36.737  1.00  0.00    -0.237 OA
ATOM     96  O   UNL A   1      49.932  27.539  35.760  1.00  0.00    -0.237 OA
ATOM     97  O   UNL A   1      49.240  27.637  38.123  1.00  0.00    -0.744 OA
ENDBRANCH  93  94
ENDBRANCH  67  88
ENDBRANCH  41  42
ENDBRANCH  34  36
ENDBRANCH  33  34
ENDBRANCH  32  33
ENDBRANCH  31  32
ENDBRANCH  30  31
ENDBRANCH  29  30
ENDBRANCH  28  29
ENDBRANCH   1  28
TORSDOF 27
ENDMDL
MODEL 3
REMARK VINA RESULT:      -8.8      5.245      9.503
REMARK SMILES NC(=O)c1ccc(N(CC(=O)OCCOCCOCCOCCOC(=O)c2ccc(-c3c4nc(c(-c5ccc(S(=O)(=O)[O-])cc5)c5ccc([nH]5)c(-c5ccc(S(=O)(=O)[O-])cc5)c5nc(c(-c6ccc(S(=O)(=O)[O-])cc6)c6ccc3[nH]6)C=C5)C=C4)cc2)C2CCCC2)nn1
REMARK SMILES IDX 18 1 17 2 16 3 15 4 14 5 13 6 12 7 10 8 11 9 9 10 8 11 7 12
REMARK SMILES IDX 4 13 5 14 93 15 6 16 92 17 2 18 1 19 3 22 87 23 88 24 91 25
REMARK SMILES IDX 89 26 90 27 19 28 20 29 21 30 22 31 23 32 24 33 25 34 26 35
REMARK SMILES IDX 27 36 28 37 86 38 29 39 85 40 30 41 31 42 32 43 79 44 33 45
REMARK SMILES IDX 84 46 78 47 80 48 34 49 83 50 77 51 76 52 35 54 65 55 46 56
REMARK SMILES IDX 64 57 47 58 50 59 63 60 81 61 48 62 49 63 62 65 82 66 51 67
REMARK SMILES IDX 36 68 37 69 45 70 38 71 44 72 39 73 40 74 41 75 42 76 43 77
REMARK SMILES IDX 66 78 67 79 75 80 68 81 74 82 69 83 70 84 71 85 72 86 73 87
REMARK SMILES IDX 52 88 53 89 61 90 54 91 60 92 55 93 56 94 57 95 58 96 59 97
REMARK H PARENT 1 20 1 21 80 53 50 64
REMARK Flexibility Score: inf
ROOT
ATOM      1  O   UNL A   1      31.890  26.842  24.721  1.00  0.00    -0.377 OA
ENDROOT
BRANCH   1   2
ATOM      2  C   UNL A   1      30.943  26.686  25.753  1.00  0.00     0.188 C 
BRANCH   2   3
ATOM      3  C   UNL A   1      29.893  25.599  25.515  1.00  0.00     0.188 C 
BRANCH   3   4
ATOM      4  O   UNL A   1      30.200  24.457  24.724  1.00  0.00    -0.376 OA
BRANCH   4   5
ATOM      5  C   UNL A   1      30.408  23.200  25.357  1.00  0.00     0.202 C 
BRANCH   5   6
ATOM      6  C   UNL A   1      30.359  23.146  26.903  1.00  0.00     0.261 C 
BRANCH   6   7
ATOM      7  O   UNL A   1      31.449  23.788  27.623  1.00  0.00    -0.462 OA
BRANCH   7   8
ATOM      8  C   UNL A   1      32.712  23.355  27.364  1.00  0.00     0.325 C 
ATOM      9  O   UNL A   1      33.111  22.237  27.697  1.00  0.00    -0.250 OA
BRANCH   8  10
ATOM     10  C   UNL A   1      33.586  24.225  26.428  1.00  0.00     0.241 C 
BRANCH  10  11
ATOM     11  N   UNL A   1      34.178  23.706  25.154  1.00  0.00    -0.341 N 
BRANCH  11  12
ATOM     12  C   UNL A   1      35.427  23.097  25.278  1.00  0.00     0.152 A 
ATOM     13  C   UNL A   1      37.901  21.848  25.480  1.00  0.00     0.150 A 
ATOM     14  C   UNL A   1      37.760  23.115  25.992  1.00  0.00     0.040 A 
ATOM     15  N   UNL A   1      36.884  21.226  24.860  1.00  0.00    -0.143 NA
ATOM     16  C   UNL A   1      36.516  23.726  25.883  1.00  0.00     0.051 A 
ATOM     17  N   UNL A   1      35.641  21.862  24.774  1.00  0.00    -0.132 NA
BRANCH  13  18
ATOM     18  C   UNL A   1      39.199  21.143  25.618  1.00  0.00     0.269 C 
ATOM     19  N   UNL A   1      40.299  21.947  25.809  1.00  0.00    -0.364 N 
ATOM     20  H   UNL A   1      41.191  21.543  25.909  1.00  0.00     0.160 HD
ATOM     21  H   UNL A   1      40.193  22.925  25.847  1.00  0.00     0.160 HD
ATOM     22  O   UNL A   1      39.304  19.929  25.528  1.00  0.00    -0.268 OA
ENDBRANCH  13  18
ENDBRANCH  11  12
BRANCH  11  23
ATOM     23  C   UNL A   1      33.278  23.491  24.001  1.00  0.00     0.084 C 
ATOM     24  C   UNL A   1      33.623  24.322  22.747  1.00  0.00     0.025 C 
ATOM     25  C   UNL A   1      33.121  22.043  23.525  1.00  0.00     0.025 C 
ATOM     26  C   UNL A   1      33.469  23.382  21.552  1.00  0.00     0.002 C 
ATOM     27  C   UNL A   1      32.667  22.200  22.076  1.00  0.00     0.002 C 
ENDBRANCH  11  23
ENDBRANCH  10  11
ENDBRANCH   8  10
ENDBRANCH   7   8
ENDBRANCH   6   7
ENDBRANCH   5   6
ENDBRANCH   4   5
ENDBRANCH   3   4
ENDBRANCH   2   3
ENDBRANCH   1   2
BRANCH   1  28
ATOM     28  C   UNL A   1      31.658  27.857  23.772  1.00  0.00     0.188 C 
BRANCH  28  29
ATOM     29  C   UNL A   1      30.900  29.073  24.309  1.00  0.00     0.188 C 
BRANCH  29  30
ATOM     30  O   UNL A   1      31.724  29.907  25.116  1.00  0.00    -0.376 OA
BRANCH  30  31
ATOM     31  C   UNL A   1      33.124  29.684  25.112  1.00  0.00     0.202 C 
BRANCH  31  32
ATOM     32  C   UNL A   1      33.845  29.281  26.413  1.00  0.00     0.261 C 
BRANCH  32  33
ATOM     33  O   UNL A   1      33.543  30.017  27.607  1.00  0.00    -0.460 OA
BRANCH  33  34
ATOM     34  C   UNL A   1      34.285  31.112  27.878  1.00  0.00     0.338 C 
ATOM     35  O   UNL A   1      33.898  32.269  27.843  1.00  0.00    -0.246 OA
BRANCH  34  36
ATOM     36  C   UNL A   1      35.595  30.673  28.419  1.00  0.00     0.060 A 
ATOM     37  C   UNL A   1      35.606  29.781  29.499  1.00  0.00     0.016 A 
ATOM     38  C   UNL A   1      36.801  31.131  27.879  1.00  0.00     0.016 A 
ATOM     39  C   UNL A   1      36.817  29.360  30.056  1.00  0.00     0.010 A 
ATOM     40  C   UNL A   1      38.014  30.734  28.463  1.00  0.00     0.010 A 
ATOM     41  C   UNL A   1      38.028  29.870  29.572  1.00  0.00    -0.014 A 
BRANCH  41  42
ATOM     42  C   UNL A   1      39.278  29.654  30.350  1.00  0.00     0.031 A 
ATOM     43  C   UNL A   1      40.233  28.585  29.886  1.00  0.00     0.074 A 
ATOM     44  C   UNL A   1      39.587  30.407  31.421  1.00  0.00     0.049 A 
ATOM     45  N   UNL A   1      41.362  28.193  30.416  1.00  0.00    -0.248 NA
ATOM     46  C   UNL A   1      39.863  27.867  28.655  1.00  0.00     0.031 C 
ATOM     47  C   UNL A   1      38.789  31.518  31.937  1.00  0.00     0.029 A 
ATOM     48  N   UNL A   1      40.666  30.346  32.272  1.00  0.00    -0.354 N 
ATOM     49  C   UNL A   1      41.835  27.178  29.590  1.00  0.00     0.074 A 
ATOM     50  C   UNL A   1      40.857  26.998  28.539  1.00  0.00     0.031 C 
ATOM     51  C   UNL A   1      39.400  32.027  33.022  1.00  0.00     0.029 A 
ATOM     52  C   UNL A   1      40.613  31.257  33.301  1.00  0.00     0.049 A 
ATOM     53  H   UNL A   1      41.408  29.709  32.155  1.00  0.00     0.167 HD
ATOM     54  C   UNL A   1      42.979  26.461  29.693  1.00  0.00     0.031 A 
ATOM     55  C   UNL A   1      41.431  31.433  34.358  1.00  0.00     0.031 A 
ATOM     56  C   UNL A   1      43.942  26.625  30.749  1.00  0.00     0.049 A 
ATOM     57  C   UNL A   1      42.648  30.552  34.512  1.00  0.00     0.074 A 
ATOM     58  C   UNL A   1      45.134  25.947  30.936  1.00  0.00     0.029 A 
ATOM     59  N   UNL A   1      43.820  27.519  31.802  1.00  0.00    -0.354 N 
ATOM     60  N   UNL A   1      43.088  29.609  33.713  1.00  0.00    -0.248 NA
ATOM     61  C   UNL A   1      43.478  30.762  35.708  1.00  0.00     0.031 C 
ATOM     62  C   UNL A   1      45.699  26.382  32.139  1.00  0.00     0.029 A 
ATOM     63  C   UNL A   1      44.897  27.384  32.662  1.00  0.00     0.049 A 
ATOM     64  H   UNL A   1      43.078  28.155  31.920  1.00  0.00     0.167 HD
ATOM     65  C   UNL A   1      44.262  29.136  34.295  1.00  0.00     0.074 A 
ATOM     66  C   UNL A   1      44.469  29.905  35.505  1.00  0.00     0.031 C 
ATOM     67  C   UNL A   1      45.095  28.156  33.864  1.00  0.00     0.031 A 
BRANCH  54  68
ATOM     68  C   UNL A   1      43.229  25.397  28.656  1.00  0.00    -0.014 A 
ATOM     69  C   UNL A   1      44.230  25.545  27.681  1.00  0.00     0.010 A 
ATOM     70  C   UNL A   1      42.471  24.212  28.685  1.00  0.00     0.010 A 
ATOM     71  C   UNL A   1      44.442  24.545  26.727  1.00  0.00     0.020 A 
ATOM     72  C   UNL A   1      42.700  23.196  27.753  1.00  0.00     0.020 A 
ATOM     73  C   UNL A   1      43.674  23.376  26.770  1.00  0.00     0.054 A 
BRANCH  73  74
ATOM     74  S   UNL A   1      43.983  22.088  25.532  1.00  0.00     0.124 S 
ATOM     75  O   UNL A   1      43.250  22.600  24.375  1.00  0.00    -0.237 OA
ATOM     76  O   UNL A   1      45.437  22.103  25.411  1.00  0.00    -0.237 OA
ATOM     77  O   UNL A   1      43.422  20.882  26.137  1.00  0.00    -0.744 OA
ENDBRANCH  73  74
ENDBRANCH  54  68
BRANCH  55  78
ATOM     78  C   UNL A   1      41.116  32.468  35.384  1.00  0.00    -0.014 A 
ATOM     79  C   UNL A   1      40.329  32.156  36.507  1.00  0.00     0.010 A 
ATOM     80  C   UNL A   1      41.593  33.784  35.233  1.00  0.00     0.010 A 
ATOM     81  C   UNL A   1      40.010  33.142  37.448  1.00  0.00     0.020 A 
ATOM     82  C   UNL A   1      41.303  34.764  36.186  1.00  0.00     0.020 A 
ATOM     83  C   UNL A   1      40.504  34.439  37.283  1.00  0.00     0.054 A 
BRANCH  83  84
ATOM     84  S   UNL A   1      40.114  35.688  38.540  1.00  0.00     0.124 S 
ATOM     85  O   UNL A   1      38.964  35.093  39.213  1.00  0.00    -0.237 OA
ATOM     86  O   UNL A   1      41.348  35.741  39.320  1.00  0.00    -0.237 OA
ATOM     87  O   UNL A   1      39.829  36.886  37.753  1.00  0.00    -0.744 OA
ENDBRANCH  83  84
ENDBRANCH  55  78
BRANCH  67  88
ATOM     88  C   UNL A   1      46.334  27.873  34.678  1.00  0.00    -0.014 A 
ATOM     89  C   UNL A   1      46.335  26.905  35.697  1.00  0.00     0.010 A 
ATOM     90  C   UNL A   1      47.536  28.532  34.359  1.00  0.00     0.010 A 
ATOM     91  C   UNL A   1      47.511  26.618  36.398  1.00  0.00     0.020 A 
ATOM     92  C   UNL A   1      48.720  28.226  35.036  1.00  0.00     0.020 A 
ATOM     93  C   UNL A   1      48.697  27.277  36.060  1.00  0.00     0.054 A 
BRANCH  93  94
ATOM     94  S   UNL A   1      50.220  26.840  36.943  1.00  0.00     0.124 S 
ATOM     95  O   UNL A   1      50.204  25.382  36.876  1.00  0.00    -0.237 OA
ATOM     96  O   UNL A   1      51.252  27.494  36.142  1.00  0.00    -0.237 OA
ATOM     97  O   UNL A   1      50.023  27.405  38.276  1.00  0.00    -0.744 OA
ENDBRANCH  93  94
ENDBRANCH  67  88
ENDBRANCH  41  42
ENDBRANCH  34  36
ENDBRANCH  33  34
ENDBRANCH  32  33
ENDBRANCH  31  32
ENDBRANCH  30  31
ENDBRANCH  29  30
ENDBRANCH  28  29
ENDBRANCH   1  28
TORSDOF 27
ENDMDL
