MODEL 1
REMARK VINA RESULT:      -9.3      0.000      0.000
REMARK SMILES O=C(OCCOCCOCCOCCOC(=O)[C@H]1CC=CC[C@H]1C(=O)N[C@@H]1CCN(c2cccc(Cl)c2)C1)c1ccc(-c2c3nc(c(-c4ccc(S(=O)(=O)[O-])cc4)c4ccc([nH]4)c(-c4ccc(S(=O)(=O)[O-])cc4)c4nc(c(-c5ccc(S(=O)(=O)[O-])cc5)c5ccc2[nH]5)C=C4)C=C3)cc1
REMARK SMILES IDX 9 1 8 2 7 3 6 4 5 5 4 6 3 7 2 8 1 9 39 10 40 11 98 12 41 13
REMARK SMILES IDX 97 14 42 15 43 16 44 17 91 18 45 19 96 20 90 21 92 22 46 23
REMARK SMILES IDX 95 24 89 25 88 26 47 28 77 29 58 30 76 31 59 32 62 33 75 34
REMARK SMILES IDX 93 35 60 36 61 37 74 39 94 40 63 41 48 42 49 43 57 44 50 45
REMARK SMILES IDX 56 46 51 47 52 48 53 49 54 50 55 51 78 52 79 53 87 54 80 55
REMARK SMILES IDX 86 56 81 57 82 58 83 59 84 60 85 61 64 62 65 63 73 64 66 65
REMARK SMILES IDX 72 66 67 67 68 68 69 69 70 70 71 71 10 72 11 73 12 74 13 75
REMARK SMILES IDX 14 76 15 77 16 78 17 79 18 80 19 81 23 82 20 83 22 84 21 85
REMARK SMILES IDX 24 86 25 87 26 88 27 90 28 91 38 92 29 93 30 94 31 95 32 96
REMARK SMILES IDX 37 97 33 98 35 99 34 100 36 101
REMARK H PARENT 92 27 62 38 26 89
REMARK Flexibility Score: inf
ROOT
ATOM      1  O   UNL A   1      35.419  31.518  29.479  1.00  0.00    -0.377 OA
ENDROOT
BRANCH   1   2
ATOM      2  C   UNL A   1      35.091  32.902  29.490  1.00  0.00     0.188 C 
BRANCH   2   3
ATOM      3  C   UNL A   1      34.447  33.309  30.797  1.00  0.00     0.188 C 
BRANCH   3   4
ATOM      4  O   UNL A   1      33.762  34.558  30.703  1.00  0.00    -0.376 OA
BRANCH   4   5
ATOM      5  C   UNL A   1      33.981  35.410  31.826  1.00  0.00     0.202 C 
BRANCH   5   6
ATOM      6  C   UNL A   1      34.257  34.670  33.143  1.00  0.00     0.261 C 
BRANCH   6   7
ATOM      7  O   UNL A   1      35.570  34.928  33.670  1.00  0.00    -0.460 OA
BRANCH   7   8
ATOM      8  C   UNL A   1      36.159  33.962  34.435  1.00  0.00     0.338 C 
ATOM      9  O   UNL A   1      35.955  33.828  35.625  1.00  0.00    -0.246 OA
BRANCH   8  10
ATOM     10  C   UNL A   1      37.334  33.360  33.766  1.00  0.00     0.060 A 
ATOM     11  C   UNL A   1      38.629  33.772  34.086  1.00  0.00     0.016 A 
ATOM     12  C   UNL A   1      37.128  32.299  32.869  1.00  0.00     0.016 A 
ATOM     13  C   UNL A   1      39.714  33.044  33.620  1.00  0.00     0.010 A 
ATOM     14  C   UNL A   1      38.226  31.598  32.354  1.00  0.00     0.010 A 
ATOM     15  C   UNL A   1      39.522  31.967  32.739  1.00  0.00    -0.014 A 
BRANCH  15  16
ATOM     16  C   UNL A   1      40.727  31.519  32.010  1.00  0.00     0.031 A 
ATOM     17  C   UNL A   1      41.242  32.496  30.995  1.00  0.00     0.074 A 
ATOM     18  C   UNL A   1      41.429  30.425  32.351  1.00  0.00     0.049 A 
ATOM     19  N   UNL A   1      42.437  32.609  30.491  1.00  0.00    -0.248 NA
ATOM     20  C   UNL A   1      40.293  33.541  30.560  1.00  0.00     0.031 C 
ATOM     21  C   UNL A   1      41.035  29.430  33.346  1.00  0.00     0.029 A 
ATOM     22  N   UNL A   1      42.654  29.987  31.915  1.00  0.00    -0.354 N 
ATOM     23  C   UNL A   1      42.410  33.792  29.767  1.00  0.00     0.074 A 
ATOM     24  C   UNL A   1      41.077  34.337  29.855  1.00  0.00     0.031 C 
ATOM     25  C   UNL A   1      42.004  28.500  33.452  1.00  0.00     0.029 A 
ATOM     26  C   UNL A   1      43.090  28.840  32.538  1.00  0.00     0.049 A 
ATOM     27  H   UNL A   1      43.173  30.452  31.219  1.00  0.00     0.167 HD
ATOM     28  C   UNL A   1      43.420  34.381  29.092  1.00  0.00     0.031 A 
ATOM     29  C   UNL A   1      44.246  28.161  32.381  1.00  0.00     0.031 A 
ATOM     30  C   UNL A   1      44.684  33.747  28.873  1.00  0.00     0.049 A 
ATOM     31  C   UNL A   1      45.288  28.738  31.452  1.00  0.00     0.074 A 
ATOM     32  C   UNL A   1      45.731  34.159  28.076  1.00  0.00     0.029 A 
ATOM     33  N   UNL A   1      45.040  32.523  29.422  1.00  0.00    -0.354 N 
ATOM     34  N   UNL A   1      45.274  29.884  30.810  1.00  0.00    -0.248 NA
ATOM     35  C   UNL A   1      46.502  27.939  31.234  1.00  0.00     0.031 C 
ATOM     36  C   UNL A   1      46.703  33.151  28.098  1.00  0.00     0.029 A 
ATOM     37  C   UNL A   1      46.279  32.142  28.952  1.00  0.00     0.049 A 
ATOM     38  H   UNL A   1      44.489  32.004  30.052  1.00  0.00     0.167 HD
ATOM     39  C   UNL A   1      46.485  29.953  30.128  1.00  0.00     0.074 A 
ATOM     40  C   UNL A   1      47.213  28.741  30.452  1.00  0.00     0.031 C 
ATOM     41  C   UNL A   1      46.958  30.922  29.305  1.00  0.00     0.031 A 
BRANCH  28  42
ATOM     42  C   UNL A   1      43.126  35.727  28.505  1.00  0.00    -0.014 A 
ATOM     43  C   UNL A   1      43.381  36.895  29.249  1.00  0.00     0.010 A 
ATOM     44  C   UNL A   1      42.511  35.828  27.247  1.00  0.00     0.010 A 
ATOM     45  C   UNL A   1      42.993  38.142  28.756  1.00  0.00     0.020 A 
ATOM     46  C   UNL A   1      42.134  37.076  26.746  1.00  0.00     0.020 A 
ATOM     47  C   UNL A   1      42.361  38.223  27.512  1.00  0.00     0.054 A 
BRANCH  47  48
ATOM     48  S   UNL A   1      41.847  39.851  26.903  1.00  0.00     0.124 S 
ATOM     49  O   UNL A   1      41.411  40.508  28.132  1.00  0.00    -0.237 OA
ATOM     50  O   UNL A   1      43.074  40.377  26.312  1.00  0.00    -0.237 OA
ATOM     51  O   UNL A   1      40.783  39.543  25.950  1.00  0.00    -0.744 OA
ENDBRANCH  47  48
ENDBRANCH  28  42
BRANCH  29  52
ATOM     52  C   UNL A   1      44.480  26.861  33.078  1.00  0.00    -0.014 A 
ATOM     53  C   UNL A   1      45.031  26.809  34.371  1.00  0.00     0.010 A 
ATOM     54  C   UNL A   1      44.209  25.652  32.410  1.00  0.00     0.010 A 
ATOM     55  C   UNL A   1      45.339  25.577  34.966  1.00  0.00     0.020 A 
ATOM     56  C   UNL A   1      44.494  24.420  33.008  1.00  0.00     0.020 A 
ATOM     57  C   UNL A   1      45.076  24.390  34.276  1.00  0.00     0.054 A 
BRANCH  57  58
ATOM     58  S   UNL A   1      45.479  22.799  35.058  1.00  0.00     0.124 S 
ATOM     59  O   UNL A   1      45.117  23.046  36.449  1.00  0.00    -0.237 OA
ATOM     60  O   UNL A   1      44.620  21.863  34.336  1.00  0.00    -0.237 OA
ATOM     61  O   UNL A   1      46.909  22.648  34.798  1.00  0.00    -0.744 OA
ENDBRANCH  57  58
ENDBRANCH  29  52
BRANCH  41  62
ATOM     62  C   UNL A   1      48.322  30.712  28.712  1.00  0.00    -0.014 A 
ATOM     63  C   UNL A   1      49.459  31.286  29.306  1.00  0.00     0.010 A 
ATOM     64  C   UNL A   1      48.471  29.860  27.604  1.00  0.00     0.010 A 
ATOM     65  C   UNL A   1      50.727  31.025  28.785  1.00  0.00     0.020 A 
ATOM     66  C   UNL A   1      49.740  29.579  27.096  1.00  0.00     0.020 A 
ATOM     67  C   UNL A   1      50.859  30.174  27.683  1.00  0.00     0.054 A 
BRANCH  67  68
ATOM     68  S   UNL A   1      52.519  29.795  27.061  1.00  0.00     0.124 S 
ATOM     69  O   UNL A   1      52.233  29.321  25.710  1.00  0.00    -0.237 OA
ATOM     70  O   UNL A   1      53.199  31.086  27.144  1.00  0.00    -0.237 OA
ATOM     71  O   UNL A   1      53.010  28.779  27.989  1.00  0.00    -0.744 OA
ENDBRANCH  67  68
ENDBRANCH  41  62
ENDBRANCH  15  16
ENDBRANCH   8  10
ENDBRANCH   7   8
ENDBRANCH   6   7
ENDBRANCH   5   6
ENDBRANCH   4   5
ENDBRANCH   3   4
ENDBRANCH   2   3
ENDBRANCH   1   2
BRANCH   1  72
ATOM     72  C   UNL A   1      35.633  31.024  28.153  1.00  0.00     0.188 C 
BRANCH  72  73
ATOM     73  C   UNL A   1      34.354  31.144  27.321  1.00  0.00     0.188 C 
BRANCH  73  74
ATOM     74  O   UNL A   1      33.239  30.375  27.772  1.00  0.00    -0.376 OA
BRANCH  74  75
ATOM     75  C   UNL A   1      32.428  29.744  26.783  1.00  0.00     0.202 C 
BRANCH  75  76
ATOM     76  C   UNL A   1      32.321  28.214  26.856  1.00  0.00     0.261 C 
BRANCH  76  77
ATOM     77  O   UNL A   1      31.920  27.593  25.617  1.00  0.00    -0.463 OA
BRANCH  77  78
ATOM     78  C   UNL A   1      30.984  26.623  25.774  1.00  0.00     0.310 C 
ATOM     79  O   UNL A   1      30.662  26.157  26.862  1.00  0.00    -0.252 OA
BRANCH  78  80
ATOM     80  C   UNL A   1      30.305  26.202  24.485  1.00  0.00     0.115 C 
ATOM     81  C   UNL A   1      29.832  27.381  23.616  1.00  0.00     0.043 C 
ATOM     82  C   UNL A   1      30.911  25.038  23.686  1.00  0.00     0.096 C 
ATOM     83  C   UNL A   1      30.650  27.642  22.392  1.00  0.00    -0.030 C 
ATOM     84  C   UNL A   1      31.666  25.356  22.383  1.00  0.00     0.041 C 
ATOM     85  C   UNL A   1      31.471  26.739  21.846  1.00  0.00    -0.030 C 
BRANCH  82  86
ATOM     86  C   UNL A   1      31.491  23.859  24.474  1.00  0.00     0.224 C 
ATOM     87  O   UNL A   1      30.692  23.089  25.029  1.00  0.00    -0.275 OA
ATOM     88  N   UNL A   1      32.789  23.498  24.594  1.00  0.00    -0.351 N 
ATOM     89  H   UNL A   1      32.874  22.562  24.884  1.00  0.00     0.163 HD
BRANCH  88  90
ATOM     90  C   UNL A   1      34.110  24.126  24.410  1.00  0.00     0.103 C 
ATOM     91  C   UNL A   1      35.015  23.386  23.458  1.00  0.00     0.048 C 
ATOM     92  C   UNL A   1      34.995  24.069  25.710  1.00  0.00     0.141 C 
ATOM     93  C   UNL A   1      35.451  22.194  24.306  1.00  0.00     0.119 C 
ATOM     94  N   UNL A   1      35.806  22.833  25.582  1.00  0.00    -0.369 N 
BRANCH  94  95
ATOM     95  C   UNL A   1      37.192  22.830  25.785  1.00  0.00     0.038 A 
ATOM     96  C   UNL A   1      37.991  21.693  25.588  1.00  0.00     0.026 A 
ATOM     97  C   UNL A   1      37.790  23.951  26.381  1.00  0.00     0.046 A 
ATOM     98  C   UNL A   1      39.329  21.661  26.001  1.00  0.00     0.004 A 
ATOM     99  C   UNL A   1      39.131  23.928  26.772  1.00  0.00     0.043 A 
ATOM    100  C   UNL A   1      39.901  22.782  26.595  1.00  0.00     0.020 A 
ATOM    101  Cl  UNL A   1      39.839  25.321  27.494  1.00  0.00    -0.084 Cl
ENDBRANCH  94  95
ENDBRANCH  88  90
ENDBRANCH  82  86
ENDBRANCH  78  80
ENDBRANCH  77  78
ENDBRANCH  76  77
ENDBRANCH  75  76
ENDBRANCH  74  75
ENDBRANCH  73  74
ENDBRANCH  72  73
ENDBRANCH   1  72
TORSDOF 26
ENDMDL
MODEL 2
REMARK VINA RESULT:      -8.4      4.107      7.622
REMARK SMILES O=C(OCCOCCOCCOCCOC(=O)[C@H]1CC=CC[C@H]1C(=O)N[C@@H]1CCN(c2cccc(Cl)c2)C1)c1ccc(-c2c3nc(c(-c4ccc(S(=O)(=O)[O-])cc4)c4ccc([nH]4)c(-c4ccc(S(=O)(=O)[O-])cc4)c4nc(c(-c5ccc(S(=O)(=O)[O-])cc5)c5ccc2[nH]5)C=C4)C=C3)cc1
REMARK SMILES IDX 9 1 8 2 7 3 6 4 5 5 4 6 3 7 2 8 1 9 39 10 40 11 98 12 41 13
REMARK SMILES IDX 97 14 42 15 43 16 44 17 91 18 45 19 96 20 90 21 92 22 46 23
REMARK SMILES IDX 95 24 89 25 88 26 47 28 77 29 58 30 76 31 59 32 62 33 75 34
REMARK SMILES IDX 93 35 60 36 61 37 74 39 94 40 63 41 48 42 49 43 57 44 50 45
REMARK SMILES IDX 56 46 51 47 52 48 53 49 54 50 55 51 78 52 79 53 87 54 80 55
REMARK SMILES IDX 86 56 81 57 82 58 83 59 84 60 85 61 64 62 65 63 73 64 66 65
REMARK SMILES IDX 72 66 67 67 68 68 69 69 70 70 71 71 10 72 11 73 12 74 13 75
REMARK SMILES IDX 14 76 15 77 16 78 17 79 18 80 19 81 23 82 20 83 22 84 21 85
REMARK SMILES IDX 24 86 25 87 26 88 27 90 28 91 38 92 29 93 30 94 31 95 32 96
REMARK SMILES IDX 37 97 33 98 35 99 34 100 36 101
REMARK H PARENT 92 27 62 38 26 89
REMARK Flexibility Score: inf
ROOT
ATOM      1  O   UNL A   1      33.690  34.037  28.042  1.00  0.00    -0.377 OA
ENDROOT
BRANCH   1   2
ATOM      2  C   UNL A   1      33.473  34.882  29.165  1.00  0.00     0.188 C 
BRANCH   2   3
ATOM      3  C   UNL A   1      34.241  34.401  30.377  1.00  0.00     0.188 C 
BRANCH   3   4
ATOM      4  O   UNL A   1      33.543  34.643  31.598  1.00  0.00    -0.376 OA
BRANCH   4   5
ATOM      5  C   UNL A   1      34.241  34.179  32.752  1.00  0.00     0.202 C 
BRANCH   5   6
ATOM      6  C   UNL A   1      34.714  35.291  33.701  1.00  0.00     0.261 C 
BRANCH   6   7
ATOM      7  O   UNL A   1      36.144  35.328  33.858  1.00  0.00    -0.460 OA
BRANCH   7   8
ATOM      8  C   UNL A   1      36.789  34.165  34.164  1.00  0.00     0.338 C 
ATOM      9  O   UNL A   1      36.446  33.420  35.061  1.00  0.00    -0.246 OA
BRANCH   8  10
ATOM     10  C   UNL A   1      38.141  34.101  33.564  1.00  0.00     0.060 A 
ATOM     11  C   UNL A   1      39.257  33.796  34.344  1.00  0.00     0.016 A 
ATOM     12  C   UNL A   1      38.268  34.263  32.175  1.00  0.00     0.016 A 
ATOM     13  C   UNL A   1      40.469  33.519  33.727  1.00  0.00     0.010 A 
ATOM     14  C   UNL A   1      39.506  34.039  31.557  1.00  0.00     0.010 A 
ATOM     15  C   UNL A   1      40.606  33.657  32.336  1.00  0.00    -0.014 A 
BRANCH  15  16
ATOM     16  C   UNL A   1      41.996  33.722  31.837  1.00  0.00     0.031 A 
ATOM     17  C   UNL A   1      42.400  32.572  30.963  1.00  0.00     0.074 A 
ATOM     18  C   UNL A   1      42.777  34.806  31.978  1.00  0.00     0.049 A 
ATOM     19  N   UNL A   1      43.347  32.506  30.073  1.00  0.00    -0.248 NA
ATOM     20  C   UNL A   1      41.557  31.362  31.051  1.00  0.00     0.031 C 
ATOM     21  C   UNL A   1      42.466  35.989  32.777  1.00  0.00     0.029 A 
ATOM     22  N   UNL A   1      43.994  35.100  31.414  1.00  0.00    -0.354 N 
ATOM     23  C   UNL A   1      43.146  31.295  29.425  1.00  0.00     0.074 A 
ATOM     24  C   UNL A   1      42.024  30.638  30.050  1.00  0.00     0.031 C 
ATOM     25  C   UNL A   1      43.461  36.888  32.646  1.00  0.00     0.029 A 
ATOM     26  C   UNL A   1      44.476  36.345  31.748  1.00  0.00     0.049 A 
ATOM     27  H   UNL A   1      44.476  34.476  30.826  1.00  0.00     0.167 HD
ATOM     28  C   UNL A   1      43.838  30.778  28.387  1.00  0.00     0.031 A 
ATOM     29  C   UNL A   1      45.608  36.964  31.353  1.00  0.00     0.031 A 
ATOM     30  C   UNL A   1      45.047  31.360  27.892  1.00  0.00     0.049 A 
ATOM     31  C   UNL A   1      46.480  36.268  30.335  1.00  0.00     0.074 A 
ATOM     32  C   UNL A   1      45.929  30.857  26.958  1.00  0.00     0.029 A 
ATOM     33  N   UNL A   1      45.569  32.563  28.345  1.00  0.00    -0.354 N 
ATOM     34  N   UNL A   1      46.257  35.145  29.690  1.00  0.00    -0.248 NA
ATOM     35  C   UNL A   1      47.748  36.923  29.983  1.00  0.00     0.031 C 
ATOM     36  C   UNL A   1      47.019  31.733  26.889  1.00  0.00     0.029 A 
ATOM     37  C   UNL A   1      46.784  32.805  27.739  1.00  0.00     0.049 A 
ATOM     38  H   UNL A   1      45.137  33.155  29.002  1.00  0.00     0.167 HD
ATOM     39  C   UNL A   1      47.346  34.969  28.843  1.00  0.00     0.074 A 
ATOM     40  C   UNL A   1      48.217  36.112  29.044  1.00  0.00     0.031 C 
ATOM     41  C   UNL A   1      47.613  33.959  27.978  1.00  0.00     0.031 A 
BRANCH  28  42
ATOM     42  C   UNL A   1      43.311  29.500  27.814  1.00  0.00    -0.014 A 
ATOM     43  C   UNL A   1      42.493  29.522  26.667  1.00  0.00     0.010 A 
ATOM     44  C   UNL A   1      43.553  28.281  28.467  1.00  0.00     0.010 A 
ATOM     45  C   UNL A   1      41.899  28.347  26.204  1.00  0.00     0.020 A 
ATOM     46  C   UNL A   1      42.971  27.102  27.998  1.00  0.00     0.020 A 
ATOM     47  C   UNL A   1      42.133  27.145  26.880  1.00  0.00     0.054 A 
BRANCH  47  48
ATOM     48  S   UNL A   1      41.333  25.636  26.272  1.00  0.00     0.124 S 
ATOM     49  O   UNL A   1      41.636  25.690  24.844  1.00  0.00    -0.237 OA
ATOM     50  O   UNL A   1      42.017  24.586  27.020  1.00  0.00    -0.237 OA
ATOM     51  O   UNL A   1      39.927  25.828  26.618  1.00  0.00    -0.744 OA
ENDBRANCH  47  48
ENDBRANCH  28  42
BRANCH  29  52
ATOM     52  C   UNL A   1      46.008  38.284  31.925  1.00  0.00    -0.014 A 
ATOM     53  C   UNL A   1      46.736  38.376  33.125  1.00  0.00     0.010 A 
ATOM     54  C   UNL A   1      45.596  39.473  31.293  1.00  0.00     0.010 A 
ATOM     55  C   UNL A   1      47.012  39.624  33.699  1.00  0.00     0.020 A 
ATOM     56  C   UNL A   1      45.889  40.722  31.851  1.00  0.00     0.020 A 
ATOM     57  C   UNL A   1      46.579  40.791  33.062  1.00  0.00     0.054 A 
BRANCH  57  58
ATOM     58  S   UNL A   1      46.943  42.404  33.814  1.00  0.00     0.124 S 
ATOM     59  O   UNL A   1      45.695  42.702  34.510  1.00  0.00    -0.237 OA
ATOM     60  O   UNL A   1      48.089  42.106  34.669  1.00  0.00    -0.237 OA
ATOM     61  O   UNL A   1      47.238  43.255  32.663  1.00  0.00    -0.744 OA
ENDBRANCH  57  58
ENDBRANCH  29  52
BRANCH  41  62
ATOM     62  C   UNL A   1      48.884  34.052  27.185  1.00  0.00    -0.014 A 
ATOM     63  C   UNL A   1      50.077  33.490  27.671  1.00  0.00     0.010 A 
ATOM     64  C   UNL A   1      48.859  34.629  25.904  1.00  0.00     0.010 A 
ATOM     65  C   UNL A   1      51.234  33.523  26.892  1.00  0.00     0.020 A 
ATOM     66  C   UNL A   1      50.009  34.642  25.113  1.00  0.00     0.020 A 
ATOM     67  C   UNL A   1      51.192  34.099  25.618  1.00  0.00     0.054 A 
BRANCH  67  68
ATOM     68  S   UNL A   1      52.688  34.074  24.594  1.00  0.00     0.124 S 
ATOM     69  O   UNL A   1      52.268  33.249  23.466  1.00  0.00    -0.237 OA
ATOM     70  O   UNL A   1      52.899  35.489  24.294  1.00  0.00    -0.237 OA
ATOM     71  O   UNL A   1      53.693  33.474  25.468  1.00  0.00    -0.744 OA
ENDBRANCH  67  68
ENDBRANCH  41  62
ENDBRANCH  15  16
ENDBRANCH   8  10
ENDBRANCH   7   8
ENDBRANCH   6   7
ENDBRANCH   5   6
ENDBRANCH   4   5
ENDBRANCH   3   4
ENDBRANCH   2   3
ENDBRANCH   1   2
BRANCH   1  72
ATOM     72  C   UNL A   1      34.271  32.783  28.415  1.00  0.00     0.188 C 
BRANCH  72  73
ATOM     73  C   UNL A   1      33.534  31.625  27.739  1.00  0.00     0.188 C 
BRANCH  73  74
ATOM     74  O   UNL A   1      32.464  31.988  26.866  1.00  0.00    -0.376 OA
BRANCH  74  75
ATOM     75  C   UNL A   1      31.573  30.955  26.448  1.00  0.00     0.202 C 
BRANCH  75  76
ATOM     76  C   UNL A   1      31.888  30.278  25.106  1.00  0.00     0.261 C 
BRANCH  76  77
ATOM     77  O   UNL A   1      33.277  29.926  24.937  1.00  0.00    -0.463 OA
BRANCH  77  78
ATOM     78  C   UNL A   1      33.463  28.732  24.320  1.00  0.00     0.310 C 
ATOM     79  O   UNL A   1      33.758  28.617  23.134  1.00  0.00    -0.252 OA
BRANCH  78  80
ATOM     80  C   UNL A   1      33.343  27.532  25.239  1.00  0.00     0.115 C 
ATOM     81  C   UNL A   1      33.689  27.837  26.708  1.00  0.00     0.043 C 
ATOM     82  C   UNL A   1      32.143  26.590  25.060  1.00  0.00     0.096 C 
ATOM     83  C   UNL A   1      32.521  27.907  27.639  1.00  0.00    -0.030 C 
ATOM     84  C   UNL A   1      31.009  26.640  26.099  1.00  0.00     0.041 C 
ATOM     85  C   UNL A   1      31.325  27.375  27.364  1.00  0.00    -0.030 C 
BRANCH  82  86
ATOM     86  C   UNL A   1      31.670  26.303  23.632  1.00  0.00     0.224 C 
ATOM     87  O   UNL A   1      30.594  26.802  23.270  1.00  0.00    -0.275 OA
ATOM     88  N   UNL A   1      32.317  25.613  22.665  1.00  0.00    -0.351 N 
ATOM     89  H   UNL A   1      31.959  25.826  21.773  1.00  0.00     0.163 HD
BRANCH  88  90
ATOM     90  C   UNL A   1      33.412  24.628  22.583  1.00  0.00     0.103 C 
ATOM     91  C   UNL A   1      33.058  23.377  21.820  1.00  0.00     0.048 C 
ATOM     92  C   UNL A   1      33.762  23.993  23.980  1.00  0.00     0.141 C 
ATOM     93  C   UNL A   1      32.172  22.642  22.822  1.00  0.00     0.119 C 
ATOM     94  N   UNL A   1      32.948  22.755  24.065  1.00  0.00    -0.369 N 
BRANCH  94  95
ATOM     95  C   UNL A   1      33.505  21.524  24.433  1.00  0.00     0.038 A 
ATOM     96  C   UNL A   1      34.870  21.356  24.716  1.00  0.00     0.026 A 
ATOM     97  C   UNL A   1      32.712  20.369  24.344  1.00  0.00     0.046 A 
ATOM     98  C   UNL A   1      35.432  20.083  24.871  1.00  0.00     0.004 A 
ATOM     99  C   UNL A   1      33.267  19.100  24.522  1.00  0.00     0.043 A 
ATOM    100  C   UNL A   1      34.628  18.951  24.774  1.00  0.00     0.020 A 
ATOM    101  Cl  UNL A   1      32.268  17.703  24.415  1.00  0.00    -0.084 Cl
ENDBRANCH  94  95
ENDBRANCH  88  90
ENDBRANCH  82  86
ENDBRANCH  78  80
ENDBRANCH  77  78
ENDBRANCH  76  77
ENDBRANCH  75  76
ENDBRANCH  74  75
ENDBRANCH  73  74
ENDBRANCH  72  73
ENDBRANCH   1  72
TORSDOF 26
ENDMDL
MODEL 3
REMARK VINA RESULT:      -8.4      4.447      7.835
REMARK SMILES O=C(OCCOCCOCCOCCOC(=O)[C@H]1CC=CC[C@H]1C(=O)N[C@@H]1CCN(c2cccc(Cl)c2)C1)c1ccc(-c2c3nc(c(-c4ccc(S(=O)(=O)[O-])cc4)c4ccc([nH]4)c(-c4ccc(S(=O)(=O)[O-])cc4)c4nc(c(-c5ccc(S(=O)(=O)[O-])cc5)c5ccc2[nH]5)C=C4)C=C3)cc1
REMARK SMILES IDX 9 1 8 2 7 3 6 4 5 5 4 6 3 7 2 8 1 9 39 10 40 11 98 12 41 13
REMARK SMILES IDX 97 14 42 15 43 16 44 17 91 18 45 19 96 20 90 21 92 22 46 23
REMARK SMILES IDX 95 24 89 25 88 26 47 28 77 29 58 30 76 31 59 32 62 33 75 34
REMARK SMILES IDX 93 35 60 36 61 37 74 39 94 40 63 41 48 42 49 43 57 44 50 45
REMARK SMILES IDX 56 46 51 47 52 48 53 49 54 50 55 51 78 52 79 53 87 54 80 55
REMARK SMILES IDX 86 56 81 57 82 58 83 59 84 60 85 61 64 62 65 63 73 64 66 65
REMARK SMILES IDX 72 66 67 67 68 68 69 69 70 70 71 71 10 72 11 73 12 74 13 75
REMARK SMILES IDX 14 76 15 77 16 78 17 79 18 80 19 81 23 82 20 83 22 84 21 85
REMARK SMILES IDX 24 86 25 87 26 88 27 90 28 91 38 92 29 93 30 94 31 95 32 96
REMARK SMILES IDX 37 97 33 98 35 99 34 100 36 101
REMARK H PARENT 92 27 62 38 26 89
REMARK Flexibility Score: inf
ROOT
ATOM      1  O   UNL A   1      33.714  34.011  28.091  1.00  0.00    -0.377 OA
ENDROOT
BRANCH   1   2
ATOM      2  C   UNL A   1      33.561  34.751  29.297  1.00  0.00     0.188 C 
BRANCH   2   3
ATOM      3  C   UNL A   1      34.442  34.203  30.398  1.00  0.00     0.188 C 
BRANCH   3   4
ATOM      4  O   UNL A   1      33.768  34.136  31.655  1.00  0.00    -0.376 OA
BRANCH   4   5
ATOM      5  C   UNL A   1      34.573  33.599  32.702  1.00  0.00     0.202 C 
BRANCH   5   6
ATOM      6  C   UNL A   1      34.779  34.543  33.897  1.00  0.00     0.261 C 
BRANCH   6   7
ATOM      7  O   UNL A   1      36.165  34.803  34.179  1.00  0.00    -0.460 OA
BRANCH   7   8
ATOM      8  C   UNL A   1      36.975  33.741  34.462  1.00  0.00     0.338 C 
ATOM      9  O   UNL A   1      36.700  32.883  35.277  1.00  0.00    -0.246 OA
BRANCH   8  10
ATOM     10  C   UNL A   1      38.358  33.948  33.976  1.00  0.00     0.060 A 
ATOM     11  C   UNL A   1      39.453  33.683  34.798  1.00  0.00     0.016 A 
ATOM     12  C   UNL A   1      38.551  34.327  32.637  1.00  0.00     0.016 A 
ATOM     13  C   UNL A   1      40.730  33.665  34.255  1.00  0.00     0.010 A 
ATOM     14  C   UNL A   1      39.845  34.364  32.102  1.00  0.00     0.010 A 
ATOM     15  C   UNL A   1      40.936  34.022  32.912  1.00  0.00    -0.014 A 
BRANCH  15  16
ATOM     16  C   UNL A   1      42.331  34.345  32.546  1.00  0.00     0.031 A 
ATOM     17  C   UNL A   1      42.944  33.414  31.541  1.00  0.00     0.074 A 
ATOM     18  C   UNL A   1      42.944  35.482  32.917  1.00  0.00     0.049 A 
ATOM     19  N   UNL A   1      43.944  33.617  30.733  1.00  0.00    -0.248 NA
ATOM     20  C   UNL A   1      42.274  32.109  31.372  1.00  0.00     0.031 C 
ATOM     21  C   UNL A   1      42.422  36.468  33.860  1.00  0.00     0.029 A 
ATOM     22  N   UNL A   1      44.140  36.016  32.508  1.00  0.00    -0.354 N 
ATOM     23  C   UNL A   1      43.954  32.513  29.892  1.00  0.00     0.074 A 
ATOM     24  C   UNL A   1      42.898  31.624  30.313  1.00  0.00     0.031 C 
ATOM     25  C   UNL A   1      43.289  37.496  33.952  1.00  0.00     0.029 A 
ATOM     26  C   UNL A   1      44.423  37.241  33.068  1.00  0.00     0.049 A 
ATOM     27  H   UNL A   1      44.740  35.565  31.872  1.00  0.00     0.167 HD
ATOM     28  C   UNL A   1      44.773  32.266  28.848  1.00  0.00     0.031 A 
ATOM     29  C   UNL A   1      45.480  38.056  32.869  1.00  0.00     0.031 A 
ATOM     30  C   UNL A   1      45.918  33.070  28.550  1.00  0.00     0.049 A 
ATOM     31  C   UNL A   1      46.501  37.653  31.831  1.00  0.00     0.074 A 
ATOM     32  C   UNL A   1      46.917  32.844  27.627  1.00  0.00     0.029 A 
ATOM     33  N   UNL A   1      46.238  34.239  29.225  1.00  0.00    -0.354 N 
ATOM     34  N   UNL A   1      46.476  36.632  31.005  1.00  0.00    -0.248 NA
ATOM     35  C   UNL A   1      47.685  38.513  31.691  1.00  0.00     0.031 C 
ATOM     36  C   UNL A   1      47.877  33.851  27.784  1.00  0.00     0.029 A 
ATOM     37  C   UNL A   1      47.443  34.730  28.767  1.00  0.00     0.049 A 
ATOM     38  H   UNL A   1      45.688  34.656  29.928  1.00  0.00     0.167 HD
ATOM     39  C   UNL A   1      47.629  36.737  30.234  1.00  0.00     0.074 A 
ATOM     40  C   UNL A   1      48.319  37.933  30.681  1.00  0.00     0.031 C 
ATOM     41  C   UNL A   1      48.087  35.925  29.249  1.00  0.00     0.031 A 
BRANCH  28  42
ATOM     42  C   UNL A   1      44.465  31.042  28.042  1.00  0.00    -0.014 A 
ATOM     43  C   UNL A   1      43.487  31.087  27.031  1.00  0.00     0.010 A 
ATOM     44  C   UNL A   1      45.085  29.821  28.351  1.00  0.00     0.010 A 
ATOM     45  C   UNL A   1      43.109  29.921  26.364  1.00  0.00     0.020 A 
ATOM     46  C   UNL A   1      44.719  28.654  27.676  1.00  0.00     0.020 A 
ATOM     47  C   UNL A   1      43.720  28.709  26.699  1.00  0.00     0.054 A 
BRANCH  47  48
ATOM     48  S   UNL A   1      43.198  27.203  25.834  1.00  0.00     0.124 S 
ATOM     49  O   UNL A   1      44.461  26.485  25.693  1.00  0.00    -0.237 OA
ATOM     50  O   UNL A   1      42.241  26.613  26.765  1.00  0.00    -0.237 OA
ATOM     51  O   UNL A   1      42.623  27.703  24.588  1.00  0.00    -0.744 OA
ENDBRANCH  47  48
ENDBRANCH  28  42
BRANCH  29  52
ATOM     52  C   UNL A   1      45.657  39.304  33.669  1.00  0.00    -0.014 A 
ATOM     53  C   UNL A   1      46.239  39.281  34.949  1.00  0.00     0.010 A 
ATOM     54  C   UNL A   1      45.173  40.528  33.169  1.00  0.00     0.010 A 
ATOM     55  C   UNL A   1      46.302  40.447  35.725  1.00  0.00     0.020 A 
ATOM     56  C   UNL A   1      45.254  41.699  33.931  1.00  0.00     0.020 A 
ATOM     57  C   UNL A   1      45.800  41.647  35.214  1.00  0.00     0.054 A 
BRANCH  57  58
ATOM     58  S   UNL A   1      45.887  43.152  36.229  1.00  0.00     0.124 S 
ATOM     59  O   UNL A   1      47.299  43.186  36.599  1.00  0.00    -0.237 OA
ATOM     60  O   UNL A   1      45.451  44.190  35.299  1.00  0.00    -0.237 OA
ATOM     61  O   UNL A   1      44.959  42.876  37.323  1.00  0.00    -0.744 OA
ENDBRANCH  57  58
ENDBRANCH  29  52
BRANCH  41  62
ATOM     62  C   UNL A   1      49.379  36.309  28.588  1.00  0.00    -0.014 A 
ATOM     63  C   UNL A   1      49.389  37.156  27.467  1.00  0.00     0.010 A 
ATOM     64  C   UNL A   1      50.596  35.888  29.151  1.00  0.00     0.010 A 
ATOM     65  C   UNL A   1      50.601  37.561  26.906  1.00  0.00     0.020 A 
ATOM     66  C   UNL A   1      51.809  36.310  28.607  1.00  0.00     0.020 A 
ATOM     67  C   UNL A   1      51.803  37.135  27.480  1.00  0.00     0.054 A 
BRANCH  67  68
ATOM     68  S   UNL A   1      53.367  37.723  26.778  1.00  0.00     0.124 S 
ATOM     69  O   UNL A   1      52.982  39.019  26.227  1.00  0.00    -0.237 OA
ATOM     70  O   UNL A   1      54.248  37.772  27.944  1.00  0.00    -0.237 OA
ATOM     71  O   UNL A   1      53.708  36.701  25.792  1.00  0.00    -0.744 OA
ENDBRANCH  67  68
ENDBRANCH  41  62
ENDBRANCH  15  16
ENDBRANCH   8  10
ENDBRANCH   7   8
ENDBRANCH   6   7
ENDBRANCH   5   6
ENDBRANCH   4   5
ENDBRANCH   3   4
ENDBRANCH   2   3
ENDBRANCH   1   2
BRANCH   1  72
ATOM     72  C   UNL A   1      34.318  32.734  28.315  1.00  0.00     0.188 C 
BRANCH  72  73
ATOM     73  C   UNL A   1      33.506  31.627  27.639  1.00  0.00     0.188 C 
BRANCH  73  74
ATOM     74  O   UNL A   1      32.394  32.057  26.853  1.00  0.00    -0.376 OA
BRANCH  74  75
ATOM     75  C   UNL A   1      31.429  31.075  26.482  1.00  0.00     0.202 C 
BRANCH  75  76
ATOM     76  C   UNL A   1      31.694  30.311  25.177  1.00  0.00     0.261 C 
BRANCH  76  77
ATOM     77  O   UNL A   1      33.072  29.930  24.988  1.00  0.00    -0.463 OA
BRANCH  77  78
ATOM     78  C   UNL A   1      33.224  28.716  24.402  1.00  0.00     0.310 C 
ATOM     79  O   UNL A   1      33.480  28.561  23.212  1.00  0.00    -0.252 OA
BRANCH  78  80
ATOM     80  C   UNL A   1      33.120  27.546  25.362  1.00  0.00     0.115 C 
ATOM     81  C   UNL A   1      33.503  27.895  26.811  1.00  0.00     0.043 C 
ATOM     82  C   UNL A   1      31.911  26.607  25.241  1.00  0.00     0.096 C 
ATOM     83  C   UNL A   1      32.358  28.001  27.768  1.00  0.00    -0.030 C 
ATOM     84  C   UNL A   1      30.802  26.696  26.305  1.00  0.00     0.041 C 
ATOM     85  C   UNL A   1      31.153  27.469  27.538  1.00  0.00    -0.030 C 
BRANCH  82  86
ATOM     86  C   UNL A   1      31.402  26.277  23.835  1.00  0.00     0.224 C 
ATOM     87  O   UNL A   1      30.231  26.581  23.561  1.00  0.00    -0.275 OA
ATOM     88  N   UNL A   1      32.096  25.745  22.803  1.00  0.00    -0.351 N 
ATOM     89  H   UNL A   1      31.646  25.914  21.944  1.00  0.00     0.163 HD
BRANCH  88  90
ATOM     90  C   UNL A   1      33.343  24.981  22.615  1.00  0.00     0.103 C 
ATOM     91  C   UNL A   1      33.192  23.765  21.736  1.00  0.00     0.048 C 
ATOM     92  C   UNL A   1      33.836  24.287  23.939  1.00  0.00     0.141 C 
ATOM     93  C   UNL A   1      32.474  22.794  22.669  1.00  0.00     0.119 C 
ATOM     94  N   UNL A   1      33.252  22.923  23.910  1.00  0.00    -0.369 N 
BRANCH  94  95
ATOM     95  C   UNL A   1      34.024  21.780  24.150  1.00  0.00     0.038 A 
ATOM     96  C   UNL A   1      33.467  20.502  24.321  1.00  0.00     0.026 A 
ATOM     97  C   UNL A   1      35.395  21.933  24.411  1.00  0.00     0.046 A 
ATOM     98  C   UNL A   1      34.239  19.423  24.767  1.00  0.00     0.004 A 
ATOM     99  C   UNL A   1      36.171  20.851  24.834  1.00  0.00     0.043 A 
ATOM    100  C   UNL A   1      35.596  19.598  25.025  1.00  0.00     0.020 A 
ATOM    101  Cl  UNL A   1      37.851  21.068  25.139  1.00  0.00    -0.084 Cl
ENDBRANCH  94  95
ENDBRANCH  88  90
ENDBRANCH  82  86
ENDBRANCH  78  80
ENDBRANCH  77  78
ENDBRANCH  76  77
ENDBRANCH  75  76
ENDBRANCH  74  75
ENDBRANCH  73  74
ENDBRANCH  72  73
ENDBRANCH   1  72
TORSDOF 26
ENDMDL
