MODEL 1
REMARK VINA RESULT:      -9.3      0.000      0.000
REMARK SMILES O=C(OCCOCCOCCOCCOC(=O)c1ccc(-c2c3nc(c(-c4ccc(S(=O)(=O)[O-])cc4)c4ccc([nH]4)c(-c4ccc(S(=O)(=O)[O-])cc4)c4nc(c(-c5ccc(S(=O)(=O)[O-])cc5)c5ccc2[nH]5)C=C4)C=C3)cc1)c1ccc(CNC(=O)c2ccccc2I)cc1
REMARK SMILES IDX 9 1 8 2 7 3 6 4 5 5 4 6 3 7 2 8 1 9 78 10 79 11 94 12 80 13
REMARK SMILES IDX 93 14 81 15 82 16 83 17 84 18 85 20 86 21 87 22 91 23 88 24
REMARK SMILES IDX 90 25 92 26 89 27 10 28 11 29 12 30 13 31 14 32 15 33 16 34
REMARK SMILES IDX 17 35 18 36 19 37 77 38 20 39 76 40 21 41 22 42 23 43 70 44
REMARK SMILES IDX 24 45 75 46 69 47 71 48 25 49 74 50 68 51 67 52 26 54 56 55
REMARK SMILES IDX 37 56 55 57 38 58 41 59 54 60 72 61 39 62 40 63 53 65 73 66
REMARK SMILES IDX 42 67 27 68 28 69 36 70 29 71 35 72 30 73 31 74 32 75 33 76
REMARK SMILES IDX 34 77 57 78 58 79 66 80 59 81 65 82 60 83 61 84 62 85 63 86
REMARK SMILES IDX 64 87 43 88 44 89 52 90 45 91 51 92 46 93 47 94 48 95 49 96
REMARK SMILES IDX 50 97
REMARK H PARENT 83 19 71 53 41 64
REMARK Flexibility Score: inf
ROOT
ATOM      1  O   UNL A   1      33.764  36.247  30.278  1.00  0.00    -0.377 OA
ENDROOT
BRANCH   1   2
ATOM      2  C   UNL A   1      32.804  35.594  29.453  1.00  0.00     0.188 C 
BRANCH   2   3
ATOM      3  C   UNL A   1      33.330  34.407  28.648  1.00  0.00     0.188 C 
BRANCH   3   4
ATOM      4  O   UNL A   1      32.302  33.852  27.819  1.00  0.00    -0.376 OA
BRANCH   4   5
ATOM      5  C   UNL A   1      32.576  32.538  27.330  1.00  0.00     0.202 C 
BRANCH   5   6
ATOM      6  C   UNL A   1      34.031  32.097  27.494  1.00  0.00     0.261 C 
BRANCH   6   7
ATOM      7  O   UNL A   1      34.130  30.789  28.079  1.00  0.00    -0.460 OA
BRANCH   7   8
ATOM      8  C   UNL A   1      34.446  29.647  27.422  1.00  0.00     0.338 C 
ATOM      9  O   UNL A   1      35.596  29.469  27.025  1.00  0.00    -0.246 OA
BRANCH   8  10
ATOM     10  C   UNL A   1      33.469  28.542  27.229  1.00  0.00     0.060 A 
ATOM     11  C   UNL A   1      32.140  28.573  27.658  1.00  0.00     0.016 A 
ATOM     12  C   UNL A   1      33.895  27.461  26.448  1.00  0.00     0.016 A 
ATOM     13  C   UNL A   1      31.269  27.524  27.367  1.00  0.00     0.006 A 
ATOM     14  C   UNL A   1      33.019  26.418  26.134  1.00  0.00     0.006 A 
ATOM     15  C   UNL A   1      31.698  26.438  26.601  1.00  0.00    -0.029 A 
BRANCH  15  16
ATOM     16  C   UNL A   1      30.722  25.355  26.240  1.00  0.00     0.152 C 
BRANCH  16  17
ATOM     17  N   UNL A   1      29.679  25.854  25.367  1.00  0.00    -0.348 N 
ATOM     18  C   UNL A   1      29.651  25.974  24.003  1.00  0.00     0.252 C 
ATOM     19  H   UNL A   1      28.862  26.155  25.827  1.00  0.00     0.164 HD
ATOM     20  O   UNL A   1      28.689  26.503  23.452  1.00  0.00    -0.269 OA
BRANCH  18  21
ATOM     21  C   UNL A   1      30.804  25.558  23.176  1.00  0.00     0.053 A 
ATOM     22  C   UNL A   1      30.992  24.172  23.048  1.00  0.00     0.015 A 
ATOM     23  C   UNL A   1      31.735  26.436  22.603  1.00  0.00     0.026 A 
ATOM     24  C   UNL A   1      32.062  23.666  22.308  1.00  0.00     0.001 A 
ATOM     25  C   UNL A   1      32.784  25.921  21.829  1.00  0.00     0.015 A 
ATOM     26  I   UNL A   1      31.751  28.509  22.936  1.00  0.00    -0.043 I 
ATOM     27  C   UNL A   1      32.944  24.541  21.681  1.00  0.00     0.001 A 
ENDBRANCH  18  21
ENDBRANCH  16  17
ENDBRANCH  15  16
ENDBRANCH   8  10
ENDBRANCH   7   8
ENDBRANCH   6   7
ENDBRANCH   5   6
ENDBRANCH   4   5
ENDBRANCH   3   4
ENDBRANCH   2   3
ENDBRANCH   1   2
BRANCH   1  28
ATOM     28  C   UNL A   1      33.733  35.942  31.666  1.00  0.00     0.188 C 
BRANCH  28  29
ATOM     29  C   UNL A   1      34.278  34.577  32.138  1.00  0.00     0.188 C 
BRANCH  29  30
ATOM     30  O   UNL A   1      35.402  34.635  33.007  1.00  0.00    -0.376 OA
BRANCH  30  31
ATOM     31  C   UNL A   1      35.733  33.415  33.663  1.00  0.00     0.202 C 
BRANCH  31  32
ATOM     32  C   UNL A   1      35.755  32.184  32.749  1.00  0.00     0.261 C 
BRANCH  32  33
ATOM     33  O   UNL A   1      36.999  31.961  32.063  1.00  0.00    -0.460 OA
BRANCH  33  34
ATOM     34  C   UNL A   1      37.008  32.017  30.712  1.00  0.00     0.338 C 
ATOM     35  O   UNL A   1      36.230  32.625  29.998  1.00  0.00    -0.246 OA
BRANCH  34  36
ATOM     36  C   UNL A   1      38.291  31.420  30.266  1.00  0.00     0.060 A 
ATOM     37  C   UNL A   1      39.344  31.327  31.187  1.00  0.00     0.016 A 
ATOM     38  C   UNL A   1      38.404  30.816  29.008  1.00  0.00     0.016 A 
ATOM     39  C   UNL A   1      40.504  30.618  30.855  1.00  0.00     0.010 A 
ATOM     40  C   UNL A   1      39.570  30.125  28.672  1.00  0.00     0.010 A 
ATOM     41  C   UNL A   1      40.631  30.031  29.588  1.00  0.00    -0.014 A 
BRANCH  41  42
ATOM     42  C   UNL A   1      41.938  29.492  29.134  1.00  0.00     0.031 A 
ATOM     43  C   UNL A   1      43.086  30.456  29.014  1.00  0.00     0.074 A 
ATOM     44  C   UNL A   1      42.106  28.197  28.801  1.00  0.00     0.049 A 
ATOM     45  N   UNL A   1      44.302  30.246  28.585  1.00  0.00    -0.248 NA
ATOM     46  C   UNL A   1      42.823  31.844  29.433  1.00  0.00     0.031 C 
ATOM     47  C   UNL A   1      41.087  27.153  28.889  1.00  0.00     0.029 A 
ATOM     48  N   UNL A   1      43.210  27.546  28.303  1.00  0.00    -0.354 N 
ATOM     49  C   UNL A   1      44.947  31.473  28.677  1.00  0.00     0.074 A 
ATOM     50  C   UNL A   1      43.986  32.426  29.185  1.00  0.00     0.031 C 
ATOM     51  C   UNL A   1      41.609  25.995  28.441  1.00  0.00     0.029 A 
ATOM     52  C   UNL A   1      42.988  26.221  28.006  1.00  0.00     0.049 A 
ATOM     53  H   UNL A   1      44.080  27.988  28.171  1.00  0.00     0.167 HD
ATOM     54  C   UNL A   1      46.227  31.782  28.366  1.00  0.00     0.031 A 
ATOM     55  C   UNL A   1      43.794  25.307  27.427  1.00  0.00     0.031 A 
ATOM     56  C   UNL A   1      47.181  30.849  27.837  1.00  0.00     0.049 A 
ATOM     57  C   UNL A   1      45.193  25.702  27.011  1.00  0.00     0.074 A 
ATOM     58  C   UNL A   1      48.510  31.071  27.522  1.00  0.00     0.029 A 
ATOM     59  N   UNL A   1      46.908  29.528  27.526  1.00  0.00    -0.354 N 
ATOM     60  N   UNL A   1      45.808  26.850  27.166  1.00  0.00    -0.248 NA
ATOM     61  C   UNL A   1      46.005  24.674  26.339  1.00  0.00     0.031 C 
ATOM     62  C   UNL A   1      49.025  29.897  26.963  1.00  0.00     0.029 A 
ATOM     63  C   UNL A   1      48.033  28.931  26.985  1.00  0.00     0.049 A 
ATOM     64  H   UNL A   1      46.043  29.081  27.668  1.00  0.00     0.167 HD
ATOM     65  C   UNL A   1      47.082  26.674  26.630  1.00  0.00     0.074 A 
ATOM     66  C   UNL A   1      47.157  25.305  26.166  1.00  0.00     0.031 C 
ATOM     67  C   UNL A   1      48.097  27.567  26.528  1.00  0.00     0.031 A 
BRANCH  54  68
ATOM     68  C   UNL A   1      46.662  33.206  28.564  1.00  0.00    -0.014 A 
ATOM     69  C   UNL A   1      46.480  34.164  27.550  1.00  0.00     0.010 A 
ATOM     70  C   UNL A   1      47.204  33.601  29.799  1.00  0.00     0.010 A 
ATOM     71  C   UNL A   1      46.849  35.494  27.766  1.00  0.00     0.020 A 
ATOM     72  C   UNL A   1      47.553  34.933  30.026  1.00  0.00     0.020 A 
ATOM     73  C   UNL A   1      47.381  35.870  29.004  1.00  0.00     0.054 A 
BRANCH  73  74
ATOM     74  S   UNL A   1      47.797  37.614  29.275  1.00  0.00     0.124 S 
ATOM     75  O   UNL A   1      47.595  37.749  30.716  1.00  0.00    -0.237 OA
ATOM     76  O   UNL A   1      49.186  37.684  28.828  1.00  0.00    -0.237 OA
ATOM     77  O   UNL A   1      46.840  38.333  28.441  1.00  0.00    -0.744 OA
ENDBRANCH  73  74
ENDBRANCH  54  68
BRANCH  55  78
ATOM     78  C   UNL A   1      43.302  23.927  27.149  1.00  0.00    -0.014 A 
ATOM     79  C   UNL A   1      42.672  23.620  25.930  1.00  0.00     0.010 A 
ATOM     80  C   UNL A   1      43.405  22.926  28.132  1.00  0.00     0.010 A 
ATOM     81  C   UNL A   1      42.126  22.349  25.712  1.00  0.00     0.020 A 
ATOM     82  C   UNL A   1      42.886  21.647  27.908  1.00  0.00     0.020 A 
ATOM     83  C   UNL A   1      42.234  21.372  26.705  1.00  0.00     0.054 A 
BRANCH  83  84
ATOM     84  S   UNL A   1      41.539  19.724  26.396  1.00  0.00     0.124 S 
ATOM     85  O   UNL A   1      41.794  19.045  27.662  1.00  0.00    -0.237 OA
ATOM     86  O   UNL A   1      40.139  20.021  26.106  1.00  0.00    -0.237 OA
ATOM     87  O   UNL A   1      42.313  19.238  25.256  1.00  0.00    -0.744 OA
ENDBRANCH  83  84
ENDBRANCH  55  78
BRANCH  67  88
ATOM     88  C   UNL A   1      49.389  27.097  25.913  1.00  0.00    -0.014 A 
ATOM     89  C   UNL A   1      49.729  27.433  24.591  1.00  0.00     0.010 A 
ATOM     90  C   UNL A   1      50.310  26.372  26.693  1.00  0.00     0.010 A 
ATOM     91  C   UNL A   1      50.955  27.032  24.052  1.00  0.00     0.020 A 
ATOM     92  C   UNL A   1      51.548  25.993  26.167  1.00  0.00     0.020 A 
ATOM     93  C   UNL A   1      51.857  26.315  24.844  1.00  0.00     0.054 A 
BRANCH  93  94
ATOM     94  S   UNL A   1      53.463  25.851  24.140  1.00  0.00     0.124 S 
ATOM     95  O   UNL A   1      53.225  26.014  22.708  1.00  0.00    -0.237 OA
ATOM     96  O   UNL A   1      54.372  26.825  24.741  1.00  0.00    -0.237 OA
ATOM     97  O   UNL A   1      53.653  24.473  24.586  1.00  0.00    -0.744 OA
ENDBRANCH  93  94
ENDBRANCH  67  88
ENDBRANCH  41  42
ENDBRANCH  34  36
ENDBRANCH  33  34
ENDBRANCH  32  33
ENDBRANCH  31  32
ENDBRANCH  30  31
ENDBRANCH  29  30
ENDBRANCH  28  29
ENDBRANCH   1  28
TORSDOF 26
ENDMDL
MODEL 2
REMARK VINA RESULT:      -9.0      1.633      2.118
REMARK SMILES O=C(OCCOCCOCCOCCOC(=O)c1ccc(-c2c3nc(c(-c4ccc(S(=O)(=O)[O-])cc4)c4ccc([nH]4)c(-c4ccc(S(=O)(=O)[O-])cc4)c4nc(c(-c5ccc(S(=O)(=O)[O-])cc5)c5ccc2[nH]5)C=C4)C=C3)cc1)c1ccc(CNC(=O)c2ccccc2I)cc1
REMARK SMILES IDX 9 1 8 2 7 3 6 4 5 5 4 6 3 7 2 8 1 9 78 10 79 11 94 12 80 13
REMARK SMILES IDX 93 14 81 15 82 16 83 17 84 18 85 20 86 21 87 22 91 23 88 24
REMARK SMILES IDX 90 25 92 26 89 27 10 28 11 29 12 30 13 31 14 32 15 33 16 34
REMARK SMILES IDX 17 35 18 36 19 37 77 38 20 39 76 40 21 41 22 42 23 43 70 44
REMARK SMILES IDX 24 45 75 46 69 47 71 48 25 49 74 50 68 51 67 52 26 54 56 55
REMARK SMILES IDX 37 56 55 57 38 58 41 59 54 60 72 61 39 62 40 63 53 65 73 66
REMARK SMILES IDX 42 67 27 68 28 69 36 70 29 71 35 72 30 73 31 74 32 75 33 76
REMARK SMILES IDX 34 77 57 78 58 79 66 80 59 81 65 82 60 83 61 84 62 85 63 86
REMARK SMILES IDX 64 87 43 88 44 89 52 90 45 91 51 92 46 93 47 94 48 95 49 96
REMARK SMILES IDX 50 97
REMARK H PARENT 83 19 71 53 41 64
REMARK Flexibility Score: inf
ROOT
ATOM      1  O   UNL A   1      33.958  35.677  29.540  1.00  0.00    -0.377 OA
ENDROOT
BRANCH   1   2
ATOM      2  C   UNL A   1      32.863  35.203  28.762  1.00  0.00     0.188 C 
BRANCH   2   3
ATOM      3  C   UNL A   1      33.090  33.868  28.054  1.00  0.00     0.188 C 
BRANCH   3   4
ATOM      4  O   UNL A   1      31.929  33.475  27.313  1.00  0.00    -0.376 OA
BRANCH   4   5
ATOM      5  C   UNL A   1      31.893  32.094  26.950  1.00  0.00     0.202 C 
BRANCH   5   6
ATOM      6  C   UNL A   1      33.044  31.265  27.521  1.00  0.00     0.261 C 
BRANCH   6   7
ATOM      7  O   UNL A   1      32.837  29.857  27.323  1.00  0.00    -0.460 OA
BRANCH   7   8
ATOM      8  C   UNL A   1      33.543  29.062  26.484  1.00  0.00     0.338 C 
ATOM      9  O   UNL A   1      34.750  29.245  26.338  1.00  0.00    -0.246 OA
BRANCH   8  10
ATOM     10  C   UNL A   1      32.932  27.901  25.782  1.00  0.00     0.060 A 
ATOM     11  C   UNL A   1      33.249  27.501  24.483  1.00  0.00     0.016 A 
ATOM     12  C   UNL A   1      32.079  27.091  26.542  1.00  0.00     0.016 A 
ATOM     13  C   UNL A   1      32.686  26.353  23.928  1.00  0.00     0.006 A 
ATOM     14  C   UNL A   1      31.529  25.926  25.998  1.00  0.00     0.006 A 
ATOM     15  C   UNL A   1      31.822  25.553  24.681  1.00  0.00    -0.029 A 
BRANCH  15  16
ATOM     16  C   UNL A   1      31.283  24.283  24.086  1.00  0.00     0.152 C 
BRANCH  16  17
ATOM     17  N   UNL A   1      31.852  24.031  22.778  1.00  0.00    -0.348 N 
ATOM     18  C   UNL A   1      33.030  23.426  22.428  1.00  0.00     0.252 C 
ATOM     19  H   UNL A   1      31.305  24.344  22.021  1.00  0.00     0.164 HD
ATOM     20  O   UNL A   1      33.370  23.380  21.249  1.00  0.00    -0.269 OA
BRANCH  18  21
ATOM     21  C   UNL A   1      33.953  22.901  23.456  1.00  0.00     0.053 A 
ATOM     22  C   UNL A   1      35.021  23.745  23.804  1.00  0.00     0.015 A 
ATOM     23  C   UNL A   1      33.875  21.621  24.022  1.00  0.00     0.026 A 
ATOM     24  C   UNL A   1      35.967  23.342  24.748  1.00  0.00     0.001 A 
ATOM     25  C   UNL A   1      34.805  21.239  24.998  1.00  0.00     0.015 A 
ATOM     26  I   UNL A   1      32.512  20.148  23.404  1.00  0.00    -0.043 I 
ATOM     27  C   UNL A   1      35.846  22.098  25.360  1.00  0.00     0.001 A 
ENDBRANCH  18  21
ENDBRANCH  16  17
ENDBRANCH  15  16
ENDBRANCH   8  10
ENDBRANCH   7   8
ENDBRANCH   6   7
ENDBRANCH   5   6
ENDBRANCH   4   5
ENDBRANCH   3   4
ENDBRANCH   2   3
ENDBRANCH   1   2
BRANCH   1  28
ATOM     28  C   UNL A   1      33.795  35.670  30.952  1.00  0.00     0.188 C 
BRANCH  28  29
ATOM     29  C   UNL A   1      34.309  34.453  31.752  1.00  0.00     0.188 C 
BRANCH  29  30
ATOM     30  O   UNL A   1      35.463  34.691  32.550  1.00  0.00    -0.376 OA
BRANCH  30  31
ATOM     31  C   UNL A   1      35.871  33.603  33.374  1.00  0.00     0.202 C 
BRANCH  31  32
ATOM     32  C   UNL A   1      35.645  32.217  32.761  1.00  0.00     0.261 C 
BRANCH  32  33
ATOM     33  O   UNL A   1      36.783  31.663  32.079  1.00  0.00    -0.460 OA
BRANCH  33  34
ATOM     34  C   UNL A   1      36.706  31.475  30.742  1.00  0.00     0.338 C 
ATOM     35  O   UNL A   1      35.819  31.858  29.998  1.00  0.00    -0.246 OA
BRANCH  34  36
ATOM     36  C   UNL A   1      38.023  30.950  30.305  1.00  0.00     0.060 A 
ATOM     37  C   UNL A   1      38.967  30.606  31.283  1.00  0.00     0.016 A 
ATOM     38  C   UNL A   1      38.265  30.649  28.959  1.00  0.00     0.016 A 
ATOM     39  C   UNL A   1      40.147  29.950  30.917  1.00  0.00     0.010 A 
ATOM     40  C   UNL A   1      39.452  30.010  28.594  1.00  0.00     0.010 A 
ATOM     41  C   UNL A   1      40.405  29.667  29.567  1.00  0.00    -0.014 A 
BRANCH  41  42
ATOM     42  C   UNL A   1      41.747  29.198  29.138  1.00  0.00     0.031 A 
ATOM     43  C   UNL A   1      42.850  30.217  29.066  1.00  0.00     0.074 A 
ATOM     44  C   UNL A   1      41.984  27.919  28.786  1.00  0.00     0.049 A 
ATOM     45  N   UNL A   1      44.086  30.072  28.665  1.00  0.00    -0.248 NA
ATOM     46  C   UNL A   1      42.513  31.583  29.504  1.00  0.00     0.031 C 
ATOM     47  C   UNL A   1      41.013  26.827  28.828  1.00  0.00     0.029 A 
ATOM     48  N   UNL A   1      43.130  27.330  28.305  1.00  0.00    -0.354 N 
ATOM     49  C   UNL A   1      44.670  31.325  28.796  1.00  0.00     0.074 A 
ATOM     50  C   UNL A   1      43.652  32.223  29.297  1.00  0.00     0.031 C 
ATOM     51  C   UNL A   1      41.600  25.705  28.373  1.00  0.00     0.029 A 
ATOM     52  C   UNL A   1      42.977  26.003  27.978  1.00  0.00     0.049 A 
ATOM     53  H   UNL A   1      43.981  27.815  28.204  1.00  0.00     0.167 HD
ATOM     54  C   UNL A   1      45.941  31.700  28.525  1.00  0.00     0.031 A 
ATOM     55  C   UNL A   1      43.840  25.138  27.404  1.00  0.00     0.031 A 
ATOM     56  C   UNL A   1      46.951  30.823  28.004  1.00  0.00     0.049 A 
ATOM     57  C   UNL A   1      45.229  25.606  27.032  1.00  0.00     0.074 A 
ATOM     58  C   UNL A   1      48.276  31.112  27.728  1.00  0.00     0.029 A 
ATOM     59  N   UNL A   1      46.749  29.497  27.662  1.00  0.00    -0.354 N 
ATOM     60  N   UNL A   1      45.785  26.778  27.224  1.00  0.00    -0.248 NA
ATOM     61  C   UNL A   1      46.105  24.630  26.362  1.00  0.00     0.031 C 
ATOM     62  C   UNL A   1      48.860  29.975  27.161  1.00  0.00     0.029 A 
ATOM     63  C   UNL A   1      47.914  28.963  27.140  1.00  0.00     0.049 A 
ATOM     64  H   UNL A   1      45.902  29.007  27.772  1.00  0.00     0.167 HD
ATOM     65  C   UNL A   1      47.079  26.672  26.718  1.00  0.00     0.074 A 
ATOM     66  C   UNL A   1      47.230  25.318  26.231  1.00  0.00     0.031 C 
ATOM     67  C   UNL A   1      48.053  27.613  26.659  1.00  0.00     0.031 A 
BRANCH  54  68
ATOM     68  C   UNL A   1      46.304  33.138  28.760  1.00  0.00    -0.014 A 
ATOM     69  C   UNL A   1      46.148  34.098  27.743  1.00  0.00     0.010 A 
ATOM     70  C   UNL A   1      46.749  33.543  30.030  1.00  0.00     0.010 A 
ATOM     71  C   UNL A   1      46.447  35.439  27.992  1.00  0.00     0.020 A 
ATOM     72  C   UNL A   1      47.028  34.886  30.288  1.00  0.00     0.020 A 
ATOM     73  C   UNL A   1      46.883  35.825  29.264  1.00  0.00     0.054 A 
BRANCH  73  74
ATOM     74  S   UNL A   1      47.209  37.582  29.574  1.00  0.00     0.124 S 
ATOM     75  O   UNL A   1      48.642  37.673  29.305  1.00  0.00    -0.237 OA
ATOM     76  O   UNL A   1      46.345  38.243  28.599  1.00  0.00    -0.237 OA
ATOM     77  O   UNL A   1      46.823  37.766  30.970  1.00  0.00    -0.744 OA
ENDBRANCH  73  74
ENDBRANCH  54  68
BRANCH  55  78
ATOM     78  C   UNL A   1      43.420  23.742  27.087  1.00  0.00    -0.014 A 
ATOM     79  C   UNL A   1      42.896  23.418  25.824  1.00  0.00     0.010 A 
ATOM     80  C   UNL A   1      43.484  22.743  28.075  1.00  0.00     0.010 A 
ATOM     81  C   UNL A   1      42.415  22.129  25.563  1.00  0.00     0.020 A 
ATOM     82  C   UNL A   1      43.031  21.447  27.810  1.00  0.00     0.020 A 
ATOM     83  C   UNL A   1      42.482  21.153  26.561  1.00  0.00     0.054 A 
BRANCH  83  84
ATOM     84  S   UNL A   1      41.873  19.482  26.198  1.00  0.00     0.124 S 
ATOM     85  O   UNL A   1      40.575  19.757  25.591  1.00  0.00    -0.237 OA
ATOM     86  O   UNL A   1      42.897  18.962  25.296  1.00  0.00    -0.237 OA
ATOM     87  O   UNL A   1      41.829  18.844  27.511  1.00  0.00    -0.744 OA
ENDBRANCH  83  84
ENDBRANCH  55  78
BRANCH  67  88
ATOM     88  C   UNL A   1      49.381  27.216  26.069  1.00  0.00    -0.014 A 
ATOM     89  C   UNL A   1      50.346  26.545  26.840  1.00  0.00     0.010 A 
ATOM     90  C   UNL A   1      49.636  27.450  24.705  1.00  0.00     0.010 A 
ATOM     91  C   UNL A   1      51.553  26.138  26.263  1.00  0.00     0.020 A 
ATOM     92  C   UNL A   1      50.830  27.020  24.118  1.00  0.00     0.020 A 
ATOM     93  C   UNL A   1      51.787  26.378  24.906  1.00  0.00     0.054 A 
BRANCH  93  94
ATOM     94  S   UNL A   1      53.338  25.793  24.168  1.00  0.00     0.124 S 
ATOM     95  O   UNL A   1      53.057  25.908  22.740  1.00  0.00    -0.237 OA
ATOM     96  O   UNL A   1      54.321  26.737  24.694  1.00  0.00    -0.237 OA
ATOM     97  O   UNL A   1      53.465  24.426  24.669  1.00  0.00    -0.744 OA
ENDBRANCH  93  94
ENDBRANCH  67  88
ENDBRANCH  41  42
ENDBRANCH  34  36
ENDBRANCH  33  34
ENDBRANCH  32  33
ENDBRANCH  31  32
ENDBRANCH  30  31
ENDBRANCH  29  30
ENDBRANCH  28  29
ENDBRANCH   1  28
TORSDOF 26
ENDMDL
MODEL 3
REMARK VINA RESULT:      -8.9      5.678     12.313
REMARK SMILES O=C(OCCOCCOCCOCCOC(=O)c1ccc(-c2c3nc(c(-c4ccc(S(=O)(=O)[O-])cc4)c4ccc([nH]4)c(-c4ccc(S(=O)(=O)[O-])cc4)c4nc(c(-c5ccc(S(=O)(=O)[O-])cc5)c5ccc2[nH]5)C=C4)C=C3)cc1)c1ccc(CNC(=O)c2ccccc2I)cc1
REMARK SMILES IDX 9 1 8 2 7 3 6 4 5 5 4 6 3 7 2 8 1 9 78 10 79 11 94 12 80 13
REMARK SMILES IDX 93 14 81 15 82 16 83 17 84 18 85 20 86 21 87 22 91 23 88 24
REMARK SMILES IDX 90 25 92 26 89 27 10 28 11 29 12 30 13 31 14 32 15 33 16 34
REMARK SMILES IDX 17 35 18 36 19 37 77 38 20 39 76 40 21 41 22 42 23 43 70 44
REMARK SMILES IDX 24 45 75 46 69 47 71 48 25 49 74 50 68 51 67 52 26 54 56 55
REMARK SMILES IDX 37 56 55 57 38 58 41 59 54 60 72 61 39 62 40 63 53 65 73 66
REMARK SMILES IDX 42 67 27 68 28 69 36 70 29 71 35 72 30 73 31 74 32 75 33 76
REMARK SMILES IDX 34 77 57 78 58 79 66 80 59 81 65 82 60 83 61 84 62 85 63 86
REMARK SMILES IDX 64 87 43 88 44 89 52 90 45 91 51 92 46 93 47 94 48 95 49 96
REMARK SMILES IDX 50 97
REMARK H PARENT 83 19 71 53 41 64
REMARK Flexibility Score: inf
ROOT
ATOM      1  O   UNL A   1      44.121  18.358  25.290  1.00  0.00    -0.377 OA
ENDROOT
BRANCH   1   2
ATOM      2  C   UNL A   1      42.845  18.748  25.791  1.00  0.00     0.188 C 
BRANCH   2   3
ATOM      3  C   UNL A   1      42.548  20.245  25.738  1.00  0.00     0.188 C 
BRANCH   3   4
ATOM      4  O   UNL A   1      42.138  20.734  27.021  1.00  0.00    -0.376 OA
BRANCH   4   5
ATOM      5  C   UNL A   1      40.725  20.741  27.231  1.00  0.00     0.202 C 
BRANCH   5   6
ATOM      6  C   UNL A   1      40.117  22.137  27.362  1.00  0.00     0.261 C 
BRANCH   6   7
ATOM      7  O   UNL A   1      38.953  22.294  26.534  1.00  0.00    -0.460 OA
BRANCH   7   8
ATOM      8  C   UNL A   1      38.461  23.467  26.070  1.00  0.00     0.338 C 
ATOM      9  O   UNL A   1      39.157  24.479  26.106  1.00  0.00    -0.246 OA
BRANCH   8  10
ATOM     10  C   UNL A   1      37.123  23.572  25.428  1.00  0.00     0.060 A 
ATOM     11  C   UNL A   1      36.872  23.349  24.072  1.00  0.00     0.016 A 
ATOM     12  C   UNL A   1      36.035  23.780  26.284  1.00  0.00     0.016 A 
ATOM     13  C   UNL A   1      35.574  23.391  23.567  1.00  0.00     0.006 A 
ATOM     14  C   UNL A   1      34.728  23.801  25.785  1.00  0.00     0.006 A 
ATOM     15  C   UNL A   1      34.489  23.615  24.418  1.00  0.00    -0.029 A 
BRANCH  15  16
ATOM     16  C   UNL A   1      33.094  23.585  23.862  1.00  0.00     0.152 C 
BRANCH  16  17
ATOM     17  N   UNL A   1      32.931  24.552  22.795  1.00  0.00    -0.348 N 
ATOM     18  C   UNL A   1      32.756  25.909  22.852  1.00  0.00     0.252 C 
ATOM     19  H   UNL A   1      32.949  24.174  21.887  1.00  0.00     0.164 HD
ATOM     20  O   UNL A   1      32.557  26.546  21.821  1.00  0.00    -0.269 OA
BRANCH  18  21
ATOM     21  C   UNL A   1      32.713  26.620  24.147  1.00  0.00     0.053 A 
ATOM     22  C   UNL A   1      33.954  27.050  24.647  1.00  0.00     0.015 A 
ATOM     23  C   UNL A   1      31.557  26.809  24.917  1.00  0.00     0.026 A 
ATOM     24  C   UNL A   1      34.034  27.713  25.873  1.00  0.00     0.001 A 
ATOM     25  C   UNL A   1      31.641  27.510  26.128  1.00  0.00     0.015 A 
ATOM     26  I   UNL A   1      29.685  25.984  24.443  1.00  0.00    -0.043 I 
ATOM     27  C   UNL A   1      32.876  27.961  26.602  1.00  0.00     0.001 A 
ENDBRANCH  18  21
ENDBRANCH  16  17
ENDBRANCH  15  16
ENDBRANCH   8  10
ENDBRANCH   7   8
ENDBRANCH   6   7
ENDBRANCH   5   6
ENDBRANCH   4   5
ENDBRANCH   3   4
ENDBRANCH   2   3
ENDBRANCH   1   2
BRANCH   1  28
ATOM     28  C   UNL A   1      44.868  19.347  24.594  1.00  0.00     0.188 C 
BRANCH  28  29
ATOM     29  C   UNL A   1      46.214  19.814  25.187  1.00  0.00     0.188 C 
BRANCH  29  30
ATOM     30  O   UNL A   1      46.364  21.222  25.329  1.00  0.00    -0.376 OA
BRANCH  30  31
ATOM     31  C   UNL A   1      45.200  21.992  25.043  1.00  0.00     0.202 C 
BRANCH  31  32
ATOM     32  C   UNL A   1      45.174  23.377  25.700  1.00  0.00     0.261 C 
BRANCH  32  33
ATOM     33  O   UNL A   1      43.945  23.706  26.371  1.00  0.00    -0.460 OA
BRANCH  33  34
ATOM     34  C   UNL A   1      43.277  24.816  25.984  1.00  0.00     0.338 C 
ATOM     35  O   UNL A   1      42.821  25.050  24.878  1.00  0.00    -0.246 OA
BRANCH  34  36
ATOM     36  C   UNL A   1      42.968  25.583  27.216  1.00  0.00     0.060 A 
ATOM     37  C   UNL A   1      43.581  26.831  27.401  1.00  0.00     0.016 A 
ATOM     38  C   UNL A   1      41.969  25.154  28.098  1.00  0.00     0.016 A 
ATOM     39  C   UNL A   1      43.185  27.656  28.461  1.00  0.00     0.010 A 
ATOM     40  C   UNL A   1      41.588  25.971  29.165  1.00  0.00     0.010 A 
ATOM     41  C   UNL A   1      42.200  27.220  29.360  1.00  0.00    -0.014 A 
BRANCH  41  42
ATOM     42  C   UNL A   1      41.944  27.967  30.618  1.00  0.00     0.031 A 
ATOM     43  C   UNL A   1      40.813  28.957  30.621  1.00  0.00     0.074 A 
ATOM     44  C   UNL A   1      42.706  27.807  31.718  1.00  0.00     0.049 A 
ATOM     45  N   UNL A   1      40.429  29.771  31.569  1.00  0.00    -0.248 NA
ATOM     46  C   UNL A   1      40.010  29.041  29.389  1.00  0.00     0.031 C 
ATOM     47  C   UNL A   1      43.819  26.870  31.858  1.00  0.00     0.029 A 
ATOM     48  N   UNL A   1      42.659  28.454  32.930  1.00  0.00    -0.354 N 
ATOM     49  C   UNL A   1      39.345  30.466  31.047  1.00  0.00     0.074 A 
ATOM     50  C   UNL A   1      39.142  29.993  29.695  1.00  0.00     0.031 C 
ATOM     51  C   UNL A   1      44.360  27.017  33.082  1.00  0.00     0.029 A 
ATOM     52  C   UNL A   1      43.655  28.078  33.801  1.00  0.00     0.049 A 
ATOM     53  H   UNL A   1      41.975  29.126  33.154  1.00  0.00     0.167 HD
ATOM     54  C   UNL A   1      38.583  31.415  31.637  1.00  0.00     0.031 A 
ATOM     55  C   UNL A   1      43.975  28.553  35.023  1.00  0.00     0.031 A 
ATOM     56  C   UNL A   1      38.792  31.909  32.968  1.00  0.00     0.049 A 
ATOM     57  C   UNL A   1      43.158  29.674  35.625  1.00  0.00     0.074 A 
ATOM     58  C   UNL A   1      38.048  32.851  33.658  1.00  0.00     0.029 A 
ATOM     59  N   UNL A   1      39.825  31.523  33.804  1.00  0.00    -0.354 N 
ATOM     60  N   UNL A   1      42.096  30.274  35.144  1.00  0.00    -0.248 NA
ATOM     61  C   UNL A   1      43.589  30.182  36.938  1.00  0.00     0.031 C 
ATOM     62  C   UNL A   1      38.668  33.077  34.891  1.00  0.00     0.029 A 
ATOM     63  C   UNL A   1      39.763  32.235  34.989  1.00  0.00     0.049 A 
ATOM     64  H   UNL A   1      40.504  30.844  33.587  1.00  0.00     0.167 HD
ATOM     65  C   UNL A   1      41.723  31.213  36.102  1.00  0.00     0.074 A 
ATOM     66  C   UNL A   1      42.658  31.088  37.200  1.00  0.00     0.031 C 
ATOM     67  C   UNL A   1      40.699  32.101  36.075  1.00  0.00     0.031 A 
BRANCH  54  68
ATOM     68  C   UNL A   1      37.464  32.007  30.829  1.00  0.00    -0.014 A 
ATOM     69  C   UNL A   1      37.692  33.098  29.971  1.00  0.00     0.010 A 
ATOM     70  C   UNL A   1      36.186  31.426  30.884  1.00  0.00     0.010 A 
ATOM     71  C   UNL A   1      36.650  33.607  29.191  1.00  0.00     0.020 A 
ATOM     72  C   UNL A   1      35.149  31.919  30.090  1.00  0.00     0.020 A 
ATOM     73  C   UNL A   1      35.386  33.012  29.255  1.00  0.00     0.054 A 
BRANCH  73  74
ATOM     74  S   UNL A   1      34.069  33.659  28.189  1.00  0.00     0.124 S 
ATOM     75  O   UNL A   1      34.822  34.492  27.254  1.00  0.00    -0.237 OA
ATOM     76  O   UNL A   1      33.492  32.443  27.621  1.00  0.00    -0.237 OA
ATOM     77  O   UNL A   1      33.201  34.385  29.111  1.00  0.00    -0.744 OA
ENDBRANCH  73  74
ENDBRANCH  54  68
BRANCH  55  78
ATOM     78  C   UNL A   1      45.155  28.017  35.762  1.00  0.00    -0.014 A 
ATOM     79  C   UNL A   1      44.994  27.357  36.993  1.00  0.00     0.010 A 
ATOM     80  C   UNL A   1      46.454  28.224  35.265  1.00  0.00     0.010 A 
ATOM     81  C   UNL A   1      46.110  26.941  37.728  1.00  0.00     0.020 A 
ATOM     82  C   UNL A   1      47.572  27.785  35.982  1.00  0.00     0.020 A 
ATOM     83  C   UNL A   1      47.393  27.162  37.218  1.00  0.00     0.054 A 
BRANCH  83  84
ATOM     84  S   UNL A   1      48.829  26.597  38.175  1.00  0.00     0.124 S 
ATOM     85  O   UNL A   1      49.804  27.648  37.909  1.00  0.00    -0.237 OA
ATOM     86  O   UNL A   1      48.301  26.551  39.537  1.00  0.00    -0.237 OA
ATOM     87  O   UNL A   1      49.134  25.294  37.591  1.00  0.00    -0.744 OA
ENDBRANCH  83  84
ENDBRANCH  55  78
BRANCH  67  88
ATOM     88  C   UNL A   1      40.512  32.998  37.272  1.00  0.00    -0.014 A 
ATOM     89  C   UNL A   1      39.482  32.766  38.199  1.00  0.00     0.010 A 
ATOM     90  C   UNL A   1      41.428  34.040  37.510  1.00  0.00     0.010 A 
ATOM     91  C   UNL A   1      39.355  33.577  39.331  1.00  0.00     0.020 A 
ATOM     92  C   UNL A   1      41.320  34.836  38.654  1.00  0.00     0.020 A 
ATOM     93  C   UNL A   1      40.275  34.607  39.552  1.00  0.00     0.054 A 
BRANCH  93  94
ATOM     94  S   UNL A   1      40.120  35.611  41.055  1.00  0.00     0.124 S 
ATOM     95  O   UNL A   1      40.889  36.802  40.704  1.00  0.00    -0.237 OA
ATOM     96  O   UNL A   1      38.676  35.805  41.166  1.00  0.00    -0.237 OA
ATOM     97  O   UNL A   1      40.712  34.772  42.094  1.00  0.00    -0.744 OA
ENDBRANCH  93  94
ENDBRANCH  67  88
ENDBRANCH  41  42
ENDBRANCH  34  36
ENDBRANCH  33  34
ENDBRANCH  32  33
ENDBRANCH  31  32
ENDBRANCH  30  31
ENDBRANCH  29  30
ENDBRANCH  28  29
ENDBRANCH   1  28
TORSDOF 26
ENDMDL
