MODEL 1
REMARK VINA RESULT:      -6.6      0.000      0.000
REMARK SMILES CCN(Cc1ccccn1)c1nc(C)cc(C)c1C(=O)OCCOCCOCCOCCOC(=O)c1ccc(-c2c3nc(c(-c4ccc(S(=O)(=O)[O-])cc4)c4ccc([nH]4)c(-c4ccc(S(=O)(=O)[O-])cc4)c4nc(c(-c5ccc(S(=O)(=O)[O-])cc5)c5ccc2[nH]5)C=C4)C=C3)cc1
REMARK SMILES IDX 27 1 26 2 25 3 24 4 23 5 22 6 21 7 19 8 20 9 18 10 11 11
REMARK SMILES IDX 12 12 13 13 16 14 14 15 15 16 17 17 3 18 2 19 1 20 4 21 5 22
REMARK SMILES IDX 6 23 10 24 7 25 9 26 8 27 28 28 29 29 30 30 31 31 32 32
REMARK SMILES IDX 33 33 34 34 35 35 36 36 37 37 95 38 38 39 94 40 39 41 40 42
REMARK SMILES IDX 41 43 88 44 42 45 93 46 87 47 89 48 43 49 92 50 86 51 85 52
REMARK SMILES IDX 44 54 74 55 55 56 73 57 56 58 59 59 72 60 90 61 57 62 58 63
REMARK SMILES IDX 71 65 91 66 60 67 45 68 46 69 54 70 47 71 53 72 48 73 49 74
REMARK SMILES IDX 50 75 51 76 52 77 75 78 76 79 84 80 77 81 83 82 78 83 79 84
REMARK SMILES IDX 80 85 81 86 82 87 61 88 62 89 70 90 63 91 69 92 64 93 65 94
REMARK SMILES IDX 66 95 67 96 68 97
REMARK H PARENT 89 53 59 64
REMARK Flexibility Score: inf
ROOT
ATOM      1  O   UNL A   1      48.186  25.679  25.629  1.00  0.00    -0.377 OA
ENDROOT
BRANCH   1   2
ATOM      2  C   UNL A   1      49.478  25.794  26.212  1.00  0.00     0.188 C 
BRANCH   2   3
ATOM      3  C   UNL A   1      49.675  26.029  27.726  1.00  0.00     0.188 C 
BRANCH   3   4
ATOM      4  O   UNL A   1      50.706  26.927  28.093  1.00  0.00    -0.376 OA
BRANCH   4   5
ATOM      5  C   UNL A   1      50.362  28.173  28.673  1.00  0.00     0.202 C 
BRANCH   5   6
ATOM      6  C   UNL A   1      49.195  28.911  28.017  1.00  0.00     0.261 C 
BRANCH   6   7
ATOM      7  O   UNL A   1      48.191  29.307  28.957  1.00  0.00    -0.460 OA
BRANCH   7   8
ATOM      8  C   UNL A   1      48.102  30.614  29.301  1.00  0.00     0.342 C 
ATOM      9  O   UNL A   1      48.994  31.436  29.198  1.00  0.00    -0.246 OA
BRANCH   8  10
ATOM     10  C   UNL A   1      46.704  30.876  29.752  1.00  0.00     0.105 A 
ATOM     11  C   UNL A   1      45.712  31.217  28.807  1.00  0.00     0.144 A 
ATOM     12  N   UNL A   1      44.505  31.662  29.235  1.00  0.00    -0.235 NA
ATOM     13  C   UNL A   1      44.220  31.722  30.555  1.00  0.00     0.040 A 
ATOM     14  C   UNL A   1      46.373  30.857  31.136  1.00  0.00    -0.031 A 
ATOM     15  C   UNL A   1      42.903  32.327  30.930  1.00  0.00     0.067 C 
ATOM     16  C   UNL A   1      45.099  31.278  31.522  1.00  0.00     0.028 A 
ATOM     17  C   UNL A   1      47.296  30.374  32.229  1.00  0.00     0.045 C 
BRANCH  11  18
ATOM     18  N   UNL A   1      45.864  31.095  27.425  1.00  0.00    -0.350 N 
BRANCH  18  19
ATOM     19  C   UNL A   1      44.960  30.206  26.690  1.00  0.00     0.115 C 
ATOM     20  C   UNL A   1      45.104  28.770  27.194  1.00  0.00     0.027 C 
ENDBRANCH  18  19
BRANCH  18  21
ATOM     21  C   UNL A   1      46.280  32.298  26.690  1.00  0.00     0.174 C 
BRANCH  21  22
ATOM     22  C   UNL A   1      45.212  33.375  26.500  1.00  0.00     0.060 A 
ATOM     23  C   UNL A   1      44.315  33.251  25.439  1.00  0.00     0.026 A 
ATOM     24  N   UNL A   1      45.150  34.416  27.378  1.00  0.00    -0.259 NA
ATOM     25  C   UNL A   1      43.350  34.233  25.245  1.00  0.00     0.004 A 
ATOM     26  C   UNL A   1      44.225  35.373  27.140  1.00  0.00     0.111 A 
ATOM     27  C   UNL A   1      43.310  35.323  26.104  1.00  0.00     0.020 A 
ENDBRANCH  21  22
ENDBRANCH  18  21
ENDBRANCH  11  18
ENDBRANCH   8  10
ENDBRANCH   7   8
ENDBRANCH   6   7
ENDBRANCH   5   6
ENDBRANCH   4   5
ENDBRANCH   3   4
ENDBRANCH   2   3
ENDBRANCH   1   2
BRANCH   1  28
ATOM     28  C   UNL A   1      47.175  25.049  26.395  1.00  0.00     0.188 C 
BRANCH  28  29
ATOM     29  C   UNL A   1      45.730  25.312  25.911  1.00  0.00     0.188 C 
BRANCH  29  30
ATOM     30  O   UNL A   1      45.440  24.756  24.640  1.00  0.00    -0.376 OA
BRANCH  30  31
ATOM     31  C   UNL A   1      45.053  23.404  24.498  1.00  0.00     0.202 C 
BRANCH  31  32
ATOM     32  C   UNL A   1      43.652  22.873  24.845  1.00  0.00     0.261 C 
BRANCH  32  33
ATOM     33  O   UNL A   1      42.618  23.821  25.098  1.00  0.00    -0.460 OA
BRANCH  33  34
ATOM     34  C   UNL A   1      41.640  23.467  25.964  1.00  0.00     0.338 C 
ATOM     35  O   UNL A   1      41.171  22.366  26.129  1.00  0.00    -0.246 OA
BRANCH  34  36
ATOM     36  C   UNL A   1      41.421  24.647  26.835  1.00  0.00     0.060 A 
ATOM     37  C   UNL A   1      42.202  25.796  26.634  1.00  0.00     0.016 A 
ATOM     38  C   UNL A   1      40.383  24.647  27.770  1.00  0.00     0.016 A 
ATOM     39  C   UNL A   1      41.946  26.949  27.373  1.00  0.00     0.010 A 
ATOM     40  C   UNL A   1      40.162  25.783  28.546  1.00  0.00     0.010 A 
ATOM     41  C   UNL A   1      40.963  26.926  28.368  1.00  0.00    -0.014 A 
BRANCH  41  42
ATOM     42  C   UNL A   1      40.966  27.967  29.418  1.00  0.00     0.031 A 
ATOM     43  C   UNL A   1      42.029  27.857  30.476  1.00  0.00     0.074 A 
ATOM     44  C   UNL A   1      40.063  28.961  29.445  1.00  0.00     0.049 A 
ATOM     45  N   UNL A   1      42.208  28.576  31.550  1.00  0.00    -0.248 NA
ATOM     46  C   UNL A   1      43.022  26.781  30.298  1.00  0.00     0.031 C 
ATOM     47  C   UNL A   1      39.026  29.198  28.440  1.00  0.00     0.029 A 
ATOM     48  N   UNL A   1      39.871  29.956  30.370  1.00  0.00    -0.354 N 
ATOM     49  C   UNL A   1      43.317  28.028  32.184  1.00  0.00     0.074 A 
ATOM     50  C   UNL A   1      43.762  26.909  31.387  1.00  0.00     0.031 C 
ATOM     51  C   UNL A   1      38.297  30.267  28.814  1.00  0.00     0.029 A 
ATOM     52  C   UNL A   1      38.790  30.762  30.098  1.00  0.00     0.049 A 
ATOM     53  H   UNL A   1      40.454  30.082  31.153  1.00  0.00     0.167 HD
ATOM     54  C   UNL A   1      43.909  28.422  33.333  1.00  0.00     0.031 A 
ATOM     55  C   UNL A   1      38.252  31.762  30.825  1.00  0.00     0.031 A 
ATOM     56  C   UNL A   1      43.448  29.526  34.128  1.00  0.00     0.049 A 
ATOM     57  C   UNL A   1      38.883  32.128  32.148  1.00  0.00     0.074 A 
ATOM     58  C   UNL A   1      43.988  30.021  35.300  1.00  0.00     0.029 A 
ATOM     59  N   UNL A   1      42.332  30.295  33.836  1.00  0.00    -0.354 N 
ATOM     60  N   UNL A   1      39.950  31.624  32.723  1.00  0.00    -0.248 NA
ATOM     61  C   UNL A   1      38.239  33.203  32.918  1.00  0.00     0.031 C 
ATOM     62  C   UNL A   1      43.156  31.048  35.756  1.00  0.00     0.029 A 
ATOM     63  C   UNL A   1      42.147  31.244  34.826  1.00  0.00     0.049 A 
ATOM     64  H   UNL A   1      41.759  30.184  33.044  1.00  0.00     0.167 HD
ATOM     65  C   UNL A   1      40.128  32.349  33.898  1.00  0.00     0.074 A 
ATOM     66  C   UNL A   1      39.063  33.330  33.948  1.00  0.00     0.031 C 
ATOM     67  C   UNL A   1      41.090  32.222  34.846  1.00  0.00     0.031 A 
BRANCH  54  68
ATOM     68  C   UNL A   1      45.084  27.623  33.824  1.00  0.00    -0.014 A 
ATOM     69  C   UNL A   1      45.303  26.300  33.396  1.00  0.00     0.010 A 
ATOM     70  C   UNL A   1      46.011  28.224  34.693  1.00  0.00     0.010 A 
ATOM     71  C   UNL A   1      46.417  25.589  33.847  1.00  0.00     0.020 A 
ATOM     72  C   UNL A   1      47.141  27.527  35.123  1.00  0.00     0.020 A 
ATOM     73  C   UNL A   1      47.332  26.209  34.704  1.00  0.00     0.054 A 
BRANCH  73  74
ATOM     74  S   UNL A   1      48.799  25.280  35.228  1.00  0.00     0.124 S 
ATOM     75  O   UNL A   1      48.513  25.038  36.640  1.00  0.00    -0.237 OA
ATOM     76  O   UNL A   1      48.754  24.102  34.367  1.00  0.00    -0.237 OA
ATOM     77  O   UNL A   1      49.904  26.199  34.967  1.00  0.00    -0.744 OA
ENDBRANCH  73  74
ENDBRANCH  54  68
BRANCH  55  78
ATOM     78  C   UNL A   1      37.041  32.483  30.340  1.00  0.00    -0.014 A 
ATOM     79  C   UNL A   1      37.139  33.442  29.317  1.00  0.00     0.010 A 
ATOM     80  C   UNL A   1      35.783  32.239  30.925  1.00  0.00     0.010 A 
ATOM     81  C   UNL A   1      36.013  34.164  28.907  1.00  0.00     0.020 A 
ATOM     82  C   UNL A   1      34.649  32.935  30.497  1.00  0.00     0.020 A 
ATOM     83  C   UNL A   1      34.773  33.904  29.500  1.00  0.00     0.054 A 
BRANCH  83  84
ATOM     84  S   UNL A   1      33.322  34.832  28.932  1.00  0.00     0.124 S 
ATOM     85  O   UNL A   1      32.581  35.028  30.173  1.00  0.00    -0.237 OA
ATOM     86  O   UNL A   1      33.923  36.032  28.355  1.00  0.00    -0.237 OA
ATOM     87  O   UNL A   1      32.698  33.931  27.965  1.00  0.00    -0.744 OA
ENDBRANCH  83  84
ENDBRANCH  55  78
BRANCH  67  88
ATOM     88  C   UNL A   1      41.084  33.203  35.990  1.00  0.00    -0.014 A 
ATOM     89  C   UNL A   1      40.354  32.962  37.166  1.00  0.00     0.010 A 
ATOM     90  C   UNL A   1      41.901  34.348  35.913  1.00  0.00     0.010 A 
ATOM     91  C   UNL A   1      40.419  33.863  38.233  1.00  0.00     0.020 A 
ATOM     92  C   UNL A   1      41.995  35.232  36.990  1.00  0.00     0.020 A 
ATOM     93  C   UNL A   1      41.243  34.989  38.140  1.00  0.00     0.054 A 
BRANCH  93  94
ATOM     94  S   UNL A   1      41.357  36.109  39.563  1.00  0.00     0.124 S 
ATOM     95  O   UNL A   1      42.529  36.912  39.225  1.00  0.00    -0.237 OA
ATOM     96  O   UNL A   1      40.077  36.813  39.516  1.00  0.00    -0.237 OA
ATOM     97  O   UNL A   1      41.526  35.208  40.701  1.00  0.00    -0.744 OA
ENDBRANCH  93  94
ENDBRANCH  67  88
ENDBRANCH  41  42
ENDBRANCH  34  36
ENDBRANCH  33  34
ENDBRANCH  32  33
ENDBRANCH  31  32
ENDBRANCH  30  31
ENDBRANCH  29  30
ENDBRANCH  28  29
ENDBRANCH   1  28
TORSDOF 27
ENDMDL
MODEL 2
REMARK VINA RESULT:      -6.6      8.194     13.777
REMARK SMILES CCN(Cc1ccccn1)c1nc(C)cc(C)c1C(=O)OCCOCCOCCOCCOC(=O)c1ccc(-c2c3nc(c(-c4ccc(S(=O)(=O)[O-])cc4)c4ccc([nH]4)c(-c4ccc(S(=O)(=O)[O-])cc4)c4nc(c(-c5ccc(S(=O)(=O)[O-])cc5)c5ccc2[nH]5)C=C4)C=C3)cc1
REMARK SMILES IDX 27 1 26 2 25 3 24 4 23 5 22 6 21 7 19 8 20 9 18 10 11 11
REMARK SMILES IDX 12 12 13 13 16 14 14 15 15 16 17 17 3 18 2 19 1 20 4 21 5 22
REMARK SMILES IDX 6 23 10 24 7 25 9 26 8 27 28 28 29 29 30 30 31 31 32 32
REMARK SMILES IDX 33 33 34 34 35 35 36 36 37 37 95 38 38 39 94 40 39 41 40 42
REMARK SMILES IDX 41 43 88 44 42 45 93 46 87 47 89 48 43 49 92 50 86 51 85 52
REMARK SMILES IDX 44 54 74 55 55 56 73 57 56 58 59 59 72 60 90 61 57 62 58 63
REMARK SMILES IDX 71 65 91 66 60 67 45 68 46 69 54 70 47 71 53 72 48 73 49 74
REMARK SMILES IDX 50 75 51 76 52 77 75 78 76 79 84 80 77 81 83 82 78 83 79 84
REMARK SMILES IDX 80 85 81 86 82 87 61 88 62 89 70 90 63 91 69 92 64 93 65 94
REMARK SMILES IDX 66 95 67 96 68 97
REMARK H PARENT 89 53 59 64
REMARK Flexibility Score: inf
ROOT
ATOM      1  O   UNL A   1      43.992  43.623  24.928  1.00  0.00    -0.377 OA
ENDROOT
BRANCH   1   2
ATOM      2  C   UNL A   1      43.942  44.123  23.598  1.00  0.00     0.188 C 
BRANCH   2   3
ATOM      3  C   UNL A   1      43.667  43.204  22.387  1.00  0.00     0.188 C 
BRANCH   3   4
ATOM      4  O   UNL A   1      44.438  43.449  21.225  1.00  0.00    -0.376 OA
BRANCH   4   5
ATOM      5  C   UNL A   1      45.474  42.547  20.883  1.00  0.00     0.202 C 
BRANCH   5   6
ATOM      6  C   UNL A   1      46.592  43.119  20.011  1.00  0.00     0.261 C 
BRANCH   6   7
ATOM      7  O   UNL A   1      46.240  44.367  19.404  1.00  0.00    -0.460 OA
BRANCH   7   8
ATOM      8  C   UNL A   1      46.805  45.503  19.879  1.00  0.00     0.342 C 
ATOM      9  O   UNL A   1      46.952  45.783  21.055  1.00  0.00    -0.246 OA
BRANCH   8  10
ATOM     10  C   UNL A   1      47.276  46.303  18.712  1.00  0.00     0.105 A 
ATOM     11  C   UNL A   1      46.467  47.339  18.197  1.00  0.00     0.144 A 
ATOM     12  N   UNL A   1      46.792  47.917  17.015  1.00  0.00    -0.235 NA
ATOM     13  C   UNL A   1      47.916  47.557  16.356  1.00  0.00     0.040 A 
ATOM     14  C   UNL A   1      48.502  45.986  18.062  1.00  0.00    -0.031 A 
ATOM     15  C   UNL A   1      48.133  48.174  15.010  1.00  0.00     0.067 C 
ATOM     16  C   UNL A   1      48.815  46.646  16.873  1.00  0.00     0.028 A 
ATOM     17  C   UNL A   1      49.520  45.004  18.590  1.00  0.00     0.045 C 
BRANCH  11  18
ATOM     18  N   UNL A   1      45.345  47.859  18.843  1.00  0.00    -0.350 N 
BRANCH  18  19
ATOM     19  C   UNL A   1      45.537  48.816  19.937  1.00  0.00     0.115 C 
ATOM     20  C   UNL A   1      44.362  49.790  20.000  1.00  0.00     0.027 C 
ENDBRANCH  18  19
BRANCH  18  21
ATOM     21  C   UNL A   1      44.149  48.094  18.021  1.00  0.00     0.174 C 
BRANCH  21  22
ATOM     22  C   UNL A   1      43.293  46.866  17.707  1.00  0.00     0.060 A 
ATOM     23  C   UNL A   1      43.128  45.894  18.693  1.00  0.00     0.026 A 
ATOM     24  N   UNL A   1      42.700  46.761  16.484  1.00  0.00    -0.259 NA
ATOM     25  C   UNL A   1      42.367  44.765  18.414  1.00  0.00     0.004 A 
ATOM     26  C   UNL A   1      41.998  45.634  16.232  1.00  0.00     0.111 A 
ATOM     27  C   UNL A   1      41.799  44.623  17.155  1.00  0.00     0.020 A 
ENDBRANCH  21  22
ENDBRANCH  18  21
ENDBRANCH  11  18
ENDBRANCH   8  10
ENDBRANCH   7   8
ENDBRANCH   6   7
ENDBRANCH   5   6
ENDBRANCH   4   5
ENDBRANCH   3   4
ENDBRANCH   2   3
ENDBRANCH   1   2
BRANCH   1  28
ATOM     28  C   UNL A   1      44.825  42.505  25.177  1.00  0.00     0.188 C 
BRANCH  28  29
ATOM     29  C   UNL A   1      44.141  41.331  25.916  1.00  0.00     0.188 C 
BRANCH  29  30
ATOM     30  O   UNL A   1      44.547  41.187  27.266  1.00  0.00    -0.376 OA
BRANCH  30  31
ATOM     31  C   UNL A   1      43.603  41.073  28.312  1.00  0.00     0.202 C 
BRANCH  31  32
ATOM     32  C   UNL A   1      42.177  40.528  28.122  1.00  0.00     0.261 C 
BRANCH  32  33
ATOM     33  O   UNL A   1      41.929  39.165  28.455  1.00  0.00    -0.460 OA
BRANCH  33  34
ATOM     34  C   UNL A   1      42.239  38.227  27.530  1.00  0.00     0.338 C 
ATOM     35  O   UNL A   1      42.503  38.405  26.365  1.00  0.00    -0.246 OA
BRANCH  34  36
ATOM     36  C   UNL A   1      42.420  36.960  28.280  1.00  0.00     0.060 A 
ATOM     37  C   UNL A   1      43.620  36.748  28.977  1.00  0.00     0.016 A 
ATOM     38  C   UNL A   1      41.371  36.042  28.374  1.00  0.00     0.016 A 
ATOM     39  C   UNL A   1      43.773  35.611  29.769  1.00  0.00     0.010 A 
ATOM     40  C   UNL A   1      41.545  34.880  29.123  1.00  0.00     0.010 A 
ATOM     41  C   UNL A   1      42.757  34.650  29.798  1.00  0.00    -0.014 A 
BRANCH  41  42
ATOM     42  C   UNL A   1      43.062  33.284  30.273  1.00  0.00     0.031 A 
ATOM     43  C   UNL A   1      42.686  32.962  31.694  1.00  0.00     0.074 A 
ATOM     44  C   UNL A   1      43.657  32.368  29.490  1.00  0.00     0.049 A 
ATOM     45  N   UNL A   1      42.915  31.881  32.388  1.00  0.00    -0.248 NA
ATOM     46  C   UNL A   1      41.957  34.010  32.432  1.00  0.00     0.031 C 
ATOM     47  C   UNL A   1      44.013  32.552  28.084  1.00  0.00     0.029 A 
ATOM     48  N   UNL A   1      44.078  31.095  29.782  1.00  0.00    -0.354 N 
ATOM     49  C   UNL A   1      42.379  32.127  33.646  1.00  0.00     0.074 A 
ATOM     50  C   UNL A   1      41.827  33.461  33.628  1.00  0.00     0.031 C 
ATOM     51  C   UNL A   1      44.612  31.431  27.638  1.00  0.00     0.029 A 
ATOM     52  C   UNL A   1      44.717  30.472  28.736  1.00  0.00     0.049 A 
ATOM     53  H   UNL A   1      43.934  30.669  30.657  1.00  0.00     0.167 HD
ATOM     54  C   UNL A   1      42.352  31.311  34.724  1.00  0.00     0.031 A 
ATOM     55  C   UNL A   1      45.336  29.275  28.690  1.00  0.00     0.031 A 
ATOM     56  C   UNL A   1      42.919  29.991  34.736  1.00  0.00     0.049 A 
ATOM     57  C   UNL A   1      45.366  28.418  29.934  1.00  0.00     0.074 A 
ATOM     58  C   UNL A   1      42.930  29.074  35.770  1.00  0.00     0.029 A 
ATOM     59  N   UNL A   1      43.585  29.409  33.668  1.00  0.00    -0.354 N 
ATOM     60  N   UNL A   1      44.829  28.646  31.109  1.00  0.00    -0.248 NA
ATOM     61  C   UNL A   1      46.084  27.137  29.842  1.00  0.00     0.031 C 
ATOM     62  C   UNL A   1      43.665  27.961  35.350  1.00  0.00     0.029 A 
ATOM     63  C   UNL A   1      44.040  28.154  34.030  1.00  0.00     0.049 A 
ATOM     64  H   UNL A   1      43.714  29.826  32.786  1.00  0.00     0.167 HD
ATOM     65  C   UNL A   1      45.106  27.520  31.880  1.00  0.00     0.074 A 
ATOM     66  C   UNL A   1      45.853  26.610  31.036  1.00  0.00     0.031 C 
ATOM     67  C   UNL A   1      44.767  27.258  33.167  1.00  0.00     0.031 A 
BRANCH  54  68
ATOM     68  C   UNL A   1      41.738  31.843  35.988  1.00  0.00    -0.014 A 
ATOM     69  C   UNL A   1      40.343  31.861  36.177  1.00  0.00     0.010 A 
ATOM     70  C   UNL A   1      42.575  32.291  37.025  1.00  0.00     0.010 A 
ATOM     71  C   UNL A   1      39.799  32.336  37.372  1.00  0.00     0.020 A 
ATOM     72  C   UNL A   1      42.037  32.739  38.233  1.00  0.00     0.020 A 
ATOM     73  C   UNL A   1      40.651  32.768  38.394  1.00  0.00     0.054 A 
BRANCH  73  74
ATOM     74  S   UNL A   1      39.918  33.327  39.956  1.00  0.00     0.124 S 
ATOM     75  O   UNL A   1      41.083  33.377  40.834  1.00  0.00    -0.237 OA
ATOM     76  O   UNL A   1      39.346  34.620  39.595  1.00  0.00    -0.237 OA
ATOM     77  O   UNL A   1      38.944  32.285  40.276  1.00  0.00    -0.744 OA
ENDBRANCH  73  74
ENDBRANCH  54  68
BRANCH  55  78
ATOM     78  C   UNL A   1      46.000  28.814  27.438  1.00  0.00    -0.014 A 
ATOM     79  C   UNL A   1      45.249  28.228  26.403  1.00  0.00     0.010 A 
ATOM     80  C   UNL A   1      47.395  28.925  27.286  1.00  0.00     0.010 A 
ATOM     81  C   UNL A   1      45.881  27.737  25.255  1.00  0.00     0.020 A 
ATOM     82  C   UNL A   1      48.028  28.465  26.127  1.00  0.00     0.020 A 
ATOM     83  C   UNL A   1      47.267  27.861  25.124  1.00  0.00     0.054 A 
BRANCH  83  84
ATOM     84  S   UNL A   1      48.060  27.243  23.614  1.00  0.00     0.124 S 
ATOM     85  O   UNL A   1      49.405  27.797  23.728  1.00  0.00    -0.237 OA
ATOM     86  O   UNL A   1      47.955  25.795  23.774  1.00  0.00    -0.237 OA
ATOM     87  O   UNL A   1      47.239  27.805  22.543  1.00  0.00    -0.744 OA
ENDBRANCH  83  84
ENDBRANCH  55  78
BRANCH  67  88
ATOM     88  C   UNL A   1      45.137  25.911  33.732  1.00  0.00    -0.014 A 
ATOM     89  C   UNL A   1      46.349  25.703  34.413  1.00  0.00     0.010 A 
ATOM     90  C   UNL A   1      44.206  24.857  33.651  1.00  0.00     0.010 A 
ATOM     91  C   UNL A   1      46.634  24.457  34.979  1.00  0.00     0.020 A 
ATOM     92  C   UNL A   1      44.473  23.621  34.245  1.00  0.00     0.020 A 
ATOM     93  C   UNL A   1      45.693  23.426  34.896  1.00  0.00     0.054 A 
BRANCH  93  94
ATOM     94  S   UNL A   1      46.063  21.838  35.691  1.00  0.00     0.124 S 
ATOM     95  O   UNL A   1      45.392  20.891  34.805  1.00  0.00    -0.237 OA
ATOM     96  O   UNL A   1      47.524  21.801  35.662  1.00  0.00    -0.237 OA
ATOM     97  O   UNL A   1      45.474  21.971  37.022  1.00  0.00    -0.744 OA
ENDBRANCH  93  94
ENDBRANCH  67  88
ENDBRANCH  41  42
ENDBRANCH  34  36
ENDBRANCH  33  34
ENDBRANCH  32  33
ENDBRANCH  31  32
ENDBRANCH  30  31
ENDBRANCH  29  30
ENDBRANCH  28  29
ENDBRANCH   1  28
TORSDOF 27
ENDMDL
MODEL 3
REMARK VINA RESULT:      -6.5      6.181     13.962
REMARK SMILES CCN(Cc1ccccn1)c1nc(C)cc(C)c1C(=O)OCCOCCOCCOCCOC(=O)c1ccc(-c2c3nc(c(-c4ccc(S(=O)(=O)[O-])cc4)c4ccc([nH]4)c(-c4ccc(S(=O)(=O)[O-])cc4)c4nc(c(-c5ccc(S(=O)(=O)[O-])cc5)c5ccc2[nH]5)C=C4)C=C3)cc1
REMARK SMILES IDX 27 1 26 2 25 3 24 4 23 5 22 6 21 7 19 8 20 9 18 10 11 11
REMARK SMILES IDX 12 12 13 13 16 14 14 15 15 16 17 17 3 18 2 19 1 20 4 21 5 22
REMARK SMILES IDX 6 23 10 24 7 25 9 26 8 27 28 28 29 29 30 30 31 31 32 32
REMARK SMILES IDX 33 33 34 34 35 35 36 36 37 37 95 38 38 39 94 40 39 41 40 42
REMARK SMILES IDX 41 43 88 44 42 45 93 46 87 47 89 48 43 49 92 50 86 51 85 52
REMARK SMILES IDX 44 54 74 55 55 56 73 57 56 58 59 59 72 60 90 61 57 62 58 63
REMARK SMILES IDX 71 65 91 66 60 67 45 68 46 69 54 70 47 71 53 72 48 73 49 74
REMARK SMILES IDX 50 75 51 76 52 77 75 78 76 79 84 80 77 81 83 82 78 83 79 84
REMARK SMILES IDX 80 85 81 86 82 87 61 88 62 89 70 90 63 91 69 92 64 93 65 94
REMARK SMILES IDX 66 95 67 96 68 97
REMARK H PARENT 89 53 59 64
REMARK Flexibility Score: inf
ROOT
ATOM      1  O   UNL A   1      43.940  41.575  31.958  1.00  0.00    -0.377 OA
ENDROOT
BRANCH   1   2
ATOM      2  C   UNL A   1      45.178  40.928  32.221  1.00  0.00     0.188 C 
BRANCH   2   3
ATOM      3  C   UNL A   1      46.379  41.034  31.254  1.00  0.00     0.188 C 
BRANCH   3   4
ATOM      4  O   UNL A   1      46.606  42.304  30.672  1.00  0.00    -0.376 OA
BRANCH   4   5
ATOM      5  C   UNL A   1      46.829  42.393  29.276  1.00  0.00     0.202 C 
BRANCH   5   6
ATOM      6  C   UNL A   1      47.150  43.789  28.742  1.00  0.00     0.261 C 
BRANCH   6   7
ATOM      7  O   UNL A   1      47.370  43.805  27.327  1.00  0.00    -0.460 OA
BRANCH   7   8
ATOM      8  C   UNL A   1      46.997  44.902  26.624  1.00  0.00     0.342 C 
ATOM      9  O   UNL A   1      46.261  45.784  27.025  1.00  0.00    -0.246 OA
BRANCH   8  10
ATOM     10  C   UNL A   1      47.708  44.868  25.313  1.00  0.00     0.105 A 
ATOM     11  C   UNL A   1      47.004  44.518  24.140  1.00  0.00     0.144 A 
ATOM     12  N   UNL A   1      47.689  44.279  22.996  1.00  0.00    -0.235 NA
ATOM     13  C   UNL A   1      49.031  44.433  22.949  1.00  0.00     0.040 A 
ATOM     14  C   UNL A   1      49.108  45.114  25.240  1.00  0.00    -0.031 A 
ATOM     15  C   UNL A   1      49.708  44.042  21.672  1.00  0.00     0.067 C 
ATOM     16  C   UNL A   1      49.759  44.901  24.024  1.00  0.00     0.028 A 
ATOM     17  C   UNL A   1      49.945  45.632  26.385  1.00  0.00     0.045 C 
BRANCH  11  18
ATOM     18  N   UNL A   1      45.615  44.431  24.051  1.00  0.00    -0.350 N 
BRANCH  18  19
ATOM     19  C   UNL A   1      44.849  45.639  23.726  1.00  0.00     0.115 C 
ATOM     20  C   UNL A   1      44.433  45.622  22.256  1.00  0.00     0.027 C 
ENDBRANCH  18  19
BRANCH  18  21
ATOM     21  C   UNL A   1      45.056  43.183  23.511  1.00  0.00     0.174 C 
BRANCH  21  22
ATOM     22  C   UNL A   1      44.057  42.449  24.405  1.00  0.00     0.060 A 
ATOM     23  C   UNL A   1      44.351  42.305  25.761  1.00  0.00     0.026 A 
ATOM     24  N   UNL A   1      42.900  41.973  23.863  1.00  0.00    -0.259 NA
ATOM     25  C   UNL A   1      43.458  41.624  26.581  1.00  0.00     0.004 A 
ATOM     26  C   UNL A   1      42.072  41.283  24.679  1.00  0.00     0.111 A 
ATOM     27  C   UNL A   1      42.300  41.091  26.030  1.00  0.00     0.020 A 
ENDBRANCH  21  22
ENDBRANCH  18  21
ENDBRANCH  11  18
ENDBRANCH   8  10
ENDBRANCH   7   8
ENDBRANCH   6   7
ENDBRANCH   5   6
ENDBRANCH   4   5
ENDBRANCH   3   4
ENDBRANCH   2   3
ENDBRANCH   1   2
BRANCH   1  28
ATOM     28  C   UNL A   1      42.837  40.760  31.605  1.00  0.00     0.188 C 
BRANCH  28  29
ATOM     29  C   UNL A   1      42.738  40.411  30.100  1.00  0.00     0.188 C 
BRANCH  29  30
ATOM     30  O   UNL A   1      43.276  39.143  29.767  1.00  0.00    -0.376 OA
BRANCH  30  31
ATOM     31  C   UNL A   1      44.251  39.000  28.754  1.00  0.00     0.202 C 
BRANCH  31  32
ATOM     32  C   UNL A   1      45.676  38.480  29.005  1.00  0.00     0.261 C 
BRANCH  32  33
ATOM     33  O   UNL A   1      45.865  37.500  30.023  1.00  0.00    -0.460 OA
BRANCH  33  34
ATOM     34  C   UNL A   1      47.089  36.935  30.130  1.00  0.00     0.338 C 
ATOM     35  O   UNL A   1      48.070  37.403  30.656  1.00  0.00    -0.246 OA
BRANCH  34  36
ATOM     36  C   UNL A   1      46.930  35.529  29.681  1.00  0.00     0.060 A 
ATOM     37  C   UNL A   1      46.485  35.279  28.374  1.00  0.00     0.016 A 
ATOM     38  C   UNL A   1      47.316  34.477  30.515  1.00  0.00     0.016 A 
ATOM     39  C   UNL A   1      46.423  33.971  27.898  1.00  0.00     0.010 A 
ATOM     40  C   UNL A   1      47.204  33.166  30.057  1.00  0.00     0.010 A 
ATOM     41  C   UNL A   1      46.730  32.910  28.758  1.00  0.00    -0.014 A 
BRANCH  41  42
ATOM     42  C   UNL A   1      46.276  31.545  28.418  1.00  0.00     0.031 A 
ATOM     43  C   UNL A   1      44.828  31.230  28.679  1.00  0.00     0.074 A 
ATOM     44  C   UNL A   1      47.106  30.617  27.914  1.00  0.00     0.049 A 
ATOM     45  N   UNL A   1      44.191  30.098  28.557  1.00  0.00    -0.248 NA
ATOM     46  C   UNL A   1      43.988  32.348  29.148  1.00  0.00     0.031 C 
ATOM     47  C   UNL A   1      48.512  30.829  27.568  1.00  0.00     0.029 A 
ATOM     48  N   UNL A   1      46.879  29.297  27.614  1.00  0.00    -0.354 N 
ATOM     49  C   UNL A   1      42.885  30.362  28.953  1.00  0.00     0.074 A 
ATOM     50  C   UNL A   1      42.821  31.754  29.334  1.00  0.00     0.031 C 
ATOM     51  C   UNL A   1      49.026  29.670  27.114  1.00  0.00     0.029 A 
ATOM     52  C   UNL A   1      48.000  28.631  27.175  1.00  0.00     0.049 A 
ATOM     53  H   UNL A   1      45.998  28.869  27.704  1.00  0.00     0.167 HD
ATOM     54  C   UNL A   1      41.832  29.516  28.999  1.00  0.00     0.031 A 
ATOM     55  C   UNL A   1      48.172  27.325  26.887  1.00  0.00     0.031 A 
ATOM     56  C   UNL A   1      41.910  28.129  28.634  1.00  0.00     0.049 A 
ATOM     57  C   UNL A   1      46.999  26.383  27.028  1.00  0.00     0.074 A 
ATOM     58  C   UNL A   1      40.898  27.188  28.626  1.00  0.00     0.029 A 
ATOM     59  N   UNL A   1      43.068  27.484  28.227  1.00  0.00    -0.354 N 
ATOM     60  N   UNL A   1      45.761  26.649  27.373  1.00  0.00    -0.248 NA
ATOM     61  C   UNL A   1      47.247  24.963  26.734  1.00  0.00     0.031 C 
ATOM     62  C   UNL A   1      41.459  25.955  28.279  1.00  0.00     0.029 A 
ATOM     63  C   UNL A   1      42.802  26.147  27.994  1.00  0.00     0.049 A 
ATOM     64  H   UNL A   1      43.947  27.914  28.118  1.00  0.00     0.167 HD
ATOM     65  C   UNL A   1      45.076  25.439  27.295  1.00  0.00     0.074 A 
ATOM     66  C   UNL A   1      46.035  24.443  26.865  1.00  0.00     0.031 C 
ATOM     67  C   UNL A   1      43.769  25.177  27.549  1.00  0.00     0.031 A 
BRANCH  54  68
ATOM     68  C   UNL A   1      40.524  30.054  29.509  1.00  0.00    -0.014 A 
ATOM     69  C   UNL A   1      39.435  30.276  28.646  1.00  0.00     0.010 A 
ATOM     70  C   UNL A   1      40.370  30.299  30.885  1.00  0.00     0.010 A 
ATOM     71  C   UNL A   1      38.222  30.752  29.150  1.00  0.00     0.020 A 
ATOM     72  C   UNL A   1      39.151  30.747  31.396  1.00  0.00     0.020 A 
ATOM     73  C   UNL A   1      38.087  30.980  30.523  1.00  0.00     0.054 A 
BRANCH  73  74
ATOM     74  S   UNL A   1      36.484  31.544  31.155  1.00  0.00     0.124 S 
ATOM     75  O   UNL A   1      36.880  32.613  32.068  1.00  0.00    -0.237 OA
ATOM     76  O   UNL A   1      35.797  31.976  29.942  1.00  0.00    -0.237 OA
ATOM     77  O   UNL A   1      35.925  30.356  31.797  1.00  0.00    -0.744 OA
ENDBRANCH  73  74
ENDBRANCH  54  68
BRANCH  55  78
ATOM     78  C   UNL A   1      49.504  26.814  26.456  1.00  0.00    -0.014 A 
ATOM     79  C   UNL A   1      49.823  26.708  25.090  1.00  0.00     0.010 A 
ATOM     80  C   UNL A   1      50.452  26.397  27.410  1.00  0.00     0.010 A 
ATOM     81  C   UNL A   1      51.049  26.169  24.686  1.00  0.00     0.020 A 
ATOM     82  C   UNL A   1      51.691  25.887  27.011  1.00  0.00     0.020 A 
ATOM     83  C   UNL A   1      51.976  25.763  25.650  1.00  0.00     0.054 A 
BRANCH  83  84
ATOM     84  S   UNL A   1      53.571  25.094  25.101  1.00  0.00     0.124 S 
ATOM     85  O   UNL A   1      54.484  25.612  26.115  1.00  0.00    -0.237 OA
ATOM     86  O   UNL A   1      53.335  23.653  25.136  1.00  0.00    -0.237 OA
ATOM     87  O   UNL A   1      53.735  25.658  23.763  1.00  0.00    -0.744 OA
ENDBRANCH  83  84
ENDBRANCH  55  78
BRANCH  67  88
ATOM     88  C   UNL A   1      43.273  23.775  27.308  1.00  0.00    -0.014 A 
ATOM     89  C   UNL A   1      43.018  22.888  28.367  1.00  0.00     0.010 A 
ATOM     90  C   UNL A   1      42.976  23.372  25.991  1.00  0.00     0.010 A 
ATOM     91  C   UNL A   1      42.500  21.615  28.113  1.00  0.00     0.020 A 
ATOM     92  C   UNL A   1      42.426  22.114  25.735  1.00  0.00     0.020 A 
ATOM     93  C   UNL A   1      42.203  21.238  26.799  1.00  0.00     0.054 A 
BRANCH  93  94
ATOM     94  S   UNL A   1      41.474  19.604  26.503  1.00  0.00     0.124 S 
ATOM     95  O   UNL A   1      40.207  19.947  25.862  1.00  0.00    -0.237 OA
ATOM     96  O   UNL A   1      42.464  18.966  25.638  1.00  0.00    -0.237 OA
ATOM     97  O   UNL A   1      41.360  19.027  27.841  1.00  0.00    -0.744 OA
ENDBRANCH  93  94
ENDBRANCH  67  88
ENDBRANCH  41  42
ENDBRANCH  34  36
ENDBRANCH  33  34
ENDBRANCH  32  33
ENDBRANCH  31  32
ENDBRANCH  30  31
ENDBRANCH  29  30
ENDBRANCH  28  29
ENDBRANCH   1  28
TORSDOF 27
ENDMDL
