MODEL 1
REMARK VINA RESULT:      -8.3      0.000      0.000
REMARK SMILES CC(C)Cc1s/c(=N/C(=O)CCC(=O)Nc2nccs2)[nH]c1C(=O)OCCOCCOCCOCCOC(=O)c1ccc(-c2c3nc(c(-c4ccc(S(=O)(=O)[O-])cc4)c4ccc([nH]4)c(-c4ccc(S(=O)(=O)[O-])cc4)c4nc(c(-c5ccc(S(=O)(=O)[O-])cc5)c5ccc2[nH]5)C=C4)C=C3)cc1
REMARK SMILES IDX 30 1 29 2 28 3 27 4 26 5 25 6 23 7 24 8 22 9 5 10 6 11 7 12
REMARK SMILES IDX 21 13 8 14 4 16 2 17 1 18 3 19 9 20 10 21 11 22 12 23 13 24
REMARK SMILES IDX 14 25 15 26 16 28 17 29 20 30 18 31 19 32 31 33 32 34 33 35
REMARK SMILES IDX 34 36 35 37 36 38 37 39 38 40 39 41 40 42 41 43 99 44 42 45
REMARK SMILES IDX 98 46 43 47 44 48 45 49 92 50 46 51 97 52 91 53 93 54 47 55
REMARK SMILES IDX 96 56 90 57 89 58 48 60 78 61 59 62 77 63 60 64 63 65 76 66
REMARK SMILES IDX 94 67 61 68 62 69 75 71 95 72 64 73 49 74 50 75 58 76 51 77
REMARK SMILES IDX 57 78 52 79 53 80 54 81 55 82 56 83 79 84 80 85 88 86 81 87
REMARK SMILES IDX 87 88 82 89 83 90 84 91 85 92 86 93 65 94 66 95 74 96 67 97
REMARK SMILES IDX 73 98 68 99 69 100 70 101 71 102 72 103
REMARK H PARENT 21 15 15 27 93 59 63 70
REMARK Flexibility Score: inf
ROOT
ATOM      1  C   UNL A   1      31.958  23.754  25.981  1.00  0.00     0.188 C 
ENDROOT
BRANCH   1   2
ATOM      2  C   UNL A   1      31.824  25.258  26.293  1.00  0.00     0.188 C 
BRANCH   2   3
ATOM      3  O   UNL A   1      32.826  26.188  25.914  1.00  0.00    -0.376 OA
BRANCH   3   4
ATOM      4  C   UNL A   1      33.811  25.902  24.933  1.00  0.00     0.202 C 
BRANCH   4   5
ATOM      5  C   UNL A   1      33.664  26.259  23.441  1.00  0.00     0.261 C 
BRANCH   5   6
ATOM      6  O   UNL A   1      33.451  27.632  23.121  1.00  0.00    -0.459 OA
BRANCH   6   7
ATOM      7  C   UNL A   1      32.171  28.043  23.037  1.00  0.00     0.356 C 
ATOM      8  O   UNL A   1      31.306  27.578  22.308  1.00  0.00    -0.244 OA
BRANCH   7   9
ATOM      9  C   UNL A   1      31.865  29.011  24.129  1.00  0.00     0.140 A 
ATOM     10  C   UNL A   1      30.748  29.748  24.321  1.00  0.00     0.039 A 
ATOM     11  S   UNL A   1      30.936  30.779  25.758  1.00  0.00    -0.101 S 
ATOM     12  C   UNL A   1      32.568  30.135  26.065  1.00  0.00     0.190 A 
ATOM     13  N   UNL A   1      32.847  29.237  25.080  1.00  0.00    -0.325 N 
ATOM     14  N   UNL A   1      33.220  30.589  27.068  1.00  0.00    -0.185 NA
ATOM     15  H   UNL A   1      33.711  28.767  25.046  1.00  0.00     0.169 HD
BRANCH  10  16
ATOM     16  C   UNL A   1      29.472  29.816  23.530  1.00  0.00     0.052 C 
BRANCH  16  17
ATOM     17  C   UNL A   1      29.422  31.050  22.609  1.00  0.00    -0.012 C 
ATOM     18  C   UNL A   1      28.833  30.717  21.235  1.00  0.00     0.008 C 
ATOM     19  C   UNL A   1      28.606  32.168  23.260  1.00  0.00     0.008 C 
ENDBRANCH  16  17
ENDBRANCH  10  16
BRANCH  14  20
ATOM     20  C   UNL A   1      34.528  30.214  27.211  1.00  0.00     0.248 C 
ATOM     21  O   UNL A   1      35.076  29.309  26.581  1.00  0.00    -0.273 OA
BRANCH  20  22
ATOM     22  C   UNL A   1      35.261  30.955  28.314  1.00  0.00     0.112 C 
BRANCH  22  23
ATOM     23  C   UNL A   1      34.513  32.077  29.026  1.00  0.00     0.110 C 
BRANCH  23  24
ATOM     24  C   UNL A   1      35.009  33.484  28.748  1.00  0.00     0.226 C 
ATOM     25  O   UNL A   1      35.311  33.811  27.595  1.00  0.00    -0.275 OA
ATOM     26  N   UNL A   1      35.092  34.421  29.736  1.00  0.00    -0.302 N 
ATOM     27  H   UNL A   1      35.275  35.347  29.457  1.00  0.00     0.172 HD
BRANCH  26  28
ATOM     28  C   UNL A   1      34.944  34.195  31.072  1.00  0.00     0.189 A 
ATOM     29  N   UNL A   1      33.847  34.209  31.785  1.00  0.00    -0.229 NA
ATOM     30  S   UNL A   1      36.373  33.746  31.890  1.00  0.00    -0.105 S 
ATOM     31  C   UNL A   1      34.122  33.767  33.061  1.00  0.00     0.125 A 
ATOM     32  C   UNL A   1      35.447  33.487  33.312  1.00  0.00     0.088 A 
ENDBRANCH  26  28
ENDBRANCH  23  24
ENDBRANCH  22  23
ENDBRANCH  20  22
ENDBRANCH  14  20
ENDBRANCH   7   9
ENDBRANCH   6   7
ENDBRANCH   5   6
ENDBRANCH   4   5
ENDBRANCH   3   4
ENDBRANCH   2   3
ENDBRANCH   1   2
BRANCH   1  33
ATOM     33  O   UNL A   1      31.789  23.442  24.611  1.00  0.00    -0.377 OA
BRANCH  33  34
ATOM     34  C   UNL A   1      32.887  22.781  23.987  1.00  0.00     0.188 C 
BRANCH  34  35
ATOM     35  C   UNL A   1      33.223  21.348  24.454  1.00  0.00     0.188 C 
BRANCH  35  36
ATOM     36  O   UNL A   1      34.338  21.284  25.343  1.00  0.00    -0.376 OA
BRANCH  36  37
ATOM     37  C   UNL A   1      35.570  21.836  24.904  1.00  0.00     0.202 C 
BRANCH  37  38
ATOM     38  C   UNL A   1      36.664  21.902  25.980  1.00  0.00     0.261 C 
BRANCH  38  39
ATOM     39  O   UNL A   1      37.740  22.805  25.695  1.00  0.00    -0.460 OA
BRANCH  39  40
ATOM     40  C   UNL A   1      38.972  22.394  26.065  1.00  0.00     0.338 C 
ATOM     41  O   UNL A   1      39.546  21.383  25.688  1.00  0.00    -0.246 OA
BRANCH  40  42
ATOM     42  C   UNL A   1      39.607  23.470  26.844  1.00  0.00     0.060 A 
ATOM     43  C   UNL A   1      39.144  24.779  26.667  1.00  0.00     0.016 A 
ATOM     44  C   UNL A   1      40.658  23.200  27.726  1.00  0.00     0.016 A 
ATOM     45  C   UNL A   1      39.773  25.833  27.327  1.00  0.00     0.010 A 
ATOM     46  C   UNL A   1      41.297  24.259  28.375  1.00  0.00     0.010 A 
ATOM     47  C   UNL A   1      40.886  25.584  28.139  1.00  0.00    -0.014 A 
BRANCH  47  48
ATOM     48  C   UNL A   1      41.733  26.726  28.558  1.00  0.00     0.031 A 
ATOM     49  C   UNL A   1      42.955  27.049  27.739  1.00  0.00     0.074 A 
ATOM     50  C   UNL A   1      41.384  27.509  29.595  1.00  0.00     0.049 A 
ATOM     51  N   UNL A   1      43.810  28.028  27.874  1.00  0.00    -0.248 NA
ATOM     52  C   UNL A   1      43.249  26.146  26.611  1.00  0.00     0.031 C 
ATOM     53  C   UNL A   1      40.201  27.325  30.434  1.00  0.00     0.029 A 
ATOM     54  N   UNL A   1      41.993  28.626  30.109  1.00  0.00    -0.354 N 
ATOM     55  C   UNL A   1      44.741  27.859  26.856  1.00  0.00     0.074 A 
ATOM     56  C   UNL A   1      44.371  26.662  26.135  1.00  0.00     0.031 C 
ATOM     57  C   UNL A   1      40.166  28.303  31.356  1.00  0.00     0.029 A 
ATOM     58  C   UNL A   1      41.337  29.163  31.191  1.00  0.00     0.049 A 
ATOM     59  H   UNL A   1      42.820  29.009  29.737  1.00  0.00     0.167 HD
ATOM     60  C   UNL A   1      45.805  28.637  26.541  1.00  0.00     0.031 A 
ATOM     61  C   UNL A   1      41.653  30.220  31.966  1.00  0.00     0.031 A 
ATOM     62  C   UNL A   1      46.180  29.817  27.274  1.00  0.00     0.049 A 
ATOM     63  C   UNL A   1      42.882  31.029  31.640  1.00  0.00     0.074 A 
ATOM     64  C   UNL A   1      47.236  30.678  27.033  1.00  0.00     0.029 A 
ATOM     65  N   UNL A   1      45.519  30.298  28.394  1.00  0.00    -0.354 N 
ATOM     66  N   UNL A   1      43.741  30.871  30.659  1.00  0.00    -0.248 NA
ATOM     67  C   UNL A   1      43.175  32.173  32.516  1.00  0.00     0.031 C 
ATOM     68  C   UNL A   1      47.253  31.642  28.047  1.00  0.00     0.029 A 
ATOM     69  C   UNL A   1      46.160  31.429  28.871  1.00  0.00     0.049 A 
ATOM     70  H   UNL A   1      44.714  29.895  28.791  1.00  0.00     0.167 HD
ATOM     71  C   UNL A   1      44.650  31.918  30.778  1.00  0.00     0.074 A 
ATOM     72  C   UNL A   1      44.230  32.707  31.917  1.00  0.00     0.031 C 
ATOM     73  C   UNL A   1      45.731  32.205  30.009  1.00  0.00     0.031 A 
BRANCH  60  74
ATOM     74  C   UNL A   1      46.662  28.208  25.378  1.00  0.00    -0.014 A 
ATOM     75  C   UNL A   1      46.338  28.568  24.055  1.00  0.00     0.010 A 
ATOM     76  C   UNL A   1      47.829  27.460  25.614  1.00  0.00     0.010 A 
ATOM     77  C   UNL A   1      47.146  28.155  22.993  1.00  0.00     0.020 A 
ATOM     78  C   UNL A   1      48.657  27.073  24.558  1.00  0.00     0.020 A 
ATOM     79  C   UNL A   1      48.300  27.410  23.251  1.00  0.00     0.054 A 
BRANCH  79  80
ATOM     80  S   UNL A   1      49.343  26.909  21.853  1.00  0.00     0.124 S 
ATOM     81  O   UNL A   1      50.632  26.691  22.501  1.00  0.00    -0.237 OA
ATOM     82  O   UNL A   1      48.670  25.706  21.369  1.00  0.00    -0.237 OA
ATOM     83  O   UNL A   1      49.287  28.057  20.950  1.00  0.00    -0.744 OA
ENDBRANCH  79  80
ENDBRANCH  60  74
BRANCH  61  84
ATOM     84  C   UNL A   1      40.794  30.572  33.131  1.00  0.00    -0.014 A 
ATOM     85  C   UNL A   1      39.533  31.167  32.948  1.00  0.00     0.010 A 
ATOM     86  C   UNL A   1      41.242  30.315  34.440  1.00  0.00     0.010 A 
ATOM     87  C   UNL A   1      38.745  31.513  34.050  1.00  0.00     0.020 A 
ATOM     88  C   UNL A   1      40.445  30.630  35.543  1.00  0.00     0.020 A 
ATOM     89  C   UNL A   1      39.204  31.238  35.342  1.00  0.00     0.054 A 
BRANCH  89  90
ATOM     90  S   UNL A   1      38.142  31.647  36.755  1.00  0.00     0.124 S 
ATOM     91  O   UNL A   1      37.206  32.598  36.167  1.00  0.00    -0.237 OA
ATOM     92  O   UNL A   1      37.584  30.345  37.113  1.00  0.00    -0.237 OA
ATOM     93  O   UNL A   1      39.074  32.205  37.732  1.00  0.00    -0.744 OA
ENDBRANCH  89  90
ENDBRANCH  61  84
BRANCH  73  94
ATOM     94  C   UNL A   1      46.505  33.457  30.335  1.00  0.00    -0.014 A 
ATOM     95  C   UNL A   1      46.244  34.679  29.690  1.00  0.00     0.010 A 
ATOM     96  C   UNL A   1      47.491  33.413  31.339  1.00  0.00     0.010 A 
ATOM     97  C   UNL A   1      46.989  35.820  30.007  1.00  0.00     0.020 A 
ATOM     98  C   UNL A   1      48.212  34.558  31.685  1.00  0.00     0.020 A 
ATOM     99  C   UNL A   1      47.971  35.750  31.001  1.00  0.00     0.054 A 
BRANCH  99 100
ATOM    100  S   UNL A   1      48.912  37.246  31.406  1.00  0.00     0.124 S 
ATOM    101  O   UNL A   1      48.679  37.372  32.843  1.00  0.00    -0.237 OA
ATOM    102  O   UNL A   1      50.273  36.881  31.020  1.00  0.00    -0.237 OA
ATOM    103  O   UNL A   1      48.293  38.281  30.581  1.00  0.00    -0.744 OA
ENDBRANCH  99 100
ENDBRANCH  73  94
ENDBRANCH  47  48
ENDBRANCH  40  42
ENDBRANCH  39  40
ENDBRANCH  38  39
ENDBRANCH  37  38
ENDBRANCH  36  37
ENDBRANCH  35  36
ENDBRANCH  34  35
ENDBRANCH  33  34
ENDBRANCH   1  33
TORSDOF 30
ENDMDL
MODEL 2
REMARK VINA RESULT:      -7.4      3.349      4.446
REMARK SMILES CC(C)Cc1s/c(=N/C(=O)CCC(=O)Nc2nccs2)[nH]c1C(=O)OCCOCCOCCOCCOC(=O)c1ccc(-c2c3nc(c(-c4ccc(S(=O)(=O)[O-])cc4)c4ccc([nH]4)c(-c4ccc(S(=O)(=O)[O-])cc4)c4nc(c(-c5ccc(S(=O)(=O)[O-])cc5)c5ccc2[nH]5)C=C4)C=C3)cc1
REMARK SMILES IDX 30 1 29 2 28 3 27 4 26 5 25 6 23 7 24 8 22 9 5 10 6 11 7 12
REMARK SMILES IDX 21 13 8 14 4 16 2 17 1 18 3 19 9 20 10 21 11 22 12 23 13 24
REMARK SMILES IDX 14 25 15 26 16 28 17 29 20 30 18 31 19 32 31 33 32 34 33 35
REMARK SMILES IDX 34 36 35 37 36 38 37 39 38 40 39 41 40 42 41 43 99 44 42 45
REMARK SMILES IDX 98 46 43 47 44 48 45 49 92 50 46 51 97 52 91 53 93 54 47 55
REMARK SMILES IDX 96 56 90 57 89 58 48 60 78 61 59 62 77 63 60 64 63 65 76 66
REMARK SMILES IDX 94 67 61 68 62 69 75 71 95 72 64 73 49 74 50 75 58 76 51 77
REMARK SMILES IDX 57 78 52 79 53 80 54 81 55 82 56 83 79 84 80 85 88 86 81 87
REMARK SMILES IDX 87 88 82 89 83 90 84 91 85 92 86 93 65 94 66 95 74 96 67 97
REMARK SMILES IDX 73 98 68 99 69 100 70 101 71 102 72 103
REMARK H PARENT 21 15 15 27 93 59 63 70
REMARK Flexibility Score: inf
ROOT
ATOM      1  C   UNL A   1      30.961  25.742  26.156  1.00  0.00     0.188 C 
ENDROOT
BRANCH   1   2
ATOM      2  C   UNL A   1      31.754  26.877  26.834  1.00  0.00     0.188 C 
BRANCH   2   3
ATOM      3  O   UNL A   1      33.156  27.011  26.661  1.00  0.00    -0.376 OA
BRANCH   3   4
ATOM      4  C   UNL A   1      33.885  26.277  25.688  1.00  0.00     0.202 C 
BRANCH   4   5
ATOM      5  C   UNL A   1      33.861  26.594  24.181  1.00  0.00     0.261 C 
BRANCH   5   6
ATOM      6  O   UNL A   1      34.229  27.915  23.789  1.00  0.00    -0.459 OA
BRANCH   6   7
ATOM      7  C   UNL A   1      33.236  28.717  23.357  1.00  0.00     0.356 C 
ATOM      8  O   UNL A   1      32.730  28.709  22.244  1.00  0.00    -0.244 OA
BRANCH   7   9
ATOM      9  C   UNL A   1      32.658  29.484  24.498  1.00  0.00     0.140 A 
ATOM     10  C   UNL A   1      31.370  29.826  24.723  1.00  0.00     0.039 A 
ATOM     11  S   UNL A   1      31.244  30.789  26.213  1.00  0.00    -0.101 S 
ATOM     12  C   UNL A   1      33.000  30.670  26.492  1.00  0.00     0.190 A 
ATOM     13  N   UNL A   1      33.532  29.955  25.464  1.00  0.00    -0.325 N 
ATOM     14  N   UNL A   1      33.489  31.252  27.521  1.00  0.00    -0.185 NA
ATOM     15  H   UNL A   1      34.499  29.779  25.409  1.00  0.00     0.169 HD
BRANCH  10  16
ATOM     16  C   UNL A   1      30.126  29.534  23.930  1.00  0.00     0.052 C 
BRANCH  16  17
ATOM     17  C   UNL A   1      29.628  30.766  23.151  1.00  0.00    -0.012 C 
ATOM     18  C   UNL A   1      29.433  30.464  21.663  1.00  0.00     0.008 C 
ATOM     19  C   UNL A   1      28.317  31.280  23.747  1.00  0.00     0.008 C 
ENDBRANCH  16  17
ENDBRANCH  10  16
BRANCH  14  20
ATOM     20  C   UNL A   1      34.851  31.296  27.651  1.00  0.00     0.248 C 
ATOM     21  O   UNL A   1      35.593  30.314  27.638  1.00  0.00    -0.273 OA
BRANCH  20  22
ATOM     22  C   UNL A   1      35.397  32.686  27.920  1.00  0.00     0.112 C 
BRANCH  22  23
ATOM     23  C   UNL A   1      36.043  32.938  29.277  1.00  0.00     0.110 C 
BRANCH  23  24
ATOM     24  C   UNL A   1      35.336  32.324  30.472  1.00  0.00     0.226 C 
ATOM     25  O   UNL A   1      35.586  31.158  30.799  1.00  0.00    -0.275 OA
ATOM     26  N   UNL A   1      34.458  33.041  31.229  1.00  0.00    -0.302 N 
ATOM     27  H   UNL A   1      34.157  32.630  32.071  1.00  0.00     0.172 HD
BRANCH  26  28
ATOM     28  C   UNL A   1      33.960  34.275  30.931  1.00  0.00     0.189 A 
ATOM     29  N   UNL A   1      33.235  34.635  29.903  1.00  0.00    -0.229 NA
ATOM     30  S   UNL A   1      34.250  35.474  32.110  1.00  0.00    -0.105 S 
ATOM     31  C   UNL A   1      32.808  35.934  30.074  1.00  0.00     0.125 A 
ATOM     32  C   UNL A   1      33.276  36.561  31.207  1.00  0.00     0.088 A 
ENDBRANCH  26  28
ENDBRANCH  23  24
ENDBRANCH  22  23
ENDBRANCH  20  22
ENDBRANCH  14  20
ENDBRANCH   7   9
ENDBRANCH   6   7
ENDBRANCH   5   6
ENDBRANCH   4   5
ENDBRANCH   3   4
ENDBRANCH   2   3
ENDBRANCH   1   2
BRANCH   1  33
ATOM     33  O   UNL A   1      30.153  26.178  25.079  1.00  0.00    -0.377 OA
BRANCH  33  34
ATOM     34  C   UNL A   1      30.652  25.887  23.776  1.00  0.00     0.188 C 
BRANCH  34  35
ATOM     35  C   UNL A   1      30.073  24.659  23.041  1.00  0.00     0.188 C 
BRANCH  35  36
ATOM     36  O   UNL A   1      30.579  23.415  23.524  1.00  0.00    -0.376 OA
BRANCH  36  37
ATOM     37  C   UNL A   1      31.945  23.115  23.286  1.00  0.00     0.202 C 
BRANCH  37  38
ATOM     38  C   UNL A   1      32.817  23.041  24.548  1.00  0.00     0.261 C 
BRANCH  38  39
ATOM     39  O   UNL A   1      34.226  22.944  24.306  1.00  0.00    -0.460 OA
BRANCH  39  40
ATOM     40  C   UNL A   1      34.934  22.230  25.207  1.00  0.00     0.338 C 
ATOM     41  O   UNL A   1      34.880  21.022  25.384  1.00  0.00    -0.246 OA
BRANCH  40  42
ATOM     42  C   UNL A   1      35.945  23.114  25.812  1.00  0.00     0.060 A 
ATOM     43  C   UNL A   1      36.865  23.745  24.968  1.00  0.00     0.016 A 
ATOM     44  C   UNL A   1      35.999  23.308  27.195  1.00  0.00     0.016 A 
ATOM     45  C   UNL A   1      37.883  24.525  25.510  1.00  0.00     0.010 A 
ATOM     46  C   UNL A   1      37.030  24.078  27.739  1.00  0.00     0.010 A 
ATOM     47  C   UNL A   1      38.004  24.649  26.900  1.00  0.00    -0.014 A 
BRANCH  47  48
ATOM     48  C   UNL A   1      39.263  25.194  27.460  1.00  0.00     0.031 A 
ATOM     49  C   UNL A   1      40.554  24.487  27.138  1.00  0.00     0.074 A 
ATOM     50  C   UNL A   1      39.273  26.335  28.174  1.00  0.00     0.049 A 
ATOM     51  N   UNL A   1      41.778  24.807  27.463  1.00  0.00    -0.248 NA
ATOM     52  C   UNL A   1      40.448  23.255  26.336  1.00  0.00     0.031 C 
ATOM     53  C   UNL A   1      38.094  27.132  28.511  1.00  0.00     0.029 A 
ATOM     54  N   UNL A   1      40.319  27.024  28.733  1.00  0.00    -0.354 N 
ATOM     55  C   UNL A   1      42.586  23.820  26.912  1.00  0.00     0.074 A 
ATOM     56  C   UNL A   1      41.712  22.868  26.265  1.00  0.00     0.031 C 
ATOM     57  C   UNL A   1      38.486  28.209  29.214  1.00  0.00     0.029 A 
ATOM     58  C   UNL A   1      39.935  28.161  29.402  1.00  0.00     0.049 A 
ATOM     59  H   UNL A   1      41.256  26.733  28.661  1.00  0.00     0.167 HD
ATOM     60  C   UNL A   1      43.937  23.718  26.932  1.00  0.00     0.031 A 
ATOM     61  C   UNL A   1      40.669  29.055  30.096  1.00  0.00     0.031 A 
ATOM     62  C   UNL A   1      44.802  24.658  27.594  1.00  0.00     0.049 A 
ATOM     63  C   UNL A   1      42.165  28.882  30.164  1.00  0.00     0.074 A 
ATOM     64  C   UNL A   1      46.184  24.649  27.667  1.00  0.00     0.029 A 
ATOM     65  N   UNL A   1      44.370  25.769  28.302  1.00  0.00    -0.354 N 
ATOM     66  N   UNL A   1      42.916  27.955  29.618  1.00  0.00    -0.248 NA
ATOM     67  C   UNL A   1      42.913  29.889  30.931  1.00  0.00     0.031 C 
ATOM     68  C   UNL A   1      46.584  25.718  28.477  1.00  0.00     0.029 A 
ATOM     69  C   UNL A   1      45.457  26.439  28.839  1.00  0.00     0.049 A 
ATOM     70  H   UNL A   1      43.430  26.041  28.409  1.00  0.00     0.167 HD
ATOM     71  C   UNL A   1      44.228  28.291  29.940  1.00  0.00     0.074 A 
ATOM     72  C   UNL A   1      44.166  29.511  30.719  1.00  0.00     0.031 C 
ATOM     73  C   UNL A   1      45.381  27.653  29.615  1.00  0.00     0.031 A 
BRANCH  60  74
ATOM     74  C   UNL A   1      44.556  22.524  26.252  1.00  0.00    -0.014 A 
ATOM     75  C   UNL A   1      43.964  21.249  26.322  1.00  0.00     0.010 A 
ATOM     76  C   UNL A   1      45.735  22.688  25.502  1.00  0.00     0.010 A 
ATOM     77  C   UNL A   1      44.559  20.156  25.686  1.00  0.00     0.020 A 
ATOM     78  C   UNL A   1      46.316  21.604  24.839  1.00  0.00     0.020 A 
ATOM     79  C   UNL A   1      45.732  20.341  24.949  1.00  0.00     0.054 A 
BRANCH  79  80
ATOM     80  S   UNL A   1      46.469  18.909  24.114  1.00  0.00     0.124 S 
ATOM     81  O   UNL A   1      47.778  19.427  23.726  1.00  0.00    -0.237 OA
ATOM     82  O   UNL A   1      46.480  17.897  25.167  1.00  0.00    -0.237 OA
ATOM     83  O   UNL A   1      45.553  18.643  23.007  1.00  0.00    -0.744 OA
ENDBRANCH  79  80
ENDBRANCH  60  74
BRANCH  61  84
ATOM     84  C   UNL A   1      39.998  30.193  30.786  1.00  0.00    -0.014 A 
ATOM     85  C   UNL A   1      39.546  30.071  32.112  1.00  0.00     0.010 A 
ATOM     86  C   UNL A   1      39.803  31.411  30.110  1.00  0.00     0.010 A 
ATOM     87  C   UNL A   1      38.899  31.138  32.742  1.00  0.00     0.020 A 
ATOM     88  C   UNL A   1      39.185  32.491  30.745  1.00  0.00     0.020 A 
ATOM     89  C   UNL A   1      38.727  32.344  32.055  1.00  0.00     0.054 A 
BRANCH  89  90
ATOM     90  S   UNL A   1      37.932  33.733  32.910  1.00  0.00     0.124 S 
ATOM     91  O   UNL A   1      37.737  34.688  31.825  1.00  0.00    -0.237 OA
ATOM     92  O   UNL A   1      36.717  33.118  33.441  1.00  0.00    -0.237 OA
ATOM     93  O   UNL A   1      38.915  34.121  33.918  1.00  0.00    -0.744 OA
ENDBRANCH  89  90
ENDBRANCH  61  84
BRANCH  73  94
ATOM     94  C   UNL A   1      46.676  28.290  30.048  1.00  0.00    -0.014 A 
ATOM     95  C   UNL A   1      47.378  27.847  31.183  1.00  0.00     0.010 A 
ATOM     96  C   UNL A   1      47.221  29.333  29.274  1.00  0.00     0.010 A 
ATOM     97  C   UNL A   1      48.571  28.468  31.565  1.00  0.00     0.020 A 
ATOM     98  C   UNL A   1      48.431  29.932  29.631  1.00  0.00     0.020 A 
ATOM     99  C   UNL A   1      49.088  29.509  30.787  1.00  0.00     0.054 A 
BRANCH  99 100
ATOM    100  S   UNL A   1      50.645  30.288  31.293  1.00  0.00     0.124 S 
ATOM    101  O   UNL A   1      50.431  30.495  32.723  1.00  0.00    -0.237 OA
ATOM    102  O   UNL A   1      51.638  29.273  30.947  1.00  0.00    -0.237 OA
ATOM    103  O   UNL A   1      50.703  31.506  30.488  1.00  0.00    -0.744 OA
ENDBRANCH  99 100
ENDBRANCH  73  94
ENDBRANCH  47  48
ENDBRANCH  40  42
ENDBRANCH  39  40
ENDBRANCH  38  39
ENDBRANCH  37  38
ENDBRANCH  36  37
ENDBRANCH  35  36
ENDBRANCH  34  35
ENDBRANCH  33  34
ENDBRANCH   1  33
TORSDOF 30
ENDMDL
MODEL 3
REMARK VINA RESULT:      -6.5      5.435     11.693
REMARK SMILES CC(C)Cc1s/c(=N/C(=O)CCC(=O)Nc2nccs2)[nH]c1C(=O)OCCOCCOCCOCCOC(=O)c1ccc(-c2c3nc(c(-c4ccc(S(=O)(=O)[O-])cc4)c4ccc([nH]4)c(-c4ccc(S(=O)(=O)[O-])cc4)c4nc(c(-c5ccc(S(=O)(=O)[O-])cc5)c5ccc2[nH]5)C=C4)C=C3)cc1
REMARK SMILES IDX 30 1 29 2 28 3 27 4 26 5 25 6 23 7 24 8 22 9 5 10 6 11 7 12
REMARK SMILES IDX 21 13 8 14 4 16 2 17 1 18 3 19 9 20 10 21 11 22 12 23 13 24
REMARK SMILES IDX 14 25 15 26 16 28 17 29 20 30 18 31 19 32 31 33 32 34 33 35
REMARK SMILES IDX 34 36 35 37 36 38 37 39 38 40 39 41 40 42 41 43 99 44 42 45
REMARK SMILES IDX 98 46 43 47 44 48 45 49 92 50 46 51 97 52 91 53 93 54 47 55
REMARK SMILES IDX 96 56 90 57 89 58 48 60 78 61 59 62 77 63 60 64 63 65 76 66
REMARK SMILES IDX 94 67 61 68 62 69 75 71 95 72 64 73 49 74 50 75 58 76 51 77
REMARK SMILES IDX 57 78 52 79 53 80 54 81 55 82 56 83 79 84 80 85 88 86 81 87
REMARK SMILES IDX 87 88 82 89 83 90 84 91 85 92 86 93 65 94 66 95 74 96 67 97
REMARK SMILES IDX 73 98 68 99 69 100 70 101 71 102 72 103
REMARK H PARENT 21 15 15 27 93 59 63 70
REMARK Flexibility Score: inf
ROOT
ATOM      1  C   UNL A   1      40.934  33.611  30.423  1.00  0.00     0.188 C 
ENDROOT
BRANCH   1   2
ATOM      2  C   UNL A   1      41.603  34.750  31.219  1.00  0.00     0.188 C 
BRANCH   2   3
ATOM      3  O   UNL A   1      42.237  34.512  32.465  1.00  0.00    -0.376 OA
BRANCH   3   4
ATOM      4  C   UNL A   1      43.157  33.450  32.672  1.00  0.00     0.202 C 
BRANCH   4   5
ATOM      5  C   UNL A   1      43.595  32.955  34.063  1.00  0.00     0.261 C 
BRANCH   5   6
ATOM      6  O   UNL A   1      42.782  33.334  35.172  1.00  0.00    -0.459 OA
BRANCH   6   7
ATOM      7  C   UNL A   1      42.427  32.354  36.025  1.00  0.00     0.356 C 
ATOM      8  O   UNL A   1      42.661  32.316  37.225  1.00  0.00    -0.244 OA
BRANCH   7   9
ATOM      9  C   UNL A   1      41.493  31.402  35.358  1.00  0.00     0.140 A 
ATOM     10  C   UNL A   1      40.273  31.643  34.827  1.00  0.00     0.039 A 
ATOM     11  S   UNL A   1      39.569  30.133  34.204  1.00  0.00    -0.101 S 
ATOM     12  C   UNL A   1      41.012  29.206  34.687  1.00  0.00     0.190 A 
ATOM     13  N   UNL A   1      41.877  30.073  35.281  1.00  0.00    -0.325 N 
ATOM     14  N   UNL A   1      41.027  27.947  34.459  1.00  0.00    -0.185 NA
ATOM     15  H   UNL A   1      42.741  29.768  35.640  1.00  0.00     0.169 HD
BRANCH  10  16
ATOM     16  C   UNL A   1      39.488  32.919  34.716  1.00  0.00     0.052 C 
BRANCH  16  17
ATOM     17  C   UNL A   1      38.407  33.036  35.807  1.00  0.00    -0.012 C 
ATOM     18  C   UNL A   1      39.015  33.212  37.201  1.00  0.00     0.008 C 
ATOM     19  C   UNL A   1      37.469  34.206  35.505  1.00  0.00     0.008 C 
ENDBRANCH  16  17
ENDBRANCH  10  16
BRANCH  14  20
ATOM     20  C   UNL A   1      42.061  27.211  34.970  1.00  0.00     0.248 C 
ATOM     21  O   UNL A   1      42.331  27.108  36.166  1.00  0.00    -0.273 OA
BRANCH  20  22
ATOM     22  C   UNL A   1      42.948  26.583  33.911  1.00  0.00     0.112 C 
BRANCH  22  23
ATOM     23  C   UNL A   1      44.117  27.411  33.390  1.00  0.00     0.110 C 
BRANCH  23  24
ATOM     24  C   UNL A   1      44.707  26.965  32.064  1.00  0.00     0.226 C 
ATOM     25  O   UNL A   1      43.954  26.667  31.129  1.00  0.00    -0.275 OA
ATOM     26  N   UNL A   1      46.053  26.925  31.858  1.00  0.00    -0.302 N 
ATOM     27  H   UNL A   1      46.358  26.775  30.933  1.00  0.00     0.172 HD
BRANCH  26  28
ATOM     28  C   UNL A   1      47.018  27.076  32.810  1.00  0.00     0.189 A 
ATOM     29  N   UNL A   1      47.633  28.169  33.183  1.00  0.00    -0.229 NA
ATOM     30  S   UNL A   1      47.394  25.659  33.684  1.00  0.00    -0.105 S 
ATOM     31  C   UNL A   1      48.413  27.903  34.287  1.00  0.00     0.125 A 
ATOM     32  C   UNL A   1      48.426  26.587  34.694  1.00  0.00     0.088 A 
ENDBRANCH  26  28
ENDBRANCH  23  24
ENDBRANCH  22  23
ENDBRANCH  20  22
ENDBRANCH  14  20
ENDBRANCH   7   9
ENDBRANCH   6   7
ENDBRANCH   5   6
ENDBRANCH   4   5
ENDBRANCH   3   4
ENDBRANCH   2   3
ENDBRANCH   1   2
BRANCH   1  33
ATOM     33  O   UNL A   1      39.636  33.929  29.958  1.00  0.00    -0.377 OA
BRANCH  33  34
ATOM     34  C   UNL A   1      38.736  34.438  30.939  1.00  0.00     0.188 C 
BRANCH  34  35
ATOM     35  C   UNL A   1      37.296  33.880  30.953  1.00  0.00     0.188 C 
BRANCH  35  36
ATOM     36  O   UNL A   1      36.863  33.452  32.244  1.00  0.00    -0.376 OA
BRANCH  36  37
ATOM     37  C   UNL A   1      35.964  32.357  32.315  1.00  0.00     0.202 C 
BRANCH  37  38
ATOM     38  C   UNL A   1      35.790  31.583  31.000  1.00  0.00     0.261 C 
BRANCH  38  39
ATOM     39  O   UNL A   1      36.985  30.978  30.489  1.00  0.00    -0.460 OA
BRANCH  39  40
ATOM     40  C   UNL A   1      37.289  29.759  30.983  1.00  0.00     0.338 C 
ATOM     41  O   UNL A   1      36.619  29.101  31.764  1.00  0.00    -0.246 OA
BRANCH  40  42
ATOM     42  C   UNL A   1      38.471  29.249  30.266  1.00  0.00     0.060 A 
ATOM     43  C   UNL A   1      39.434  28.540  30.995  1.00  0.00     0.016 A 
ATOM     44  C   UNL A   1      38.641  29.478  28.898  1.00  0.00     0.016 A 
ATOM     45  C   UNL A   1      40.601  28.112  30.369  1.00  0.00     0.010 A 
ATOM     46  C   UNL A   1      39.820  29.061  28.274  1.00  0.00     0.010 A 
ATOM     47  C   UNL A   1      40.824  28.418  29.020  1.00  0.00    -0.014 A 
BRANCH  47  48
ATOM     48  C   UNL A   1      42.190  28.252  28.468  1.00  0.00     0.031 A 
ATOM     49  C   UNL A   1      43.135  29.424  28.532  1.00  0.00     0.074 A 
ATOM     50  C   UNL A   1      42.610  27.066  27.991  1.00  0.00     0.049 A 
ATOM     51  N   UNL A   1      44.388  29.500  28.169  1.00  0.00    -0.248 NA
ATOM     52  C   UNL A   1      42.593  30.677  29.086  1.00  0.00     0.031 C 
ATOM     53  C   UNL A   1      41.802  25.849  27.920  1.00  0.00     0.029 A 
ATOM     54  N   UNL A   1      43.829  26.693  27.486  1.00  0.00    -0.354 N 
ATOM     55  C   UNL A   1      44.783  30.803  28.446  1.00  0.00     0.074 A 
ATOM     56  C   UNL A   1      43.627  31.495  28.970  1.00  0.00     0.031 C 
ATOM     57  C   UNL A   1      42.553  24.859  27.406  1.00  0.00     0.029 A 
ATOM     58  C   UNL A   1      43.882  25.379  27.086  1.00  0.00     0.049 A 
ATOM     59  H   UNL A   1      44.595  27.307  27.418  1.00  0.00     0.167 HD
ATOM     60  C   UNL A   1      46.002  31.373  28.287  1.00  0.00     0.031 A 
ATOM     61  C   UNL A   1      44.885  24.680  26.518  1.00  0.00     0.031 A 
ATOM     62  C   UNL A   1      47.144  30.685  27.748  1.00  0.00     0.049 A 
ATOM     63  C   UNL A   1      46.213  25.355  26.286  1.00  0.00     0.074 A 
ATOM     64  C   UNL A   1      48.426  31.170  27.553  1.00  0.00     0.029 A 
ATOM     65  N   UNL A   1      47.142  29.370  27.308  1.00  0.00    -0.354 N 
ATOM     66  N   UNL A   1      46.578  26.583  26.575  1.00  0.00    -0.248 NA
ATOM     67  C   UNL A   1      47.270  24.543  25.667  1.00  0.00     0.031 C 
ATOM     68  C   UNL A   1      49.181  30.168  26.934  1.00  0.00     0.029 A 
ATOM     69  C   UNL A   1      48.393  29.034  26.819  1.00  0.00     0.049 A 
ATOM     70  H   UNL A   1      46.367  28.765  27.340  1.00  0.00     0.167 HD
ATOM     71  C   UNL A   1      47.918  26.676  26.210  1.00  0.00     0.074 A 
ATOM     72  C   UNL A   1      48.298  25.379  25.690  1.00  0.00     0.031 C 
ATOM     73  C   UNL A   1      48.759  27.737  26.303  1.00  0.00     0.031 A 
BRANCH  60  74
ATOM     74  C   UNL A   1      46.147  32.824  28.666  1.00  0.00    -0.014 A 
ATOM     75  C   UNL A   1      46.144  33.236  30.013  1.00  0.00     0.010 A 
ATOM     76  C   UNL A   1      46.324  33.790  27.659  1.00  0.00     0.010 A 
ATOM     77  C   UNL A   1      46.276  34.589  30.339  1.00  0.00     0.020 A 
ATOM     78  C   UNL A   1      46.489  35.139  27.982  1.00  0.00     0.020 A 
ATOM     79  C   UNL A   1      46.448  35.531  29.321  1.00  0.00     0.054 A 
BRANCH  79  80
ATOM     80  S   UNL A   1      46.642  37.277  29.776  1.00  0.00     0.124 S 
ATOM     81  O   UNL A   1      47.298  37.178  31.076  1.00  0.00    -0.237 OA
ATOM     82  O   UNL A   1      47.470  37.799  28.692  1.00  0.00    -0.237 OA
ATOM     83  O   UNL A   1      45.271  37.782  29.808  1.00  0.00    -0.744 OA
ENDBRANCH  79  80
ENDBRANCH  60  74
BRANCH  61  84
ATOM     84  C   UNL A   1      44.671  23.259  26.123  1.00  0.00    -0.014 A 
ATOM     85  C   UNL A   1      43.375  22.732  25.988  1.00  0.00     0.010 A 
ATOM     86  C   UNL A   1      45.776  22.421  25.884  1.00  0.00     0.010 A 
ATOM     87  C   UNL A   1      43.187  21.391  25.638  1.00  0.00     0.020 A 
ATOM     88  C   UNL A   1      45.593  21.089  25.503  1.00  0.00     0.020 A 
ATOM     89  C   UNL A   1      44.299  20.579  25.393  1.00  0.00     0.054 A 
BRANCH  89  90
ATOM     90  S   UNL A   1      44.031  18.857  24.888  1.00  0.00     0.124 S 
ATOM     91  O   UNL A   1      44.330  18.907  23.461  1.00  0.00    -0.237 OA
ATOM     92  O   UNL A   1      44.995  18.136  25.715  1.00  0.00    -0.237 OA
ATOM     93  O   UNL A   1      42.630  18.616  25.227  1.00  0.00    -0.744 OA
ENDBRANCH  89  90
ENDBRANCH  61  84
BRANCH  73  94
ATOM     94  C   UNL A   1      50.194  27.527  25.889  1.00  0.00    -0.014 A 
ATOM     95  C   UNL A   1      50.542  27.179  24.573  1.00  0.00     0.010 A 
ATOM     96  C   UNL A   1      51.217  27.721  26.837  1.00  0.00     0.010 A 
ATOM     97  C   UNL A   1      51.883  26.979  24.225  1.00  0.00     0.020 A 
ATOM     98  C   UNL A   1      52.559  27.559  26.485  1.00  0.00     0.020 A 
ATOM     99  C   UNL A   1      52.881  27.168  25.185  1.00  0.00     0.054 A 
BRANCH  99 100
ATOM    100  S   UNL A   1      54.613  26.919  24.706  1.00  0.00     0.124 S 
ATOM    101  O   UNL A   1      54.990  25.765  25.518  1.00  0.00    -0.237 OA
ATOM    102  O   UNL A   1      54.514  26.671  23.270  1.00  0.00    -0.237 OA
ATOM    103  O   UNL A   1      55.260  28.177  25.072  1.00  0.00    -0.744 OA
ENDBRANCH  99 100
ENDBRANCH  73  94
ENDBRANCH  47  48
ENDBRANCH  40  42
ENDBRANCH  39  40
ENDBRANCH  38  39
ENDBRANCH  37  38
ENDBRANCH  36  37
ENDBRANCH  35  36
ENDBRANCH  34  35
ENDBRANCH  33  34
ENDBRANCH   1  33
TORSDOF 30
ENDMDL
