MODEL 1
REMARK VINA RESULT:      -8.7      0.000      0.000
REMARK SMILES O=C(OCCOCCOCCOCCOC(=O)[C@@H]1[C@@H](C(=O)Nc2cccc(C(F)(F)F)c2)[C@@H]2C=C[C@H]1O2)c1ccc(-c2c3nc(c(-c4ccc(S(=O)(=O)[O-])cc4)c4ccc([nH]4)c(-c4ccc(S(=O)(=O)[O-])cc4)c4nc(c(-c5ccc(S(=O)(=O)[O-])cc5)c5ccc2[nH]5)C=C4)C=C3)cc1
REMARK SMILES IDX 9 1 8 2 7 3 6 4 5 5 4 6 3 7 2 8 1 9 38 10 39 11 97 12 40 13
REMARK SMILES IDX 96 14 41 15 42 16 43 17 90 18 44 19 95 20 89 21 91 22 45 23
REMARK SMILES IDX 94 24 88 25 87 26 46 28 76 29 57 30 75 31 58 32 61 33 74 34
REMARK SMILES IDX 92 35 59 36 60 37 73 39 93 40 62 41 47 42 48 43 56 44 49 45
REMARK SMILES IDX 55 46 50 47 51 48 52 49 53 50 54 51 77 52 78 53 86 54 79 55
REMARK SMILES IDX 85 56 80 57 81 58 82 59 83 60 84 61 63 62 64 63 72 64 65 65
REMARK SMILES IDX 71 66 66 67 67 68 68 69 69 70 70 71 10 72 11 73 12 74 13 75
REMARK SMILES IDX 14 76 15 77 16 78 17 79 18 80 19 81 36 82 33 83 35 84 37 85
REMARK SMILES IDX 34 86 20 87 21 88 22 89 23 91 24 92 32 93 25 94 27 95 26 96
REMARK SMILES IDX 28 97 29 98 30 99 31 100
REMARK H PARENT 91 27 61 38 22 90
REMARK Flexibility Score: inf
ROOT
ATOM      1  O   UNL A   1      41.688  20.973  25.761  1.00  0.00    -0.377 OA
ENDROOT
BRANCH   1   2
ATOM      2  C   UNL A   1      42.845  21.297  26.514  1.00  0.00     0.188 C 
BRANCH   2   3
ATOM      3  C   UNL A   1      42.784  22.660  27.201  1.00  0.00     0.188 C 
BRANCH   3   4
ATOM      4  O   UNL A   1      42.589  23.710  26.249  1.00  0.00    -0.376 OA
BRANCH   4   5
ATOM      5  C   UNL A   1      43.496  24.814  26.339  1.00  0.00     0.202 C 
BRANCH   5   6
ATOM      6  C   UNL A   1      44.212  25.132  25.030  1.00  0.00     0.261 C 
BRANCH   6   7
ATOM      7  O   UNL A   1      45.555  24.642  25.044  1.00  0.00    -0.460 OA
BRANCH   7   8
ATOM      8  C   UNL A   1      46.597  25.161  25.738  1.00  0.00     0.338 C 
ATOM      9  O   UNL A   1      47.561  24.426  25.955  1.00  0.00    -0.246 OA
BRANCH   8  10
ATOM     10  C   UNL A   1      46.669  26.575  26.242  1.00  0.00     0.060 A 
ATOM     11  C   UNL A   1      47.302  27.021  27.410  1.00  0.00     0.016 A 
ATOM     12  C   UNL A   1      46.071  27.544  25.418  1.00  0.00     0.016 A 
ATOM     13  C   UNL A   1      47.291  28.353  27.788  1.00  0.00     0.010 A 
ATOM     14  C   UNL A   1      46.046  28.887  25.788  1.00  0.00     0.010 A 
ATOM     15  C   UNL A   1      46.623  29.278  26.999  1.00  0.00    -0.014 A 
BRANCH  15  16
ATOM     16  C   UNL A   1      46.323  30.579  27.604  1.00  0.00     0.031 A 
ATOM     17  C   UNL A   1      45.078  30.670  28.433  1.00  0.00     0.074 A 
ATOM     18  C   UNL A   1      47.214  31.580  27.525  1.00  0.00     0.049 A 
ATOM     19  N   UNL A   1      44.544  31.704  29.016  1.00  0.00    -0.248 NA
ATOM     20  C   UNL A   1      44.341  29.408  28.645  1.00  0.00     0.031 C 
ATOM     21  C   UNL A   1      48.527  31.494  26.882  1.00  0.00     0.029 A 
ATOM     22  N   UNL A   1      47.160  32.853  28.015  1.00  0.00    -0.354 N 
ATOM     23  C   UNL A   1      43.387  31.230  29.623  1.00  0.00     0.074 A 
ATOM     24  C   UNL A   1      43.295  29.817  29.343  1.00  0.00     0.031 C 
ATOM     25  C   UNL A   1      49.157  32.672  27.021  1.00  0.00     0.029 A 
ATOM     26  C   UNL A   1      48.264  33.606  27.696  1.00  0.00     0.049 A 
ATOM     27  H   UNL A   1      46.405  33.198  28.544  1.00  0.00     0.167 HD
ATOM     28  C   UNL A   1      42.477  31.931  30.336  1.00  0.00     0.031 A 
ATOM     29  C   UNL A   1      48.488  34.917  27.897  1.00  0.00     0.031 A 
ATOM     30  C   UNL A   1      42.604  33.342  30.565  1.00  0.00     0.049 A 
ATOM     31  C   UNL A   1      47.404  35.707  28.581  1.00  0.00     0.074 A 
ATOM     32  C   UNL A   1      41.732  34.200  31.202  1.00  0.00     0.029 A 
ATOM     33  N   UNL A   1      43.692  34.103  30.147  1.00  0.00    -0.354 N 
ATOM     34  N   UNL A   1      46.266  35.279  29.082  1.00  0.00    -0.248 NA
ATOM     35  C   UNL A   1      47.622  37.150  28.720  1.00  0.00     0.031 C 
ATOM     36  C   UNL A   1      42.267  35.492  31.116  1.00  0.00     0.029 A 
ATOM     37  C   UNL A   1      43.505  35.426  30.491  1.00  0.00     0.049 A 
ATOM     38  H   UNL A   1      44.481  33.748  29.676  1.00  0.00     0.167 HD
ATOM     39  C   UNL A   1      45.639  36.398  29.615  1.00  0.00     0.074 A 
ATOM     40  C   UNL A   1      46.536  37.517  29.386  1.00  0.00     0.031 C 
ATOM     41  C   UNL A   1      44.436  36.500  30.236  1.00  0.00     0.031 A 
BRANCH  28  42
ATOM     42  C   UNL A   1      41.250  31.189  30.795  1.00  0.00    -0.014 A 
ATOM     43  C   UNL A   1      40.130  31.015  29.961  1.00  0.00     0.010 A 
ATOM     44  C   UNL A   1      41.194  30.715  32.118  1.00  0.00     0.010 A 
ATOM     45  C   UNL A   1      38.958  30.435  30.460  1.00  0.00     0.020 A 
ATOM     46  C   UNL A   1      40.036  30.107  32.612  1.00  0.00     0.020 A 
ATOM     47  C   UNL A   1      38.917  29.993  31.786  1.00  0.00     0.054 A 
BRANCH  47  48
ATOM     48  S   UNL A   1      37.377  29.266  32.414  1.00  0.00     0.124 S 
ATOM     49  O   UNL A   1      37.008  30.204  33.468  1.00  0.00    -0.237 OA
ATOM     50  O   UNL A   1      36.517  29.270  31.237  1.00  0.00    -0.237 OA
ATOM     51  O   UNL A   1      37.787  27.937  32.878  1.00  0.00    -0.744 OA
ENDBRANCH  47  48
ENDBRANCH  28  42
BRANCH  29  52
ATOM     52  C   UNL A   1      49.740  35.550  27.397  1.00  0.00    -0.014 A 
ATOM     53  C   UNL A   1      49.812  36.094  26.104  1.00  0.00     0.010 A 
ATOM     54  C   UNL A   1      50.871  35.639  28.234  1.00  0.00     0.010 A 
ATOM     55  C   UNL A   1      50.988  36.706  25.655  1.00  0.00     0.020 A 
ATOM     56  C   UNL A   1      52.039  36.275  27.800  1.00  0.00     0.020 A 
ATOM     57  C   UNL A   1      52.093  36.798  26.509  1.00  0.00     0.054 A 
BRANCH  57  58
ATOM     58  S   UNL A   1      53.587  37.642  25.921  1.00  0.00     0.124 S 
ATOM     59  O   UNL A   1      53.271  39.041  26.185  1.00  0.00    -0.237 OA
ATOM     60  O   UNL A   1      54.629  37.059  26.765  1.00  0.00    -0.237 OA
ATOM     61  O   UNL A   1      53.660  37.271  24.510  1.00  0.00    -0.744 OA
ENDBRANCH  57  58
ENDBRANCH  29  52
BRANCH  41  62
ATOM     62  C   UNL A   1      44.049  37.860  30.742  1.00  0.00    -0.014 A 
ATOM     63  C   UNL A   1      44.190  38.202  32.098  1.00  0.00     0.010 A 
ATOM     64  C   UNL A   1      43.610  38.831  29.824  1.00  0.00     0.010 A 
ATOM     65  C   UNL A   1      43.871  39.489  32.531  1.00  0.00     0.020 A 
ATOM     66  C   UNL A   1      43.322  40.126  30.249  1.00  0.00     0.020 A 
ATOM     67  C   UNL A   1      43.442  40.443  31.603  1.00  0.00     0.054 A 
BRANCH  67  68
ATOM     68  S   UNL A   1      43.089  42.123  32.183  1.00  0.00     0.124 S 
ATOM     69  O   UNL A   1      41.852  41.931  32.933  1.00  0.00    -0.237 OA
ATOM     70  O   UNL A   1      44.269  42.438  32.984  1.00  0.00    -0.237 OA
ATOM     71  O   UNL A   1      42.958  42.894  30.949  1.00  0.00    -0.744 OA
ENDBRANCH  67  68
ENDBRANCH  41  62
ENDBRANCH  15  16
ENDBRANCH   8  10
ENDBRANCH   7   8
ENDBRANCH   6   7
ENDBRANCH   5   6
ENDBRANCH   4   5
ENDBRANCH   3   4
ENDBRANCH   2   3
ENDBRANCH   1   2
BRANCH   1  72
ATOM     72  C   UNL A   1      40.684  20.286  26.480  1.00  0.00     0.188 C 
BRANCH  72  73
ATOM     73  C   UNL A   1      39.312  20.000  25.840  1.00  0.00     0.188 C 
BRANCH  73  74
ATOM     74  O   UNL A   1      38.569  21.052  25.266  1.00  0.00    -0.376 OA
BRANCH  74  75
ATOM     75  C   UNL A   1      37.353  20.725  24.618  1.00  0.00     0.202 C 
BRANCH  75  76
ATOM     76  C   UNL A   1      35.989  21.015  25.294  1.00  0.00     0.261 C 
BRANCH  76  77
ATOM     77  O   UNL A   1      35.064  21.906  24.602  1.00  0.00    -0.463 OA
BRANCH  77  78
ATOM     78  C   UNL A   1      33.760  21.873  24.984  1.00  0.00     0.312 C 
ATOM     79  O   UNL A   1      33.334  21.097  25.836  1.00  0.00    -0.252 OA
BRANCH  78  80
ATOM     80  C   UNL A   1      32.798  22.862  24.319  1.00  0.00     0.147 C 
ATOM     81  C   UNL A   1      32.809  24.423  24.462  1.00  0.00     0.129 C 
ATOM     82  C   UNL A   1      31.359  22.528  24.791  1.00  0.00     0.157 C 
ATOM     83  C   UNL A   1      31.469  24.660  25.137  1.00  0.00     0.155 C 
ATOM     84  C   UNL A   1      31.102  22.734  26.249  1.00  0.00     0.004 C 
ATOM     85  O   UNL A   1      30.673  23.731  24.360  1.00  0.00    -0.365 OA
ATOM     86  C   UNL A   1      31.194  24.050  26.458  1.00  0.00     0.004 C 
BRANCH  81  87
ATOM     87  C   UNL A   1      32.907  25.087  23.050  1.00  0.00     0.231 C 
ATOM     88  O   UNL A   1      33.512  24.456  22.168  1.00  0.00    -0.274 OA
ATOM     89  N   UNL A   1      32.268  26.232  22.618  1.00  0.00    -0.326 N 
ATOM     90  H   UNL A   1      32.287  26.355  21.640  1.00  0.00     0.169 HD
BRANCH  89  91
ATOM     91  C   UNL A   1      31.592  27.256  23.309  1.00  0.00     0.041 A 
ATOM     92  C   UNL A   1      32.319  28.082  24.169  1.00  0.00     0.026 A 
ATOM     93  C   UNL A   1      30.249  27.546  23.053  1.00  0.00     0.039 A 
ATOM     94  C   UNL A   1      31.770  29.297  24.595  1.00  0.00     0.003 A 
ATOM     95  C   UNL A   1      29.721  28.807  23.394  1.00  0.00     0.058 A 
ATOM     96  C   UNL A   1      30.494  29.678  24.175  1.00  0.00     0.013 A 
BRANCH  95  97
ATOM     97  C   UNL A   1      28.425  29.291  22.784  1.00  0.00     0.416 C 
ATOM     98  F   UNL A   1      28.555  29.688  21.491  1.00  0.00    -0.166 F 
ATOM     99  F   UNL A   1      27.455  28.331  22.790  1.00  0.00    -0.166 F 
ATOM    100  F   UNL A   1      27.880  30.348  23.453  1.00  0.00    -0.166 F 
ENDBRANCH  95  97
ENDBRANCH  89  91
ENDBRANCH  81  87
ENDBRANCH  78  80
ENDBRANCH  77  78
ENDBRANCH  76  77
ENDBRANCH  75  76
ENDBRANCH  74  75
ENDBRANCH  73  74
ENDBRANCH  72  73
ENDBRANCH   1  72
TORSDOF 26
ENDMDL
MODEL 2
REMARK VINA RESULT:      -8.6      2.926      8.328
REMARK SMILES O=C(OCCOCCOCCOCCOC(=O)[C@@H]1[C@@H](C(=O)Nc2cccc(C(F)(F)F)c2)[C@@H]2C=C[C@H]1O2)c1ccc(-c2c3nc(c(-c4ccc(S(=O)(=O)[O-])cc4)c4ccc([nH]4)c(-c4ccc(S(=O)(=O)[O-])cc4)c4nc(c(-c5ccc(S(=O)(=O)[O-])cc5)c5ccc2[nH]5)C=C4)C=C3)cc1
REMARK SMILES IDX 9 1 8 2 7 3 6 4 5 5 4 6 3 7 2 8 1 9 38 10 39 11 97 12 40 13
REMARK SMILES IDX 96 14 41 15 42 16 43 17 90 18 44 19 95 20 89 21 91 22 45 23
REMARK SMILES IDX 94 24 88 25 87 26 46 28 76 29 57 30 75 31 58 32 61 33 74 34
REMARK SMILES IDX 92 35 59 36 60 37 73 39 93 40 62 41 47 42 48 43 56 44 49 45
REMARK SMILES IDX 55 46 50 47 51 48 52 49 53 50 54 51 77 52 78 53 86 54 79 55
REMARK SMILES IDX 85 56 80 57 81 58 82 59 83 60 84 61 63 62 64 63 72 64 65 65
REMARK SMILES IDX 71 66 66 67 67 68 68 69 69 70 70 71 10 72 11 73 12 74 13 75
REMARK SMILES IDX 14 76 15 77 16 78 17 79 18 80 19 81 36 82 33 83 35 84 37 85
REMARK SMILES IDX 34 86 20 87 21 88 22 89 23 91 24 92 32 93 25 94 27 95 26 96
REMARK SMILES IDX 28 97 29 98 30 99 31 100
REMARK H PARENT 91 27 61 38 22 90
REMARK Flexibility Score: inf
ROOT
ATOM      1  O   UNL A   1      40.674  23.293  28.315  1.00  0.00    -0.377 OA
ENDROOT
BRANCH   1   2
ATOM      2  C   UNL A   1      41.918  23.059  27.676  1.00  0.00     0.188 C 
BRANCH   2   3
ATOM      3  C   UNL A   1      42.829  24.284  27.612  1.00  0.00     0.188 C 
BRANCH   3   4
ATOM      4  O   UNL A   1      44.199  23.902  27.456  1.00  0.00    -0.376 OA
BRANCH   4   5
ATOM      5  C   UNL A   1      45.138  24.974  27.330  1.00  0.00     0.202 C 
BRANCH   5   6
ATOM      6  C   UNL A   1      46.222  24.975  28.405  1.00  0.00     0.261 C 
BRANCH   6   7
ATOM      7  O   UNL A   1      45.693  24.577  29.672  1.00  0.00    -0.460 OA
BRANCH   7   8
ATOM      8  C   UNL A   1      44.913  25.323  30.492  1.00  0.00     0.338 C 
ATOM      9  O   UNL A   1      44.109  24.728  31.211  1.00  0.00    -0.246 OA
BRANCH   8  10
ATOM     10  C   UNL A   1      44.976  26.820  30.602  1.00  0.00     0.060 A 
ATOM     11  C   UNL A   1      45.871  27.570  31.377  1.00  0.00     0.016 A 
ATOM     12  C   UNL A   1      44.060  27.526  29.804  1.00  0.00     0.016 A 
ATOM     13  C   UNL A   1      45.826  28.954  31.417  1.00  0.00     0.010 A 
ATOM     14  C   UNL A   1      43.999  28.917  29.838  1.00  0.00     0.010 A 
ATOM     15  C   UNL A   1      44.859  29.624  30.682  1.00  0.00    -0.014 A 
BRANCH  15  16
ATOM     16  C   UNL A   1      44.610  31.027  31.028  1.00  0.00     0.031 A 
ATOM     17  C   UNL A   1      45.336  32.061  30.223  1.00  0.00     0.074 A 
ATOM     18  C   UNL A   1      43.661  31.341  31.924  1.00  0.00     0.049 A 
ATOM     19  N   UNL A   1      45.355  33.355  30.362  1.00  0.00    -0.248 NA
ATOM     20  C   UNL A   1      46.143  31.562  29.092  1.00  0.00     0.031 C 
ATOM     21  C   UNL A   1      42.795  30.380  32.611  1.00  0.00     0.029 A 
ATOM     22  N   UNL A   1      43.250  32.558  32.387  1.00  0.00    -0.354 N 
ATOM     23  C   UNL A   1      46.209  33.821  29.368  1.00  0.00     0.074 A 
ATOM     24  C   UNL A   1      46.686  32.675  28.632  1.00  0.00     0.031 C 
ATOM     25  C   UNL A   1      41.949  31.052  33.410  1.00  0.00     0.029 A 
ATOM     26  C   UNL A   1      42.265  32.473  33.340  1.00  0.00     0.049 A 
ATOM     27  H   UNL A   1      43.622  33.412  32.069  1.00  0.00     0.167 HD
ATOM     28  C   UNL A   1      46.570  35.099  29.116  1.00  0.00     0.031 A 
ATOM     29  C   UNL A   1      41.725  33.446  34.096  1.00  0.00     0.031 A 
ATOM     30  C   UNL A   1      46.083  36.201  29.897  1.00  0.00     0.049 A 
ATOM     31  C   UNL A   1      42.234  34.848  33.886  1.00  0.00     0.074 A 
ATOM     32  C   UNL A   1      46.412  37.538  29.810  1.00  0.00     0.029 A 
ATOM     33  N   UNL A   1      45.153  36.076  30.924  1.00  0.00    -0.354 N 
ATOM     34  N   UNL A   1      43.107  35.282  33.005  1.00  0.00    -0.248 NA
ATOM     35  C   UNL A   1      41.700  35.886  34.772  1.00  0.00     0.031 C 
ATOM     36  C   UNL A   1      45.724  38.213  30.827  1.00  0.00     0.029 A 
ATOM     37  C   UNL A   1      44.912  37.308  31.498  1.00  0.00     0.049 A 
ATOM     38  H   UNL A   1      44.728  35.231  31.201  1.00  0.00     0.167 HD
ATOM     39  C   UNL A   1      43.214  36.650  33.216  1.00  0.00     0.074 A 
ATOM     40  C   UNL A   1      42.301  36.969  34.299  1.00  0.00     0.031 C 
ATOM     41  C   UNL A   1      43.990  37.565  32.579  1.00  0.00     0.031 A 
BRANCH  28  42
ATOM     42  C   UNL A   1      47.601  35.319  28.042  1.00  0.00    -0.014 A 
ATOM     43  C   UNL A   1      47.285  35.214  26.675  1.00  0.00     0.010 A 
ATOM     44  C   UNL A   1      48.934  35.570  28.416  1.00  0.00     0.010 A 
ATOM     45  C   UNL A   1      48.293  35.296  25.706  1.00  0.00     0.020 A 
ATOM     46  C   UNL A   1      49.938  35.683  27.451  1.00  0.00     0.020 A 
ATOM     47  C   UNL A   1      49.615  35.521  26.103  1.00  0.00     0.054 A 
BRANCH  47  48
ATOM     48  S   UNL A   1      50.904  35.599  24.828  1.00  0.00     0.124 S 
ATOM     49  O   UNL A   1      50.306  36.498  23.847  1.00  0.00    -0.237 OA
ATOM     50  O   UNL A   1      52.046  36.134  25.560  1.00  0.00    -0.237 OA
ATOM     51  O   UNL A   1      51.044  34.206  24.393  1.00  0.00    -0.744 OA
ENDBRANCH  47  48
ENDBRANCH  28  42
BRANCH  29  52
ATOM     52  C   UNL A   1      40.710  33.114  35.134  1.00  0.00    -0.014 A 
ATOM     53  C   UNL A   1      39.351  32.986  34.803  1.00  0.00     0.010 A 
ATOM     54  C   UNL A   1      41.107  32.892  36.468  1.00  0.00     0.010 A 
ATOM     55  C   UNL A   1      38.410  32.650  35.784  1.00  0.00     0.020 A 
ATOM     56  C   UNL A   1      40.175  32.528  37.445  1.00  0.00     0.020 A 
ATOM     57  C   UNL A   1      38.829  32.418  37.098  1.00  0.00     0.054 A 
BRANCH  57  58
ATOM     58  S   UNL A   1      37.597  31.934  38.339  1.00  0.00     0.124 S 
ATOM     59  O   UNL A   1      36.559  32.941  38.148  1.00  0.00    -0.237 OA
ATOM     60  O   UNL A   1      37.247  30.577  37.922  1.00  0.00    -0.237 OA
ATOM     61  O   UNL A   1      38.328  32.020  39.602  1.00  0.00    -0.744 OA
ENDBRANCH  57  58
ENDBRANCH  29  52
BRANCH  41  62
ATOM     62  C   UNL A   1      43.847  38.995  33.016  1.00  0.00    -0.014 A 
ATOM     63  C   UNL A   1      44.476  39.468  34.180  1.00  0.00     0.010 A 
ATOM     64  C   UNL A   1      43.132  39.890  32.200  1.00  0.00     0.010 A 
ATOM     65  C   UNL A   1      44.367  40.813  34.535  1.00  0.00     0.020 A 
ATOM     66  C   UNL A   1      43.050  41.240  32.535  1.00  0.00     0.020 A 
ATOM     67  C   UNL A   1      43.658  41.690  33.708  1.00  0.00     0.054 A 
BRANCH  67  68
ATOM     68  S   UNL A   1      43.581  43.443  34.162  1.00  0.00     0.124 S 
ATOM     69  O   UNL A   1      43.444  44.087  32.859  1.00  0.00    -0.237 OA
ATOM     70  O   UNL A   1      42.401  43.499  35.019  1.00  0.00    -0.237 OA
ATOM     71  O   UNL A   1      44.852  43.679  34.844  1.00  0.00    -0.744 OA
ENDBRANCH  67  68
ENDBRANCH  41  62
ENDBRANCH  15  16
ENDBRANCH   8  10
ENDBRANCH   7   8
ENDBRANCH   6   7
ENDBRANCH   5   6
ENDBRANCH   4   5
ENDBRANCH   3   4
ENDBRANCH   2   3
ENDBRANCH   1   2
BRANCH   1  72
ATOM     72  C   UNL A   1      39.915  24.352  27.767  1.00  0.00     0.188 C 
BRANCH  72  73
ATOM     73  C   UNL A   1      39.103  24.151  26.473  1.00  0.00     0.188 C 
BRANCH  73  74
ATOM     74  O   UNL A   1      37.701  24.012  26.533  1.00  0.00    -0.376 OA
BRANCH  74  75
ATOM     75  C   UNL A   1      37.020  23.660  25.344  1.00  0.00     0.202 C 
BRANCH  75  76
ATOM     76  C   UNL A   1      37.197  22.255  24.712  1.00  0.00     0.261 C 
BRANCH  76  77
ATOM     77  O   UNL A   1      35.994  21.533  24.314  1.00  0.00    -0.463 OA
BRANCH  77  78
ATOM     78  C   UNL A   1      34.916  22.270  23.940  1.00  0.00     0.312 C 
ATOM     79  O   UNL A   1      34.928  23.023  22.968  1.00  0.00    -0.252 OA
BRANCH  78  80
ATOM     80  C   UNL A   1      33.637  22.135  24.770  1.00  0.00     0.147 C 
ATOM     81  C   UNL A   1      33.529  21.654  26.259  1.00  0.00     0.129 C 
ATOM     82  C   UNL A   1      32.703  21.121  24.059  1.00  0.00     0.157 C 
ATOM     83  C   UNL A   1      32.716  20.382  26.093  1.00  0.00     0.155 C 
ATOM     84  C   UNL A   1      33.215  19.718  23.997  1.00  0.00     0.004 C 
ATOM     85  O   UNL A   1      31.752  20.871  25.126  1.00  0.00    -0.365 OA
ATOM     86  C   UNL A   1      33.241  19.277  25.258  1.00  0.00     0.004 C 
BRANCH  81  87
ATOM     87  C   UNL A   1      32.800  22.737  27.118  1.00  0.00     0.231 C 
ATOM     88  O   UNL A   1      32.771  22.560  28.347  1.00  0.00    -0.274 OA
ATOM     89  N   UNL A   1      32.311  23.955  26.689  1.00  0.00    -0.326 N 
ATOM     90  H   UNL A   1      32.091  24.577  27.421  1.00  0.00     0.169 HD
BRANCH  89  91
ATOM     91  C   UNL A   1      32.071  24.478  25.404  1.00  0.00     0.041 A 
ATOM     92  C   UNL A   1      30.848  24.209  24.785  1.00  0.00     0.026 A 
ATOM     93  C   UNL A   1      32.966  25.363  24.797  1.00  0.00     0.039 A 
ATOM     94  C   UNL A   1      30.440  24.976  23.687  1.00  0.00     0.003 A 
ATOM     95  C   UNL A   1      32.529  26.206  23.755  1.00  0.00     0.058 A 
ATOM     96  C   UNL A   1      31.258  25.999  23.201  1.00  0.00     0.013 A 
BRANCH  95  97
ATOM     97  C   UNL A   1      33.333  27.425  23.362  1.00  0.00     0.416 C 
ATOM     98  F   UNL A   1      34.240  27.797  24.303  1.00  0.00    -0.166 F 
ATOM     99  F   UNL A   1      34.038  27.235  22.210  1.00  0.00    -0.166 F 
ATOM    100  F   UNL A   1      32.558  28.524  23.126  1.00  0.00    -0.166 F 
ENDBRANCH  95  97
ENDBRANCH  89  91
ENDBRANCH  81  87
ENDBRANCH  78  80
ENDBRANCH  77  78
ENDBRANCH  76  77
ENDBRANCH  75  76
ENDBRANCH  74  75
ENDBRANCH  73  74
ENDBRANCH  72  73
ENDBRANCH   1  72
TORSDOF 26
ENDMDL
MODEL 3
REMARK VINA RESULT:      -8.5      5.925     11.425
REMARK SMILES O=C(OCCOCCOCCOCCOC(=O)[C@@H]1[C@@H](C(=O)Nc2cccc(C(F)(F)F)c2)[C@@H]2C=C[C@H]1O2)c1ccc(-c2c3nc(c(-c4ccc(S(=O)(=O)[O-])cc4)c4ccc([nH]4)c(-c4ccc(S(=O)(=O)[O-])cc4)c4nc(c(-c5ccc(S(=O)(=O)[O-])cc5)c5ccc2[nH]5)C=C4)C=C3)cc1
REMARK SMILES IDX 9 1 8 2 7 3 6 4 5 5 4 6 3 7 2 8 1 9 38 10 39 11 97 12 40 13
REMARK SMILES IDX 96 14 41 15 42 16 43 17 90 18 44 19 95 20 89 21 91 22 45 23
REMARK SMILES IDX 94 24 88 25 87 26 46 28 76 29 57 30 75 31 58 32 61 33 74 34
REMARK SMILES IDX 92 35 59 36 60 37 73 39 93 40 62 41 47 42 48 43 56 44 49 45
REMARK SMILES IDX 55 46 50 47 51 48 52 49 53 50 54 51 77 52 78 53 86 54 79 55
REMARK SMILES IDX 85 56 80 57 81 58 82 59 83 60 84 61 63 62 64 63 72 64 65 65
REMARK SMILES IDX 71 66 66 67 67 68 68 69 69 70 70 71 10 72 11 73 12 74 13 75
REMARK SMILES IDX 14 76 15 77 16 78 17 79 18 80 19 81 36 82 33 83 35 84 37 85
REMARK SMILES IDX 34 86 20 87 21 88 22 89 23 91 24 92 32 93 25 94 27 95 26 96
REMARK SMILES IDX 28 97 29 98 30 99 31 100
REMARK H PARENT 91 27 61 38 22 90
REMARK Flexibility Score: inf
ROOT
ATOM      1  O   UNL A   1      48.828  36.028  25.735  1.00  0.00    -0.377 OA
ENDROOT
BRANCH   1   2
ATOM      2  C   UNL A   1      48.803  37.345  25.209  1.00  0.00     0.188 C 
BRANCH   2   3
ATOM      3  C   UNL A   1      47.974  38.331  26.031  1.00  0.00     0.188 C 
BRANCH   3   4
ATOM      4  O   UNL A   1      48.614  38.635  27.274  1.00  0.00    -0.376 OA
BRANCH   4   5
ATOM      5  C   UNL A   1      48.614  40.014  27.657  1.00  0.00     0.202 C 
BRANCH   5   6
ATOM      6  C   UNL A   1      47.434  40.808  27.105  1.00  0.00     0.261 C 
BRANCH   6   7
ATOM      7  O   UNL A   1      46.508  41.145  28.142  1.00  0.00    -0.460 OA
BRANCH   7   8
ATOM      8  C   UNL A   1      45.237  40.691  28.268  1.00  0.00     0.338 C 
ATOM      9  O   UNL A   1      44.324  41.463  27.971  1.00  0.00    -0.246 OA
BRANCH   8  10
ATOM     10  C   UNL A   1      44.863  39.308  28.722  1.00  0.00     0.060 A 
ATOM     11  C   UNL A   1      44.490  38.920  30.016  1.00  0.00     0.016 A 
ATOM     12  C   UNL A   1      44.850  38.324  27.720  1.00  0.00     0.016 A 
ATOM     13  C   UNL A   1      44.182  37.606  30.327  1.00  0.00     0.010 A 
ATOM     14  C   UNL A   1      44.547  36.997  28.019  1.00  0.00     0.010 A 
ATOM     15  C   UNL A   1      44.255  36.638  29.337  1.00  0.00    -0.014 A 
BRANCH  15  16
ATOM     16  C   UNL A   1      44.282  35.238  29.772  1.00  0.00     0.031 A 
ATOM     17  C   UNL A   1      42.966  34.527  29.846  1.00  0.00     0.074 A 
ATOM     18  C   UNL A   1      45.455  34.609  29.944  1.00  0.00     0.049 A 
ATOM     19  N   UNL A   1      42.696  33.323  30.262  1.00  0.00    -0.248 NA
ATOM     20  C   UNL A   1      41.789  35.278  29.366  1.00  0.00     0.031 C 
ATOM     21  C   UNL A   1      46.775  35.202  29.713  1.00  0.00     0.029 A 
ATOM     22  N   UNL A   1      45.723  33.326  30.326  1.00  0.00    -0.354 N 
ATOM     23  C   UNL A   1      41.318  33.190  30.140  1.00  0.00     0.074 A 
ATOM     24  C   UNL A   1      40.805  34.429  29.607  1.00  0.00     0.031 C 
ATOM     25  C   UNL A   1      47.716  34.275  29.957  1.00  0.00     0.029 A 
ATOM     26  C   UNL A   1      47.066  33.057  30.427  1.00  0.00     0.049 A 
ATOM     27  H   UNL A   1      45.023  32.658  30.510  1.00  0.00     0.167 HD
ATOM     28  C   UNL A   1      40.555  32.121  30.465  1.00  0.00     0.031 A 
ATOM     29  C   UNL A   1      47.682  31.957  30.896  1.00  0.00     0.031 A 
ATOM     30  C   UNL A   1      41.115  30.919  31.014  1.00  0.00     0.049 A 
ATOM     31  C   UNL A   1      46.810  30.826  31.372  1.00  0.00     0.074 A 
ATOM     32  C   UNL A   1      40.468  29.785  31.460  1.00  0.00     0.029 A 
ATOM     33  N   UNL A   1      42.479  30.708  31.196  1.00  0.00    -0.354 N 
ATOM     34  N   UNL A   1      45.499  30.728  31.338  1.00  0.00    -0.248 NA
ATOM     35  C   UNL A   1      47.489  29.667  31.958  1.00  0.00     0.031 C 
ATOM     36  C   UNL A   1      41.439  28.912  31.966  1.00  0.00     0.029 A 
ATOM     37  C   UNL A   1      42.694  29.471  31.769  1.00  0.00     0.049 A 
ATOM     38  H   UNL A   1      43.186  31.348  30.950  1.00  0.00     0.167 HD
ATOM     39  C   UNL A   1      45.195  29.486  31.881  1.00  0.00     0.074 A 
ATOM     40  C   UNL A   1      46.464  28.866  32.218  1.00  0.00     0.031 C 
ATOM     41  C   UNL A   1      43.985  28.905  32.084  1.00  0.00     0.031 A 
BRANCH  28  42
ATOM     42  C   UNL A   1      39.065  32.280  30.332  1.00  0.00    -0.014 A 
ATOM     43  C   UNL A   1      38.364  31.809  29.207  1.00  0.00     0.010 A 
ATOM     44  C   UNL A   1      38.360  32.979  31.329  1.00  0.00     0.010 A 
ATOM     45  C   UNL A   1      37.000  32.087  29.054  1.00  0.00     0.020 A 
ATOM     46  C   UNL A   1      36.992  33.231  31.196  1.00  0.00     0.020 A 
ATOM     47  C   UNL A   1      36.326  32.804  30.046  1.00  0.00     0.054 A 
BRANCH  47  48
ATOM     48  S   UNL A   1      34.564  33.170  29.811  1.00  0.00     0.124 S 
ATOM     49  O   UNL A   1      34.611  34.453  29.118  1.00  0.00    -0.237 OA
ATOM     50  O   UNL A   1      34.105  32.039  29.015  1.00  0.00    -0.237 OA
ATOM     51  O   UNL A   1      34.037  33.221  31.178  1.00  0.00    -0.744 OA
ENDBRANCH  47  48
ENDBRANCH  28  42
BRANCH  29  52
ATOM     52  C   UNL A   1      49.168  31.909  30.985  1.00  0.00    -0.014 A 
ATOM     53  C   UNL A   1      49.942  31.415  29.922  1.00  0.00     0.010 A 
ATOM     54  C   UNL A   1      49.825  32.392  32.135  1.00  0.00     0.010 A 
ATOM     55  C   UNL A   1      51.339  31.396  30.009  1.00  0.00     0.020 A 
ATOM     56  C   UNL A   1      51.221  32.403  32.215  1.00  0.00     0.020 A 
ATOM     57  C   UNL A   1      51.970  31.897  31.153  1.00  0.00     0.054 A 
BRANCH  57  58
ATOM     58  S   UNL A   1      53.783  31.910  31.220  1.00  0.00     0.124 S 
ATOM     59  O   UNL A   1      54.141  31.380  29.909  1.00  0.00    -0.237 OA
ATOM     60  O   UNL A   1      54.079  33.325  31.433  1.00  0.00    -0.237 OA
ATOM     61  O   UNL A   1      54.092  31.040  32.353  1.00  0.00    -0.744 OA
ENDBRANCH  57  58
ENDBRANCH  29  52
BRANCH  41  62
ATOM     62  C   UNL A   1      43.989  27.518  32.660  1.00  0.00    -0.014 A 
ATOM     63  C   UNL A   1      44.369  26.408  31.888  1.00  0.00     0.010 A 
ATOM     64  C   UNL A   1      43.678  27.343  34.021  1.00  0.00     0.010 A 
ATOM     65  C   UNL A   1      44.411  25.137  32.463  1.00  0.00     0.020 A 
ATOM     66  C   UNL A   1      43.752  26.081  34.606  1.00  0.00     0.020 A 
ATOM     67  C   UNL A   1      44.106  24.983  33.819  1.00  0.00     0.054 A 
BRANCH  67  68
ATOM     68  S   UNL A   1      44.225  23.332  34.555  1.00  0.00     0.124 S 
ATOM     69  O   UNL A   1      44.660  22.525  33.419  1.00  0.00    -0.237 OA
ATOM     70  O   UNL A   1      45.218  23.524  35.609  1.00  0.00    -0.237 OA
ATOM     71  O   UNL A   1      42.868  23.065  35.027  1.00  0.00    -0.744 OA
ENDBRANCH  67  68
ENDBRANCH  41  62
ENDBRANCH  15  16
ENDBRANCH   8  10
ENDBRANCH   7   8
ENDBRANCH   6   7
ENDBRANCH   5   6
ENDBRANCH   4   5
ENDBRANCH   3   4
ENDBRANCH   2   3
ENDBRANCH   1   2
BRANCH   1  72
ATOM     72  C   UNL A   1      47.887  35.143  25.161  1.00  0.00     0.188 C 
BRANCH  72  73
ATOM     73  C   UNL A   1      46.858  34.409  26.042  1.00  0.00     0.188 C 
BRANCH  73  74
ATOM     74  O   UNL A   1      47.225  33.230  26.723  1.00  0.00    -0.376 OA
BRANCH  74  75
ATOM     75  C   UNL A   1      46.329  32.134  26.676  1.00  0.00     0.202 C 
BRANCH  75  76
ATOM     76  C   UNL A   1      46.782  30.718  27.114  1.00  0.00     0.261 C 
BRANCH  76  77
ATOM     77  O   UNL A   1      46.435  29.596  26.249  1.00  0.00    -0.463 OA
BRANCH  77  78
ATOM     78  C   UNL A   1      47.345  28.595  26.127  1.00  0.00     0.312 C 
ATOM     79  O   UNL A   1      48.539  28.801  25.922  1.00  0.00    -0.252 OA
BRANCH  78  80
ATOM     80  C   UNL A   1      46.844  27.155  26.265  1.00  0.00     0.147 C 
ATOM     81  C   UNL A   1      45.435  26.695  26.778  1.00  0.00     0.129 C 
ATOM     82  C   UNL A   1      47.780  26.409  27.252  1.00  0.00     0.157 C 
ATOM     83  C   UNL A   1      45.819  25.936  28.036  1.00  0.00     0.155 C 
ATOM     84  C   UNL A   1      47.753  26.912  28.659  1.00  0.00     0.004 C 
ATOM     85  O   UNL A   1      46.973  25.232  27.514  1.00  0.00    -0.365 OA
ATOM     86  C   UNL A   1      46.533  26.637  29.128  1.00  0.00     0.004 C 
BRANCH  81  87
ATOM     87  C   UNL A   1      44.745  25.792  25.705  1.00  0.00     0.231 C 
ATOM     88  O   UNL A   1      45.459  25.360  24.785  1.00  0.00    -0.274 OA
ATOM     89  N   UNL A   1      43.462  25.285  25.738  1.00  0.00    -0.326 N 
ATOM     90  H   UNL A   1      43.299  24.566  25.085  1.00  0.00     0.169 HD
BRANCH  89  91
ATOM     91  C   UNL A   1      42.341  25.600  26.531  1.00  0.00     0.041 A 
ATOM     92  C   UNL A   1      42.020  24.768  27.606  1.00  0.00     0.026 A 
ATOM     93  C   UNL A   1      41.630  26.791  26.350  1.00  0.00     0.039 A 
ATOM     94  C   UNL A   1      41.148  25.223  28.602  1.00  0.00     0.003 A 
ATOM     95  C   UNL A   1      40.828  27.299  27.391  1.00  0.00     0.058 A 
ATOM     96  C   UNL A   1      40.588  26.499  28.517  1.00  0.00     0.013 A 
BRANCH  95  97
ATOM     97  C   UNL A   1      40.381  28.744  27.383  1.00  0.00     0.416 C 
ATOM     98  F   UNL A   1      39.121  28.919  27.860  1.00  0.00    -0.166 F 
ATOM     99  F   UNL A   1      41.187  29.544  28.138  1.00  0.00    -0.166 F 
ATOM    100  F   UNL A   1      40.395  29.301  26.137  1.00  0.00    -0.166 F 
ENDBRANCH  95  97
ENDBRANCH  89  91
ENDBRANCH  81  87
ENDBRANCH  78  80
ENDBRANCH  77  78
ENDBRANCH  76  77
ENDBRANCH  75  76
ENDBRANCH  74  75
ENDBRANCH  73  74
ENDBRANCH  72  73
ENDBRANCH   1  72
TORSDOF 26
ENDMDL
