MODEL 1
REMARK VINA RESULT:      -8.0      0.000      0.000
REMARK SMILES CN(C)C(=O)CNC(=O)NCCOCC(=O)OCCOCCOCCOCCOC(=O)c1ccc(-c2c3nc(c(-c4ccc(S(=O)(=O)[O-])cc4)c4ccc([nH]4)c(-c4ccc(S(=O)(=O)[O-])cc4)c4nc(c(-c5ccc(S(=O)(=O)[O-])cc5)c5ccc2[nH]5)C=C4)C=C3)cc1
REMARK SMILES IDX 21 1 20 2 19 3 18 4 17 5 15 6 16 7 14 8 13 9 12 10 11 11
REMARK SMILES IDX 10 12 7 13 8 14 9 16 6 18 4 19 1 20 2 21 3 22 5 23 22 24
REMARK SMILES IDX 23 25 24 26 25 27 26 28 27 29 28 30 29 31 30 32 31 33 32 34
REMARK SMILES IDX 33 35 91 36 34 37 90 38 35 39 36 40 37 41 84 42 38 43 89 44
REMARK SMILES IDX 83 45 85 46 39 47 88 48 82 49 81 50 40 52 70 53 51 54 69 55
REMARK SMILES IDX 52 56 55 57 68 58 86 59 53 60 54 61 67 63 87 64 56 65 41 66
REMARK SMILES IDX 42 67 50 68 43 69 49 70 44 71 45 72 46 73 47 74 48 75 71 76
REMARK SMILES IDX 72 77 80 78 73 79 79 80 74 81 75 82 76 83 77 84 78 85 57 86
REMARK SMILES IDX 58 87 66 88 59 89 65 90 60 91 61 92 62 93 63 94 64 95
REMARK H PARENT 7 15 10 17 85 51 55 62
REMARK Flexibility Score: inf
ROOT
ATOM      1  C   UNL A   1      37.064  22.902  24.896  1.00  0.00     0.188 C 
ENDROOT
BRANCH   1   2
ATOM      2  O   UNL A   1      35.928  23.450  25.560  1.00  0.00    -0.376 OA
BRANCH   2   3
ATOM      3  C   UNL A   1      35.162  24.423  24.852  1.00  0.00     0.202 C 
BRANCH   3   4
ATOM      4  C   UNL A   1      34.138  23.919  23.818  1.00  0.00     0.261 C 
BRANCH   4   5
ATOM      5  O   UNL A   1      34.373  24.302  22.440  1.00  0.00    -0.462 OA
BRANCH   5   6
ATOM      6  C   UNL A   1      33.735  25.427  22.029  1.00  0.00     0.332 C 
ATOM      7  O   UNL A   1      34.279  26.519  21.878  1.00  0.00    -0.250 OA
BRANCH   6   8
ATOM      8  C   UNL A   1      32.222  25.266  21.756  1.00  0.00     0.282 C 
BRANCH   8   9
ATOM      9  O   UNL A   1      31.118  25.998  22.229  1.00  0.00    -0.368 OA
BRANCH   9  10
ATOM     10  C   UNL A   1      30.642  25.760  23.548  1.00  0.00     0.182 C 
BRANCH  10  11
ATOM     11  C   UNL A   1      30.522  24.291  24.001  1.00  0.00     0.146 C 
BRANCH  11  12
ATOM     12  N   UNL A   1      30.293  24.107  25.430  1.00  0.00    -0.336 N 
ATOM     13  N   UNL A   1      31.089  22.001  26.184  1.00  0.00    -0.329 N 
ATOM     14  C   UNL A   1      30.521  23.188  26.364  1.00  0.00     0.315 C 
ATOM     15  H   UNL A   1      31.114  21.484  27.022  1.00  0.00     0.165 HD
ATOM     16  O   UNL A   1      30.178  23.469  27.515  1.00  0.00    -0.249 OA
ATOM     17  H   UNL A   1      29.838  24.891  25.815  1.00  0.00     0.165 HD
BRANCH  13  18
ATOM     18  C   UNL A   1      31.683  21.261  25.088  1.00  0.00     0.218 C 
BRANCH  18  19
ATOM     19  C   UNL A   1      33.086  20.661  25.309  1.00  0.00     0.241 C 
ATOM     20  C   UNL A   1      34.887  19.118  24.790  1.00  0.00     0.146 C 
ATOM     21  N   UNL A   1      33.561  19.637  24.502  1.00  0.00    -0.347 N 
ATOM     22  C   UNL A   1      32.821  19.011  23.423  1.00  0.00     0.146 C 
ATOM     23  O   UNL A   1      33.728  21.021  26.303  1.00  0.00    -0.273 OA
ENDBRANCH  18  19
ENDBRANCH  13  18
ENDBRANCH  11  12
ENDBRANCH  10  11
ENDBRANCH   9  10
ENDBRANCH   8   9
ENDBRANCH   6   8
ENDBRANCH   5   6
ENDBRANCH   4   5
ENDBRANCH   3   4
ENDBRANCH   2   3
ENDBRANCH   1   2
BRANCH   1  24
ATOM     24  C   UNL A   1      37.860  21.870  25.692  1.00  0.00     0.188 C 
BRANCH  24  25
ATOM     25  O   UNL A   1      39.246  22.182  25.710  1.00  0.00    -0.377 OA
BRANCH  25  26
ATOM     26  C   UNL A   1      40.061  21.697  26.771  1.00  0.00     0.188 C 
BRANCH  26  27
ATOM     27  C   UNL A   1      41.280  20.859  26.382  1.00  0.00     0.188 C 
BRANCH  27  28
ATOM     28  O   UNL A   1      41.337  19.505  26.848  1.00  0.00    -0.376 OA
BRANCH  28  29
ATOM     29  C   UNL A   1      42.577  18.808  26.811  1.00  0.00     0.202 C 
BRANCH  29  30
ATOM     30  C   UNL A   1      43.311  18.757  25.471  1.00  0.00     0.261 C 
BRANCH  30  31
ATOM     31  O   UNL A   1      44.554  19.460  25.498  1.00  0.00    -0.460 OA
BRANCH  31  32
ATOM     32  C   UNL A   1      44.708  20.352  24.489  1.00  0.00     0.338 C 
ATOM     33  O   UNL A   1      44.798  20.119  23.300  1.00  0.00    -0.246 OA
BRANCH  32  34
ATOM     34  C   UNL A   1      44.573  21.708  25.045  1.00  0.00     0.060 A 
ATOM     35  C   UNL A   1      44.227  22.750  24.174  1.00  0.00     0.016 A 
ATOM     36  C   UNL A   1      44.834  21.953  26.394  1.00  0.00     0.016 A 
ATOM     37  C   UNL A   1      44.168  24.053  24.643  1.00  0.00     0.010 A 
ATOM     38  C   UNL A   1      44.810  23.266  26.858  1.00  0.00     0.010 A 
ATOM     39  C   UNL A   1      44.517  24.316  25.971  1.00  0.00    -0.014 A 
BRANCH  39  40
ATOM     40  C   UNL A   1      44.808  25.706  26.362  1.00  0.00     0.031 A 
ATOM     41  C   UNL A   1      46.221  26.192  26.218  1.00  0.00     0.074 A 
ATOM     42  C   UNL A   1      43.829  26.510  26.807  1.00  0.00     0.049 A 
ATOM     43  N   UNL A   1      46.735  27.345  26.546  1.00  0.00    -0.248 NA
ATOM     44  C   UNL A   1      47.187  25.247  25.626  1.00  0.00     0.031 C 
ATOM     45  C   UNL A   1      42.418  26.140  26.925  1.00  0.00     0.029 A 
ATOM     46  N   UNL A   1      43.879  27.803  27.251  1.00  0.00    -0.354 N 
ATOM     47  C   UNL A   1      48.084  27.258  26.224  1.00  0.00     0.074 A 
ATOM     48  C   UNL A   1      48.316  25.935  25.690  1.00  0.00     0.031 C 
ATOM     49  C   UNL A   1      41.738  27.181  27.432  1.00  0.00     0.029 A 
ATOM     50  C   UNL A   1      42.672  28.271  27.709  1.00  0.00     0.049 A 
ATOM     51  H   UNL A   1      44.700  28.346  27.243  1.00  0.00     0.167 HD
ATOM     52  C   UNL A   1      49.043  28.201  26.368  1.00  0.00     0.031 A 
ATOM     53  C   UNL A   1      42.371  29.435  28.314  1.00  0.00     0.031 A 
ATOM     54  C   UNL A   1      48.790  29.508  26.913  1.00  0.00     0.049 A 
ATOM     55  C   UNL A   1      43.471  30.445  28.523  1.00  0.00     0.074 A 
ATOM     56  C   UNL A   1      49.677  30.552  27.083  1.00  0.00     0.029 A 
ATOM     57  N   UNL A   1      47.559  29.940  27.385  1.00  0.00    -0.354 N 
ATOM     58  N   UNL A   1      44.738  30.365  28.186  1.00  0.00    -0.248 NA
ATOM     59  C   UNL A   1      43.100  31.702  29.183  1.00  0.00     0.031 C 
ATOM     60  C   UNL A   1      49.000  31.593  27.726  1.00  0.00     0.029 A 
ATOM     61  C   UNL A   1      47.673  31.226  27.883  1.00  0.00     0.049 A 
ATOM     62  H   UNL A   1      46.730  29.411  27.370  1.00  0.00     0.167 HD
ATOM     63  C   UNL A   1      45.307  31.576  28.566  1.00  0.00     0.074 A 
ATOM     64  C   UNL A   1      44.243  32.373  29.141  1.00  0.00     0.031 C 
ATOM     65  C   UNL A   1      46.592  31.996  28.450  1.00  0.00     0.031 A 
BRANCH  52  66
ATOM     66  C   UNL A   1      50.452  27.836  25.988  1.00  0.00    -0.014 A 
ATOM     67  C   UNL A   1      51.251  27.018  26.808  1.00  0.00     0.010 A 
ATOM     68  C   UNL A   1      50.969  28.285  24.759  1.00  0.00     0.010 A 
ATOM     69  C   UNL A   1      52.549  26.678  26.417  1.00  0.00     0.020 A 
ATOM     70  C   UNL A   1      52.255  27.923  24.351  1.00  0.00     0.020 A 
ATOM     71  C   UNL A   1      53.041  27.129  25.188  1.00  0.00     0.054 A 
BRANCH  71  72
ATOM     72  S   UNL A   1      54.710  26.630  24.683  1.00  0.00     0.124 S 
ATOM     73  O   UNL A   1      54.493  26.208  23.300  1.00  0.00    -0.237 OA
ATOM     74  O   UNL A   1      55.475  27.862  24.851  1.00  0.00    -0.237 OA
ATOM     75  O   UNL A   1      55.048  25.556  25.613  1.00  0.00    -0.744 OA
ENDBRANCH  71  72
ENDBRANCH  52  66
BRANCH  53  76
ATOM     76  C   UNL A   1      40.987  29.688  28.798  1.00  0.00    -0.014 A 
ATOM     77  C   UNL A   1      40.753  30.216  30.079  1.00  0.00     0.010 A 
ATOM     78  C   UNL A   1      39.887  29.394  27.969  1.00  0.00     0.010 A 
ATOM     79  C   UNL A   1      39.445  30.421  30.532  1.00  0.00     0.020 A 
ATOM     80  C   UNL A   1      38.581  29.629  28.405  1.00  0.00     0.020 A 
ATOM     81  C   UNL A   1      38.368  30.128  29.691  1.00  0.00     0.054 A 
BRANCH  81  82
ATOM     82  S   UNL A   1      36.683  30.436  30.287  1.00  0.00     0.124 S 
ATOM     83  O   UNL A   1      36.409  29.228  31.060  1.00  0.00    -0.237 OA
ATOM     84  O   UNL A   1      36.845  31.662  31.064  1.00  0.00    -0.237 OA
ATOM     85  O   UNL A   1      35.907  30.583  29.058  1.00  0.00    -0.744 OA
ENDBRANCH  81  82
ENDBRANCH  53  76
BRANCH  65  86
ATOM     86  C   UNL A   1      46.910  33.393  28.911  1.00  0.00    -0.014 A 
ATOM     87  C   UNL A   1      47.331  33.653  30.228  1.00  0.00     0.010 A 
ATOM     88  C   UNL A   1      46.848  34.454  27.989  1.00  0.00     0.010 A 
ATOM     89  C   UNL A   1      47.647  34.955  30.622  1.00  0.00     0.020 A 
ATOM     90  C   UNL A   1      47.198  35.750  28.369  1.00  0.00     0.020 A 
ATOM     91  C   UNL A   1      47.581  35.995  29.689  1.00  0.00     0.054 A 
BRANCH  91  92
ATOM     92  S   UNL A   1      48.040  37.667  30.215  1.00  0.00     0.124 S 
ATOM     93  O   UNL A   1      49.006  38.055  29.190  1.00  0.00    -0.237 OA
ATOM     94  O   UNL A   1      46.763  38.376  30.176  1.00  0.00    -0.237 OA
ATOM     95  O   UNL A   1      48.596  37.470  31.552  1.00  0.00    -0.744 OA
ENDBRANCH  91  92
ENDBRANCH  65  86
ENDBRANCH  39  40
ENDBRANCH  32  34
ENDBRANCH  31  32
ENDBRANCH  30  31
ENDBRANCH  29  30
ENDBRANCH  28  29
ENDBRANCH  27  28
ENDBRANCH  26  27
ENDBRANCH  25  26
ENDBRANCH  24  25
ENDBRANCH   1  24
TORSDOF 29
ENDMDL
MODEL 2
REMARK VINA RESULT:      -8.0      1.140      2.224
REMARK SMILES CN(C)C(=O)CNC(=O)NCCOCC(=O)OCCOCCOCCOCCOC(=O)c1ccc(-c2c3nc(c(-c4ccc(S(=O)(=O)[O-])cc4)c4ccc([nH]4)c(-c4ccc(S(=O)(=O)[O-])cc4)c4nc(c(-c5ccc(S(=O)(=O)[O-])cc5)c5ccc2[nH]5)C=C4)C=C3)cc1
REMARK SMILES IDX 21 1 20 2 19 3 18 4 17 5 15 6 16 7 14 8 13 9 12 10 11 11
REMARK SMILES IDX 10 12 7 13 8 14 9 16 6 18 4 19 1 20 2 21 3 22 5 23 22 24
REMARK SMILES IDX 23 25 24 26 25 27 26 28 27 29 28 30 29 31 30 32 31 33 32 34
REMARK SMILES IDX 33 35 91 36 34 37 90 38 35 39 36 40 37 41 84 42 38 43 89 44
REMARK SMILES IDX 83 45 85 46 39 47 88 48 82 49 81 50 40 52 70 53 51 54 69 55
REMARK SMILES IDX 52 56 55 57 68 58 86 59 53 60 54 61 67 63 87 64 56 65 41 66
REMARK SMILES IDX 42 67 50 68 43 69 49 70 44 71 45 72 46 73 47 74 48 75 71 76
REMARK SMILES IDX 72 77 80 78 73 79 79 80 74 81 75 82 76 83 77 84 78 85 57 86
REMARK SMILES IDX 58 87 66 88 59 89 65 90 60 91 61 92 62 93 63 94 64 95
REMARK H PARENT 7 15 10 17 85 51 55 62
REMARK Flexibility Score: inf
ROOT
ATOM      1  C   UNL A   1      37.105  22.915  24.916  1.00  0.00     0.188 C 
ENDROOT
BRANCH   1   2
ATOM      2  O   UNL A   1      35.965  23.459  25.578  1.00  0.00    -0.376 OA
BRANCH   2   3
ATOM      3  C   UNL A   1      35.186  24.415  24.860  1.00  0.00     0.202 C 
BRANCH   3   4
ATOM      4  C   UNL A   1      34.208  23.889  23.792  1.00  0.00     0.261 C 
BRANCH   4   5
ATOM      5  O   UNL A   1      34.439  24.338  22.434  1.00  0.00    -0.462 OA
BRANCH   5   6
ATOM      6  C   UNL A   1      33.698  25.405  22.037  1.00  0.00     0.332 C 
ATOM      7  O   UNL A   1      34.128  26.553  21.944  1.00  0.00    -0.250 OA
BRANCH   6   8
ATOM      8  C   UNL A   1      32.221  25.096  21.701  1.00  0.00     0.282 C 
BRANCH   8   9
ATOM      9  O   UNL A   1      31.028  25.632  22.219  1.00  0.00    -0.368 OA
BRANCH   9  10
ATOM     10  C   UNL A   1      30.556  25.179  23.483  1.00  0.00     0.182 C 
BRANCH  10  11
ATOM     11  C   UNL A   1      30.883  23.725  23.879  1.00  0.00     0.146 C 
BRANCH  11  12
ATOM     12  N   UNL A   1      30.530  23.369  25.249  1.00  0.00    -0.336 N 
ATOM     13  N   UNL A   1      31.361  24.953  26.811  1.00  0.00    -0.329 N 
ATOM     14  C   UNL A   1      30.697  23.851  26.477  1.00  0.00     0.315 C 
ATOM     15  H   UNL A   1      31.376  25.081  27.787  1.00  0.00     0.165 HD
ATOM     16  O   UNL A   1      30.178  23.217  27.399  1.00  0.00    -0.249 OA
ATOM     17  H   UNL A   1      30.020  22.526  25.270  1.00  0.00     0.165 HD
BRANCH  13  18
ATOM     18  C   UNL A   1      32.068  26.017  26.127  1.00  0.00     0.218 C 
BRANCH  18  19
ATOM     19  C   UNL A   1      31.891  27.452  26.663  1.00  0.00     0.241 C 
ATOM     20  C   UNL A   1      32.206  29.856  26.556  1.00  0.00     0.146 C 
ATOM     21  N   UNL A   1      32.402  28.541  25.972  1.00  0.00    -0.347 N 
ATOM     22  C   UNL A   1      33.158  28.468  24.736  1.00  0.00     0.146 C 
ATOM     23  O   UNL A   1      31.399  27.601  27.788  1.00  0.00    -0.273 OA
ENDBRANCH  18  19
ENDBRANCH  13  18
ENDBRANCH  11  12
ENDBRANCH  10  11
ENDBRANCH   9  10
ENDBRANCH   8   9
ENDBRANCH   6   8
ENDBRANCH   5   6
ENDBRANCH   4   5
ENDBRANCH   3   4
ENDBRANCH   2   3
ENDBRANCH   1   2
BRANCH   1  24
ATOM     24  C   UNL A   1      37.887  21.866  25.704  1.00  0.00     0.188 C 
BRANCH  24  25
ATOM     25  O   UNL A   1      39.270  22.184  25.762  1.00  0.00    -0.377 OA
BRANCH  25  26
ATOM     26  C   UNL A   1      40.069  21.654  26.814  1.00  0.00     0.188 C 
BRANCH  26  27
ATOM     27  C   UNL A   1      41.300  20.841  26.410  1.00  0.00     0.188 C 
BRANCH  27  28
ATOM     28  O   UNL A   1      41.347  19.462  26.793  1.00  0.00    -0.376 OA
BRANCH  28  29
ATOM     29  C   UNL A   1      42.576  18.753  26.692  1.00  0.00     0.202 C 
BRANCH  29  30
ATOM     30  C   UNL A   1      43.287  18.775  25.339  1.00  0.00     0.261 C 
BRANCH  30  31
ATOM     31  O   UNL A   1      44.523  19.490  25.379  1.00  0.00    -0.460 OA
BRANCH  31  32
ATOM     32  C   UNL A   1      44.667  20.403  24.386  1.00  0.00     0.338 C 
ATOM     33  O   UNL A   1      44.747  20.195  23.193  1.00  0.00    -0.246 OA
BRANCH  32  34
ATOM     34  C   UNL A   1      44.534  21.747  24.972  1.00  0.00     0.060 A 
ATOM     35  C   UNL A   1      44.206  22.811  24.120  1.00  0.00     0.016 A 
ATOM     36  C   UNL A   1      44.781  21.960  26.329  1.00  0.00     0.016 A 
ATOM     37  C   UNL A   1      44.151  24.103  24.618  1.00  0.00     0.010 A 
ATOM     38  C   UNL A   1      44.761  23.262  26.822  1.00  0.00     0.010 A 
ATOM     39  C   UNL A   1      44.486  24.333  25.956  1.00  0.00    -0.014 A 
BRANCH  39  40
ATOM     40  C   UNL A   1      44.782  25.712  26.382  1.00  0.00     0.031 A 
ATOM     41  C   UNL A   1      46.201  26.190  26.269  1.00  0.00     0.074 A 
ATOM     42  C   UNL A   1      43.802  26.514  26.831  1.00  0.00     0.049 A 
ATOM     43  N   UNL A   1      46.719  27.332  26.630  1.00  0.00    -0.248 NA
ATOM     44  C   UNL A   1      47.167  25.251  25.669  1.00  0.00     0.031 C 
ATOM     45  C   UNL A   1      42.387  26.152  26.920  1.00  0.00     0.029 A 
ATOM     46  N   UNL A   1      43.856  27.796  27.304  1.00  0.00    -0.354 N 
ATOM     47  C   UNL A   1      48.071  27.241  26.324  1.00  0.00     0.074 A 
ATOM     48  C   UNL A   1      48.301  25.928  25.764  1.00  0.00     0.031 C 
ATOM     49  C   UNL A   1      41.708  27.188  27.441  1.00  0.00     0.029 A 
ATOM     50  C   UNL A   1      42.646  28.264  27.755  1.00  0.00     0.049 A 
ATOM     51  H   UNL A   1      44.682  28.333  27.320  1.00  0.00     0.167 HD
ATOM     52  C   UNL A   1      49.035  28.172  26.503  1.00  0.00     0.031 A 
ATOM     53  C   UNL A   1      42.346  29.417  28.381  1.00  0.00     0.031 A 
ATOM     54  C   UNL A   1      48.784  29.469  27.073  1.00  0.00     0.049 A 
ATOM     55  C   UNL A   1      43.450  30.412  28.629  1.00  0.00     0.074 A 
ATOM     56  C   UNL A   1      49.677  30.503  27.278  1.00  0.00     0.029 A 
ATOM     57  N   UNL A   1      47.551  29.901  27.537  1.00  0.00    -0.354 N 
ATOM     58  N   UNL A   1      44.721  30.331  28.308  1.00  0.00    -0.248 NA
ATOM     59  C   UNL A   1      43.080  31.658  29.311  1.00  0.00     0.031 C 
ATOM     60  C   UNL A   1      48.999  31.534  27.935  1.00  0.00     0.029 A 
ATOM     61  C   UNL A   1      47.667  31.174  28.065  1.00  0.00     0.049 A 
ATOM     62  H   UNL A   1      46.718  29.379  27.499  1.00  0.00     0.167 HD
ATOM     63  C   UNL A   1      45.295  31.528  28.722  1.00  0.00     0.074 A 
ATOM     64  C   UNL A   1      44.228  32.320  29.300  1.00  0.00     0.031 C 
ATOM     65  C   UNL A   1      46.584  31.940  28.634  1.00  0.00     0.031 A 
BRANCH  52  66
ATOM     66  C   UNL A   1      50.447  27.805  26.134  1.00  0.00    -0.014 A 
ATOM     67  C   UNL A   1      51.214  26.931  26.927  1.00  0.00     0.010 A 
ATOM     68  C   UNL A   1      50.999  28.310  24.943  1.00  0.00     0.010 A 
ATOM     69  C   UNL A   1      52.515  26.590  26.546  1.00  0.00     0.020 A 
ATOM     70  C   UNL A   1      52.287  27.949  24.544  1.00  0.00     0.020 A 
ATOM     71  C   UNL A   1      53.042  27.098  25.354  1.00  0.00     0.054 A 
BRANCH  71  72
ATOM     72  S   UNL A   1      54.714  26.599  24.859  1.00  0.00     0.124 S 
ATOM     73  O   UNL A   1      54.509  26.191  23.471  1.00  0.00    -0.237 OA
ATOM     74  O   UNL A   1      55.481  27.827  25.046  1.00  0.00    -0.237 OA
ATOM     75  O   UNL A   1      55.041  25.516  25.783  1.00  0.00    -0.744 OA
ENDBRANCH  71  72
ENDBRANCH  52  66
BRANCH  53  76
ATOM     76  C   UNL A   1      40.957  29.670  28.852  1.00  0.00    -0.014 A 
ATOM     77  C   UNL A   1      40.712  30.249  30.109  1.00  0.00     0.010 A 
ATOM     78  C   UNL A   1      39.864  29.325  28.034  1.00  0.00     0.010 A 
ATOM     79  C   UNL A   1      39.400  30.454  30.549  1.00  0.00     0.020 A 
ATOM     80  C   UNL A   1      38.554  29.559  28.457  1.00  0.00     0.020 A 
ATOM     81  C   UNL A   1      38.330  30.110  29.720  1.00  0.00     0.054 A 
BRANCH  81  82
ATOM     82  S   UNL A   1      36.639  30.417  30.299  1.00  0.00     0.124 S 
ATOM     83  O   UNL A   1      36.368  29.224  31.093  1.00  0.00    -0.237 OA
ATOM     84  O   UNL A   1      36.788  31.660  31.053  1.00  0.00    -0.237 OA
ATOM     85  O   UNL A   1      35.870  30.536  29.063  1.00  0.00    -0.744 OA
ENDBRANCH  81  82
ENDBRANCH  53  76
BRANCH  65  86
ATOM     86  C   UNL A   1      46.906  33.324  29.131  1.00  0.00    -0.014 A 
ATOM     87  C   UNL A   1      47.292  33.553  30.463  1.00  0.00     0.010 A 
ATOM     88  C   UNL A   1      46.884  34.403  28.227  1.00  0.00     0.010 A 
ATOM     89  C   UNL A   1      47.614  34.844  30.891  1.00  0.00     0.020 A 
ATOM     90  C   UNL A   1      47.239  35.687  28.642  1.00  0.00     0.020 A 
ATOM     91  C   UNL A   1      47.587  35.902  29.976  1.00  0.00     0.054 A 
BRANCH  91  92
ATOM     92  S   UNL A   1      48.052  37.558  30.547  1.00  0.00     0.124 S 
ATOM     93  O   UNL A   1      47.023  38.392  29.931  1.00  0.00    -0.237 OA
ATOM     94  O   UNL A   1      47.971  37.429  32.000  1.00  0.00    -0.237 OA
ATOM     95  O   UNL A   1      49.402  37.742  30.018  1.00  0.00    -0.744 OA
ENDBRANCH  91  92
ENDBRANCH  65  86
ENDBRANCH  39  40
ENDBRANCH  32  34
ENDBRANCH  31  32
ENDBRANCH  30  31
ENDBRANCH  29  30
ENDBRANCH  28  29
ENDBRANCH  27  28
ENDBRANCH  26  27
ENDBRANCH  25  26
ENDBRANCH  24  25
ENDBRANCH   1  24
TORSDOF 29
ENDMDL
MODEL 3
REMARK VINA RESULT:      -7.8      1.154      8.185
REMARK SMILES CN(C)C(=O)CNC(=O)NCCOCC(=O)OCCOCCOCCOCCOC(=O)c1ccc(-c2c3nc(c(-c4ccc(S(=O)(=O)[O-])cc4)c4ccc([nH]4)c(-c4ccc(S(=O)(=O)[O-])cc4)c4nc(c(-c5ccc(S(=O)(=O)[O-])cc5)c5ccc2[nH]5)C=C4)C=C3)cc1
REMARK SMILES IDX 21 1 20 2 19 3 18 4 17 5 15 6 16 7 14 8 13 9 12 10 11 11
REMARK SMILES IDX 10 12 7 13 8 14 9 16 6 18 4 19 1 20 2 21 3 22 5 23 22 24
REMARK SMILES IDX 23 25 24 26 25 27 26 28 27 29 28 30 29 31 30 32 31 33 32 34
REMARK SMILES IDX 33 35 91 36 34 37 90 38 35 39 36 40 37 41 84 42 38 43 89 44
REMARK SMILES IDX 83 45 85 46 39 47 88 48 82 49 81 50 40 52 70 53 51 54 69 55
REMARK SMILES IDX 52 56 55 57 68 58 86 59 53 60 54 61 67 63 87 64 56 65 41 66
REMARK SMILES IDX 42 67 50 68 43 69 49 70 44 71 45 72 46 73 47 74 48 75 71 76
REMARK SMILES IDX 72 77 80 78 73 79 79 80 74 81 75 82 76 83 77 84 78 85 57 86
REMARK SMILES IDX 58 87 66 88 59 89 65 90 60 91 61 92 62 93 63 94 64 95
REMARK H PARENT 7 15 10 17 85 51 55 62
REMARK Flexibility Score: inf
ROOT
ATOM      1  C   UNL A   1      37.185  22.839  25.090  1.00  0.00     0.188 C 
ENDROOT
BRANCH   1   2
ATOM      2  O   UNL A   1      36.031  23.241  25.825  1.00  0.00    -0.376 OA
BRANCH   2   3
ATOM      3  C   UNL A   1      35.329  24.393  25.363  1.00  0.00     0.202 C 
BRANCH   3   4
ATOM      4  C   UNL A   1      34.307  24.204  24.225  1.00  0.00     0.261 C 
BRANCH   4   5
ATOM      5  O   UNL A   1      34.669  24.759  22.937  1.00  0.00    -0.462 OA
BRANCH   5   6
ATOM      6  C   UNL A   1      33.662  25.367  22.258  1.00  0.00     0.332 C 
ATOM      7  O   UNL A   1      33.692  26.532  21.867  1.00  0.00    -0.250 OA
BRANCH   6   8
ATOM      8  C   UNL A   1      32.417  24.488  21.998  1.00  0.00     0.282 C 
BRANCH   8   9
ATOM      9  O   UNL A   1      31.051  24.738  22.223  1.00  0.00    -0.368 OA
BRANCH   9  10
ATOM     10  C   UNL A   1      30.486  24.410  23.488  1.00  0.00     0.182 C 
BRANCH  10  11
ATOM     11  C   UNL A   1      31.197  23.321  24.317  1.00  0.00     0.146 C 
BRANCH  11  12
ATOM     12  N   UNL A   1      30.547  22.994  25.582  1.00  0.00    -0.336 N 
ATOM     13  N   UNL A   1      29.853  24.944  26.745  1.00  0.00    -0.329 N 
ATOM     14  C   UNL A   1      29.973  23.629  26.599  1.00  0.00     0.315 C 
ATOM     15  H   UNL A   1      29.422  25.173  27.601  1.00  0.00     0.165 HD
ATOM     16  O   UNL A   1      29.497  22.927  27.495  1.00  0.00    -0.249 OA
ATOM     17  H   UNL A   1      30.529  22.019  25.722  1.00  0.00     0.165 HD
BRANCH  13  18
ATOM     18  C   UNL A   1      30.183  26.133  25.985  1.00  0.00     0.218 C 
BRANCH  18  19
ATOM     19  C   UNL A   1      31.662  26.569  25.948  1.00  0.00     0.241 C 
ATOM     20  C   UNL A   1      33.530  27.808  25.018  1.00  0.00     0.146 C 
ATOM     21  N   UNL A   1      32.119  27.464  24.992  1.00  0.00    -0.347 N 
ATOM     22  C   UNL A   1      31.311  28.048  23.938  1.00  0.00     0.146 C 
ATOM     23  O   UNL A   1      32.459  26.003  26.706  1.00  0.00    -0.273 OA
ENDBRANCH  18  19
ENDBRANCH  13  18
ENDBRANCH  11  12
ENDBRANCH  10  11
ENDBRANCH   9  10
ENDBRANCH   8   9
ENDBRANCH   6   8
ENDBRANCH   5   6
ENDBRANCH   4   5
ENDBRANCH   3   4
ENDBRANCH   2   3
ENDBRANCH   1   2
BRANCH   1  24
ATOM     24  C   UNL A   1      38.052  21.772  25.754  1.00  0.00     0.188 C 
BRANCH  24  25
ATOM     25  O   UNL A   1      39.404  22.195  25.866  1.00  0.00    -0.377 OA
BRANCH  25  26
ATOM     26  C   UNL A   1      40.209  21.701  26.930  1.00  0.00     0.188 C 
BRANCH  26  27
ATOM     27  C   UNL A   1      41.414  20.840  26.546  1.00  0.00     0.188 C 
BRANCH  27  28
ATOM     28  O   UNL A   1      41.492  19.517  27.092  1.00  0.00    -0.376 OA
BRANCH  28  29
ATOM     29  C   UNL A   1      42.699  18.776  26.952  1.00  0.00     0.202 C 
BRANCH  29  30
ATOM     30  C   UNL A   1      43.282  18.648  25.545  1.00  0.00     0.261 C 
BRANCH  30  31
ATOM     31  O   UNL A   1      44.563  19.269  25.422  1.00  0.00    -0.460 OA
BRANCH  31  32
ATOM     32  C   UNL A   1      44.637  20.197  24.436  1.00  0.00     0.338 C 
ATOM     33  O   UNL A   1      44.582  20.010  23.237  1.00  0.00    -0.246 OA
BRANCH  32  34
ATOM     34  C   UNL A   1      44.621  21.532  25.055  1.00  0.00     0.060 A 
ATOM     35  C   UNL A   1      44.299  22.632  24.249  1.00  0.00     0.016 A 
ATOM     36  C   UNL A   1      44.968  21.699  26.396  1.00  0.00     0.016 A 
ATOM     37  C   UNL A   1      44.351  23.913  24.774  1.00  0.00     0.010 A 
ATOM     38  C   UNL A   1      45.056  22.988  26.915  1.00  0.00     0.010 A 
ATOM     39  C   UNL A   1      44.787  24.093  26.090  1.00  0.00    -0.014 A 
BRANCH  39  40
ATOM     40  C   UNL A   1      45.189  25.443  26.522  1.00  0.00     0.031 A 
ATOM     41  C   UNL A   1      44.129  26.337  27.098  1.00  0.00     0.074 A 
ATOM     42  C   UNL A   1      46.468  25.840  26.423  1.00  0.00     0.049 A 
ATOM     43  N   UNL A   1      44.221  27.578  27.493  1.00  0.00    -0.248 NA
ATOM     44  C   UNL A   1      42.783  25.755  27.246  1.00  0.00     0.031 C 
ATOM     45  C   UNL A   1      47.573  25.018  25.930  1.00  0.00     0.029 A 
ATOM     46  N   UNL A   1      47.047  27.041  26.726  1.00  0.00    -0.354 N 
ATOM     47  C   UNL A   1      42.944  27.931  27.912  1.00  0.00     0.074 A 
ATOM     48  C   UNL A   1      42.090  26.782  27.711  1.00  0.00     0.031 C 
ATOM     49  C   UNL A   1      48.698  25.751  25.944  1.00  0.00     0.029 A 
ATOM     50  C   UNL A   1      48.382  27.100  26.410  1.00  0.00     0.049 A 
ATOM     51  H   UNL A   1      46.555  27.792  27.132  1.00  0.00     0.167 HD
ATOM     52  C   UNL A   1      42.524  29.114  28.417  1.00  0.00     0.031 A 
ATOM     53  C   UNL A   1      49.236  28.140  26.460  1.00  0.00     0.031 A 
ATOM     54  C   UNL A   1      43.392  30.246  28.598  1.00  0.00     0.049 A 
ATOM     55  C   UNL A   1      48.729  29.466  26.964  1.00  0.00     0.074 A 
ATOM     56  C   UNL A   1      43.084  31.486  29.124  1.00  0.00     0.029 A 
ATOM     57  N   UNL A   1      44.734  30.277  28.248  1.00  0.00    -0.354 N 
ATOM     58  N   UNL A   1      47.527  29.782  27.388  1.00  0.00    -0.248 NA
ATOM     59  C   UNL A   1      49.693  30.572  27.006  1.00  0.00     0.031 C 
ATOM     60  C   UNL A   1      44.223  32.292  29.023  1.00  0.00     0.029 A 
ATOM     61  C   UNL A   1      45.260  31.529  28.511  1.00  0.00     0.049 A 
ATOM     62  H   UNL A   1      45.236  29.521  27.868  1.00  0.00     0.167 HD
ATOM     63  C   UNL A   1      47.600  31.116  27.777  1.00  0.00     0.074 A 
ATOM     64  C   UNL A   1      48.967  31.538  27.552  1.00  0.00     0.031 C 
ATOM     65  C   UNL A   1      46.629  31.920  28.277  1.00  0.00     0.031 A 
BRANCH  52  66
ATOM     66  C   UNL A   1      41.065  29.259  28.751  1.00  0.00    -0.014 A 
ATOM     67  C   UNL A   1      40.599  29.188  30.076  1.00  0.00     0.010 A 
ATOM     68  C   UNL A   1      40.147  29.519  27.716  1.00  0.00     0.010 A 
ATOM     69  C   UNL A   1      39.239  29.350  30.357  1.00  0.00     0.020 A 
ATOM     70  C   UNL A   1      38.792  29.711  27.996  1.00  0.00     0.020 A 
ATOM     71  C   UNL A   1      38.345  29.615  29.315  1.00  0.00     0.054 A 
BRANCH  71  72
ATOM     72  S   UNL A   1      36.594  29.871  29.715  1.00  0.00     0.124 S 
ATOM     73  O   UNL A   1      36.459  29.131  30.967  1.00  0.00    -0.237 OA
ATOM     74  O   UNL A   1      36.504  31.323  29.831  1.00  0.00    -0.237 OA
ATOM     75  O   UNL A   1      35.889  29.294  28.573  1.00  0.00    -0.744 OA
ENDBRANCH  71  72
ENDBRANCH  52  66
BRANCH  53  76
ATOM     76  C   UNL A   1      50.637  27.977  25.984  1.00  0.00    -0.014 A 
ATOM     77  C   UNL A   1      51.663  27.607  26.869  1.00  0.00     0.010 A 
ATOM     78  C   UNL A   1      50.950  28.200  24.629  1.00  0.00     0.010 A 
ATOM     79  C   UNL A   1      52.981  27.486  26.413  1.00  0.00     0.020 A 
ATOM     80  C   UNL A   1      52.258  28.049  24.164  1.00  0.00     0.020 A 
ATOM     81  C   UNL A   1      53.269  27.706  25.063  1.00  0.00     0.054 A 
BRANCH  81  82
ATOM     82  S   UNL A   1      54.978  27.510  24.490  1.00  0.00     0.124 S 
ATOM     83  O   UNL A   1      54.983  28.312  23.270  1.00  0.00    -0.237 OA
ATOM     84  O   UNL A   1      55.747  28.053  25.607  1.00  0.00    -0.237 OA
ATOM     85  O   UNL A   1      55.110  26.069  24.294  1.00  0.00    -0.744 OA
ENDBRANCH  81  82
ENDBRANCH  53  76
BRANCH  65  86
ATOM     86  C   UNL A   1      47.018  33.324  28.657  1.00  0.00    -0.014 A 
ATOM     87  C   UNL A   1      46.935  33.773  29.987  1.00  0.00     0.010 A 
ATOM     88  C   UNL A   1      47.538  34.185  27.673  1.00  0.00     0.010 A 
ATOM     89  C   UNL A   1      47.330  35.072  30.317  1.00  0.00     0.020 A 
ATOM     90  C   UNL A   1      47.967  35.471  28.006  1.00  0.00     0.020 A 
ATOM     91  C   UNL A   1      47.846  35.911  29.324  1.00  0.00     0.054 A 
BRANCH  91  92
ATOM     92  S   UNL A   1      48.393  37.575  29.789  1.00  0.00     0.124 S 
ATOM     93  O   UNL A   1      49.548  37.771  28.917  1.00  0.00    -0.237 OA
ATOM     94  O   UNL A   1      47.223  38.394  29.477  1.00  0.00    -0.237 OA
ATOM     95  O   UNL A   1      48.699  37.455  31.213  1.00  0.00    -0.744 OA
ENDBRANCH  91  92
ENDBRANCH  65  86
ENDBRANCH  39  40
ENDBRANCH  32  34
ENDBRANCH  31  32
ENDBRANCH  30  31
ENDBRANCH  29  30
ENDBRANCH  28  29
ENDBRANCH  27  28
ENDBRANCH  26  27
ENDBRANCH  25  26
ENDBRANCH  24  25
ENDBRANCH   1  24
TORSDOF 29
ENDMDL
