MODEL 1
REMARK VINA RESULT:      -8.8      0.000      0.000
REMARK SMILES C[C@@H](C(=O)OCCOCCOCCOCCOC(=O)c1ccc(-c2c3nc(c(-c4ccc(S(=O)(=O)[O-])cc4)c4ccc([nH]4)c(-c4ccc(S(=O)(=O)[O-])cc4)c4nc(c(-c5ccc(S(=O)(=O)[O-])cc5)c5ccc2[nH]5)C=C4)C=C3)cc1)c1cccn(C(F)F)c1=O
REMARK SMILES IDX 12 1 11 2 10 3 9 4 8 5 7 6 6 7 5 8 3 9 4 10 2 11 1 12 80 13
REMARK SMILES IDX 81 14 88 15 82 16 84 17 89 18 83 19 85 20 86 21 87 22 13 23
REMARK SMILES IDX 14 24 15 25 16 26 17 27 18 28 19 29 20 30 21 31 79 32 22 33
REMARK SMILES IDX 78 34 23 35 24 36 25 37 72 38 26 39 77 40 71 41 73 42 27 43
REMARK SMILES IDX 76 44 70 45 69 46 28 48 58 49 39 50 57 51 40 52 43 53 56 54
REMARK SMILES IDX 74 55 41 56 42 57 55 59 75 60 44 61 29 62 30 63 38 64 31 65
REMARK SMILES IDX 37 66 32 67 33 68 34 69 35 70 36 71 59 72 60 73 68 74 61 75
REMARK SMILES IDX 67 76 62 77 63 78 64 79 65 80 66 81 45 82 46 83 54 84 47 85
REMARK SMILES IDX 53 86 48 87 49 88 50 89 51 90 52 91
REMARK H PARENT 73 47 43 58
REMARK Flexibility Score: inf
ROOT
ATOM      1  C   UNL A   1      45.599  21.691  25.226  1.00  0.00     0.188 C 
ENDROOT
BRANCH   1   2
ATOM      2  O   UNL A   1      44.539  21.052  24.516  1.00  0.00    -0.377 OA
BRANCH   2   3
ATOM      3  C   UNL A   1      43.770  20.082  25.200  1.00  0.00     0.188 C 
BRANCH   3   4
ATOM      4  C   UNL A   1      42.817  20.619  26.272  1.00  0.00     0.188 C 
BRANCH   4   5
ATOM      5  O   UNL A   1      41.481  20.170  26.125  1.00  0.00    -0.376 OA
BRANCH   5   6
ATOM      6  C   UNL A   1      40.515  20.720  27.007  1.00  0.00     0.202 C 
BRANCH   6   7
ATOM      7  C   UNL A   1      39.715  21.967  26.586  1.00  0.00     0.261 C 
BRANCH   7   8
ATOM      8  O   UNL A   1      38.793  21.784  25.495  1.00  0.00    -0.463 OA
BRANCH   8   9
ATOM      9  C   UNL A   1      37.608  22.443  25.497  1.00  0.00     0.313 C 
ATOM     10  O   UNL A   1      37.282  23.279  26.332  1.00  0.00    -0.252 OA
BRANCH   9  11
ATOM     11  C   UNL A   1      36.685  21.985  24.343  1.00  0.00     0.132 C 
ATOM     12  C   UNL A   1      36.785  22.813  23.040  1.00  0.00     0.025 C 
BRANCH  11  13
ATOM     13  C   UNL A   1      35.227  21.709  24.699  1.00  0.00     0.032 A 
ATOM     14  C   UNL A   1      34.790  20.449  24.901  1.00  0.00     0.012 A 
ATOM     15  C   UNL A   1      34.187  22.796  24.782  1.00  0.00     0.259 A 
ATOM     16  C   UNL A   1      33.397  20.141  25.105  1.00  0.00     0.019 A 
ATOM     17  N   UNL A   1      32.863  22.395  24.697  1.00  0.00    -0.258 N 
ATOM     18  O   UNL A   1      34.492  23.974  24.901  1.00  0.00    -0.269 OA
ATOM     19  C   UNL A   1      32.478  21.096  24.937  1.00  0.00     0.095 A 
BRANCH  17  20
ATOM     20  C   UNL A   1      31.869  23.425  24.512  1.00  0.00     0.451 C 
ATOM     21  F   UNL A   1      31.867  23.836  23.212  1.00  0.00    -0.185 F 
ATOM     22  F   UNL A   1      30.630  22.923  24.748  1.00  0.00    -0.185 F 
ENDBRANCH  17  20
ENDBRANCH  11  13
ENDBRANCH   9  11
ENDBRANCH   8   9
ENDBRANCH   7   8
ENDBRANCH   6   7
ENDBRANCH   5   6
ENDBRANCH   4   5
ENDBRANCH   3   4
ENDBRANCH   2   3
ENDBRANCH   1   2
BRANCH   1  23
ATOM     23  C   UNL A   1      45.565  23.203  25.584  1.00  0.00     0.188 C 
BRANCH  23  24
ATOM     24  O   UNL A   1      45.036  24.064  24.585  1.00  0.00    -0.376 OA
BRANCH  24  25
ATOM     25  C   UNL A   1      43.976  24.933  24.944  1.00  0.00     0.202 C 
BRANCH  25  26
ATOM     26  C   UNL A   1      42.898  24.362  25.878  1.00  0.00     0.261 C 
BRANCH  26  27
ATOM     27  O   UNL A   1      42.367  25.270  26.854  1.00  0.00    -0.460 OA
BRANCH  27  28
ATOM     28  C   UNL A   1      41.136  25.779  26.627  1.00  0.00     0.338 C 
ATOM     29  O   UNL A   1      40.331  25.411  25.788  1.00  0.00    -0.246 OA
BRANCH  28  30
ATOM     30  C   UNL A   1      40.842  26.728  27.720  1.00  0.00     0.060 A 
ATOM     31  C   UNL A   1      41.433  27.999  27.698  1.00  0.00     0.016 A 
ATOM     32  C   UNL A   1      39.955  26.375  28.738  1.00  0.00     0.016 A 
ATOM     33  C   UNL A   1      41.163  28.911  28.717  1.00  0.00     0.010 A 
ATOM     34  C   UNL A   1      39.709  27.278  29.775  1.00  0.00     0.010 A 
ATOM     35  C   UNL A   1      40.341  28.535  29.786  1.00  0.00    -0.014 A 
BRANCH  35  36
ATOM     36  C   UNL A   1      40.334  29.349  31.021  1.00  0.00     0.031 A 
ATOM     37  C   UNL A   1      41.435  29.113  32.021  1.00  0.00     0.074 A 
ATOM     38  C   UNL A   1      39.395  30.284  31.248  1.00  0.00     0.049 A 
ATOM     39  N   UNL A   1      41.624  29.661  33.192  1.00  0.00    -0.248 NA
ATOM     40  C   UNL A   1      42.460  28.123  31.646  1.00  0.00     0.031 C 
ATOM     41  C   UNL A   1      38.316  30.643  30.330  1.00  0.00     0.029 A 
ATOM     42  N   UNL A   1      39.204  31.104  32.332  1.00  0.00    -0.354 N 
ATOM     43  C   UNL A   1      42.777  29.073  33.699  1.00  0.00     0.074 A 
ATOM     44  C   UNL A   1      43.231  28.109  32.722  1.00  0.00     0.031 C 
ATOM     45  C   UNL A   1      37.567  31.608  30.895  1.00  0.00     0.029 A 
ATOM     46  C   UNL A   1      38.092  31.907  32.227  1.00  0.00     0.049 A 
ATOM     47  H   UNL A   1      39.804  31.116  33.111  1.00  0.00     0.167 HD
ATOM     48  C   UNL A   1      43.404  29.315  34.874  1.00  0.00     0.031 A 
ATOM     49  C   UNL A   1      37.552  32.765  33.115  1.00  0.00     0.031 A 
ATOM     50  C   UNL A   1      42.939  30.265  35.848  1.00  0.00     0.049 A 
ATOM     51  C   UNL A   1      38.221  32.955  34.454  1.00  0.00     0.074 A 
ATOM     52  C   UNL A   1      43.509  30.596  37.064  1.00  0.00     0.029 A 
ATOM     53  N   UNL A   1      41.785  31.025  35.723  1.00  0.00    -0.354 N 
ATOM     54  N   UNL A   1      39.324  32.411  34.912  1.00  0.00    -0.248 NA
ATOM     55  C   UNL A   1      37.573  33.881  35.395  1.00  0.00     0.031 C 
ATOM     56  C   UNL A   1      42.664  31.507  37.706  1.00  0.00     0.029 A 
ATOM     57  C   UNL A   1      41.608  31.800  36.856  1.00  0.00     0.049 A 
ATOM     58  H   UNL A   1      41.183  31.015  34.946  1.00  0.00     0.167 HD
ATOM     59  C   UNL A   1      39.520  32.956  36.178  1.00  0.00     0.074 A 
ATOM     60  C   UNL A   1      38.429  33.879  36.408  1.00  0.00     0.031 C 
ATOM     61  C   UNL A   1      40.516  32.718  37.068  1.00  0.00     0.031 A 
BRANCH  48  62
ATOM     62  C   UNL A   1      44.632  28.504  35.189  1.00  0.00    -0.014 A 
ATOM     63  C   UNL A   1      44.546  27.265  35.848  1.00  0.00     0.010 A 
ATOM     64  C   UNL A   1      45.895  28.977  34.784  1.00  0.00     0.010 A 
ATOM     65  C   UNL A   1      45.703  26.530  36.126  1.00  0.00     0.020 A 
ATOM     66  C   UNL A   1      47.049  28.232  35.031  1.00  0.00     0.020 A 
ATOM     67  C   UNL A   1      46.947  27.019  35.714  1.00  0.00     0.054 A 
BRANCH  67  68
ATOM     68  S   UNL A   1      48.427  26.028  36.058  1.00  0.00     0.124 S 
ATOM     69  O   UNL A   1      49.413  27.060  36.374  1.00  0.00    -0.237 OA
ATOM     70  O   UNL A   1      48.002  25.200  37.184  1.00  0.00    -0.237 OA
ATOM     71  O   UNL A   1      48.661  25.307  34.809  1.00  0.00    -0.744 OA
ENDBRANCH  67  68
ENDBRANCH  48  62
BRANCH  49  72
ATOM     72  C   UNL A   1      36.299  33.499  32.782  1.00  0.00    -0.014 A 
ATOM     73  C   UNL A   1      35.198  33.476  33.656  1.00  0.00     0.010 A 
ATOM     74  C   UNL A   1      36.194  34.215  31.575  1.00  0.00     0.010 A 
ATOM     75  C   UNL A   1      34.011  34.138  33.321  1.00  0.00     0.020 A 
ATOM     76  C   UNL A   1      35.021  34.904  31.251  1.00  0.00     0.020 A 
ATOM     77  C   UNL A   1      33.932  34.850  32.121  1.00  0.00     0.054 A 
BRANCH  77  78
ATOM     78  S   UNL A   1      32.399  35.737  31.729  1.00  0.00     0.124 S 
ATOM     79  O   UNL A   1      31.416  35.017  32.534  1.00  0.00    -0.237 OA
ATOM     80  O   UNL A   1      32.703  37.096  32.169  1.00  0.00    -0.237 OA
ATOM     81  O   UNL A   1      32.267  35.571  30.284  1.00  0.00    -0.744 OA
ENDBRANCH  77  78
ENDBRANCH  49  72
BRANCH  61  82
ATOM     82  C   UNL A   1      40.505  33.499  38.357  1.00  0.00    -0.014 A 
ATOM     83  C   UNL A   1      41.124  34.757  38.461  1.00  0.00     0.010 A 
ATOM     84  C   UNL A   1      39.803  32.991  39.466  1.00  0.00     0.010 A 
ATOM     85  C   UNL A   1      41.072  35.475  39.659  1.00  0.00     0.020 A 
ATOM     86  C   UNL A   1      39.718  33.719  40.655  1.00  0.00     0.020 A 
ATOM     87  C   UNL A   1      40.367  34.952  40.748  1.00  0.00     0.054 A 
BRANCH  87  88
ATOM     88  S   UNL A   1      40.275  35.924  42.276  1.00  0.00     0.124 S 
ATOM     89  O   UNL A   1      39.609  34.997  43.187  1.00  0.00    -0.237 OA
ATOM     90  O   UNL A   1      41.681  36.192  42.570  1.00  0.00    -0.237 OA
ATOM     91  O   UNL A   1      39.490  37.096  41.897  1.00  0.00    -0.744 OA
ENDBRANCH  87  88
ENDBRANCH  61  82
ENDBRANCH  35  36
ENDBRANCH  28  30
ENDBRANCH  27  28
ENDBRANCH  26  27
ENDBRANCH  25  26
ENDBRANCH  24  25
ENDBRANCH  23  24
ENDBRANCH   1  23
TORSDOF 25
ENDMDL
MODEL 2
REMARK VINA RESULT:      -8.6      5.991     12.208
REMARK SMILES C[C@@H](C(=O)OCCOCCOCCOCCOC(=O)c1ccc(-c2c3nc(c(-c4ccc(S(=O)(=O)[O-])cc4)c4ccc([nH]4)c(-c4ccc(S(=O)(=O)[O-])cc4)c4nc(c(-c5ccc(S(=O)(=O)[O-])cc5)c5ccc2[nH]5)C=C4)C=C3)cc1)c1cccn(C(F)F)c1=O
REMARK SMILES IDX 12 1 11 2 10 3 9 4 8 5 7 6 6 7 5 8 3 9 4 10 2 11 1 12 80 13
REMARK SMILES IDX 81 14 88 15 82 16 84 17 89 18 83 19 85 20 86 21 87 22 13 23
REMARK SMILES IDX 14 24 15 25 16 26 17 27 18 28 19 29 20 30 21 31 79 32 22 33
REMARK SMILES IDX 78 34 23 35 24 36 25 37 72 38 26 39 77 40 71 41 73 42 27 43
REMARK SMILES IDX 76 44 70 45 69 46 28 48 58 49 39 50 57 51 40 52 43 53 56 54
REMARK SMILES IDX 74 55 41 56 42 57 55 59 75 60 44 61 29 62 30 63 38 64 31 65
REMARK SMILES IDX 37 66 32 67 33 68 34 69 35 70 36 71 59 72 60 73 68 74 61 75
REMARK SMILES IDX 67 76 62 77 63 78 64 79 65 80 66 81 45 82 46 83 54 84 47 85
REMARK SMILES IDX 53 86 48 87 49 88 50 89 51 90 52 91
REMARK H PARENT 73 47 43 58
REMARK Flexibility Score: inf
ROOT
ATOM      1  C   UNL A   1      34.532  30.640  27.637  1.00  0.00     0.188 C 
ENDROOT
BRANCH   1   2
ATOM      2  O   UNL A   1      33.145  30.512  27.327  1.00  0.00    -0.377 OA
BRANCH   2   3
ATOM      3  C   UNL A   1      32.792  30.029  26.045  1.00  0.00     0.188 C 
BRANCH   3   4
ATOM      4  C   UNL A   1      31.740  28.917  26.016  1.00  0.00     0.188 C 
BRANCH   4   5
ATOM      5  O   UNL A   1      31.515  28.377  24.726  1.00  0.00    -0.376 OA
BRANCH   5   6
ATOM      6  C   UNL A   1      31.248  26.985  24.646  1.00  0.00     0.202 C 
BRANCH   6   7
ATOM      7  C   UNL A   1      32.405  25.995  24.416  1.00  0.00     0.261 C 
BRANCH   7   8
ATOM      8  O   UNL A   1      32.682  25.090  25.502  1.00  0.00    -0.463 OA
BRANCH   8   9
ATOM      9  C   UNL A   1      33.683  24.182  25.383  1.00  0.00     0.313 C 
ATOM     10  O   UNL A   1      34.737  24.388  24.793  1.00  0.00    -0.252 OA
BRANCH   9  11
ATOM     11  C   UNL A   1      33.323  22.829  26.040  1.00  0.00     0.132 C 
ATOM     12  C   UNL A   1      34.014  22.540  27.393  1.00  0.00     0.025 C 
BRANCH  11  13
ATOM     13  C   UNL A   1      33.359  21.598  25.139  1.00  0.00     0.032 A 
ATOM     14  C   UNL A   1      32.327  21.308  24.320  1.00  0.00     0.012 A 
ATOM     15  C   UNL A   1      34.495  20.608  25.154  1.00  0.00     0.259 A 
ATOM     16  C   UNL A   1      32.268  20.086  23.559  1.00  0.00     0.019 A 
ATOM     17  N   UNL A   1      34.234  19.355  24.625  1.00  0.00    -0.258 N 
ATOM     18  O   UNL A   1      35.590  20.889  25.622  1.00  0.00    -0.269 OA
ATOM     19  C   UNL A   1      33.175  19.128  23.775  1.00  0.00     0.095 A 
BRANCH  17  20
ATOM     20  C   UNL A   1      35.210  18.319  24.861  1.00  0.00     0.451 C 
ATOM     21  F   UNL A   1      34.951  17.249  24.057  1.00  0.00    -0.185 F 
ATOM     22  F   UNL A   1      36.447  18.758  24.515  1.00  0.00    -0.185 F 
ENDBRANCH  17  20
ENDBRANCH  11  13
ENDBRANCH   9  11
ENDBRANCH   8   9
ENDBRANCH   7   8
ENDBRANCH   6   7
ENDBRANCH   5   6
ENDBRANCH   4   5
ENDBRANCH   3   4
ENDBRANCH   2   3
ENDBRANCH   1   2
BRANCH   1  23
ATOM     23  C   UNL A   1      35.192  32.015  27.935  1.00  0.00     0.188 C 
BRANCH  23  24
ATOM     24  O   UNL A   1      34.578  32.788  28.956  1.00  0.00    -0.376 OA
BRANCH  24  25
ATOM     25  C   UNL A   1      35.366  33.169  30.072  1.00  0.00     0.202 C 
BRANCH  25  26
ATOM     26  C   UNL A   1      35.496  32.145  31.210  1.00  0.00     0.261 C 
BRANCH  26  27
ATOM     27  O   UNL A   1      36.488  31.126  31.027  1.00  0.00    -0.460 OA
BRANCH  27  28
ATOM     28  C   UNL A   1      37.519  31.095  31.901  1.00  0.00     0.338 C 
ATOM     29  O   UNL A   1      37.472  31.306  33.102  1.00  0.00    -0.246 OA
BRANCH  28  30
ATOM     30  C   UNL A   1      38.688  30.545  31.186  1.00  0.00     0.060 A 
ATOM     31  C   UNL A   1      39.679  29.871  31.914  1.00  0.00     0.016 A 
ATOM     32  C   UNL A   1      38.782  30.660  29.798  1.00  0.00     0.016 A 
ATOM     33  C   UNL A   1      40.787  29.339  31.256  1.00  0.00     0.010 A 
ATOM     34  C   UNL A   1      39.908  30.155  29.144  1.00  0.00     0.010 A 
ATOM     35  C   UNL A   1      40.930  29.525  29.877  1.00  0.00    -0.014 A 
BRANCH  35  36
ATOM     36  C   UNL A   1      42.245  29.281  29.241  1.00  0.00     0.031 A 
ATOM     37  C   UNL A   1      42.509  27.906  28.687  1.00  0.00     0.074 A 
ATOM     38  C   UNL A   1      43.172  30.248  29.138  1.00  0.00     0.049 A 
ATOM     39  N   UNL A   1      43.590  27.430  28.129  1.00  0.00    -0.248 NA
ATOM     40  C   UNL A   1      41.402  26.938  28.779  1.00  0.00     0.031 C 
ATOM     41  C   UNL A   1      43.009  31.631  29.584  1.00  0.00     0.029 A 
ATOM     42  N   UNL A   1      44.443  30.207  28.622  1.00  0.00    -0.354 N 
ATOM     43  C   UNL A   1      43.299  26.107  27.817  1.00  0.00     0.074 A 
ATOM     44  C   UNL A   1      41.952  25.846  28.270  1.00  0.00     0.031 C 
ATOM     45  C   UNL A   1      44.145  32.307  29.327  1.00  0.00     0.029 A 
ATOM     46  C   UNL A   1      45.124  31.396  28.736  1.00  0.00     0.049 A 
ATOM     47  H   UNL A   1      44.831  29.402  28.209  1.00  0.00     0.167 HD
ATOM     48  C   UNL A   1      44.085  25.190  27.206  1.00  0.00     0.031 A 
ATOM     49  C   UNL A   1      46.399  31.702  28.421  1.00  0.00     0.031 A 
ATOM     50  C   UNL A   1      45.430  25.451  26.770  1.00  0.00     0.049 A 
ATOM     51  C   UNL A   1      47.283  30.638  27.819  1.00  0.00     0.074 A 
ATOM     52  C   UNL A   1      46.305  24.595  26.127  1.00  0.00     0.029 A 
ATOM     53  N   UNL A   1      46.098  26.654  26.945  1.00  0.00    -0.354 N 
ATOM     54  N   UNL A   1      46.989  29.397  27.506  1.00  0.00    -0.248 NA
ATOM     55  C   UNL A   1      48.672  31.019  27.521  1.00  0.00     0.031 C 
ATOM     56  C   UNL A   1      47.527  25.258  25.974  1.00  0.00     0.029 A 
ATOM     57  C   UNL A   1      47.387  26.552  26.452  1.00  0.00     0.049 A 
ATOM     58  H   UNL A   1      45.713  27.459  27.357  1.00  0.00     0.167 HD
ATOM     59  C   UNL A   1      48.144  28.862  26.944  1.00  0.00     0.074 A 
ATOM     60  C   UNL A   1      49.137  29.917  26.948  1.00  0.00     0.031 C 
ATOM     61  C   UNL A   1      48.363  27.613  26.462  1.00  0.00     0.031 A 
BRANCH  48  62
ATOM     62  C   UNL A   1      43.523  23.806  27.017  1.00  0.00    -0.014 A 
ATOM     63  C   UNL A   1      43.089  23.033  28.109  1.00  0.00     0.010 A 
ATOM     64  C   UNL A   1      43.395  23.284  25.717  1.00  0.00     0.010 A 
ATOM     65  C   UNL A   1      42.569  21.752  27.907  1.00  0.00     0.020 A 
ATOM     66  C   UNL A   1      42.847  22.017  25.507  1.00  0.00     0.020 A 
ATOM     67  C   UNL A   1      42.451  21.253  26.605  1.00  0.00     0.054 A 
BRANCH  67  68
ATOM     68  S   UNL A   1      41.740  19.600  26.370  1.00  0.00     0.124 S 
ATOM     69  O   UNL A   1      42.422  19.149  25.158  1.00  0.00    -0.237 OA
ATOM     70  O   UNL A   1      42.123  18.910  27.599  1.00  0.00    -0.237 OA
ATOM     71  O   UNL A   1      40.309  19.855  26.220  1.00  0.00    -0.744 OA
ENDBRANCH  67  68
ENDBRANCH  48  62
BRANCH  49  72
ATOM     72  C   UNL A   1      46.929  33.070  28.684  1.00  0.00    -0.014 A 
ATOM     73  C   UNL A   1      46.961  34.037  27.664  1.00  0.00     0.010 A 
ATOM     74  C   UNL A   1      47.420  33.408  29.958  1.00  0.00     0.010 A 
ATOM     75  C   UNL A   1      47.492  35.308  27.907  1.00  0.00     0.020 A 
ATOM     76  C   UNL A   1      47.923  34.688  30.214  1.00  0.00     0.020 A 
ATOM     77  C   UNL A   1      47.967  35.626  29.182  1.00  0.00     0.054 A 
BRANCH  77  78
ATOM     78  S   UNL A   1      48.610  37.295  29.485  1.00  0.00     0.124 S 
ATOM     79  O   UNL A   1      48.855  37.778  28.130  1.00  0.00    -0.237 OA
ATOM     80  O   UNL A   1      47.503  37.933  30.194  1.00  0.00    -0.237 OA
ATOM     81  O   UNL A   1      49.804  37.060  30.292  1.00  0.00    -0.744 OA
ENDBRANCH  77  78
ENDBRANCH  49  72
BRANCH  61  82
ATOM     82  C   UNL A   1      49.712  27.323  25.853  1.00  0.00    -0.014 A 
ATOM     83  C   UNL A   1      50.800  26.907  26.641  1.00  0.00     0.010 A 
ATOM     84  C   UNL A   1      49.872  27.408  24.458  1.00  0.00     0.010 A 
ATOM     85  C   UNL A   1      52.031  26.614  26.047  1.00  0.00     0.020 A 
ATOM     86  C   UNL A   1      51.090  27.084  23.857  1.00  0.00     0.020 A 
ATOM     87  C   UNL A   1      52.168  26.703  24.658  1.00  0.00     0.054 A 
BRANCH  87  88
ATOM     88  S   UNL A   1      53.762  26.273  23.909  1.00  0.00     0.124 S 
ATOM     89  O   UNL A   1      53.414  26.162  22.495  1.00  0.00    -0.237 OA
ATOM     90  O   UNL A   1      54.600  27.416  24.262  1.00  0.00    -0.237 OA
ATOM     91  O   UNL A   1      54.126  25.017  24.561  1.00  0.00    -0.744 OA
ENDBRANCH  87  88
ENDBRANCH  61  82
ENDBRANCH  35  36
ENDBRANCH  28  30
ENDBRANCH  27  28
ENDBRANCH  26  27
ENDBRANCH  25  26
ENDBRANCH  24  25
ENDBRANCH  23  24
ENDBRANCH   1  23
TORSDOF 25
ENDMDL
MODEL 3
REMARK VINA RESULT:      -8.0      4.197      8.500
REMARK SMILES C[C@@H](C(=O)OCCOCCOCCOCCOC(=O)c1ccc(-c2c3nc(c(-c4ccc(S(=O)(=O)[O-])cc4)c4ccc([nH]4)c(-c4ccc(S(=O)(=O)[O-])cc4)c4nc(c(-c5ccc(S(=O)(=O)[O-])cc5)c5ccc2[nH]5)C=C4)C=C3)cc1)c1cccn(C(F)F)c1=O
REMARK SMILES IDX 12 1 11 2 10 3 9 4 8 5 7 6 6 7 5 8 3 9 4 10 2 11 1 12 80 13
REMARK SMILES IDX 81 14 88 15 82 16 84 17 89 18 83 19 85 20 86 21 87 22 13 23
REMARK SMILES IDX 14 24 15 25 16 26 17 27 18 28 19 29 20 30 21 31 79 32 22 33
REMARK SMILES IDX 78 34 23 35 24 36 25 37 72 38 26 39 77 40 71 41 73 42 27 43
REMARK SMILES IDX 76 44 70 45 69 46 28 48 58 49 39 50 57 51 40 52 43 53 56 54
REMARK SMILES IDX 74 55 41 56 42 57 55 59 75 60 44 61 29 62 30 63 38 64 31 65
REMARK SMILES IDX 37 66 32 67 33 68 34 69 35 70 36 71 59 72 60 73 68 74 61 75
REMARK SMILES IDX 67 76 62 77 63 78 64 79 65 80 66 81 45 82 46 83 54 84 47 85
REMARK SMILES IDX 53 86 48 87 49 88 50 89 51 90 52 91
REMARK H PARENT 73 47 43 58
REMARK Flexibility Score: inf
ROOT
ATOM      1  C   UNL A   1      44.623  21.493  24.959  1.00  0.00     0.188 C 
ENDROOT
BRANCH   1   2
ATOM      2  O   UNL A   1      43.503  20.610  25.018  1.00  0.00    -0.377 OA
BRANCH   2   3
ATOM      3  C   UNL A   1      42.665  20.673  26.156  1.00  0.00     0.188 C 
BRANCH   3   4
ATOM      4  C   UNL A   1      41.868  21.969  26.329  1.00  0.00     0.188 C 
BRANCH   4   5
ATOM      5  O   UNL A   1      40.517  21.762  26.703  1.00  0.00    -0.376 OA
BRANCH   5   6
ATOM      6  C   UNL A   1      39.557  22.668  26.179  1.00  0.00     0.202 C 
BRANCH   6   7
ATOM      7  C   UNL A   1      38.160  22.157  25.780  1.00  0.00     0.261 C 
BRANCH   7   8
ATOM      8  O   UNL A   1      37.162  23.171  25.552  1.00  0.00    -0.463 OA
BRANCH   8   9
ATOM      9  C   UNL A   1      35.994  22.842  24.946  1.00  0.00     0.313 C 
ATOM     10  O   UNL A   1      35.913  22.242  23.881  1.00  0.00    -0.252 OA
BRANCH   9  11
ATOM     11  C   UNL A   1      34.765  23.354  25.733  1.00  0.00     0.132 C 
ATOM     12  C   UNL A   1      34.395  22.540  26.995  1.00  0.00     0.025 C 
BRANCH  11  13
ATOM     13  C   UNL A   1      33.519  23.687  24.918  1.00  0.00     0.032 A 
ATOM     14  C   UNL A   1      32.443  22.874  24.934  1.00  0.00     0.012 A 
ATOM     15  C   UNL A   1      33.434  24.886  24.009  1.00  0.00     0.259 A 
ATOM     16  C   UNL A   1      31.306  23.086  24.074  1.00  0.00     0.019 A 
ATOM     17  N   UNL A   1      32.452  24.856  23.033  1.00  0.00    -0.258 N 
ATOM     18  O   UNL A   1      34.202  25.832  24.115  1.00  0.00    -0.269 OA
ATOM     19  C   UNL A   1      31.364  24.017  23.118  1.00  0.00     0.095 A 
BRANCH  17  20
ATOM     20  C   UNL A   1      32.516  25.859  21.997  1.00  0.00     0.451 C 
ATOM     21  F   UNL A   1      32.898  25.284  20.822  1.00  0.00    -0.185 F 
ATOM     22  F   UNL A   1      31.281  26.379  21.776  1.00  0.00    -0.185 F 
ENDBRANCH  17  20
ENDBRANCH  11  13
ENDBRANCH   9  11
ENDBRANCH   8   9
ENDBRANCH   7   8
ENDBRANCH   6   7
ENDBRANCH   5   6
ENDBRANCH   4   5
ENDBRANCH   3   4
ENDBRANCH   2   3
ENDBRANCH   1   2
BRANCH   1  23
ATOM     23  C   UNL A   1      44.754  22.594  23.871  1.00  0.00     0.188 C 
BRANCH  23  24
ATOM     24  O   UNL A   1      45.281  23.838  24.309  1.00  0.00    -0.376 OA
BRANCH  24  25
ATOM     25  C   UNL A   1      46.429  23.823  25.139  1.00  0.00     0.202 C 
BRANCH  25  26
ATOM     26  C   UNL A   1      47.502  24.885  24.857  1.00  0.00     0.261 C 
BRANCH  26  27
ATOM     27  O   UNL A   1      47.160  25.881  23.883  1.00  0.00    -0.460 OA
BRANCH  27  28
ATOM     28  C   UNL A   1      47.725  27.102  24.014  1.00  0.00     0.338 C 
ATOM     29  O   UNL A   1      48.516  27.632  23.252  1.00  0.00    -0.246 OA
BRANCH  28  30
ATOM     30  C   UNL A   1      47.049  27.783  25.137  1.00  0.00     0.060 A 
ATOM     31  C   UNL A   1      47.825  28.416  26.117  1.00  0.00     0.016 A 
ATOM     32  C   UNL A   1      45.655  27.828  25.196  1.00  0.00     0.016 A 
ATOM     33  C   UNL A   1      47.207  29.070  27.181  1.00  0.00     0.010 A 
ATOM     34  C   UNL A   1      45.037  28.456  26.279  1.00  0.00     0.010 A 
ATOM     35  C   UNL A   1      45.812  29.047  27.294  1.00  0.00    -0.014 A 
BRANCH  35  36
ATOM     36  C   UNL A   1      45.178  29.423  28.577  1.00  0.00     0.031 A 
ATOM     37  C   UNL A   1      44.607  30.811  28.695  1.00  0.00     0.074 A 
ATOM     38  C   UNL A   1      45.090  28.558  29.603  1.00  0.00     0.049 A 
ATOM     39  N   UNL A   1      44.046  31.392  29.722  1.00  0.00    -0.248 NA
ATOM     40  C   UNL A   1      44.682  31.656  27.491  1.00  0.00     0.031 C 
ATOM     41  C   UNL A   1      45.554  27.172  29.587  1.00  0.00     0.029 A 
ATOM     42  N   UNL A   1      44.578  28.729  30.865  1.00  0.00    -0.354 N 
ATOM     43  C   UNL A   1      43.715  32.673  29.293  1.00  0.00     0.074 A 
ATOM     44  C   UNL A   1      44.161  32.793  27.923  1.00  0.00     0.031 C 
ATOM     45  C   UNL A   1      45.310  26.619  30.790  1.00  0.00     0.029 A 
ATOM     46  C   UNL A   1      44.710  27.622  31.669  1.00  0.00     0.049 A 
ATOM     47  H   UNL A   1      44.155  29.565  31.167  1.00  0.00     0.167 HD
ATOM     48  C   UNL A   1      43.095  33.660  29.978  1.00  0.00     0.031 A 
ATOM     49  C   UNL A   1      44.403  27.450  32.971  1.00  0.00     0.031 A 
ATOM     50  C   UNL A   1      42.667  33.539  31.346  1.00  0.00     0.049 A 
ATOM     51  C   UNL A   1      43.790  28.594  33.738  1.00  0.00     0.074 A 
ATOM     52  C   UNL A   1      42.016  34.476  32.128  1.00  0.00     0.029 A 
ATOM     53  N   UNL A   1      42.860  32.418  32.138  1.00  0.00    -0.354 N 
ATOM     54  N   UNL A   1      43.460  29.792  33.315  1.00  0.00    -0.248 NA
ATOM     55  C   UNL A   1      43.501  28.361  35.161  1.00  0.00     0.031 C 
ATOM     56  C   UNL A   1      41.876  33.946  33.414  1.00  0.00     0.029 A 
ATOM     57  C   UNL A   1      42.370  32.651  33.411  1.00  0.00     0.049 A 
ATOM     58  H   UNL A   1      43.281  31.581  31.839  1.00  0.00     0.167 HD
ATOM     59  C   UNL A   1      42.894  30.441  34.409  1.00  0.00     0.074 A 
ATOM     60  C   UNL A   1      42.916  29.499  35.508  1.00  0.00     0.031 C 
ATOM     61  C   UNL A   1      42.397  31.700  34.495  1.00  0.00     0.031 A 
BRANCH  48  62
ATOM     62  C   UNL A   1      42.886  34.974  29.273  1.00  0.00    -0.014 A 
ATOM     63  C   UNL A   1      41.688  35.263  28.595  1.00  0.00     0.010 A 
ATOM     64  C   UNL A   1      43.897  35.952  29.321  1.00  0.00     0.010 A 
ATOM     65  C   UNL A   1      41.519  36.492  27.951  1.00  0.00     0.020 A 
ATOM     66  C   UNL A   1      43.720  37.193  28.706  1.00  0.00     0.020 A 
ATOM     67  C   UNL A   1      42.537  37.449  28.012  1.00  0.00     0.054 A 
BRANCH  67  68
ATOM     68  S   UNL A   1      42.276  39.048  27.195  1.00  0.00     0.124 S 
ATOM     69  O   UNL A   1      41.761  39.866  28.292  1.00  0.00    -0.237 OA
ATOM     70  O   UNL A   1      43.618  39.392  26.732  1.00  0.00    -0.237 OA
ATOM     71  O   UNL A   1      41.312  38.746  26.139  1.00  0.00    -0.744 OA
ENDBRANCH  67  68
ENDBRANCH  48  62
BRANCH  49  72
ATOM     72  C   UNL A   1      44.686  26.150  33.642  1.00  0.00    -0.014 A 
ATOM     73  C   UNL A   1      45.963  25.871  34.159  1.00  0.00     0.010 A 
ATOM     74  C   UNL A   1      43.678  25.174  33.754  1.00  0.00     0.010 A 
ATOM     75  C   UNL A   1      46.233  24.635  34.756  1.00  0.00     0.020 A 
ATOM     76  C   UNL A   1      43.935  23.950  34.379  1.00  0.00     0.020 A 
ATOM     77  C   UNL A   1      45.215  23.683  34.865  1.00  0.00     0.054 A 
BRANCH  77  78
ATOM     78  S   UNL A   1      45.576  22.105  35.685  1.00  0.00     0.124 S 
ATOM     79  O   UNL A   1      46.984  21.905  35.354  1.00  0.00    -0.237 OA
ATOM     80  O   UNL A   1      45.292  22.408  37.085  1.00  0.00    -0.237 OA
ATOM     81  O   UNL A   1      44.646  21.172  35.055  1.00  0.00    -0.744 OA
ENDBRANCH  77  78
ENDBRANCH  49  72
BRANCH  61  82
ATOM     82  C   UNL A   1      41.789  32.125  35.808  1.00  0.00    -0.014 A 
ATOM     83  C   UNL A   1      42.575  32.662  36.842  1.00  0.00     0.010 A 
ATOM     84  C   UNL A   1      40.395  32.043  35.981  1.00  0.00     0.010 A 
ATOM     85  C   UNL A   1      41.982  33.078  38.038  1.00  0.00     0.020 A 
ATOM     86  C   UNL A   1      39.794  32.488  37.161  1.00  0.00     0.020 A 
ATOM     87  C   UNL A   1      40.594  32.990  38.189  1.00  0.00     0.054 A 
BRANCH  87  88
ATOM     88  S   UNL A   1      39.845  33.578  39.732  1.00  0.00     0.124 S 
ATOM     89  O   UNL A   1      40.863  34.497  40.234  1.00  0.00    -0.237 OA
ATOM     90  O   UNL A   1      38.608  34.203  39.268  1.00  0.00    -0.237 OA
ATOM     91  O   UNL A   1      39.664  32.360  40.517  1.00  0.00    -0.744 OA
ENDBRANCH  87  88
ENDBRANCH  61  82
ENDBRANCH  35  36
ENDBRANCH  28  30
ENDBRANCH  27  28
ENDBRANCH  26  27
ENDBRANCH  25  26
ENDBRANCH  24  25
ENDBRANCH  23  24
ENDBRANCH   1  23
TORSDOF 25
ENDMDL
