MODEL 1
REMARK VINA RESULT:      -7.9      0.000      0.000
REMARK SMILES COc1ccc(C2=NN(C(=O)CCC(=O)OCCOCCOCCOCCOC(=O)c3ccc(-c4c5nc(c(-c6ccc(S(=O)(=O)[O-])cc6)c6ccc([nH]6)c(-c6ccc(S(=O)(=O)[O-])cc6)c6nc(c(-c7ccc(S(=O)(=O)[O-])cc7)c7ccc4[nH]7)C=C6)C=C5)cc3)[C@H](c3ccc(Cl)cc3Cl)C2)cc1
REMARK SMILES IDX 21 1 20 2 19 3 18 4 17 5 16 6 14 7 15 8 13 9 12 10 10 11
REMARK SMILES IDX 11 12 9 13 7 14 8 15 100 16 91 17 6 18 3 19 4 20 102 21 5 22
REMARK SMILES IDX 101 23 2 24 1 25 92 26 93 27 98 28 94 29 97 30 99 31 95 32
REMARK SMILES IDX 96 33 22 34 23 35 24 36 25 37 26 38 27 39 28 40 29 41 30 42
REMARK SMILES IDX 31 43 32 44 90 45 33 46 89 47 34 48 35 49 36 50 83 51 37 52
REMARK SMILES IDX 88 53 82 54 84 55 38 56 87 57 81 58 80 59 39 61 69 62 50 63
REMARK SMILES IDX 68 64 51 65 54 66 67 67 85 68 52 69 53 70 66 72 86 73 55 74
REMARK SMILES IDX 40 75 41 76 49 77 42 78 48 79 43 80 44 81 45 82 46 83 47 84
REMARK SMILES IDX 70 85 71 86 79 87 72 88 78 89 73 90 74 91 75 92 76 93 77 94
REMARK SMILES IDX 56 95 57 96 65 97 58 98 64 99 59 100 60 101 61 102 62 103
REMARK SMILES IDX 63 104
REMARK H PARENT 84 60 54 71
REMARK Flexibility Score: inf
ROOT
ATOM      1  C   UNL A   1      44.397  37.512  30.414  1.00  0.00     0.188 C 
ENDROOT
BRANCH   1   2
ATOM      2  C   UNL A   1      43.424  35.873  30.820  1.00  0.00     0.188 C 
BRANCH   2   3
ATOM      3  O   UNL A   1      42.176  35.187  30.172  1.00  0.00    -0.376 OA
BRANCH   3   4
ATOM      4  C   UNL A   1      40.888  34.784  30.833  1.00  0.00     0.202 C 
BRANCH   4   5
ATOM      5  C   UNL A   1      40.795  34.324  32.332  1.00  0.00     0.261 C 
BRANCH   5   6
ATOM      6  O   UNL A   1      41.472  33.088  32.593  1.00  0.00    -0.463 OA
BRANCH   6   7
ATOM      7  C   UNL A   1      40.645  32.048  32.823  1.00  0.00     0.306 C 
ATOM      8  O   UNL A   1      39.534  32.155  33.331  1.00  0.00    -0.252 OA
BRANCH   7   9
ATOM      9  C   UNL A   1      41.081  30.756  32.176  1.00  0.00     0.132 C 
BRANCH   9  10
ATOM     10  C   UNL A   1      40.389  29.407  32.353  1.00  0.00     0.114 C 
BRANCH  10  11
ATOM     11  C   UNL A   1      39.080  28.863  31.747  1.00  0.00     0.243 C 
ATOM     12  O   UNL A   1      38.219  28.673  32.637  1.00  0.00    -0.273 OA
BRANCH  11  13
ATOM     13  N   UNL A   1      38.711  28.687  30.394  1.00  0.00    -0.225 N 
ATOM     14  C   UNL A   1      39.412  27.328  28.807  1.00  0.00     0.071 C 
ATOM     15  N   UNL A   1      39.132  27.407  30.053  1.00  0.00    -0.174 NA
ATOM     16  C   UNL A   1      39.101  28.549  27.952  1.00  0.00     0.091 C 
ATOM     17  C   UNL A   1      38.193  29.519  28.903  1.00  0.00     0.149 C 
BRANCH  14  18
ATOM     18  C   UNL A   1      39.981  26.076  28.272  1.00  0.00    -0.002 A 
ATOM     19  C   UNL A   1      41.109  23.749  27.220  1.00  0.00     0.118 A 
ATOM     20  C   UNL A   1      41.926  24.764  27.703  1.00  0.00     0.047 A 
ATOM     21  C   UNL A   1      39.722  23.912  27.222  1.00  0.00     0.047 A 
ATOM     22  C   UNL A   1      41.364  25.943  28.187  1.00  0.00     0.014 A 
ATOM     23  C   UNL A   1      39.153  25.086  27.740  1.00  0.00     0.014 A 
BRANCH  19  24
ATOM     24  O   UNL A   1      41.762  22.626  26.803  1.00  0.00    -0.497 OA
ATOM     25  C   UNL A   1      41.517  21.476  27.607  1.00  0.00     0.278 C 
ENDBRANCH  19  24
ENDBRANCH  14  18
BRANCH  17  26
ATOM     26  C   UNL A   1      36.494  30.506  28.545  1.00  0.00    -0.004 A 
ATOM     27  C   UNL A   1      35.347  29.361  27.989  1.00  0.00     0.009 A 
ATOM     28  C   UNL A   1      35.718  32.147  28.599  1.00  0.00     0.047 A 
ATOM     29  C   UNL A   1      33.661  29.651  27.174  1.00  0.00     0.021 A 
ATOM     30  C   UNL A   1      34.108  32.510  27.923  1.00  0.00     0.041 A 
ATOM     31  Cl  UNL A   1      35.892  33.486  29.792  1.00  0.00    -0.084 Cl
ATOM     32  C   UNL A   1      33.066  31.308  27.199  1.00  0.00     0.042 A 
ATOM     33  Cl  UNL A   1      31.507  31.767  26.666  1.00  0.00    -0.084 Cl
ENDBRANCH  17  26
ENDBRANCH  11  13
ENDBRANCH  10  11
ENDBRANCH   9  10
ENDBRANCH   7   9
ENDBRANCH   6   7
ENDBRANCH   5   6
ENDBRANCH   4   5
ENDBRANCH   3   4
ENDBRANCH   2   3
ENDBRANCH   1   2
BRANCH   1  34
ATOM     34  O   UNL A   1      45.152  38.080  28.873  1.00  0.00    -0.377 OA
BRANCH  34  35
ATOM     35  C   UNL A   1      46.455  39.186  28.310  1.00  0.00     0.188 C 
BRANCH  35  36
ATOM     36  C   UNL A   1      47.671  40.537  29.129  1.00  0.00     0.188 C 
BRANCH  36  37
ATOM     37  O   UNL A   1      47.025  41.857  30.242  1.00  0.00    -0.376 OA
BRANCH  37  38
ATOM     38  C   UNL A   1      45.645  42.971  29.657  1.00  0.00     0.202 C 
BRANCH  38  39
ATOM     39  C   UNL A   1      44.430  43.986  31.213  1.00  0.00     0.261 C 
BRANCH  39  40
ATOM     40  O   UNL A   1      44.711  43.687  32.980  1.00  0.00    -0.460 OA
BRANCH  40  41
ATOM     41  C   UNL A   1      43.994  43.167  34.066  1.00  0.00     0.338 C 
ATOM     42  O   UNL A   1      43.255  43.808  34.804  1.00  0.00    -0.246 OA
BRANCH  41  43
ATOM     43  C   UNL A   1      43.950  41.629  34.188  1.00  0.00     0.060 A 
ATOM     44  C   UNL A   1      44.449  40.958  35.342  1.00  0.00     0.016 A 
ATOM     45  C   UNL A   1      43.357  40.824  33.219  1.00  0.00     0.016 A 
ATOM     46  C   UNL A   1      44.205  39.584  35.591  1.00  0.00     0.010 A 
ATOM     47  C   UNL A   1      43.238  39.420  33.405  1.00  0.00     0.010 A 
ATOM     48  C   UNL A   1      43.629  38.784  34.597  1.00  0.00    -0.014 A 
BRANCH  48  49
ATOM     49  C   UNL A   1      43.713  37.283  34.694  1.00  0.00     0.031 A 
ATOM     50  C   UNL A   1      44.984  36.647  34.198  1.00  0.00     0.074 A 
ATOM     51  C   UNL A   1      42.716  36.488  35.144  1.00  0.00     0.049 A 
ATOM     52  N   UNL A   1      45.280  35.381  34.069  1.00  0.00    -0.248 NA
ATOM     53  C   UNL A   1      46.023  37.563  33.698  1.00  0.00     0.031 C 
ATOM     54  C   UNL A   1      41.408  36.964  35.574  1.00  0.00     0.029 A 
ATOM     55  N   UNL A   1      42.651  35.127  35.377  1.00  0.00    -0.354 N 
ATOM     56  C   UNL A   1      46.475  35.353  33.359  1.00  0.00     0.074 A 
ATOM     57  C   UNL A   1      46.882  36.722  33.149  1.00  0.00     0.031 C 
ATOM     58  C   UNL A   1      40.742  35.958  36.169  1.00  0.00     0.029 A 
ATOM     59  C   UNL A   1      41.508  34.719  36.049  1.00  0.00     0.049 A 
ATOM     60  H   UNL A   1      43.354  34.500  35.090  1.00  0.00     0.167 HD
ATOM     61  C   UNL A   1      47.127  34.280  32.855  1.00  0.00     0.031 A 
ATOM     62  C   UNL A   1      41.131  33.494  36.498  1.00  0.00     0.031 A 
ATOM     63  C   UNL A   1      46.684  32.926  33.037  1.00  0.00     0.049 A 
ATOM     64  C   UNL A   1      41.961  32.308  36.043  1.00  0.00     0.074 A 
ATOM     65  C   UNL A   1      47.258  31.765  32.554  1.00  0.00     0.029 A 
ATOM     66  N   UNL A   1      45.556  32.552  33.754  1.00  0.00    -0.354 N 
ATOM     67  N   UNL A   1      43.095  32.301  35.382  1.00  0.00    -0.248 NA
ATOM     68  C   UNL A   1      41.425  30.963  36.319  1.00  0.00     0.031 C 
ATOM     69  C   UNL A   1      46.443  30.694  32.926  1.00  0.00     0.029 A 
ATOM     70  C   UNL A   1      45.416  31.177  33.721  1.00  0.00     0.049 A 
ATOM     71  H   UNL A   1      44.949  33.173  34.217  1.00  0.00     0.167 HD
ATOM     72  C   UNL A   1      43.387  30.964  35.139  1.00  0.00     0.074 A 
ATOM     73  C   UNL A   1      42.358  30.183  35.791  1.00  0.00     0.031 C 
ATOM     74  C   UNL A   1      44.389  30.427  34.402  1.00  0.00     0.031 A 
BRANCH  61  75
ATOM     75  C   UNL A   1      48.318  34.550  31.975  1.00  0.00    -0.014 A 
ATOM     76  C   UNL A   1      48.181  34.781  30.595  1.00  0.00     0.010 A 
ATOM     77  C   UNL A   1      49.605  34.570  32.548  1.00  0.00     0.010 A 
ATOM     78  C   UNL A   1      49.310  34.988  29.800  1.00  0.00     0.020 A 
ATOM     79  C   UNL A   1      50.732  34.819  31.763  1.00  0.00     0.020 A 
ATOM     80  C   UNL A   1      50.577  35.014  30.390  1.00  0.00     0.054 A 
BRANCH  80  81
ATOM     81  S   UNL A   1      52.014  35.341  29.335  1.00  0.00     0.124 S 
ATOM     82  O   UNL A   1      52.764  34.093  29.450  1.00  0.00    -0.237 OA
ATOM     83  O   UNL A   1      51.399  35.587  28.033  1.00  0.00    -0.237 OA
ATOM     84  O   UNL A   1      52.643  36.505  29.954  1.00  0.00    -0.744 OA
ENDBRANCH  80  81
ENDBRANCH  61  75
BRANCH  62  85
ATOM     85  C   UNL A   1      39.920  33.271  37.370  1.00  0.00    -0.014 A 
ATOM     86  C   UNL A   1      38.685  32.881  36.801  1.00  0.00     0.010 A 
ATOM     87  C   UNL A   1      39.956  33.452  38.763  1.00  0.00     0.010 A 
ATOM     88  C   UNL A   1      37.548  32.654  37.592  1.00  0.00     0.020 A 
ATOM     89  C   UNL A   1      38.841  33.174  39.568  1.00  0.00     0.020 A 
ATOM     90  C   UNL A   1      37.641  32.780  38.978  1.00  0.00     0.054 A 
BRANCH  90  91
ATOM     91  S   UNL A   1      36.189  32.391  39.994  1.00  0.00     0.124 S 
ATOM     92  O   UNL A   1      35.088  32.689  39.084  1.00  0.00    -0.237 OA
ATOM     93  O   UNL A   1      36.394  30.977  40.298  1.00  0.00    -0.237 OA
ATOM     94  O   UNL A   1      36.316  33.292  41.138  1.00  0.00    -0.744 OA
ENDBRANCH  90  91
ENDBRANCH  62  85
BRANCH  74  95
ATOM     95  C   UNL A   1      44.454  28.928  34.294  1.00  0.00    -0.014 A 
ATOM     96  C   UNL A   1      43.833  28.237  33.238  1.00  0.00     0.010 A 
ATOM     97  C   UNL A   1      45.242  28.213  35.215  1.00  0.00     0.010 A 
ATOM     98  C   UNL A   1      43.986  26.853  33.117  1.00  0.00     0.020 A 
ATOM     99  C   UNL A   1      45.426  26.837  35.077  1.00  0.00     0.020 A 
ATOM    100  C   UNL A   1      44.791  26.165  34.031  1.00  0.00     0.054 A 
BRANCH 100 101
ATOM    101  S   UNL A   1      45.040  24.384  33.803  1.00  0.00     0.124 S 
ATOM    102  O   UNL A   1      44.158  24.094  32.676  1.00  0.00    -0.237 OA
ATOM    103  O   UNL A   1      46.471  24.297  33.522  1.00  0.00    -0.237 OA
ATOM    104  O   UNL A   1      44.625  23.809  35.081  1.00  0.00    -0.744 OA
ENDBRANCH 100 101
ENDBRANCH  74  95
ENDBRANCH  48  49
ENDBRANCH  41  43
ENDBRANCH  40  41
ENDBRANCH  39  40
ENDBRANCH  38  39
ENDBRANCH  37  38
ENDBRANCH  36  37
ENDBRANCH  35  36
ENDBRANCH  34  35
ENDBRANCH   1  34
TORSDOF 29
ENDMDL
MODEL 2
REMARK VINA RESULT:      -7.8      5.689     10.995
REMARK SMILES COc1ccc(C2=NN(C(=O)CCC(=O)OCCOCCOCCOCCOC(=O)c3ccc(-c4c5nc(c(-c6ccc(S(=O)(=O)[O-])cc6)c6ccc([nH]6)c(-c6ccc(S(=O)(=O)[O-])cc6)c6nc(c(-c7ccc(S(=O)(=O)[O-])cc7)c7ccc4[nH]7)C=C6)C=C5)cc3)[C@H](c3ccc(Cl)cc3Cl)C2)cc1
REMARK SMILES IDX 21 1 20 2 19 3 18 4 17 5 16 6 14 7 15 8 13 9 12 10 10 11
REMARK SMILES IDX 11 12 9 13 7 14 8 15 100 16 91 17 6 18 3 19 4 20 102 21 5 22
REMARK SMILES IDX 101 23 2 24 1 25 92 26 93 27 98 28 94 29 97 30 99 31 95 32
REMARK SMILES IDX 96 33 22 34 23 35 24 36 25 37 26 38 27 39 28 40 29 41 30 42
REMARK SMILES IDX 31 43 32 44 90 45 33 46 89 47 34 48 35 49 36 50 83 51 37 52
REMARK SMILES IDX 88 53 82 54 84 55 38 56 87 57 81 58 80 59 39 61 69 62 50 63
REMARK SMILES IDX 68 64 51 65 54 66 67 67 85 68 52 69 53 70 66 72 86 73 55 74
REMARK SMILES IDX 40 75 41 76 49 77 42 78 48 79 43 80 44 81 45 82 46 83 47 84
REMARK SMILES IDX 70 85 71 86 79 87 72 88 78 89 73 90 74 91 75 92 76 93 77 94
REMARK SMILES IDX 56 95 57 96 65 97 58 98 64 99 59 100 60 101 61 102 62 103
REMARK SMILES IDX 63 104
REMARK H PARENT 84 60 54 71
REMARK Flexibility Score: inf
ROOT
ATOM      1  C   UNL A   1      43.722  43.239  34.179  1.00  0.00     0.188 C 
ENDROOT
BRANCH   1   2
ATOM      2  C   UNL A   1      42.290  42.976  32.883  1.00  0.00     0.188 C 
BRANCH   2   3
ATOM      3  O   UNL A   1      42.167  42.092  31.598  1.00  0.00    -0.376 OA
BRANCH   3   4
ATOM      4  C   UNL A   1      43.142  41.963  30.461  1.00  0.00     0.202 C 
BRANCH   4   5
ATOM      5  C   UNL A   1      43.392  40.619  29.688  1.00  0.00     0.261 C 
BRANCH   5   6
ATOM      6  O   UNL A   1      43.241  40.741  28.267  1.00  0.00    -0.463 OA
BRANCH   6   7
ATOM      7  C   UNL A   1      42.275  39.957  27.749  1.00  0.00     0.306 C 
ATOM      8  O   UNL A   1      41.580  39.195  28.413  1.00  0.00    -0.252 OA
BRANCH   7   9
ATOM      9  C   UNL A   1      41.930  40.267  26.313  1.00  0.00     0.132 C 
BRANCH   9  10
ATOM     10  C   UNL A   1      42.654  41.286  25.436  1.00  0.00     0.114 C 
BRANCH  10  11
ATOM     11  C   UNL A   1      44.157  41.593  25.286  1.00  0.00     0.243 C 
ATOM     12  O   UNL A   1      44.839  40.547  25.380  1.00  0.00    -0.273 OA
BRANCH  11  13
ATOM     13  N   UNL A   1      44.807  42.802  24.949  1.00  0.00    -0.225 N 
ATOM     14  C   UNL A   1      46.189  44.123  26.046  1.00  0.00     0.071 C 
ATOM     15  N   UNL A   1      45.889  42.901  25.817  1.00  0.00    -0.174 NA
ATOM     16  C   UNL A   1      45.438  45.179  25.245  1.00  0.00     0.091 C 
ATOM     17  C   UNL A   1      44.648  44.351  24.079  1.00  0.00     0.149 C 
BRANCH  14  18
ATOM     18  C   UNL A   1      47.243  44.438  27.029  1.00  0.00    -0.002 A 
ATOM     19  C   UNL A   1      49.284  45.054  28.831  1.00  0.00     0.118 A 
ATOM     20  C   UNL A   1      49.000  45.915  27.778  1.00  0.00     0.047 A 
ATOM     21  C   UNL A   1      48.576  43.858  28.963  1.00  0.00     0.047 A 
ATOM     22  C   UNL A   1      48.011  45.586  26.854  1.00  0.00     0.014 A 
ATOM     23  C   UNL A   1      47.557  43.541  28.051  1.00  0.00     0.014 A 
BRANCH  19  24
ATOM     24  O   UNL A   1      50.245  45.491  29.696  1.00  0.00    -0.497 OA
ATOM     25  C   UNL A   1      51.541  44.957  29.447  1.00  0.00     0.278 C 
ENDBRANCH  19  24
ENDBRANCH  14  18
BRANCH  17  26
ATOM     26  C   UNL A   1      44.477  44.672  22.115  1.00  0.00    -0.004 A 
ATOM     27  C   UNL A   1      43.247  43.629  21.534  1.00  0.00     0.009 A 
ATOM     28  C   UNL A   1      45.127  45.654  20.732  1.00  0.00     0.047 A 
ATOM     29  C   UNL A   1      42.797  43.186  19.747  1.00  0.00     0.021 A 
ATOM     30  C   UNL A   1      44.713  45.362  19.022  1.00  0.00     0.041 A 
ATOM     31  Cl  UNL A   1      45.647  47.377  20.663  1.00  0.00    -0.084 Cl
ATOM     32  C   UNL A   1      43.576  44.144  18.493  1.00  0.00     0.042 A 
ATOM     33  Cl  UNL A   1      43.198  44.022  16.829  1.00  0.00    -0.084 Cl
ENDBRANCH  17  26
ENDBRANCH  11  13
ENDBRANCH  10  11
ENDBRANCH   9  10
ENDBRANCH   7   9
ENDBRANCH   6   7
ENDBRANCH   5   6
ENDBRANCH   4   5
ENDBRANCH   3   4
ENDBRANCH   2   3
ENDBRANCH   1   2
BRANCH   1  34
ATOM     34  O   UNL A   1      45.346  44.011  33.996  1.00  0.00    -0.377 OA
BRANCH  34  35
ATOM     35  C   UNL A   1      46.787  44.426  34.990  1.00  0.00     0.188 C 
BRANCH  35  36
ATOM     36  C   UNL A   1      47.345  44.235  36.894  1.00  0.00     0.188 C 
BRANCH  36  37
ATOM     37  O   UNL A   1      48.058  45.654  37.830  1.00  0.00    -0.376 OA
BRANCH  37  38
ATOM     38  C   UNL A   1      48.999  45.341  39.413  1.00  0.00     0.202 C 
BRANCH  38  39
ATOM     39  C   UNL A   1      49.852  43.312  39.702  1.00  0.00     0.261 C 
BRANCH  39  40
ATOM     40  O   UNL A   1      49.078  41.844  38.970  1.00  0.00    -0.460 OA
BRANCH  40  41
ATOM     41  C   UNL A   1      49.470  40.558  38.577  1.00  0.00     0.338 C 
ATOM     42  O   UNL A   1      50.487  39.980  38.944  1.00  0.00    -0.246 OA
BRANCH  41  43
ATOM     43  C   UNL A   1      48.422  39.721  37.813  1.00  0.00     0.060 A 
ATOM     44  C   UNL A   1      47.373  40.338  37.069  1.00  0.00     0.016 A 
ATOM     45  C   UNL A   1      48.486  38.332  37.746  1.00  0.00     0.016 A 
ATOM     46  C   UNL A   1      46.551  39.616  36.169  1.00  0.00     0.010 A 
ATOM     47  C   UNL A   1      47.569  37.593  36.951  1.00  0.00     0.010 A 
ATOM     48  C   UNL A   1      46.612  38.218  36.131  1.00  0.00    -0.014 A 
BRANCH  48  49
ATOM     49  C   UNL A   1      45.505  37.432  35.478  1.00  0.00     0.031 A 
ATOM     50  C   UNL A   1      45.718  37.035  34.042  1.00  0.00     0.074 A 
ATOM     51  C   UNL A   1      44.335  37.115  36.078  1.00  0.00     0.049 A 
ATOM     52  N   UNL A   1      44.894  36.450  33.214  1.00  0.00    -0.248 NA
ATOM     53  C   UNL A   1      47.002  37.429  33.437  1.00  0.00     0.031 C 
ATOM     54  C   UNL A   1      43.966  37.509  37.431  1.00  0.00     0.029 A 
ATOM     55  N   UNL A   1      43.264  36.344  35.667  1.00  0.00    -0.354 N 
ATOM     56  C   UNL A   1      45.506  36.527  31.968  1.00  0.00     0.074 A 
ATOM     57  C   UNL A   1      46.797  37.147  32.163  1.00  0.00     0.031 C 
ATOM     58  C   UNL A   1      42.852  36.849  37.798  1.00  0.00     0.029 A 
ATOM     59  C   UNL A   1      42.337  36.081  36.666  1.00  0.00     0.049 A 
ATOM     60  H   UNL A   1      43.166  36.010  34.746  1.00  0.00     0.167 HD
ATOM     61  C   UNL A   1      45.001  36.187  30.762  1.00  0.00     0.031 A 
ATOM     62  C   UNL A   1      41.210  35.323  36.654  1.00  0.00     0.031 A 
ATOM     63  C   UNL A   1      43.697  35.611  30.582  1.00  0.00     0.049 A 
ATOM     64  C   UNL A   1      40.730  34.822  35.305  1.00  0.00     0.074 A 
ATOM     65  C   UNL A   1      43.077  35.246  29.402  1.00  0.00     0.029 A 
ATOM     66  N   UNL A   1      42.812  35.322  31.611  1.00  0.00    -0.354 N 
ATOM     67  N   UNL A   1      41.329  34.893  34.139  1.00  0.00    -0.248 NA
ATOM     68  C   UNL A   1      39.390  34.212  35.248  1.00  0.00     0.031 C 
ATOM     69  C   UNL A   1      41.792  34.793  29.712  1.00  0.00     0.029 A 
ATOM     70  C   UNL A   1      41.648  34.787  31.090  1.00  0.00     0.049 A 
ATOM     71  H   UNL A   1      42.987  35.474  32.567  1.00  0.00     0.167 HD
ATOM     72  C   UNL A   1      40.432  34.370  33.215  1.00  0.00     0.074 A 
ATOM     73  C   UNL A   1      39.280  33.911  33.962  1.00  0.00     0.031 C 
ATOM     74  C   UNL A   1      40.526  34.317  31.865  1.00  0.00     0.031 A 
BRANCH  61  75
ATOM     75  C   UNL A   1      45.821  36.534  29.548  1.00  0.00    -0.014 A 
ATOM     76  C   UNL A   1      46.798  35.661  29.040  1.00  0.00     0.010 A 
ATOM     77  C   UNL A   1      45.606  37.769  28.904  1.00  0.00     0.010 A 
ATOM     78  C   UNL A   1      47.570  36.030  27.937  1.00  0.00     0.020 A 
ATOM     79  C   UNL A   1      46.346  38.124  27.775  1.00  0.00     0.020 A 
ATOM     80  C   UNL A   1      47.333  37.256  27.307  1.00  0.00     0.054 A 
BRANCH  80  81
ATOM     81  S   UNL A   1      48.316  37.678  25.844  1.00  0.00     0.124 S 
ATOM     82  O   UNL A   1      47.375  38.481  25.068  1.00  0.00    -0.237 OA
ATOM     83  O   UNL A   1      49.441  38.410  26.421  1.00  0.00    -0.237 OA
ATOM     84  O   UNL A   1      48.652  36.380  25.263  1.00  0.00    -0.744 OA
ENDBRANCH  80  81
ENDBRANCH  61  75
BRANCH  62  85
ATOM     85  C   UNL A   1      40.412  35.012  37.896  1.00  0.00    -0.014 A 
ATOM     86  C   UNL A   1      39.580  35.993  38.483  1.00  0.00     0.010 A 
ATOM     87  C   UNL A   1      40.468  33.758  38.528  1.00  0.00     0.010 A 
ATOM     88  C   UNL A   1      38.818  35.724  39.630  1.00  0.00     0.020 A 
ATOM     89  C   UNL A   1      39.668  33.461  39.641  1.00  0.00     0.020 A 
ATOM     90  C   UNL A   1      38.849  34.446  40.189  1.00  0.00     0.054 A 
BRANCH  90  91
ATOM     91  S   UNL A   1      37.787  34.086  41.615  1.00  0.00     0.124 S 
ATOM     92  O   UNL A   1      37.596  35.409  42.199  1.00  0.00    -0.237 OA
ATOM     93  O   UNL A   1      36.608  33.497  40.981  1.00  0.00    -0.237 OA
ATOM     94  O   UNL A   1      38.583  33.158  42.415  1.00  0.00    -0.744 OA
ENDBRANCH  90  91
ENDBRANCH  62  85
BRANCH  74  95
ATOM     95  C   UNL A   1      39.381  33.704  31.106  1.00  0.00    -0.014 A 
ATOM     96  C   UNL A   1      38.306  34.480  30.638  1.00  0.00     0.010 A 
ATOM     97  C   UNL A   1      39.442  32.339  30.768  1.00  0.00     0.010 A 
ATOM     98  C   UNL A   1      37.302  33.897  29.861  1.00  0.00     0.020 A 
ATOM     99  C   UNL A   1      38.461  31.761  29.962  1.00  0.00     0.020 A 
ATOM    100  C   UNL A   1      37.393  32.544  29.518  1.00  0.00     0.054 A 
BRANCH 100 101
ATOM    101  S   UNL A   1      36.122  31.832  28.440  1.00  0.00     0.124 S 
ATOM    102  O   UNL A   1      36.826  30.699  27.844  1.00  0.00    -0.237 OA
ATOM    103  O   UNL A   1      35.061  31.490  29.383  1.00  0.00    -0.237 OA
ATOM    104  O   UNL A   1      35.802  32.919  27.517  1.00  0.00    -0.744 OA
ENDBRANCH 100 101
ENDBRANCH  74  95
ENDBRANCH  48  49
ENDBRANCH  41  43
ENDBRANCH  40  41
ENDBRANCH  39  40
ENDBRANCH  38  39
ENDBRANCH  37  38
ENDBRANCH  36  37
ENDBRANCH  35  36
ENDBRANCH  34  35
ENDBRANCH   1  34
TORSDOF 29
ENDMDL
MODEL 3
REMARK VINA RESULT:      -7.4      5.532     12.301
REMARK SMILES COc1ccc(C2=NN(C(=O)CCC(=O)OCCOCCOCCOCCOC(=O)c3ccc(-c4c5nc(c(-c6ccc(S(=O)(=O)[O-])cc6)c6ccc([nH]6)c(-c6ccc(S(=O)(=O)[O-])cc6)c6nc(c(-c7ccc(S(=O)(=O)[O-])cc7)c7ccc4[nH]7)C=C6)C=C5)cc3)[C@H](c3ccc(Cl)cc3Cl)C2)cc1
REMARK SMILES IDX 21 1 20 2 19 3 18 4 17 5 16 6 14 7 15 8 13 9 12 10 10 11
REMARK SMILES IDX 11 12 9 13 7 14 8 15 100 16 91 17 6 18 3 19 4 20 102 21 5 22
REMARK SMILES IDX 101 23 2 24 1 25 92 26 93 27 98 28 94 29 97 30 99 31 95 32
REMARK SMILES IDX 96 33 22 34 23 35 24 36 25 37 26 38 27 39 28 40 29 41 30 42
REMARK SMILES IDX 31 43 32 44 90 45 33 46 89 47 34 48 35 49 36 50 83 51 37 52
REMARK SMILES IDX 88 53 82 54 84 55 38 56 87 57 81 58 80 59 39 61 69 62 50 63
REMARK SMILES IDX 68 64 51 65 54 66 67 67 85 68 52 69 53 70 66 72 86 73 55 74
REMARK SMILES IDX 40 75 41 76 49 77 42 78 48 79 43 80 44 81 45 82 46 83 47 84
REMARK SMILES IDX 70 85 71 86 79 87 72 88 78 89 73 90 74 91 75 92 76 93 77 94
REMARK SMILES IDX 56 95 57 96 65 97 58 98 64 99 59 100 60 101 61 102 62 103
REMARK SMILES IDX 63 104
REMARK H PARENT 84 60 54 71
REMARK Flexibility Score: inf
ROOT
ATOM      1  C   UNL A   1      44.732  38.770  36.737  1.00  0.00     0.188 C 
ENDROOT
BRANCH   1   2
ATOM      2  C   UNL A   1      44.150  39.421  34.995  1.00  0.00     0.188 C 
BRANCH   2   3
ATOM      3  O   UNL A   1      44.522  39.018  33.529  1.00  0.00    -0.376 OA
BRANCH   3   4
ATOM      4  C   UNL A   1      44.393  39.841  32.278  1.00  0.00     0.202 C 
BRANCH   4   5
ATOM      5  C   UNL A   1      44.993  41.285  32.130  1.00  0.00     0.261 C 
BRANCH   5   6
ATOM      6  O   UNL A   1      44.148  42.181  31.396  1.00  0.00    -0.463 OA
BRANCH   6   7
ATOM      7  C   UNL A   1      44.146  41.965  30.065  1.00  0.00     0.306 C 
ATOM      8  O   UNL A   1      43.215  41.449  29.455  1.00  0.00    -0.252 OA
BRANCH   7   9
ATOM      9  C   UNL A   1      45.278  42.637  29.327  1.00  0.00     0.132 C 
BRANCH   9  10
ATOM     10  C   UNL A   1      45.111  43.691  28.234  1.00  0.00     0.114 C 
BRANCH  10  11
ATOM     11  C   UNL A   1      44.952  43.538  26.709  1.00  0.00     0.243 C 
ATOM     12  O   UNL A   1      45.585  44.432  26.101  1.00  0.00    -0.273 OA
BRANCH  11  13
ATOM     13  N   UNL A   1      44.332  42.512  25.959  1.00  0.00    -0.225 N 
ATOM     14  C   UNL A   1      43.245  42.496  24.042  1.00  0.00     0.071 C 
ATOM     15  N   UNL A   1      44.249  42.995  24.659  1.00  0.00    -0.174 NA
ATOM     16  C   UNL A   1      42.463  41.408  24.766  1.00  0.00     0.091 C 
ATOM     17  C   UNL A   1      43.382  41.005  26.056  1.00  0.00     0.149 C 
BRANCH  14  18
ATOM     18  C   UNL A   1      42.923  42.968  22.681  1.00  0.00    -0.002 A 
ATOM     19  C   UNL A   1      42.350  43.927  20.123  1.00  0.00     0.118 A 
ATOM     20  C   UNL A   1      43.609  44.123  20.676  1.00  0.00     0.047 A 
ATOM     21  C   UNL A   1      41.356  43.286  20.866  1.00  0.00     0.047 A 
ATOM     22  C   UNL A   1      43.882  43.683  21.969  1.00  0.00     0.014 A 
ATOM     23  C   UNL A   1      41.639  42.813  22.157  1.00  0.00     0.014 A 
BRANCH  19  24
ATOM     24  O   UNL A   1      42.203  44.365  18.839  1.00  0.00    -0.497 OA
ATOM     25  C   UNL A   1      40.931  44.082  18.267  1.00  0.00     0.278 C 
ENDBRANCH  19  24
ENDBRANCH  14  18
BRANCH  17  26
ATOM     26  C   UNL A   1      43.924  39.229  26.789  1.00  0.00    -0.004 A 
ATOM     27  C   UNL A   1      45.566  39.353  27.264  1.00  0.00     0.009 A 
ATOM     28  C   UNL A   1      43.328  37.550  27.144  1.00  0.00     0.047 A 
ATOM     29  C   UNL A   1      46.786  37.980  27.732  1.00  0.00     0.021 A 
ATOM     30  C   UNL A   1      44.382  36.206  27.656  1.00  0.00     0.041 A 
ATOM     31  Cl  UNL A   1      41.734  36.980  27.759  1.00  0.00    -0.084 Cl
ATOM     32  C   UNL A   1      46.099  36.374  27.944  1.00  0.00     0.042 A 
ATOM     33  Cl  UNL A   1      46.984  35.028  28.518  1.00  0.00    -0.084 Cl
ENDBRANCH  17  26
ENDBRANCH  11  13
ENDBRANCH  10  11
ENDBRANCH   9  10
ENDBRANCH   7   9
ENDBRANCH   6   7
ENDBRANCH   5   6
ENDBRANCH   4   5
ENDBRANCH   3   4
ENDBRANCH   2   3
ENDBRANCH   1   2
BRANCH   1  34
ATOM     34  O   UNL A   1      43.818  37.901  38.033  1.00  0.00    -0.377 OA
BRANCH  34  35
ATOM     35  C   UNL A   1      42.467  36.725  38.204  1.00  0.00     0.188 C 
BRANCH  35  36
ATOM     36  C   UNL A   1      40.788  36.583  39.270  1.00  0.00     0.188 C 
BRANCH  36  37
ATOM     37  O   UNL A   1      39.197  36.079  38.488  1.00  0.00    -0.376 OA
BRANCH  37  38
ATOM     38  C   UNL A   1      38.767  34.268  38.346  1.00  0.00     0.202 C 
BRANCH  38  39
ATOM     39  C   UNL A   1      37.877  33.583  36.431  1.00  0.00     0.261 C 
BRANCH  39  40
ATOM     40  O   UNL A   1      38.844  32.639  35.219  1.00  0.00    -0.460 OA
BRANCH  40  41
ATOM     41  C   UNL A   1      38.598  31.890  34.061  1.00  0.00     0.338 C 
ATOM     42  O   UNL A   1      37.540  31.862  33.443  1.00  0.00    -0.246 OA
BRANCH  41  43
ATOM     43  C   UNL A   1      39.826  31.243  33.386  1.00  0.00     0.060 A 
ATOM     44  C   UNL A   1      40.337  31.726  32.146  1.00  0.00     0.016 A 
ATOM     45  C   UNL A   1      40.542  30.209  33.983  1.00  0.00     0.016 A 
ATOM     46  C   UNL A   1      41.592  31.319  31.629  1.00  0.00     0.010 A 
ATOM     47  C   UNL A   1      41.729  29.701  33.390  1.00  0.00     0.010 A 
ATOM     48  C   UNL A   1      42.288  30.262  32.228  1.00  0.00    -0.014 A 
BRANCH  48  49
ATOM     49  C   UNL A   1      43.405  29.578  31.485  1.00  0.00     0.031 A 
ATOM     50  C   UNL A   1      44.792  30.119  31.707  1.00  0.00     0.074 A 
ATOM     51  C   UNL A   1      43.232  28.562  30.609  1.00  0.00     0.049 A 
ATOM     52  N   UNL A   1      45.912  29.790  31.121  1.00  0.00    -0.248 NA
ATOM     53  C   UNL A   1      44.913  31.241  32.653  1.00  0.00     0.031 C 
ATOM     54  C   UNL A   1      41.940  28.000  30.239  1.00  0.00     0.029 A 
ATOM     55  N   UNL A   1      44.132  27.775  29.915  1.00  0.00    -0.354 N 
ATOM     56  C   UNL A   1      46.836  30.746  31.529  1.00  0.00     0.074 A 
ATOM     57  C   UNL A   1      46.165  31.619  32.464  1.00  0.00     0.031 C 
ATOM     58  C   UNL A   1      42.132  26.870  29.533  1.00  0.00     0.029 A 
ATOM     59  C   UNL A   1      43.558  26.685  29.275  1.00  0.00     0.049 A 
ATOM     60  H   UNL A   1      45.097  27.970  29.877  1.00  0.00     0.167 HD
ATOM     61  C   UNL A   1      48.104  30.925  31.097  1.00  0.00     0.031 A 
ATOM     62  C   UNL A   1      44.123  25.676  28.562  1.00  0.00     0.031 A 
ATOM     63  C   UNL A   1      48.742  30.072  30.134  1.00  0.00     0.049 A 
ATOM     64  C   UNL A   1      45.590  25.821  28.207  1.00  0.00     0.074 A 
ATOM     65  C   UNL A   1      50.018  30.174  29.611  1.00  0.00     0.029 A 
ATOM     66  N   UNL A   1      48.151  28.963  29.546  1.00  0.00    -0.354 N 
ATOM     67  N   UNL A   1      46.452  26.724  28.612  1.00  0.00    -0.248 NA
ATOM     68  C   UNL A   1      46.147  24.862  27.235  1.00  0.00     0.031 C 
ATOM     69  C   UNL A   1      50.176  29.164  28.660  1.00  0.00     0.029 A 
ATOM     70  C   UNL A   1      49.036  28.376  28.661  1.00  0.00     0.049 A 
ATOM     71  H   UNL A   1      47.239  28.643  29.732  1.00  0.00     0.167 HD
ATOM     72  C   UNL A   1      47.632  26.463  27.927  1.00  0.00     0.074 A 
ATOM     73  C   UNL A   1      47.405  25.269  27.139  1.00  0.00     0.031 C 
ATOM     74  C   UNL A   1      48.787  27.171  27.908  1.00  0.00     0.031 A 
BRANCH  61  75
ATOM     75  C   UNL A   1      48.831  32.150  31.586  1.00  0.00    -0.014 A 
ATOM     76  C   UNL A   1      49.036  33.268  30.760  1.00  0.00     0.010 A 
ATOM     77  C   UNL A   1      49.320  32.177  32.907  1.00  0.00     0.010 A 
ATOM     78  C   UNL A   1      49.749  34.372  31.231  1.00  0.00     0.020 A 
ATOM     79  C   UNL A   1      49.996  33.296  33.396  1.00  0.00     0.020 A 
ATOM     80  C   UNL A   1      50.217  34.382  32.548  1.00  0.00     0.054 A 
BRANCH  80  81
ATOM     81  S   UNL A   1      51.090  35.855  33.143  1.00  0.00     0.124 S 
ATOM     82  O   UNL A   1      51.179  36.664  31.930  1.00  0.00    -0.237 OA
ATOM     83  O   UNL A   1      50.185  36.363  34.172  1.00  0.00    -0.237 OA
ATOM     84  O   UNL A   1      52.361  35.332  33.637  1.00  0.00    -0.744 OA
ENDBRANCH  80  81
ENDBRANCH  61  75
BRANCH  62  85
ATOM     85  C   UNL A   1      43.350  24.473  28.082  1.00  0.00    -0.014 A 
ATOM     86  C   UNL A   1      42.820  24.432  26.772  1.00  0.00     0.010 A 
ATOM     87  C   UNL A   1      43.110  23.359  28.905  1.00  0.00     0.010 A 
ATOM     88  C   UNL A   1      42.110  23.319  26.297  1.00  0.00     0.020 A 
ATOM     89  C   UNL A   1      42.451  22.219  28.423  1.00  0.00     0.020 A 
ATOM     90  C   UNL A   1      41.950  22.206  27.122  1.00  0.00     0.054 A 
BRANCH  90  91
ATOM     91  S   UNL A   1      41.112  20.738  26.463  1.00  0.00     0.124 S 
ATOM     92  O   UNL A   1      40.650  20.075  27.678  1.00  0.00    -0.237 OA
ATOM     93  O   UNL A   1      40.069  21.327  25.626  1.00  0.00    -0.237 OA
ATOM     94  O   UNL A   1      42.166  20.037  25.730  1.00  0.00    -0.744 OA
ENDBRANCH  90  91
ENDBRANCH  62  85
BRANCH  74  95
ATOM     95  C   UNL A   1      49.911  26.658  27.050  1.00  0.00    -0.014 A 
ATOM     96  C   UNL A   1      50.063  27.066  25.712  1.00  0.00     0.010 A 
ATOM     97  C   UNL A   1      50.888  25.830  27.632  1.00  0.00     0.010 A 
ATOM     98  C   UNL A   1      51.167  26.641  24.968  1.00  0.00     0.020 A 
ATOM     99  C   UNL A   1      52.009  25.433  26.904  1.00  0.00     0.020 A 
ATOM    100  C   UNL A   1      52.139  25.836  25.574  1.00  0.00     0.054 A 
BRANCH 100 101
ATOM    101  S   UNL A   1      53.602  25.366  24.612  1.00  0.00     0.124 S 
ATOM    102  O   UNL A   1      54.647  26.178  25.230  1.00  0.00    -0.237 OA
ATOM    103  O   UNL A   1      53.693  23.929  24.855  1.00  0.00    -0.237 OA
ATOM    104  O   UNL A   1      53.252  25.741  23.243  1.00  0.00    -0.744 OA
ENDBRANCH 100 101
ENDBRANCH  74  95
ENDBRANCH  48  49
ENDBRANCH  41  43
ENDBRANCH  40  41
ENDBRANCH  39  40
ENDBRANCH  38  39
ENDBRANCH  37  38
ENDBRANCH  36  37
ENDBRANCH  35  36
ENDBRANCH  34  35
ENDBRANCH   1  34
TORSDOF 29
ENDMDL
