MODEL 1
REMARK VINA RESULT:     -10.4      0.000      0.000
REMARK SMILES Cc1ccccc1/[NH+]=C1\S[C@@H](CC(=O)Nc2ccc(C(=O)OCCOCCOCCOCCOC(=O)c3ccc(-c4c5nc(c(-c6ccc(S(=O)(=O)[O-])cc6)c6ccc([nH]6)c(-c6ccc(S(=O)(=O)[O-])cc6)c6nc(c(-c7ccc(S(=O)(=O)[O-])cc7)c7ccc4[nH]7)C=C6)C=C5)cc3)cc2)C(=O)N1C
REMARK SMILES IDX 27 1 26 2 25 3 24 4 23 5 22 6 20 7 21 8 19 9 16 10 17 11
REMARK SMILES IDX 98 12 18 13 97 14 15 15 13 16 14 17 12 19 11 20 8 21 9 22
REMARK SMILES IDX 10 24 101 25 99 26 102 27 100 28 7 29 1 30 2 31 3 32 4 33
REMARK SMILES IDX 6 34 5 35 28 36 29 37 30 38 31 39 32 40 33 41 34 42 35 43
REMARK SMILES IDX 36 44 37 45 38 46 96 47 39 48 95 49 40 50 41 51 42 52 89 53
REMARK SMILES IDX 43 54 94 55 88 56 90 57 44 58 93 59 87 60 86 61 45 63 75 64
REMARK SMILES IDX 56 65 74 66 57 67 60 68 73 69 91 70 58 71 59 72 72 74 92 75
REMARK SMILES IDX 61 76 46 77 47 78 55 79 48 80 54 81 49 82 50 83 51 84 52 85
REMARK SMILES IDX 53 86 76 87 77 88 85 89 78 90 84 91 79 92 80 93 81 94 82 95
REMARK SMILES IDX 83 96 62 97 63 98 71 99 64 100 70 101 65 102 66 103 67 104
REMARK SMILES IDX 68 105 69 106
REMARK H PARENT 15 18 8 23 90 62 60 73
REMARK Flexibility Score: inf
ROOT
ATOM      1  C   UNL A   1      40.816  25.731  28.806  1.00  0.00     0.188 C 
ENDROOT
BRANCH   1   2
ATOM      2  C   UNL A   1      39.260  26.448  28.495  1.00  0.00     0.188 C 
BRANCH   2   3
ATOM      3  O   UNL A   1      38.642  28.140  28.309  1.00  0.00    -0.376 OA
BRANCH   3   4
ATOM      4  C   UNL A   1      37.440  29.159  29.191  1.00  0.00     0.202 C 
BRANCH   4   5
ATOM      5  C   UNL A   1      36.185  30.414  28.478  1.00  0.00     0.261 C 
BRANCH   5   6
ATOM      6  O   UNL A   1      34.943  30.109  27.213  1.00  0.00    -0.460 OA
BRANCH   6   7
ATOM      7  C   UNL A   1      33.719  29.381  26.946  1.00  0.00     0.338 C 
ATOM      8  O   UNL A   1      32.669  29.256  27.586  1.00  0.00    -0.246 OA
BRANCH   7   9
ATOM      9  C   UNL A   1      33.369  28.757  25.671  1.00  0.00     0.060 A 
ATOM     10  C   UNL A   1      32.721  27.671  23.153  1.00  0.00     0.041 A 
ATOM     11  C   UNL A   1      33.823  27.330  23.924  1.00  0.00     0.027 A 
ATOM     12  C   UNL A   1      31.882  28.634  23.672  1.00  0.00     0.027 A 
ATOM     13  C   UNL A   1      34.118  27.748  25.200  1.00  0.00     0.018 A 
ATOM     14  C   UNL A   1      32.228  29.195  24.912  1.00  0.00     0.018 A 
BRANCH  10  15
ATOM     15  N   UNL A   1      32.544  27.119  21.868  1.00  0.00    -0.326 N 
ATOM     16  C   UNL A   1      32.164  25.847  21.494  1.00  0.00     0.226 C 
ATOM     17  O   UNL A   1      32.282  25.513  20.310  1.00  0.00    -0.275 OA
ATOM     18  H   UNL A   1      32.719  27.737  21.122  1.00  0.00     0.169 HD
BRANCH  16  19
ATOM     19  C   UNL A   1      31.520  24.863  22.471  1.00  0.00     0.128 C 
BRANCH  19  20
ATOM     20  C   UNL A   1      32.466  24.415  23.593  1.00  0.00     0.183 C 
ATOM     21  N   UNL A   1      34.612  21.635  24.897  1.00  0.00    -0.234 N 
ATOM     22  C   UNL A   1      33.837  22.337  24.164  1.00  0.00     0.319 C 
ATOM     23  H   UNL A   1      34.115  21.030  25.494  1.00  0.00     0.313 HD
ATOM     24  S   UNL A   1      33.914  23.496  22.892  1.00  0.00    -0.022 SA
ATOM     25  N   UNL A   1      32.536  22.215  24.452  1.00  0.00    -0.193 N 
ATOM     26  C   UNL A   1      31.871  23.402  24.571  1.00  0.00     0.324 C 
ATOM     27  C   UNL A   1      31.977  20.910  24.330  1.00  0.00     0.301 C 
ATOM     28  O   UNL A   1      30.921  23.617  25.311  1.00  0.00    -0.245 OA
BRANCH  21  29
ATOM     29  C   UNL A   1      35.977  21.521  25.053  1.00  0.00     0.128 A 
ATOM     30  C   UNL A   1      36.486  23.862  25.934  1.00  0.00     0.049 C 
ATOM     31  C   UNL A   1      36.877  22.491  25.493  1.00  0.00    -0.004 A 
ATOM     32  C   UNL A   1      38.240  22.167  25.571  1.00  0.00     0.008 A 
ATOM     33  C   UNL A   1      38.689  20.865  25.361  1.00  0.00     0.001 A 
ATOM     34  C   UNL A   1      36.442  20.202  24.879  1.00  0.00     0.052 A 
ATOM     35  C   UNL A   1      37.781  19.865  25.051  1.00  0.00     0.004 A 
ENDBRANCH  21  29
ENDBRANCH  19  20
ENDBRANCH  16  19
ENDBRANCH  10  15
ENDBRANCH   7   9
ENDBRANCH   6   7
ENDBRANCH   5   6
ENDBRANCH   4   5
ENDBRANCH   3   4
ENDBRANCH   2   3
ENDBRANCH   1   2
BRANCH   1  36
ATOM     36  O   UNL A   1      41.927  25.424  27.926  1.00  0.00    -0.377 OA
BRANCH  36  37
ATOM     37  C   UNL A   1      41.919  24.773  26.660  1.00  0.00     0.188 C 
BRANCH  37  38
ATOM     38  C   UNL A   1      42.534  23.428  26.700  1.00  0.00     0.188 C 
BRANCH  38  39
ATOM     39  O   UNL A   1      43.429  23.261  25.617  1.00  0.00    -0.376 OA
BRANCH  39  40
ATOM     40  C   UNL A   1      43.771  24.465  24.970  1.00  0.00     0.202 C 
BRANCH  40  41
ATOM     41  C   UNL A   1      45.254  24.810  25.173  1.00  0.00     0.261 C 
BRANCH  41  42
ATOM     42  O   UNL A   1      45.453  26.207  24.840  1.00  0.00    -0.460 OA
BRANCH  42  43
ATOM     43  C   UNL A   1      44.752  27.117  25.601  1.00  0.00     0.338 C 
ATOM     44  O   UNL A   1      43.785  27.722  25.217  1.00  0.00    -0.246 OA
BRANCH  43  45
ATOM     45  C   UNL A   1      45.445  27.254  26.926  1.00  0.00     0.060 A 
ATOM     46  C   UNL A   1      45.134  26.514  28.058  1.00  0.00     0.016 A 
ATOM     47  C   UNL A   1      46.328  28.273  27.127  1.00  0.00     0.016 A 
ATOM     48  C   UNL A   1      45.299  27.077  29.370  1.00  0.00     0.010 A 
ATOM     49  C   UNL A   1      46.554  28.717  28.439  1.00  0.00     0.010 A 
ATOM     50  C   UNL A   1      45.701  28.410  29.569  1.00  0.00    -0.014 A 
BRANCH  50  51
ATOM     51  C   UNL A   1      44.943  29.594  30.790  1.00  0.00     0.031 A 
ATOM     52  C   UNL A   1      43.046  30.196  30.842  1.00  0.00     0.074 A 
ATOM     53  C   UNL A   1      45.985  30.136  31.522  1.00  0.00     0.049 A 
ATOM     54  N   UNL A   1      42.608  31.389  30.292  1.00  0.00    -0.248 NA
ATOM     55  C   UNL A   1      41.616  29.453  30.784  1.00  0.00     0.031 C 
ATOM     56  C   UNL A   1      46.031  30.816  32.813  1.00  0.00     0.029 A 
ATOM     57  N   UNL A   1      47.327  30.254  31.118  1.00  0.00    -0.354 N 
ATOM     58  C   UNL A   1      41.266  31.606  30.198  1.00  0.00     0.074 A 
ATOM     59  C   UNL A   1      40.748  30.295  30.210  1.00  0.00     0.031 C 
ATOM     60  C   UNL A   1      47.214  31.415  32.973  1.00  0.00     0.029 A 
ATOM     61  C   UNL A   1      47.962  31.307  31.769  1.00  0.00     0.049 A 
ATOM     62  H   UNL A   1      47.763  29.667  30.459  1.00  0.00     0.167 HD
ATOM     63  C   UNL A   1      40.664  32.835  30.280  1.00  0.00     0.031 A 
ATOM     64  C   UNL A   1      48.568  32.309  31.090  1.00  0.00     0.031 A 
ATOM     65  C   UNL A   1      41.568  33.924  30.722  1.00  0.00     0.049 A 
ATOM     66  C   UNL A   1      47.763  33.579  30.765  1.00  0.00     0.074 A 
ATOM     67  C   UNL A   1      41.664  34.639  31.909  1.00  0.00     0.029 A 
ATOM     68  N   UNL A   1      42.726  34.263  30.011  1.00  0.00    -0.354 N 
ATOM     69  N   UNL A   1      46.463  33.783  30.895  1.00  0.00    -0.248 NA
ATOM     70  C   UNL A   1      48.455  34.798  30.341  1.00  0.00     0.031 C 
ATOM     71  C   UNL A   1      42.935  35.286  31.955  1.00  0.00     0.029 A 
ATOM     72  C   UNL A   1      43.640  34.985  30.793  1.00  0.00     0.049 A 
ATOM     73  H   UNL A   1      42.880  34.024  29.069  1.00  0.00     0.167 HD
ATOM     74  C   UNL A   1      46.124  35.065  30.438  1.00  0.00     0.074 A 
ATOM     75  C   UNL A   1      47.438  35.668  30.231  1.00  0.00     0.031 C 
ATOM     76  C   UNL A   1      44.861  35.608  30.226  1.00  0.00     0.031 A 
BRANCH  63  77
ATOM     77  C   UNL A   1      39.132  32.843  30.354  1.00  0.00    -0.014 A 
ATOM     78  C   UNL A   1      38.328  33.537  29.434  1.00  0.00     0.010 A 
ATOM     79  C   UNL A   1      38.441  32.227  31.426  1.00  0.00     0.010 A 
ATOM     80  C   UNL A   1      36.948  33.739  29.660  1.00  0.00     0.020 A 
ATOM     81  C   UNL A   1      37.092  32.490  31.711  1.00  0.00     0.020 A 
ATOM     82  C   UNL A   1      36.349  33.257  30.824  1.00  0.00     0.054 A 
BRANCH  82  83
ATOM     83  S   UNL A   1      34.601  33.616  31.164  1.00  0.00     0.124 S 
ATOM     84  O   UNL A   1      33.997  33.585  29.834  1.00  0.00    -0.237 OA
ATOM     85  O   UNL A   1      34.224  32.520  32.052  1.00  0.00    -0.237 OA
ATOM     86  O   UNL A   1      34.631  34.937  31.792  1.00  0.00    -0.744 OA
ENDBRANCH  82  83
ENDBRANCH  63  77
BRANCH  64  87
ATOM     87  C   UNL A   1      49.856  31.736  30.539  1.00  0.00    -0.014 A 
ATOM     88  C   UNL A   1      49.797  31.409  29.151  1.00  0.00     0.010 A 
ATOM     89  C   UNL A   1      51.089  32.184  31.046  1.00  0.00     0.010 A 
ATOM     90  C   UNL A   1      50.786  31.859  28.266  1.00  0.00     0.020 A 
ATOM     91  C   UNL A   1      52.108  32.593  30.158  1.00  0.00     0.020 A 
ATOM     92  C   UNL A   1      51.895  32.524  28.776  1.00  0.00     0.054 A 
BRANCH  92  93
ATOM     93  S   UNL A   1      52.885  33.530  27.619  1.00  0.00     0.124 S 
ATOM     94  O   UNL A   1      54.257  33.250  28.027  1.00  0.00    -0.237 OA
ATOM     95  O   UNL A   1      52.481  32.953  26.336  1.00  0.00    -0.237 OA
ATOM     96  O   UNL A   1      52.414  34.886  27.878  1.00  0.00    -0.744 OA
ENDBRANCH  92  93
ENDBRANCH  64  87
BRANCH  76  97
ATOM     97  C   UNL A   1      44.561  36.939  29.483  1.00  0.00    -0.014 A 
ATOM     98  C   UNL A   1      45.344  38.102  29.497  1.00  0.00     0.010 A 
ATOM     99  C   UNL A   1      43.431  36.994  28.615  1.00  0.00     0.010 A 
ATOM    100  C   UNL A   1      44.999  39.245  28.751  1.00  0.00     0.020 A 
ATOM    101  C   UNL A   1      43.100  38.101  27.830  1.00  0.00     0.020 A 
ATOM    102  C   UNL A   1      43.881  39.236  27.918  1.00  0.00     0.054 A 
BRANCH 102 103
ATOM    103  S   UNL A   1      43.506  40.682  26.903  1.00  0.00     0.124 S 
ATOM    104  O   UNL A   1      44.208  40.370  25.662  1.00  0.00    -0.237 OA
ATOM    105  O   UNL A   1      42.047  40.644  26.826  1.00  0.00    -0.237 OA
ATOM    106  O   UNL A   1      44.053  41.797  27.670  1.00  0.00    -0.744 OA
ENDBRANCH 102 103
ENDBRANCH  76  97
ENDBRANCH  50  51
ENDBRANCH  43  45
ENDBRANCH  42  43
ENDBRANCH  41  42
ENDBRANCH  40  41
ENDBRANCH  39  40
ENDBRANCH  38  39
ENDBRANCH  37  38
ENDBRANCH  36  37
ENDBRANCH   1  36
TORSDOF 27
ENDMDL
MODEL 2
REMARK VINA RESULT:     -10.3      4.429     10.086
REMARK SMILES Cc1ccccc1/[NH+]=C1\S[C@@H](CC(=O)Nc2ccc(C(=O)OCCOCCOCCOCCOC(=O)c3ccc(-c4c5nc(c(-c6ccc(S(=O)(=O)[O-])cc6)c6ccc([nH]6)c(-c6ccc(S(=O)(=O)[O-])cc6)c6nc(c(-c7ccc(S(=O)(=O)[O-])cc7)c7ccc4[nH]7)C=C6)C=C5)cc3)cc2)C(=O)N1C
REMARK SMILES IDX 27 1 26 2 25 3 24 4 23 5 22 6 20 7 21 8 19 9 16 10 17 11
REMARK SMILES IDX 98 12 18 13 97 14 15 15 13 16 14 17 12 19 11 20 8 21 9 22
REMARK SMILES IDX 10 24 101 25 99 26 102 27 100 28 7 29 1 30 2 31 3 32 4 33
REMARK SMILES IDX 6 34 5 35 28 36 29 37 30 38 31 39 32 40 33 41 34 42 35 43
REMARK SMILES IDX 36 44 37 45 38 46 96 47 39 48 95 49 40 50 41 51 42 52 89 53
REMARK SMILES IDX 43 54 94 55 88 56 90 57 44 58 93 59 87 60 86 61 45 63 75 64
REMARK SMILES IDX 56 65 74 66 57 67 60 68 73 69 91 70 58 71 59 72 72 74 92 75
REMARK SMILES IDX 61 76 46 77 47 78 55 79 48 80 54 81 49 82 50 83 51 84 52 85
REMARK SMILES IDX 53 86 76 87 77 88 85 89 78 90 84 91 79 92 80 93 81 94 82 95
REMARK SMILES IDX 83 96 62 97 63 98 71 99 64 100 70 101 65 102 66 103 67 104
REMARK SMILES IDX 68 105 69 106
REMARK H PARENT 15 18 8 23 90 62 60 73
REMARK Flexibility Score: inf
ROOT
ATOM      1  C   UNL A   1      38.726  34.949  34.635  1.00  0.00     0.188 C 
ENDROOT
BRANCH   1   2
ATOM      2  C   UNL A   1      38.461  34.525  32.967  1.00  0.00     0.188 C 
BRANCH   2   3
ATOM      3  O   UNL A   1      39.490  34.473  31.478  1.00  0.00    -0.376 OA
BRANCH   3   4
ATOM      4  C   UNL A   1      39.380  33.631  29.884  1.00  0.00     0.202 C 
BRANCH   4   5
ATOM      5  C   UNL A   1      38.133  32.292  29.324  1.00  0.00     0.261 C 
BRANCH   5   6
ATOM      6  O   UNL A   1      36.478  32.011  29.969  1.00  0.00    -0.460 OA
BRANCH   6   7
ATOM      7  C   UNL A   1      35.073  32.124  29.636  1.00  0.00     0.338 C 
ATOM      8  O   UNL A   1      34.162  32.822  30.095  1.00  0.00    -0.246 OA
BRANCH   7   9
ATOM      9  C   UNL A   1      34.434  31.535  28.459  1.00  0.00     0.060 A 
ATOM     10  C   UNL A   1      33.170  30.294  26.268  1.00  0.00     0.041 A 
ATOM     11  C   UNL A   1      32.733  31.442  26.913  1.00  0.00     0.027 A 
ATOM     12  C   UNL A   1      34.322  29.715  26.757  1.00  0.00     0.027 A 
ATOM     13  C   UNL A   1      33.372  32.142  27.909  1.00  0.00     0.018 A 
ATOM     14  C   UNL A   1      34.929  30.319  27.870  1.00  0.00     0.018 A 
BRANCH  10  15
ATOM     15  N   UNL A   1      32.408  29.717  25.231  1.00  0.00    -0.326 N 
ATOM     16  C   UNL A   1      31.667  28.555  25.218  1.00  0.00     0.226 C 
ATOM     17  O   UNL A   1      31.253  28.124  24.136  1.00  0.00    -0.275 OA
ATOM     18  H   UNL A   1      32.405  30.222  24.387  1.00  0.00     0.169 HD
BRANCH  16  19
ATOM     19  C   UNL A   1      31.261  27.826  26.500  1.00  0.00     0.128 C 
BRANCH  19  20
ATOM     20  C   UNL A   1      31.831  26.404  26.595  1.00  0.00     0.183 C 
ATOM     21  N   UNL A   1      33.342  23.548  24.698  1.00  0.00    -0.234 N 
ATOM     22  C   UNL A   1      32.847  24.687  25.002  1.00  0.00     0.319 C 
ATOM     23  H   UNL A   1      32.659  22.922  24.364  1.00  0.00     0.313 HD
ATOM     24  S   UNL A   1      33.349  26.242  25.547  1.00  0.00    -0.022 SA
ATOM     25  N   UNL A   1      31.512  24.748  24.941  1.00  0.00    -0.193 N 
ATOM     26  C   UNL A   1      30.922  25.308  26.037  1.00  0.00     0.324 C 
ATOM     27  C   UNL A   1      30.920  24.483  23.672  1.00  0.00     0.301 C 
ATOM     28  O   UNL A   1      29.823  25.015  26.486  1.00  0.00    -0.245 OA
BRANCH  21  29
ATOM     29  C   UNL A   1      34.600  22.987  24.729  1.00  0.00     0.128 A 
ATOM     30  C   UNL A   1      34.345  21.519  26.801  1.00  0.00     0.049 C 
ATOM     31  C   UNL A   1      35.119  22.086  25.659  1.00  0.00    -0.004 A 
ATOM     32  C   UNL A   1      36.442  21.642  25.507  1.00  0.00     0.008 A 
ATOM     33  C   UNL A   1      37.190  21.963  24.378  1.00  0.00     0.001 A 
ATOM     34  C   UNL A   1      35.357  23.273  23.574  1.00  0.00     0.052 A 
ATOM     35  C   UNL A   1      36.633  22.752  23.384  1.00  0.00     0.004 A 
ENDBRANCH  21  29
ENDBRANCH  19  20
ENDBRANCH  16  19
ENDBRANCH  10  15
ENDBRANCH   7   9
ENDBRANCH   6   7
ENDBRANCH   5   6
ENDBRANCH   4   5
ENDBRANCH   3   4
ENDBRANCH   2   3
ENDBRANCH   1   2
BRANCH   1  36
ATOM     36  O   UNL A   1      39.405  34.251  35.709  1.00  0.00    -0.377 OA
BRANCH  36  37
ATOM     37  C   UNL A   1      40.005  34.778  36.887  1.00  0.00     0.188 C 
BRANCH  37  38
ATOM     38  C   UNL A   1      41.479  34.651  36.889  1.00  0.00     0.188 C 
BRANCH  38  39
ATOM     39  O   UNL A   1      41.879  33.521  36.139  1.00  0.00    -0.376 OA
BRANCH  39  40
ATOM     40  C   UNL A   1      42.115  32.372  36.920  1.00  0.00     0.202 C 
BRANCH  40  41
ATOM     41  C   UNL A   1      40.933  31.393  36.851  1.00  0.00     0.261 C 
BRANCH  41  42
ATOM     42  O   UNL A   1      40.627  31.136  35.457  1.00  0.00    -0.460 OA
BRANCH  42  43
ATOM     43  C   UNL A   1      41.142  29.972  34.929  1.00  0.00     0.338 C 
ATOM     44  O   UNL A   1      41.802  29.178  35.548  1.00  0.00    -0.246 OA
BRANCH  43  45
ATOM     45  C   UNL A   1      40.797  29.926  33.468  1.00  0.00     0.060 A 
ATOM     46  C   UNL A   1      40.436  28.775  32.781  1.00  0.00     0.016 A 
ATOM     47  C   UNL A   1      40.998  31.025  32.689  1.00  0.00     0.016 A 
ATOM     48  C   UNL A   1      40.758  28.623  31.388  1.00  0.00     0.010 A 
ATOM     49  C   UNL A   1      41.189  30.845  31.309  1.00  0.00     0.010 A 
ATOM     50  C   UNL A   1      41.510  29.579  30.683  1.00  0.00    -0.014 A 
BRANCH  50  51
ATOM     51  C   UNL A   1      42.903  29.201  29.506  1.00  0.00     0.031 A 
ATOM     52  C   UNL A   1      43.141  27.535  28.443  1.00  0.00     0.074 A 
ATOM     53  C   UNL A   1      43.846  30.201  29.666  1.00  0.00     0.049 A 
ATOM     54  N   UNL A   1      43.959  26.489  28.835  1.00  0.00    -0.248 NA
ATOM     55  C   UNL A   1      42.190  26.650  27.487  1.00  0.00     0.031 C 
ATOM     56  C   UNL A   1      44.941  30.664  28.820  1.00  0.00     0.029 A 
ATOM     57  N   UNL A   1      44.042  30.999  30.807  1.00  0.00    -0.354 N 
ATOM     58  C   UNL A   1      43.890  25.316  28.145  1.00  0.00     0.074 A 
ATOM     59  C   UNL A   1      42.602  25.379  27.574  1.00  0.00     0.031 C 
ATOM     60  C   UNL A   1      45.755  31.459  29.520  1.00  0.00     0.029 A 
ATOM     61  C   UNL A   1      45.353  31.460  30.883  1.00  0.00     0.049 A 
ATOM     62  H   UNL A   1      43.343  31.205  31.468  1.00  0.00     0.167 HD
ATOM     63  C   UNL A   1      44.940  24.455  27.955  1.00  0.00     0.031 A 
ATOM     64  C   UNL A   1      46.133  31.229  31.966  1.00  0.00     0.031 A 
ATOM     65  C   UNL A   1      46.255  25.006  28.361  1.00  0.00     0.049 A 
ATOM     66  C   UNL A   1      47.038  29.986  31.979  1.00  0.00     0.074 A 
ATOM     67  C   UNL A   1      47.354  25.442  27.633  1.00  0.00     0.029 A 
ATOM     68  N   UNL A   1      46.512  25.423  29.673  1.00  0.00    -0.354 N 
ATOM     69  N   UNL A   1      47.045  28.966  31.137  1.00  0.00    -0.248 NA
ATOM     70  C   UNL A   1      48.123  29.878  32.956  1.00  0.00     0.031 C 
ATOM     71  C   UNL A   1      48.186  26.230  28.484  1.00  0.00     0.029 A 
ATOM     72  C   UNL A   1      47.615  26.287  29.752  1.00  0.00     0.049 A 
ATOM     73  H   UNL A   1      45.980  25.141  30.452  1.00  0.00     0.167 HD
ATOM     74  C   UNL A   1      47.995  28.015  31.533  1.00  0.00     0.074 A 
ATOM     75  C   UNL A   1      48.703  28.721  32.597  1.00  0.00     0.031 C 
ATOM     76  C   UNL A   1      48.195  26.727  31.044  1.00  0.00     0.031 A 
BRANCH  63  77
ATOM     77  C   UNL A   1      44.705  23.294  26.980  1.00  0.00    -0.014 A 
ATOM     78  C   UNL A   1      43.514  22.551  26.952  1.00  0.00     0.010 A 
ATOM     79  C   UNL A   1      45.730  22.839  26.114  1.00  0.00     0.010 A 
ATOM     80  C   UNL A   1      43.411  21.341  26.230  1.00  0.00     0.020 A 
ATOM     81  C   UNL A   1      45.676  21.597  25.461  1.00  0.00     0.020 A 
ATOM     82  C   UNL A   1      44.512  20.846  25.529  1.00  0.00     0.054 A 
BRANCH  82  83
ATOM     83  S   UNL A   1      44.410  19.234  24.697  1.00  0.00     0.124 S 
ATOM     84  O   UNL A   1      44.533  19.588  23.285  1.00  0.00    -0.237 OA
ATOM     85  O   UNL A   1      45.547  18.516  25.267  1.00  0.00    -0.237 OA
ATOM     86  O   UNL A   1      43.098  18.720  25.087  1.00  0.00    -0.744 OA
ENDBRANCH  82  83
ENDBRANCH  63  77
BRANCH  64  87
ATOM     87  C   UNL A   1      45.634  32.153  33.057  1.00  0.00    -0.014 A 
ATOM     88  C   UNL A   1      46.506  33.250  33.329  1.00  0.00     0.010 A 
ATOM     89  C   UNL A   1      44.254  32.371  33.206  1.00  0.00     0.010 A 
ATOM     90  C   UNL A   1      46.015  34.561  33.373  1.00  0.00     0.020 A 
ATOM     91  C   UNL A   1      43.756  33.689  33.300  1.00  0.00     0.020 A 
ATOM     92  C   UNL A   1      44.644  34.772  33.272  1.00  0.00     0.054 A 
BRANCH  92  93
ATOM     93  S   UNL A   1      44.075  36.446  32.821  1.00  0.00     0.124 S 
ATOM     94  O   UNL A   1      42.715  36.486  33.344  1.00  0.00    -0.237 OA
ATOM     95  O   UNL A   1      45.049  37.271  33.536  1.00  0.00    -0.237 OA
ATOM     96  O   UNL A   1      44.192  36.451  31.366  1.00  0.00    -0.744 OA
ENDBRANCH  92  93
ENDBRANCH  64  87
BRANCH  76  97
ATOM     97  C   UNL A   1      49.095  25.641  31.696  1.00  0.00    -0.014 A 
ATOM     98  C   UNL A   1      48.761  24.817  32.780  1.00  0.00     0.010 A 
ATOM     99  C   UNL A   1      50.361  25.363  31.104  1.00  0.00     0.010 A 
ATOM    100  C   UNL A   1      49.641  23.833  33.269  1.00  0.00     0.020 A 
ATOM    101  C   UNL A   1      51.227  24.358  31.545  1.00  0.00     0.020 A 
ATOM    102  C   UNL A   1      50.867  23.607  32.645  1.00  0.00     0.054 A 
BRANCH 102 103
ATOM    103  S   UNL A   1      51.943  22.280  33.234  1.00  0.00     0.124 S 
ATOM    104  O   UNL A   1      51.874  21.324  32.134  1.00  0.00    -0.237 OA
ATOM    105  O   UNL A   1      53.225  22.961  33.395  1.00  0.00    -0.237 OA
ATOM    106  O   UNL A   1      51.314  21.849  34.480  1.00  0.00    -0.744 OA
ENDBRANCH 102 103
ENDBRANCH  76  97
ENDBRANCH  50  51
ENDBRANCH  43  45
ENDBRANCH  42  43
ENDBRANCH  41  42
ENDBRANCH  40  41
ENDBRANCH  39  40
ENDBRANCH  38  39
ENDBRANCH  37  38
ENDBRANCH  36  37
ENDBRANCH   1  36
TORSDOF 27
ENDMDL
MODEL 3
REMARK VINA RESULT:     -10.2      8.498     13.819
REMARK SMILES Cc1ccccc1/[NH+]=C1\S[C@@H](CC(=O)Nc2ccc(C(=O)OCCOCCOCCOCCOC(=O)c3ccc(-c4c5nc(c(-c6ccc(S(=O)(=O)[O-])cc6)c6ccc([nH]6)c(-c6ccc(S(=O)(=O)[O-])cc6)c6nc(c(-c7ccc(S(=O)(=O)[O-])cc7)c7ccc4[nH]7)C=C6)C=C5)cc3)cc2)C(=O)N1C
REMARK SMILES IDX 27 1 26 2 25 3 24 4 23 5 22 6 20 7 21 8 19 9 16 10 17 11
REMARK SMILES IDX 98 12 18 13 97 14 15 15 13 16 14 17 12 19 11 20 8 21 9 22
REMARK SMILES IDX 10 24 101 25 99 26 102 27 100 28 7 29 1 30 2 31 3 32 4 33
REMARK SMILES IDX 6 34 5 35 28 36 29 37 30 38 31 39 32 40 33 41 34 42 35 43
REMARK SMILES IDX 36 44 37 45 38 46 96 47 39 48 95 49 40 50 41 51 42 52 89 53
REMARK SMILES IDX 43 54 94 55 88 56 90 57 44 58 93 59 87 60 86 61 45 63 75 64
REMARK SMILES IDX 56 65 74 66 57 67 60 68 73 69 91 70 58 71 59 72 72 74 92 75
REMARK SMILES IDX 61 76 46 77 47 78 55 79 48 80 54 81 49 82 50 83 51 84 52 85
REMARK SMILES IDX 53 86 76 87 77 88 85 89 78 90 84 91 79 92 80 93 81 94 82 95
REMARK SMILES IDX 83 96 62 97 63 98 71 99 64 100 70 101 65 102 66 103 67 104
REMARK SMILES IDX 68 105 69 106
REMARK H PARENT 15 18 8 23 90 62 60 73
REMARK Flexibility Score: inf
ROOT
ATOM      1  C   UNL A   1      42.120  29.536  36.048  1.00  0.00     0.188 C 
ENDROOT
BRANCH   1   2
ATOM      2  C   UNL A   1      42.137  27.803  36.216  1.00  0.00     0.188 C 
BRANCH   2   3
ATOM      3  O   UNL A   1      41.065  26.451  35.666  1.00  0.00    -0.376 OA
BRANCH   3   4
ATOM      4  C   UNL A   1      41.142  24.649  35.757  1.00  0.00     0.202 C 
BRANCH   4   5
ATOM      5  C   UNL A   1      42.524  23.480  35.138  1.00  0.00     0.261 C 
BRANCH   5   6
ATOM      6  O   UNL A   1      44.115  23.950  34.443  1.00  0.00    -0.460 OA
BRANCH   6   7
ATOM      7  C   UNL A   1      45.483  23.502  34.281  1.00  0.00     0.338 C 
ATOM      8  O   UNL A   1      46.418  23.918  33.588  1.00  0.00    -0.246 OA
BRANCH   7   9
ATOM      9  C   UNL A   1      46.150  22.508  35.121  1.00  0.00     0.060 A 
ATOM     10  C   UNL A   1      47.549  20.613  36.669  1.00  0.00     0.041 A 
ATOM     11  C   UNL A   1      47.098  21.848  37.111  1.00  0.00     0.027 A 
ATOM     12  C   UNL A   1      47.291  20.301  35.350  1.00  0.00     0.027 A 
ATOM     13  C   UNL A   1      46.319  22.753  36.429  1.00  0.00     0.018 A 
ATOM     14  C   UNL A   1      46.623  21.263  34.575  1.00  0.00     0.018 A 
BRANCH  10  15
ATOM     15  N   UNL A   1      48.312  19.781  37.513  1.00  0.00    -0.326 N 
ATOM     16  C   UNL A   1      47.950  19.117  38.666  1.00  0.00     0.226 C 
ATOM     17  O   UNL A   1      48.834  18.616  39.369  1.00  0.00    -0.275 OA
ATOM     18  H   UNL A   1      49.248  19.655  37.237  1.00  0.00     0.169 HD
BRANCH  16  19
ATOM     19  C   UNL A   1      46.489  18.899  39.061  1.00  0.00     0.128 C 
BRANCH  19  20
ATOM     20  C   UNL A   1      46.320  17.973  40.274  1.00  0.00     0.183 C 
ATOM     21  N   UNL A   1      43.904  16.535  42.750  1.00  0.00    -0.234 N 
ATOM     22  C   UNL A   1      44.406  17.174  41.765  1.00  0.00     0.319 C 
ATOM     23  H   UNL A   1      43.818  17.096  43.555  1.00  0.00     0.313 HD
ATOM     24  S   UNL A   1      44.787  16.948  40.100  1.00  0.00    -0.022 SA
ATOM     25  N   UNL A   1      44.836  18.406  42.061  1.00  0.00    -0.193 N 
ATOM     26  C   UNL A   1      46.091  18.690  41.605  1.00  0.00     0.324 C 
ATOM     27  C   UNL A   1      43.860  19.319  42.555  1.00  0.00     0.301 C 
ATOM     28  O   UNL A   1      46.897  19.434  42.147  1.00  0.00    -0.245 OA
BRANCH  21  29
ATOM     29  C   UNL A   1      43.456  15.248  42.957  1.00  0.00     0.128 A 
ATOM     30  C   UNL A   1      41.721  15.111  41.089  1.00  0.00     0.049 C 
ATOM     31  C   UNL A   1      42.463  14.559  42.260  1.00  0.00    -0.004 A 
ATOM     32  C   UNL A   1      42.152  13.245  42.644  1.00  0.00     0.008 A 
ATOM     33  C   UNL A   1      42.908  12.571  43.600  1.00  0.00     0.001 A 
ATOM     34  C   UNL A   1      44.233  14.540  43.896  1.00  0.00     0.052 A 
ATOM     35  C   UNL A   1      43.980  13.206  44.204  1.00  0.00     0.004 A 
ENDBRANCH  21  29
ENDBRANCH  19  20
ENDBRANCH  16  19
ENDBRANCH  10  15
ENDBRANCH   7   9
ENDBRANCH   6   7
ENDBRANCH   5   6
ENDBRANCH   4   5
ENDBRANCH   3   4
ENDBRANCH   2   3
ENDBRANCH   1   2
BRANCH   1  36
ATOM     36  O   UNL A   1      41.340  30.413  35.196  1.00  0.00    -0.377 OA
BRANCH  36  37
ATOM     37  C   UNL A   1      40.071  30.185  34.592  1.00  0.00     0.188 C 
BRANCH  37  38
ATOM     38  C   UNL A   1      40.159  29.976  33.130  1.00  0.00     0.188 C 
BRANCH  38  39
ATOM     39  O   UNL A   1      39.671  31.110  32.438  1.00  0.00    -0.376 OA
BRANCH  39  40
ATOM     40  C   UNL A   1      38.835  30.796  31.348  1.00  0.00     0.202 C 
BRANCH  40  41
ATOM     41  C   UNL A   1      38.179  32.056  30.763  1.00  0.00     0.261 C 
BRANCH  41  42
ATOM     42  O   UNL A   1      39.186  32.807  30.039  1.00  0.00    -0.460 OA
BRANCH  42  43
ATOM     43  C   UNL A   1      39.660  33.940  30.663  1.00  0.00     0.338 C 
ATOM     44  O   UNL A   1      38.969  34.737  31.243  1.00  0.00    -0.246 OA
BRANCH  43  45
ATOM     45  C   UNL A   1      41.141  34.022  30.425  1.00  0.00     0.060 A 
ATOM     46  C   UNL A   1      41.733  34.724  29.383  1.00  0.00     0.016 A 
ATOM     47  C   UNL A   1      41.989  33.239  31.149  1.00  0.00     0.016 A 
ATOM     48  C   UNL A   1      42.969  34.272  28.806  1.00  0.00     0.010 A 
ATOM     49  C   UNL A   1      43.241  32.918  30.600  1.00  0.00     0.010 A 
ATOM     50  C   UNL A   1      43.590  33.075  29.204  1.00  0.00    -0.014 A 
BRANCH  50  51
ATOM     51  C   UNL A   1      44.324  31.807  28.054  1.00  0.00     0.031 A 
ATOM     52  C   UNL A   1      43.603  29.991  27.672  1.00  0.00     0.074 A 
ATOM     53  C   UNL A   1      45.569  32.279  27.678  1.00  0.00     0.049 A 
ATOM     54  N   UNL A   1      44.058  28.841  28.297  1.00  0.00    -0.248 NA
ATOM     55  C   UNL A   1      42.154  29.402  27.279  1.00  0.00     0.031 C 
ATOM     56  C   UNL A   1      46.450  31.950  26.562  1.00  0.00     0.029 A 
ATOM     57  N   UNL A   1      46.378  33.182  28.391  1.00  0.00    -0.354 N 
ATOM     58  C   UNL A   1      43.359  27.685  28.118  1.00  0.00     0.074 A 
ATOM     59  C   UNL A   1      42.077  28.159  27.772  1.00  0.00     0.031 C 
ATOM     60  C   UNL A   1      47.668  32.454  26.777  1.00  0.00     0.029 A 
ATOM     61  C   UNL A   1      47.723  33.008  28.084  1.00  0.00     0.049 A 
ATOM     62  H   UNL A   1      46.036  33.853  29.026  1.00  0.00     0.167 HD
ATOM     63  C   UNL A   1      43.910  26.430  28.105  1.00  0.00     0.031 A 
ATOM     64  C   UNL A   1      48.651  32.760  29.039  1.00  0.00     0.031 A 
ATOM     65  C   UNL A   1      45.392  26.421  28.066  1.00  0.00     0.049 A 
ATOM     66  C   UNL A   1      48.996  31.299  29.378  1.00  0.00     0.074 A 
ATOM     67  C   UNL A   1      46.302  26.099  27.066  1.00  0.00     0.029 A 
ATOM     68  N   UNL A   1      46.166  27.020  29.068  1.00  0.00    -0.354 N 
ATOM     69  N   UNL A   1      48.374  30.198  28.991  1.00  0.00    -0.248 NA
ATOM     70  C   UNL A   1      50.205  30.989  30.143  1.00  0.00     0.031 C 
ATOM     71  C   UNL A   1      47.579  26.631  27.418  1.00  0.00     0.029 A 
ATOM     72  C   UNL A   1      47.478  27.283  28.644  1.00  0.00     0.049 A 
ATOM     73  H   UNL A   1      45.828  27.232  29.967  1.00  0.00     0.167 HD
ATOM     74  C   UNL A   1      48.981  29.071  29.563  1.00  0.00     0.074 A 
ATOM     75  C   UNL A   1      50.183  29.646  30.160  1.00  0.00     0.031 C 
ATOM     76  C   UNL A   1      48.538  27.751  29.569  1.00  0.00     0.031 A 
BRANCH  63  77
ATOM     77  C   UNL A   1      42.985  25.280  27.687  1.00  0.00    -0.014 A 
ATOM     78  C   UNL A   1      42.177  24.581  28.599  1.00  0.00     0.010 A 
ATOM     79  C   UNL A   1      42.973  24.788  26.358  1.00  0.00     0.010 A 
ATOM     80  C   UNL A   1      41.530  23.377  28.245  1.00  0.00     0.020 A 
ATOM     81  C   UNL A   1      42.409  23.550  26.012  1.00  0.00     0.020 A 
ATOM     82  C   UNL A   1      41.692  22.842  26.966  1.00  0.00     0.054 A 
BRANCH  82  83
ATOM     83  S   UNL A   1      40.950  21.236  26.551  1.00  0.00     0.124 S 
ATOM     84  O   UNL A   1      40.800  20.599  27.857  1.00  0.00    -0.237 OA
ATOM     85  O   UNL A   1      39.705  21.628  25.895  1.00  0.00    -0.237 OA
ATOM     86  O   UNL A   1      41.939  20.610  25.674  1.00  0.00    -0.744 OA
ENDBRANCH  82  83
ENDBRANCH  63  77
BRANCH  64  87
ATOM     87  C   UNL A   1      48.878  34.068  29.766  1.00  0.00    -0.014 A 
ATOM     88  C   UNL A   1      49.121  35.176  28.900  1.00  0.00     0.010 A 
ATOM     89  C   UNL A   1      48.194  34.323  30.968  1.00  0.00     0.010 A 
ATOM     90  C   UNL A   1      48.403  36.370  29.046  1.00  0.00     0.020 A 
ATOM     91  C   UNL A   1      47.508  35.545  31.141  1.00  0.00     0.020 A 
ATOM     92  C   UNL A   1      47.535  36.508  30.124  1.00  0.00     0.054 A 
BRANCH  92  93
ATOM     93  S   UNL A   1      46.259  37.808  30.023  1.00  0.00     0.124 S 
ATOM     94  O   UNL A   1      45.807  37.722  28.639  1.00  0.00    -0.237 OA
ATOM     95  O   UNL A   1      45.304  37.336  31.027  1.00  0.00    -0.237 OA
ATOM     96  O   UNL A   1      46.995  39.018  30.373  1.00  0.00    -0.744 OA
ENDBRANCH  92  93
ENDBRANCH  64  87
BRANCH  76  97
ATOM     97  C   UNL A   1      49.127  26.603  30.434  1.00  0.00    -0.014 A 
ATOM     98  C   UNL A   1      50.230  25.798  30.119  1.00  0.00     0.010 A 
ATOM     99  C   UNL A   1      48.572  26.373  31.726  1.00  0.00     0.010 A 
ATOM    100  C   UNL A   1      50.707  24.807  30.998  1.00  0.00     0.020 A 
ATOM    101  C   UNL A   1      49.061  25.428  32.632  1.00  0.00     0.020 A 
ATOM    102  C   UNL A   1      50.122  24.631  32.251  1.00  0.00     0.054 A 
BRANCH 102 103
ATOM    103  S   UNL A   1      50.805  23.414  33.398  1.00  0.00     0.124 S 
ATOM    104  O   UNL A   1      51.130  22.306  32.505  1.00  0.00    -0.237 OA
ATOM    105  O   UNL A   1      51.952  24.122  33.964  1.00  0.00    -0.237 OA
ATOM    106  O   UNL A   1      49.713  23.166  34.334  1.00  0.00    -0.744 OA
ENDBRANCH 102 103
ENDBRANCH  76  97
ENDBRANCH  50  51
ENDBRANCH  43  45
ENDBRANCH  42  43
ENDBRANCH  41  42
ENDBRANCH  40  41
ENDBRANCH  39  40
ENDBRANCH  38  39
ENDBRANCH  37  38
ENDBRANCH  36  37
ENDBRANCH   1  36
TORSDOF 27
ENDMDL
