MODEL 1
REMARK VINA RESULT:      -9.8      0.000      0.000
REMARK SMILES O=C(OCCOCCOCCOCCOC(=O)C1CCN(c2nc(-c3ccc(F)cc3)cc(C(F)F)n2)CC1)c1ccc(-c2c3nc(c(-c4ccc(S(=O)(=O)[O-])cc4)c4ccc([nH]4)c(-c4ccc(S(=O)(=O)[O-])cc4)c4nc(c(-c5ccc(S(=O)(=O)[O-])cc5)c5ccc2[nH]5)C=C4)C=C3)cc1
REMARK SMILES IDX 8 1 7 2 6 3 5 4 4 5 3 6 2 7 1 8 40 9 41 10 99 11 42 12 98 13
REMARK SMILES IDX 43 14 44 15 45 16 92 17 46 18 97 19 91 20 93 21 47 22 96 23
REMARK SMILES IDX 90 24 89 25 48 27 78 28 59 29 77 30 60 31 63 32 76 33 94 34
REMARK SMILES IDX 61 35 62 36 75 38 95 39 64 40 49 41 50 42 58 43 51 44 57 45
REMARK SMILES IDX 52 46 53 47 54 48 55 49 56 50 79 51 80 52 88 53 81 54 87 55
REMARK SMILES IDX 82 56 83 57 84 58 85 59 86 60 65 61 66 62 74 63 67 64 73 65
REMARK SMILES IDX 68 66 69 67 70 68 71 69 72 70 9 71 10 72 11 73 12 74 13 75
REMARK SMILES IDX 14 76 15 77 16 78 17 79 18 80 19 81 39 82 20 83 38 84 21 85
REMARK SMILES IDX 22 86 23 87 37 88 24 89 33 90 32 91 25 92 26 93 31 94 27 95
REMARK SMILES IDX 30 96 28 97 29 98 34 99 35 100 36 101
REMARK H PARENT 93 26 63 37
REMARK Flexibility Score: inf
ROOT
ATOM      1  C   UNL A   1      34.375  32.150  28.255  1.00  0.00     0.188 C 
ENDROOT
BRANCH   1   2
ATOM      2  C   UNL A   1      35.456  33.204  28.063  1.00  0.00     0.188 C 
BRANCH   2   3
ATOM      3  O   UNL A   1      34.898  34.501  27.850  1.00  0.00    -0.376 OA
BRANCH   3   4
ATOM      4  C   UNL A   1      33.484  34.625  27.995  1.00  0.00     0.202 C 
BRANCH   4   5
ATOM      5  C   UNL A   1      33.027  35.604  29.076  1.00  0.00     0.261 C 
BRANCH   5   6
ATOM      6  O   UNL A   1      32.582  34.969  30.283  1.00  0.00    -0.460 OA
BRANCH   6   7
ATOM      7  C   UNL A   1      33.169  34.951  31.506  1.00  0.00     0.338 C 
ATOM      8  O   UNL A   1      32.630  35.601  32.402  1.00  0.00    -0.246 OA
BRANCH   7   9
ATOM      9  C   UNL A   1      34.454  34.251  31.835  1.00  0.00     0.060 A 
ATOM     10  C   UNL A   1      34.582  32.919  32.228  1.00  0.00     0.016 A 
ATOM     11  C   UNL A   1      35.640  34.990  31.662  1.00  0.00     0.016 A 
ATOM     12  C   UNL A   1      35.812  32.327  32.446  1.00  0.00     0.010 A 
ATOM     13  C   UNL A   1      36.890  34.418  31.913  1.00  0.00     0.010 A 
ATOM     14  C   UNL A   1      36.966  33.087  32.330  1.00  0.00    -0.014 A 
BRANCH  14  15
ATOM     15  C   UNL A   1      38.175  32.515  32.933  1.00  0.00     0.031 A 
ATOM     16  C   UNL A   1      39.014  31.639  32.052  1.00  0.00     0.074 A 
ATOM     17  C   UNL A   1      38.599  32.946  34.133  1.00  0.00     0.049 A 
ATOM     18  N   UNL A   1      40.091  30.967  32.336  1.00  0.00    -0.248 NA
ATOM     19  C   UNL A   1      38.586  31.523  30.642  1.00  0.00     0.031 C 
ATOM     20  C   UNL A   1      37.937  33.973  34.945  1.00  0.00     0.029 A 
ATOM     21  N   UNL A   1      39.706  32.610  34.858  1.00  0.00    -0.354 N 
ATOM     22  C   UNL A   1      40.445  30.319  31.160  1.00  0.00     0.074 A 
ATOM     23  C   UNL A   1      39.475  30.677  30.153  1.00  0.00     0.031 C 
ATOM     24  C   UNL A   1      38.661  34.185  36.056  1.00  0.00     0.029 A 
ATOM     25  C   UNL A   1      39.785  33.257  36.068  1.00  0.00     0.049 A 
ATOM     26  H   UNL A   1      40.383  31.967  34.544  1.00  0.00     0.167 HD
ATOM     27  C   UNL A   1      41.486  29.482  30.956  1.00  0.00     0.031 A 
ATOM     28  C   UNL A   1      40.649  33.067  37.081  1.00  0.00     0.031 A 
ATOM     29  C   UNL A   1      42.411  29.147  32.001  1.00  0.00     0.049 A 
ATOM     30  C   UNL A   1      41.707  32.013  36.889  1.00  0.00     0.074 A 
ATOM     31  C   UNL A   1      43.449  28.239  31.984  1.00  0.00     0.029 A 
ATOM     32  N   UNL A   1      42.396  29.728  33.265  1.00  0.00    -0.354 N 
ATOM     33  N   UNL A   1      41.971  31.300  35.817  1.00  0.00    -0.248 NA
ATOM     34  C   UNL A   1      42.570  31.721  38.038  1.00  0.00     0.031 C 
ATOM     35  C   UNL A   1      44.026  28.228  33.258  1.00  0.00     0.029 A 
ATOM     36  C   UNL A   1      43.394  29.182  34.046  1.00  0.00     0.049 A 
ATOM     37  H   UNL A   1      41.766  30.425  33.558  1.00  0.00     0.167 HD
ATOM     38  C   UNL A   1      43.045  30.487  36.154  1.00  0.00     0.074 A 
ATOM     39  C   UNL A   1      43.391  30.813  37.527  1.00  0.00     0.031 C 
ATOM     40  C   UNL A   1      43.691  29.554  35.408  1.00  0.00     0.031 A 
BRANCH  27  41
ATOM     41  C   UNL A   1      41.581  28.819  29.610  1.00  0.00    -0.014 A 
ATOM     42  C   UNL A   1      40.919  27.610  29.329  1.00  0.00     0.010 A 
ATOM     43  C   UNL A   1      42.396  29.397  28.621  1.00  0.00     0.010 A 
ATOM     44  C   UNL A   1      41.104  26.972  28.098  1.00  0.00     0.020 A 
ATOM     45  C   UNL A   1      42.563  28.778  27.379  1.00  0.00     0.020 A 
ATOM     46  C   UNL A   1      41.929  27.559  27.132  1.00  0.00     0.054 A 
BRANCH  46  47
ATOM     47  S   UNL A   1      42.144  26.712  25.542  1.00  0.00     0.124 S 
ATOM     48  O   UNL A   1      40.867  26.021  25.391  1.00  0.00    -0.237 OA
ATOM     49  O   UNL A   1      42.375  27.818  24.619  1.00  0.00    -0.237 OA
ATOM     50  O   UNL A   1      43.300  25.841  25.767  1.00  0.00    -0.744 OA
ENDBRANCH  46  47
ENDBRANCH  27  41
BRANCH  28  51
ATOM     51  C   UNL A   1      40.494  33.812  38.364  1.00  0.00    -0.014 A 
ATOM     52  C   UNL A   1      41.076  35.076  38.547  1.00  0.00     0.010 A 
ATOM     53  C   UNL A   1      39.754  33.248  39.422  1.00  0.00     0.010 A 
ATOM     54  C   UNL A   1      40.940  35.753  39.766  1.00  0.00     0.020 A 
ATOM     55  C   UNL A   1      39.589  33.932  40.631  1.00  0.00     0.020 A 
ATOM     56  C   UNL A   1      40.196  35.176  40.801  1.00  0.00     0.054 A 
BRANCH  56  57
ATOM     57  S   UNL A   1      40.013  36.081  42.363  1.00  0.00     0.124 S 
ATOM     58  O   UNL A   1      41.402  36.283  42.763  1.00  0.00    -0.237 OA
ATOM     59  O   UNL A   1      39.292  37.282  41.949  1.00  0.00    -0.237 OA
ATOM     60  O   UNL A   1      39.247  35.163  43.204  1.00  0.00    -0.744 OA
ENDBRANCH  56  57
ENDBRANCH  28  51
BRANCH  40  61
ATOM     61  C   UNL A   1      44.857  28.864  36.052  1.00  0.00    -0.014 A 
ATOM     62  C   UNL A   1      46.145  29.421  36.014  1.00  0.00     0.010 A 
ATOM     63  C   UNL A   1      44.633  27.678  36.776  1.00  0.00     0.010 A 
ATOM     64  C   UNL A   1      47.199  28.789  36.672  1.00  0.00     0.020 A 
ATOM     65  C   UNL A   1      45.677  27.063  37.464  1.00  0.00     0.020 A 
ATOM     66  C   UNL A   1      46.957  27.617  37.397  1.00  0.00     0.054 A 
BRANCH  66  67
ATOM     67  S   UNL A   1      48.329  26.853  38.298  1.00  0.00     0.124 S 
ATOM     68  O   UNL A   1      47.946  27.085  39.688  1.00  0.00    -0.237 OA
ATOM     69  O   UNL A   1      48.269  25.463  37.853  1.00  0.00    -0.237 OA
ATOM     70  O   UNL A   1      49.501  27.597  37.842  1.00  0.00    -0.744 OA
ENDBRANCH  66  67
ENDBRANCH  40  61
ENDBRANCH  14  15
ENDBRANCH   7   9
ENDBRANCH   6   7
ENDBRANCH   5   6
ENDBRANCH   4   5
ENDBRANCH   3   4
ENDBRANCH   2   3
ENDBRANCH   1   2
BRANCH   1  71
ATOM     71  O   UNL A   1      34.348  31.165  27.236  1.00  0.00    -0.377 OA
BRANCH  71  72
ATOM     72  C   UNL A   1      34.347  29.817  27.676  1.00  0.00     0.188 C 
BRANCH  72  73
ATOM     73  C   UNL A   1      34.261  28.657  26.668  1.00  0.00     0.188 C 
BRANCH  73  74
ATOM     74  O   UNL A   1      33.004  28.010  26.674  1.00  0.00    -0.376 OA
BRANCH  74  75
ATOM     75  C   UNL A   1      31.914  28.815  26.245  1.00  0.00     0.202 C 
BRANCH  75  76
ATOM     76  C   UNL A   1      31.363  28.524  24.833  1.00  0.00     0.261 C 
BRANCH  76  77
ATOM     77  O   UNL A   1      32.009  27.493  24.033  1.00  0.00    -0.463 OA
BRANCH  77  78
ATOM     78  C   UNL A   1      31.291  26.869  23.069  1.00  0.00     0.309 C 
ATOM     79  O   UNL A   1      30.841  27.461  22.093  1.00  0.00    -0.252 OA
BRANCH  78  80
ATOM     80  C   UNL A   1      31.005  25.381  23.376  1.00  0.00     0.103 C 
ATOM     81  C   UNL A   1      31.083  24.804  24.811  1.00  0.00     0.037 C 
ATOM     82  C   UNL A   1      31.945  24.532  22.500  1.00  0.00     0.037 C 
ATOM     83  C   UNL A   1      32.506  24.658  25.371  1.00  0.00     0.120 C 
ATOM     84  C   UNL A   1      33.383  24.562  23.041  1.00  0.00     0.120 C 
ATOM     85  N   UNL A   1      33.349  24.021  24.385  1.00  0.00    -0.341 N 
BRANCH  85  86
ATOM     86  C   UNL A   1      34.271  23.086  24.770  1.00  0.00     0.226 A 
ATOM     87  N   UNL A   1      33.882  21.807  24.787  1.00  0.00    -0.213 NA
ATOM     88  N   UNL A   1      35.532  23.459  25.016  1.00  0.00    -0.212 NA
ATOM     89  C   UNL A   1      34.808  20.857  25.018  1.00  0.00     0.076 A 
ATOM     90  C   UNL A   1      36.447  22.505  25.314  1.00  0.00     0.112 A 
ATOM     91  C   UNL A   1      36.117  21.165  25.320  1.00  0.00     0.059 A 
BRANCH  89  92
ATOM     92  C   UNL A   1      34.342  19.478  24.817  1.00  0.00     0.001 A 
ATOM     93  C   UNL A   1      35.229  18.406  24.625  1.00  0.00     0.013 A 
ATOM     94  C   UNL A   1      32.958  19.206  24.800  1.00  0.00     0.013 A 
ATOM     95  C   UNL A   1      34.748  17.109  24.418  1.00  0.00     0.040 A 
ATOM     96  C   UNL A   1      32.476  17.915  24.585  1.00  0.00     0.040 A 
ATOM     97  C   UNL A   1      33.377  16.877  24.396  1.00  0.00     0.123 A 
ATOM     98  F   UNL A   1      32.920  15.636  24.190  1.00  0.00    -0.207 F 
ENDBRANCH  89  92
BRANCH  90  99
ATOM     99  C   UNL A   1      37.858  22.944  25.641  1.00  0.00     0.391 C 
ATOM    100  F   UNL A   1      37.917  24.080  26.391  1.00  0.00    -0.203 F 
ATOM    101  F   UNL A   1      38.568  21.999  26.317  1.00  0.00    -0.203 F 
ENDBRANCH  90  99
ENDBRANCH  85  86
ENDBRANCH  78  80
ENDBRANCH  77  78
ENDBRANCH  76  77
ENDBRANCH  75  76
ENDBRANCH  74  75
ENDBRANCH  73  74
ENDBRANCH  72  73
ENDBRANCH  71  72
ENDBRANCH   1  71
TORSDOF 26
ENDMDL
MODEL 2
REMARK VINA RESULT:      -9.8      1.350      8.190
REMARK SMILES O=C(OCCOCCOCCOCCOC(=O)C1CCN(c2nc(-c3ccc(F)cc3)cc(C(F)F)n2)CC1)c1ccc(-c2c3nc(c(-c4ccc(S(=O)(=O)[O-])cc4)c4ccc([nH]4)c(-c4ccc(S(=O)(=O)[O-])cc4)c4nc(c(-c5ccc(S(=O)(=O)[O-])cc5)c5ccc2[nH]5)C=C4)C=C3)cc1
REMARK SMILES IDX 8 1 7 2 6 3 5 4 4 5 3 6 2 7 1 8 40 9 41 10 99 11 42 12 98 13
REMARK SMILES IDX 43 14 44 15 45 16 92 17 46 18 97 19 91 20 93 21 47 22 96 23
REMARK SMILES IDX 90 24 89 25 48 27 78 28 59 29 77 30 60 31 63 32 76 33 94 34
REMARK SMILES IDX 61 35 62 36 75 38 95 39 64 40 49 41 50 42 58 43 51 44 57 45
REMARK SMILES IDX 52 46 53 47 54 48 55 49 56 50 79 51 80 52 88 53 81 54 87 55
REMARK SMILES IDX 82 56 83 57 84 58 85 59 86 60 65 61 66 62 74 63 67 64 73 65
REMARK SMILES IDX 68 66 69 67 70 68 71 69 72 70 9 71 10 72 11 73 12 74 13 75
REMARK SMILES IDX 14 76 15 77 16 78 17 79 18 80 19 81 39 82 20 83 38 84 21 85
REMARK SMILES IDX 22 86 23 87 37 88 24 89 33 90 32 91 25 92 26 93 31 94 27 95
REMARK SMILES IDX 30 96 28 97 29 98 34 99 35 100 36 101
REMARK H PARENT 93 26 63 37
REMARK Flexibility Score: inf
ROOT
ATOM      1  C   UNL A   1      33.832  31.875  28.003  1.00  0.00     0.188 C 
ENDROOT
BRANCH   1   2
ATOM      2  C   UNL A   1      35.256  32.339  28.274  1.00  0.00     0.188 C 
BRANCH   2   3
ATOM      3  O   UNL A   1      35.369  33.761  28.218  1.00  0.00    -0.376 OA
BRANCH   3   4
ATOM      4  C   UNL A   1      34.224  34.480  27.761  1.00  0.00     0.202 C 
BRANCH   4   5
ATOM      5  C   UNL A   1      33.705  35.552  28.720  1.00  0.00     0.261 C 
BRANCH   5   6
ATOM      6  O   UNL A   1      32.835  35.044  29.741  1.00  0.00    -0.460 OA
BRANCH   6   7
ATOM      7  C   UNL A   1      33.028  34.997  31.083  1.00  0.00     0.338 C 
ATOM      8  O   UNL A   1      32.140  35.462  31.799  1.00  0.00    -0.246 OA
BRANCH   7   9
ATOM      9  C   UNL A   1      34.262  34.478  31.759  1.00  0.00     0.060 A 
ATOM     10  C   UNL A   1      35.313  35.253  32.248  1.00  0.00     0.016 A 
ATOM     11  C   UNL A   1      34.327  33.090  31.978  1.00  0.00     0.016 A 
ATOM     12  C   UNL A   1      36.386  34.702  32.924  1.00  0.00     0.010 A 
ATOM     13  C   UNL A   1      35.421  32.512  32.628  1.00  0.00     0.010 A 
ATOM     14  C   UNL A   1      36.463  33.327  33.077  1.00  0.00    -0.014 A 
BRANCH  14  15
ATOM     15  C   UNL A   1      37.777  32.793  33.453  1.00  0.00     0.031 A 
ATOM     16  C   UNL A   1      38.184  32.959  34.886  1.00  0.00     0.074 A 
ATOM     17  C   UNL A   1      38.458  32.012  32.596  1.00  0.00     0.049 A 
ATOM     18  N   UNL A   1      39.300  32.637  35.472  1.00  0.00    -0.248 NA
ATOM     19  C   UNL A   1      37.178  33.554  35.789  1.00  0.00     0.031 C 
ATOM     20  C   UNL A   1      38.002  31.629  31.256  1.00  0.00     0.029 A 
ATOM     21  N   UNL A   1      39.652  31.367  32.740  1.00  0.00    -0.354 N 
ATOM     22  C   UNL A   1      39.147  33.025  36.797  1.00  0.00     0.074 A 
ATOM     23  C   UNL A   1      37.832  33.603  36.936  1.00  0.00     0.031 C 
ATOM     24  C   UNL A   1      38.908  30.806  30.705  1.00  0.00     0.029 A 
ATOM     25  C   UNL A   1      40.037  30.673  31.617  1.00  0.00     0.049 A 
ATOM     26  H   UNL A   1      40.186  31.395  33.567  1.00  0.00     0.167 HD
ATOM     27  C   UNL A   1      40.046  32.919  37.800  1.00  0.00     0.031 A 
ATOM     28  C   UNL A   1      41.200  30.050  31.358  1.00  0.00     0.031 A 
ATOM     29  C   UNL A   1      41.348  32.350  37.601  1.00  0.00     0.049 A 
ATOM     30  C   UNL A   1      42.250  30.082  32.438  1.00  0.00     0.074 A 
ATOM     31  C   UNL A   1      42.405  32.268  38.483  1.00  0.00     0.029 A 
ATOM     32  N   UNL A   1      41.762  31.761  36.410  1.00  0.00    -0.354 N 
ATOM     33  N   UNL A   1      42.157  30.563  33.659  1.00  0.00    -0.248 NA
ATOM     34  C   UNL A   1      43.559  29.511  32.110  1.00  0.00     0.031 C 
ATOM     35  C   UNL A   1      43.479  31.679  37.807  1.00  0.00     0.029 A 
ATOM     36  C   UNL A   1      43.068  31.330  36.527  1.00  0.00     0.049 A 
ATOM     37  H   UNL A   1      41.205  31.665  35.605  1.00  0.00     0.167 HD
ATOM     38  C   UNL A   1      43.391  30.334  34.253  1.00  0.00     0.074 A 
ATOM     39  C   UNL A   1      44.205  29.655  33.259  1.00  0.00     0.031 C 
ATOM     40  C   UNL A   1      43.823  30.653  35.500  1.00  0.00     0.031 A 
BRANCH  27  41
ATOM     41  C   UNL A   1      39.672  33.524  39.124  1.00  0.00    -0.014 A 
ATOM     42  C   UNL A   1      40.079  34.819  39.491  1.00  0.00     0.010 A 
ATOM     43  C   UNL A   1      38.938  32.754  40.044  1.00  0.00     0.010 A 
ATOM     44  C   UNL A   1      39.793  35.316  40.768  1.00  0.00     0.020 A 
ATOM     45  C   UNL A   1      38.626  33.255  41.310  1.00  0.00     0.020 A 
ATOM     46  C   UNL A   1      39.072  34.528  41.671  1.00  0.00     0.054 A 
BRANCH  46  47
ATOM     47  S   UNL A   1      38.710  35.201  43.317  1.00  0.00     0.124 S 
ATOM     48  O   UNL A   1      37.252  35.130  43.359  1.00  0.00    -0.237 OA
ATOM     49  O   UNL A   1      39.411  34.278  44.201  1.00  0.00    -0.237 OA
ATOM     50  O   UNL A   1      39.265  36.555  43.266  1.00  0.00    -0.744 OA
ENDBRANCH  46  47
ENDBRANCH  27  41
BRANCH  28  51
ATOM     51  C   UNL A   1      41.456  29.439  30.022  1.00  0.00    -0.014 A 
ATOM     52  C   UNL A   1      42.116  30.154  29.009  1.00  0.00     0.010 A 
ATOM     53  C   UNL A   1      41.033  28.123  29.754  1.00  0.00     0.010 A 
ATOM     54  C   UNL A   1      42.328  29.575  27.751  1.00  0.00     0.020 A 
ATOM     55  C   UNL A   1      41.270  27.528  28.511  1.00  0.00     0.020 A 
ATOM     56  C   UNL A   1      41.904  28.264  27.510  1.00  0.00     0.054 A 
BRANCH  56  57
ATOM     57  S   UNL A   1      42.211  27.525  25.881  1.00  0.00     0.124 S 
ATOM     58  O   UNL A   1      42.159  28.690  25.004  1.00  0.00    -0.237 OA
ATOM     59  O   UNL A   1      43.530  26.920  26.054  1.00  0.00    -0.237 OA
ATOM     60  O   UNL A   1      41.113  26.572  25.724  1.00  0.00    -0.744 OA
ENDBRANCH  56  57
ENDBRANCH  28  51
BRANCH  40  61
ATOM     61  C   UNL A   1      45.215  30.228  35.863  1.00  0.00    -0.014 A 
ATOM     62  C   UNL A   1      46.322  31.047  35.588  1.00  0.00     0.010 A 
ATOM     63  C   UNL A   1      45.398  29.022  36.565  1.00  0.00     0.010 A 
ATOM     64  C   UNL A   1      47.597  30.654  35.991  1.00  0.00     0.020 A 
ATOM     65  C   UNL A   1      46.667  28.644  37.000  1.00  0.00     0.020 A 
ATOM     66  C   UNL A   1      47.761  29.458  36.699  1.00  0.00     0.054 A 
BRANCH  66  67
ATOM     67  S   UNL A   1      49.419  29.005  37.269  1.00  0.00     0.124 S 
ATOM     68  O   UNL A   1      49.496  29.693  38.554  1.00  0.00    -0.237 OA
ATOM     69  O   UNL A   1      49.345  27.548  37.339  1.00  0.00    -0.237 OA
ATOM     70  O   UNL A   1      50.299  29.528  36.227  1.00  0.00    -0.744 OA
ENDBRANCH  66  67
ENDBRANCH  40  61
ENDBRANCH  14  15
ENDBRANCH   7   9
ENDBRANCH   6   7
ENDBRANCH   5   6
ENDBRANCH   4   5
ENDBRANCH   3   4
ENDBRANCH   2   3
ENDBRANCH   1   2
BRANCH   1  71
ATOM     71  O   UNL A   1      33.729  30.915  26.966  1.00  0.00    -0.377 OA
BRANCH  71  72
ATOM     72  C   UNL A   1      32.640  30.011  27.063  1.00  0.00     0.188 C 
BRANCH  72  73
ATOM     73  C   UNL A   1      32.248  29.116  25.873  1.00  0.00     0.188 C 
BRANCH  73  74
ATOM     74  O   UNL A   1      31.179  29.644  25.113  1.00  0.00    -0.376 OA
BRANCH  74  75
ATOM     75  C   UNL A   1      31.185  29.282  23.739  1.00  0.00     0.202 C 
BRANCH  75  76
ATOM     76  C   UNL A   1      30.265  28.110  23.336  1.00  0.00     0.261 C 
BRANCH  76  77
ATOM     77  O   UNL A   1      30.642  26.762  23.737  1.00  0.00    -0.463 OA
BRANCH  77  78
ATOM     78  C   UNL A   1      29.912  26.137  24.691  1.00  0.00     0.309 C 
ATOM     79  O   UNL A   1      28.687  26.079  24.655  1.00  0.00    -0.252 OA
BRANCH  78  80
ATOM     80  C   UNL A   1      30.760  25.607  25.870  1.00  0.00     0.103 C 
ATOM     81  C   UNL A   1      32.285  25.859  25.969  1.00  0.00     0.037 C 
ATOM     82  C   UNL A   1      30.552  24.084  25.952  1.00  0.00     0.037 C 
ATOM     83  C   UNL A   1      33.138  25.052  24.978  1.00  0.00     0.120 C 
ATOM     84  C   UNL A   1      31.316  23.360  24.832  1.00  0.00     0.120 C 
ATOM     85  N   UNL A   1      32.722  23.668  25.000  1.00  0.00    -0.341 N 
BRANCH  85  86
ATOM     86  C   UNL A   1      33.654  22.669  24.937  1.00  0.00     0.226 A 
ATOM     87  N   UNL A   1      34.929  22.999  25.173  1.00  0.00    -0.213 NA
ATOM     88  N   UNL A   1      33.261  21.405  24.744  1.00  0.00    -0.212 NA
ATOM     89  C   UNL A   1      35.840  22.012  25.262  1.00  0.00     0.076 A 
ATOM     90  C   UNL A   1      34.193  20.422  24.769  1.00  0.00     0.112 A 
ATOM     91  C   UNL A   1      35.520  20.691  25.034  1.00  0.00     0.059 A 
BRANCH  89  92
ATOM     92  C   UNL A   1      37.169  22.439  25.724  1.00  0.00     0.001 A 
ATOM     93  C   UNL A   1      37.432  23.755  26.139  1.00  0.00     0.013 A 
ATOM     94  C   UNL A   1      38.231  21.511  25.743  1.00  0.00     0.013 A 
ATOM     95  C   UNL A   1      38.715  24.130  26.555  1.00  0.00     0.040 A 
ATOM     96  C   UNL A   1      39.512  21.885  26.148  1.00  0.00     0.040 A 
ATOM     97  C   UNL A   1      39.742  23.192  26.551  1.00  0.00     0.123 A 
ATOM     98  F   UNL A   1      40.970  23.557  26.942  1.00  0.00    -0.207 F 
ENDBRANCH  89  92
BRANCH  90  99
ATOM     99  C   UNL A   1      33.743  19.002  24.498  1.00  0.00     0.391 C 
ATOM    100  F   UNL A   1      33.156  18.401  25.572  1.00  0.00    -0.203 F 
ATOM    101  F   UNL A   1      32.853  18.911  23.471  1.00  0.00    -0.203 F 
ENDBRANCH  90  99
ENDBRANCH  85  86
ENDBRANCH  78  80
ENDBRANCH  77  78
ENDBRANCH  76  77
ENDBRANCH  75  76
ENDBRANCH  74  75
ENDBRANCH  73  74
ENDBRANCH  72  73
ENDBRANCH  71  72
ENDBRANCH   1  71
TORSDOF 26
ENDMDL
MODEL 3
REMARK VINA RESULT:      -9.6      1.080      2.835
REMARK SMILES O=C(OCCOCCOCCOCCOC(=O)C1CCN(c2nc(-c3ccc(F)cc3)cc(C(F)F)n2)CC1)c1ccc(-c2c3nc(c(-c4ccc(S(=O)(=O)[O-])cc4)c4ccc([nH]4)c(-c4ccc(S(=O)(=O)[O-])cc4)c4nc(c(-c5ccc(S(=O)(=O)[O-])cc5)c5ccc2[nH]5)C=C4)C=C3)cc1
REMARK SMILES IDX 8 1 7 2 6 3 5 4 4 5 3 6 2 7 1 8 40 9 41 10 99 11 42 12 98 13
REMARK SMILES IDX 43 14 44 15 45 16 92 17 46 18 97 19 91 20 93 21 47 22 96 23
REMARK SMILES IDX 90 24 89 25 48 27 78 28 59 29 77 30 60 31 63 32 76 33 94 34
REMARK SMILES IDX 61 35 62 36 75 38 95 39 64 40 49 41 50 42 58 43 51 44 57 45
REMARK SMILES IDX 52 46 53 47 54 48 55 49 56 50 79 51 80 52 88 53 81 54 87 55
REMARK SMILES IDX 82 56 83 57 84 58 85 59 86 60 65 61 66 62 74 63 67 64 73 65
REMARK SMILES IDX 68 66 69 67 70 68 71 69 72 70 9 71 10 72 11 73 12 74 13 75
REMARK SMILES IDX 14 76 15 77 16 78 17 79 18 80 19 81 39 82 20 83 38 84 21 85
REMARK SMILES IDX 22 86 23 87 37 88 24 89 33 90 32 91 25 92 26 93 31 94 27 95
REMARK SMILES IDX 30 96 28 97 29 98 34 99 35 100 36 101
REMARK H PARENT 93 26 63 37
REMARK Flexibility Score: inf
ROOT
ATOM      1  C   UNL A   1      33.256  30.280  27.518  1.00  0.00     0.188 C 
ENDROOT
BRANCH   1   2
ATOM      2  C   UNL A   1      34.614  30.959  27.402  1.00  0.00     0.188 C 
BRANCH   2   3
ATOM      3  O   UNL A   1      34.569  32.313  27.850  1.00  0.00    -0.376 OA
BRANCH   3   4
ATOM      4  C   UNL A   1      33.322  32.994  27.718  1.00  0.00     0.202 C 
BRANCH   4   5
ATOM      5  C   UNL A   1      33.297  34.416  28.278  1.00  0.00     0.261 C 
BRANCH   5   6
ATOM      6  O   UNL A   1      32.757  34.507  29.603  1.00  0.00    -0.460 OA
BRANCH   6   7
ATOM      7  C   UNL A   1      33.401  34.742  30.774  1.00  0.00     0.338 C 
ATOM      8  O   UNL A   1      32.940  35.616  31.509  1.00  0.00    -0.246 OA
BRANCH   7   9
ATOM      9  C   UNL A   1      34.664  34.063  31.214  1.00  0.00     0.060 A 
ATOM     10  C   UNL A   1      34.748  32.815  31.831  1.00  0.00     0.016 A 
ATOM     11  C   UNL A   1      35.873  34.716  30.913  1.00  0.00     0.016 A 
ATOM     12  C   UNL A   1      35.958  32.224  32.143  1.00  0.00     0.010 A 
ATOM     13  C   UNL A   1      37.105  34.150  31.254  1.00  0.00     0.010 A 
ATOM     14  C   UNL A   1      37.137  32.909  31.894  1.00  0.00    -0.014 A 
BRANCH  14  15
ATOM     15  C   UNL A   1      38.331  32.406  32.582  1.00  0.00     0.031 A 
ATOM     16  C   UNL A   1      39.283  31.587  31.763  1.00  0.00     0.074 A 
ATOM     17  C   UNL A   1      38.640  32.853  33.811  1.00  0.00     0.049 A 
ATOM     18  N   UNL A   1      40.375  30.979  32.123  1.00  0.00    -0.248 NA
ATOM     19  C   UNL A   1      38.966  31.457  30.325  1.00  0.00     0.031 C 
ATOM     20  C   UNL A   1      37.860  33.832  34.576  1.00  0.00     0.029 A 
ATOM     21  N   UNL A   1      39.709  32.577  34.615  1.00  0.00    -0.354 N 
ATOM     22  C   UNL A   1      40.852  30.362  30.974  1.00  0.00     0.074 A 
ATOM     23  C   UNL A   1      39.938  30.669  29.900  1.00  0.00     0.031 C 
ATOM     24  C   UNL A   1      38.488  34.079  35.738  1.00  0.00     0.029 A 
ATOM     25  C   UNL A   1      39.661  33.219  35.829  1.00  0.00     0.049 A 
ATOM     26  H   UNL A   1      40.444  31.978  34.349  1.00  0.00     0.167 HD
ATOM     27  C   UNL A   1      41.953  29.590  30.845  1.00  0.00     0.031 A 
ATOM     28  C   UNL A   1      40.459  33.074  36.902  1.00  0.00     0.031 A 
ATOM     29  C   UNL A   1      42.818  29.303  31.953  1.00  0.00     0.049 A 
ATOM     30  C   UNL A   1      41.589  32.085  36.786  1.00  0.00     0.074 A 
ATOM     31  C   UNL A   1      43.906  28.458  32.009  1.00  0.00     0.029 A 
ATOM     32  N   UNL A   1      42.675  29.871  33.214  1.00  0.00    -0.354 N 
ATOM     33  N   UNL A   1      41.973  31.397  35.733  1.00  0.00    -0.248 NA
ATOM     34  C   UNL A   1      42.382  31.837  37.993  1.00  0.00     0.031 C 
ATOM     35  C   UNL A   1      44.388  28.472  33.322  1.00  0.00     0.029 A 
ATOM     36  C   UNL A   1      43.644  29.380  34.065  1.00  0.00     0.049 A 
ATOM     37  H   UNL A   1      41.986  30.528  33.463  1.00  0.00     0.167 HD
ATOM     38  C   UNL A   1      43.066  30.647  36.145  1.00  0.00     0.074 A 
ATOM     39  C   UNL A   1      43.290  30.983  37.541  1.00  0.00     0.031 C 
ATOM     40  C   UNL A   1      43.819  29.759  35.446  1.00  0.00     0.031 A 
BRANCH  27  41
ATOM     41  C   UNL A   1      42.185  28.944  29.507  1.00  0.00    -0.014 A 
ATOM     42  C   UNL A   1      43.102  29.467  28.578  1.00  0.00     0.010 A 
ATOM     43  C   UNL A   1      41.425  27.814  29.154  1.00  0.00     0.010 A 
ATOM     44  C   UNL A   1      43.226  28.896  27.307  1.00  0.00     0.020 A 
ATOM     45  C   UNL A   1      41.564  27.224  27.895  1.00  0.00     0.020 A 
ATOM     46  C   UNL A   1      42.452  27.780  26.972  1.00  0.00     0.054 A 
BRANCH  46  47
ATOM     47  S   UNL A   1      42.638  27.057  25.318  1.00  0.00     0.124 S 
ATOM     48  O   UNL A   1      41.548  26.086  25.288  1.00  0.00    -0.237 OA
ATOM     49  O   UNL A   1      42.478  28.212  24.444  1.00  0.00    -0.237 OA
ATOM     50  O   UNL A   1      43.984  26.479  25.343  1.00  0.00    -0.744 OA
ENDBRANCH  46  47
ENDBRANCH  27  41
BRANCH  28  51
ATOM     51  C   UNL A   1      40.166  33.798  38.173  1.00  0.00    -0.014 A 
ATOM     52  C   UNL A   1      40.790  35.019  38.475  1.00  0.00     0.010 A 
ATOM     53  C   UNL A   1      39.250  33.259  39.098  1.00  0.00     0.010 A 
ATOM     54  C   UNL A   1      40.521  35.676  39.683  1.00  0.00     0.020 A 
ATOM     55  C   UNL A   1      38.955  33.926  40.291  1.00  0.00     0.020 A 
ATOM     56  C   UNL A   1      39.605  35.125  40.584  1.00  0.00     0.054 A 
BRANCH  56  57
ATOM     57  S   UNL A   1      39.254  36.005  42.132  1.00  0.00     0.124 S 
ATOM     58  O   UNL A   1      37.891  35.573  42.425  1.00  0.00    -0.237 OA
ATOM     59  O   UNL A   1      40.287  35.491  43.027  1.00  0.00    -0.237 OA
ATOM     60  O   UNL A   1      39.399  37.413  41.767  1.00  0.00    -0.744 OA
ENDBRANCH  56  57
ENDBRANCH  28  51
BRANCH  40  61
ATOM     61  C   UNL A   1      44.974  29.135  36.171  1.00  0.00    -0.014 A 
ATOM     62  C   UNL A   1      46.232  29.757  36.210  1.00  0.00     0.010 A 
ATOM     63  C   UNL A   1      44.763  27.945  36.893  1.00  0.00     0.010 A 
ATOM     64  C   UNL A   1      47.272  29.185  36.943  1.00  0.00     0.020 A 
ATOM     65  C   UNL A   1      45.790  27.390  37.654  1.00  0.00     0.020 A 
ATOM     66  C   UNL A   1      47.042  28.008  37.664  1.00  0.00     0.054 A 
BRANCH  66  67
ATOM     67  S   UNL A   1      48.390  27.322  38.660  1.00  0.00     0.124 S 
ATOM     68  O   UNL A   1      48.732  28.448  39.523  1.00  0.00    -0.237 OA
ATOM     69  O   UNL A   1      47.750  26.190  39.326  1.00  0.00    -0.237 OA
ATOM     70  O   UNL A   1      49.404  26.963  37.671  1.00  0.00    -0.744 OA
ENDBRANCH  66  67
ENDBRANCH  40  61
ENDBRANCH  14  15
ENDBRANCH   7   9
ENDBRANCH   6   7
ENDBRANCH   5   6
ENDBRANCH   4   5
ENDBRANCH   3   4
ENDBRANCH   2   3
ENDBRANCH   1   2
BRANCH   1  71
ATOM     71  O   UNL A   1      32.973  29.381  26.461  1.00  0.00    -0.377 OA
BRANCH  71  72
ATOM     72  C   UNL A   1      31.703  29.526  25.846  1.00  0.00     0.188 C 
BRANCH  72  73
ATOM     73  C   UNL A   1      31.488  29.132  24.374  1.00  0.00     0.188 C 
BRANCH  73  74
ATOM     74  O   UNL A   1      32.679  29.167  23.612  1.00  0.00    -0.376 OA
BRANCH  74  75
ATOM     75  C   UNL A   1      32.921  28.010  22.824  1.00  0.00     0.202 C 
BRANCH  75  76
ATOM     76  C   UNL A   1      31.675  27.242  22.336  1.00  0.00     0.261 C 
BRANCH  76  77
ATOM     77  O   UNL A   1      31.390  25.937  22.918  1.00  0.00    -0.463 OA
BRANCH  77  78
ATOM     78  C   UNL A   1      30.419  25.839  23.856  1.00  0.00     0.309 C 
ATOM     79  O   UNL A   1      29.321  26.373  23.730  1.00  0.00    -0.252 OA
BRANCH  78  80
ATOM     80  C   UNL A   1      30.866  25.090  25.132  1.00  0.00     0.103 C 
ATOM     81  C   UNL A   1      32.250  25.328  25.788  1.00  0.00     0.037 C 
ATOM     82  C   UNL A   1      30.757  23.580  24.853  1.00  0.00     0.037 C 
ATOM     83  C   UNL A   1      33.440  24.742  25.012  1.00  0.00     0.120 C 
ATOM     84  C   UNL A   1      31.900  23.100  23.945  1.00  0.00     0.120 C 
ATOM     85  N   UNL A   1      33.144  23.378  24.634  1.00  0.00    -0.341 N 
BRANCH  85  86
ATOM     86  C   UNL A   1      34.116  22.418  24.706  1.00  0.00     0.226 A 
ATOM     87  N   UNL A   1      35.352  22.815  25.030  1.00  0.00    -0.213 NA
ATOM     88  N   UNL A   1      33.790  21.130  24.551  1.00  0.00    -0.212 NA
ATOM     89  C   UNL A   1      36.290  21.876  25.251  1.00  0.00     0.076 A 
ATOM     90  C   UNL A   1      34.754  20.191  24.709  1.00  0.00     0.112 A 
ATOM     91  C   UNL A   1      36.041  20.531  25.071  1.00  0.00     0.059 A 
BRANCH  89  92
ATOM     92  C   UNL A   1      37.555  22.383  25.798  1.00  0.00     0.001 A 
ATOM     93  C   UNL A   1      38.695  21.573  25.931  1.00  0.00     0.013 A 
ATOM     94  C   UNL A   1      37.641  23.726  26.223  1.00  0.00     0.013 A 
ATOM     95  C   UNL A   1      39.878  22.087  26.474  1.00  0.00     0.040 A 
ATOM     96  C   UNL A   1      38.817  24.237  26.773  1.00  0.00     0.040 A 
ATOM     97  C   UNL A   1      39.925  23.412  26.894  1.00  0.00     0.123 A 
ATOM     98  F   UNL A   1      41.056  23.897  27.421  1.00  0.00    -0.207 F 
ENDBRANCH  89  92
BRANCH  90  99
ATOM     99  C   UNL A   1      34.385  18.742  24.482  1.00  0.00     0.391 C 
ATOM    100  F   UNL A   1      35.436  17.883  24.612  1.00  0.00    -0.203 F 
ATOM    101  F   UNL A   1      33.417  18.297  25.331  1.00  0.00    -0.203 F 
ENDBRANCH  90  99
ENDBRANCH  85  86
ENDBRANCH  78  80
ENDBRANCH  77  78
ENDBRANCH  76  77
ENDBRANCH  75  76
ENDBRANCH  74  75
ENDBRANCH  73  74
ENDBRANCH  72  73
ENDBRANCH  71  72
ENDBRANCH   1  71
TORSDOF 26
ENDMDL
