MODEL 1
REMARK VINA RESULT:      -9.2      0.000      0.000
REMARK SMILES O=C(OCCOCCOCCOCCOC(=O)[C@]1(C2CCCC2)CCOc2ccccc21)c1ccc(-c2c3nc(c(-c4ccc(S(=O)(=O)[O-])cc4)c4ccc([nH]4)c(-c4ccc(S(=O)(=O)[O-])cc4)c4nc(c(-c5ccc(S(=O)(=O)[O-])cc5)c5ccc2[nH]5)C=C4)C=C3)cc1
REMARK SMILES IDX 8 1 7 2 6 3 5 4 4 5 3 6 2 7 1 8 33 9 34 10 92 11 35 12 91 13
REMARK SMILES IDX 36 14 37 15 38 16 85 17 39 18 90 19 84 20 86 21 40 22 89 23
REMARK SMILES IDX 83 24 82 25 41 27 71 28 52 29 70 30 53 31 56 32 69 33 87 34
REMARK SMILES IDX 54 35 55 36 68 38 88 39 57 40 42 41 43 42 51 43 44 44 50 45
REMARK SMILES IDX 45 46 46 47 47 48 48 49 49 50 72 51 73 52 81 53 74 54 80 55
REMARK SMILES IDX 75 56 76 57 77 58 78 59 79 60 58 61 59 62 67 63 60 64 66 65
REMARK SMILES IDX 61 66 62 67 63 68 64 69 65 70 9 71 10 72 11 73 12 74 13 75
REMARK SMILES IDX 14 76 15 77 16 78 17 79 18 80 24 81 32 82 25 83 27 84 31 85
REMARK SMILES IDX 26 86 28 87 30 88 29 89 19 90 20 91 23 92 21 93 22 94
REMARK H PARENT 86 26 56 37
REMARK Flexibility Score: inf
ROOT
ATOM      1  C   UNL A   1      37.601  20.151  24.609  1.00  0.00     0.188 C 
ENDROOT
BRANCH   1   2
ATOM      2  C   UNL A   1      38.507  19.309  25.516  1.00  0.00     0.188 C 
BRANCH   2   3
ATOM      3  O   UNL A   1      39.888  19.638  25.347  1.00  0.00    -0.376 OA
BRANCH   3   4
ATOM      4  C   UNL A   1      40.736  19.701  26.496  1.00  0.00     0.202 C 
BRANCH   4   5
ATOM      5  C   UNL A   1      40.914  21.074  27.127  1.00  0.00     0.261 C 
BRANCH   5   6
ATOM      6  O   UNL A   1      40.637  22.164  26.245  1.00  0.00    -0.460 OA
BRANCH   6   7
ATOM      7  C   UNL A   1      39.735  23.165  26.380  1.00  0.00     0.338 C 
ATOM      8  O   UNL A   1      38.664  23.043  25.785  1.00  0.00    -0.246 OA
BRANCH   7   9
ATOM      9  C   UNL A   1      39.958  24.436  27.144  1.00  0.00     0.060 A 
ATOM     10  C   UNL A   1      40.753  25.507  26.742  1.00  0.00     0.016 A 
ATOM     11  C   UNL A   1      39.217  24.595  28.327  1.00  0.00     0.016 A 
ATOM     12  C   UNL A   1      40.779  26.710  27.416  1.00  0.00     0.010 A 
ATOM     13  C   UNL A   1      39.277  25.783  29.058  1.00  0.00     0.010 A 
ATOM     14  C   UNL A   1      40.060  26.840  28.588  1.00  0.00    -0.014 A 
BRANCH  14  15
ATOM     15  C   UNL A   1      40.370  28.019  29.393  1.00  0.00     0.031 A 
ATOM     16  C   UNL A   1      41.687  28.019  30.095  1.00  0.00     0.074 A 
ATOM     17  C   UNL A   1      39.582  29.104  29.316  1.00  0.00     0.049 A 
ATOM     18  N   UNL A   1      42.157  28.866  30.962  1.00  0.00    -0.248 NA
ATOM     19  C   UNL A   1      42.617  26.919  29.758  1.00  0.00     0.031 C 
ATOM     20  C   UNL A   1      38.409  29.239  28.445  1.00  0.00     0.029 A 
ATOM     21  N   UNL A   1      39.662  30.306  29.958  1.00  0.00    -0.354 N 
ATOM     22  C   UNL A   1      43.399  28.365  31.327  1.00  0.00     0.074 A 
ATOM     23  C   UNL A   1      43.640  27.171  30.557  1.00  0.00     0.031 C 
ATOM     24  C   UNL A   1      37.863  30.453  28.632  1.00  0.00     0.029 A 
ATOM     25  C   UNL A   1      38.595  31.133  29.692  1.00  0.00     0.049 A 
ATOM     26  H   UNL A   1      40.407  30.557  30.549  1.00  0.00     0.167 HD
ATOM     27  C   UNL A   1      44.228  28.856  32.270  1.00  0.00     0.031 A 
ATOM     28  C   UNL A   1      38.225  32.267  30.315  1.00  0.00     0.031 A 
ATOM     29  C   UNL A   1      43.917  30.045  33.009  1.00  0.00     0.049 A 
ATOM     30  C   UNL A   1      39.095  32.721  31.459  1.00  0.00     0.074 A 
ATOM     31  C   UNL A   1      44.617  30.631  34.042  1.00  0.00     0.029 A 
ATOM     32  N   UNL A   1      42.785  30.821  32.784  1.00  0.00    -0.354 N 
ATOM     33  N   UNL A   1      40.235  32.213  31.876  1.00  0.00    -0.248 NA
ATOM     34  C   UNL A   1      38.625  33.870  32.238  1.00  0.00     0.031 C 
ATOM     35  C   UNL A   1      43.870  31.726  34.488  1.00  0.00     0.029 A 
ATOM     36  C   UNL A   1      42.741  31.861  33.689  1.00  0.00     0.049 A 
ATOM     37  H   UNL A   1      42.115  30.653  32.084  1.00  0.00     0.167 HD
ATOM     38  C   UNL A   1      40.622  32.983  32.963  1.00  0.00     0.074 A 
ATOM     39  C   UNL A   1      39.608  34.011  33.118  1.00  0.00     0.031 C 
ATOM     40  C   UNL A   1      41.703  32.858  33.773  1.00  0.00     0.031 A 
BRANCH  27  41
ATOM     41  C   UNL A   1      45.433  28.038  32.629  1.00  0.00    -0.014 A 
ATOM     42  C   UNL A   1      45.381  27.001  33.576  1.00  0.00     0.010 A 
ATOM     43  C   UNL A   1      46.658  28.336  32.003  1.00  0.00     0.010 A 
ATOM     44  C   UNL A   1      46.539  26.283  33.896  1.00  0.00     0.020 A 
ATOM     45  C   UNL A   1      47.810  27.609  32.304  1.00  0.00     0.020 A 
ATOM     46  C   UNL A   1      47.744  26.590  33.255  1.00  0.00     0.054 A 
BRANCH  46  47
ATOM     47  S   UNL A   1      49.216  25.607  33.649  1.00  0.00     0.124 S 
ATOM     48  O   UNL A   1      49.399  24.829  32.426  1.00  0.00    -0.237 OA
ATOM     49  O   UNL A   1      50.226  26.634  33.897  1.00  0.00    -0.237 OA
ATOM     50  O   UNL A   1      48.816  24.836  34.823  1.00  0.00    -0.744 OA
ENDBRANCH  46  47
ENDBRANCH  27  41
BRANCH  28  51
ATOM     51  C   UNL A   1      36.938  32.941  29.983  1.00  0.00    -0.014 A 
ATOM     52  C   UNL A   1      36.846  33.862  28.927  1.00  0.00     0.010 A 
ATOM     53  C   UNL A   1      35.790  32.688  30.761  1.00  0.00     0.010 A 
ATOM     54  C   UNL A   1      35.647  34.543  28.680  1.00  0.00     0.020 A 
ATOM     55  C   UNL A   1      34.581  33.340  30.496  1.00  0.00     0.020 A 
ATOM     56  C   UNL A   1      34.524  34.281  29.470  1.00  0.00     0.054 A 
BRANCH  56  57
ATOM     57  S   UNL A   1      32.984  35.183  29.141  1.00  0.00     0.124 S 
ATOM     58  O   UNL A   1      32.386  34.383  28.077  1.00  0.00    -0.237 OA
ATOM     59  O   UNL A   1      32.304  35.129  30.432  1.00  0.00    -0.237 OA
ATOM     60  O   UNL A   1      33.443  36.512  28.742  1.00  0.00    -0.744 OA
ENDBRANCH  56  57
ENDBRANCH  28  51
BRANCH  40  61
ATOM     61  C   UNL A   1      41.846  33.868  34.870  1.00  0.00    -0.014 A 
ATOM     62  C   UNL A   1      41.412  33.578  36.173  1.00  0.00     0.010 A 
ATOM     63  C   UNL A   1      42.532  35.068  34.611  1.00  0.00     0.010 A 
ATOM     64  C   UNL A   1      41.660  34.480  37.206  1.00  0.00     0.020 A 
ATOM     65  C   UNL A   1      42.811  35.956  35.646  1.00  0.00     0.020 A 
ATOM     66  C   UNL A   1      42.368  35.657  36.937  1.00  0.00     0.054 A 
BRANCH  66  67
ATOM     67  S   UNL A   1      42.763  36.764  38.315  1.00  0.00     0.124 S 
ATOM     68  O   UNL A   1      41.445  37.274  38.680  1.00  0.00    -0.237 OA
ATOM     69  O   UNL A   1      43.380  35.860  39.282  1.00  0.00    -0.237 OA
ATOM     70  O   UNL A   1      43.669  37.745  37.722  1.00  0.00    -0.744 OA
ENDBRANCH  66  67
ENDBRANCH  40  61
ENDBRANCH  14  15
ENDBRANCH   7   9
ENDBRANCH   6   7
ENDBRANCH   5   6
ENDBRANCH   4   5
ENDBRANCH   3   4
ENDBRANCH   2   3
ENDBRANCH   1   2
BRANCH   1  71
ATOM     71  O   UNL A   1      36.257  20.253  25.043  1.00  0.00    -0.377 OA
BRANCH  71  72
ATOM     72  C   UNL A   1      35.750  21.573  25.083  1.00  0.00     0.188 C 
BRANCH  72  73
ATOM     73  C   UNL A   1      34.593  21.992  24.137  1.00  0.00     0.188 C 
BRANCH  73  74
ATOM     74  O   UNL A   1      34.586  23.377  23.849  1.00  0.00    -0.376 OA
BRANCH  74  75
ATOM     75  C   UNL A   1      33.637  23.787  22.869  1.00  0.00     0.202 C 
BRANCH  75  76
ATOM     76  C   UNL A   1      33.364  25.296  22.739  1.00  0.00     0.261 C 
BRANCH  76  77
ATOM     77  O   UNL A   1      34.035  26.137  23.713  1.00  0.00    -0.463 OA
BRANCH  77  78
ATOM     78  C   UNL A   1      33.640  27.427  23.853  1.00  0.00     0.317 C 
ATOM     79  O   UNL A   1      34.001  28.289  23.053  1.00  0.00    -0.251 OA
BRANCH  78  80
ATOM     80  C   UNL A   1      32.777  27.667  25.186  1.00  0.00     0.102 C 
ATOM     81  C   UNL A   1      33.001  26.562  26.244  1.00  0.00     0.065 C 
ATOM     82  C   UNL A   1      31.270  27.527  24.812  1.00  0.00     0.012 A 
ATOM     83  C   UNL A   1      31.874  26.331  27.225  1.00  0.00     0.231 C 
ATOM     84  C   UNL A   1      30.437  26.559  25.422  1.00  0.00     0.123 A 
ATOM     85  C   UNL A   1      30.747  28.169  23.676  1.00  0.00     0.009 A 
ATOM     86  O   UNL A   1      30.743  25.837  26.543  1.00  0.00    -0.493 OA
ATOM     87  C   UNL A   1      29.217  26.170  24.861  1.00  0.00     0.047 A 
ATOM     88  C   UNL A   1      29.541  27.749  23.094  1.00  0.00     0.001 A 
ATOM     89  C   UNL A   1      28.785  26.739  23.676  1.00  0.00     0.004 A 
BRANCH  80  90
ATOM     90  C   UNL A   1      33.291  29.051  25.747  1.00  0.00     0.011 C 
ATOM     91  C   UNL A   1      32.302  29.887  26.566  1.00  0.00     0.005 C 
ATOM     92  C   UNL A   1      34.478  28.949  26.759  1.00  0.00     0.005 C 
ATOM     93  C   UNL A   1      33.178  30.938  27.235  1.00  0.00     0.000 C 
ATOM     94  C   UNL A   1      34.419  30.174  27.666  1.00  0.00     0.000 C 
ENDBRANCH  80  90
ENDBRANCH  78  80
ENDBRANCH  77  78
ENDBRANCH  76  77
ENDBRANCH  75  76
ENDBRANCH  74  75
ENDBRANCH  73  74
ENDBRANCH  72  73
ENDBRANCH  71  72
ENDBRANCH   1  71
TORSDOF 24
ENDMDL
MODEL 2
REMARK VINA RESULT:      -9.1      2.441      8.793
REMARK SMILES O=C(OCCOCCOCCOCCOC(=O)[C@]1(C2CCCC2)CCOc2ccccc21)c1ccc(-c2c3nc(c(-c4ccc(S(=O)(=O)[O-])cc4)c4ccc([nH]4)c(-c4ccc(S(=O)(=O)[O-])cc4)c4nc(c(-c5ccc(S(=O)(=O)[O-])cc5)c5ccc2[nH]5)C=C4)C=C3)cc1
REMARK SMILES IDX 8 1 7 2 6 3 5 4 4 5 3 6 2 7 1 8 33 9 34 10 92 11 35 12 91 13
REMARK SMILES IDX 36 14 37 15 38 16 85 17 39 18 90 19 84 20 86 21 40 22 89 23
REMARK SMILES IDX 83 24 82 25 41 27 71 28 52 29 70 30 53 31 56 32 69 33 87 34
REMARK SMILES IDX 54 35 55 36 68 38 88 39 57 40 42 41 43 42 51 43 44 44 50 45
REMARK SMILES IDX 45 46 46 47 47 48 48 49 49 50 72 51 73 52 81 53 74 54 80 55
REMARK SMILES IDX 75 56 76 57 77 58 78 59 79 60 58 61 59 62 67 63 60 64 66 65
REMARK SMILES IDX 61 66 62 67 63 68 64 69 65 70 9 71 10 72 11 73 12 74 13 75
REMARK SMILES IDX 14 76 15 77 16 78 17 79 18 80 24 81 32 82 25 83 27 84 31 85
REMARK SMILES IDX 26 86 28 87 30 88 29 89 19 90 20 91 23 92 21 93 22 94
REMARK H PARENT 86 26 56 37
REMARK Flexibility Score: inf
ROOT
ATOM      1  C   UNL A   1      40.925  22.381  27.119  1.00  0.00     0.188 C 
ENDROOT
BRANCH   1   2
ATOM      2  C   UNL A   1      42.292  22.514  26.437  1.00  0.00     0.188 C 
BRANCH   2   3
ATOM      3  O   UNL A   1      43.138  23.446  27.115  1.00  0.00    -0.376 OA
BRANCH   3   4
ATOM      4  C   UNL A   1      43.805  24.460  26.360  1.00  0.00     0.202 C 
BRANCH   4   5
ATOM      5  C   UNL A   1      43.214  24.783  24.997  1.00  0.00     0.261 C 
BRANCH   5   6
ATOM      6  O   UNL A   1      42.179  25.769  25.026  1.00  0.00    -0.460 OA
BRANCH   6   7
ATOM      7  C   UNL A   1      42.250  27.073  25.380  1.00  0.00     0.338 C 
ATOM      8  O   UNL A   1      42.601  27.875  24.514  1.00  0.00    -0.246 OA
BRANCH   7   9
ATOM      9  C   UNL A   1      41.996  27.613  26.756  1.00  0.00     0.060 A 
ATOM     10  C   UNL A   1      41.297  26.968  27.775  1.00  0.00     0.016 A 
ATOM     11  C   UNL A   1      42.604  28.840  27.072  1.00  0.00     0.016 A 
ATOM     12  C   UNL A   1      41.245  27.452  29.065  1.00  0.00     0.010 A 
ATOM     13  C   UNL A   1      42.511  29.378  28.357  1.00  0.00     0.010 A 
ATOM     14  C   UNL A   1      41.832  28.670  29.351  1.00  0.00    -0.014 A 
BRANCH  14  15
ATOM     15  C   UNL A   1      41.482  29.253  30.644  1.00  0.00     0.031 A 
ATOM     16  C   UNL A   1      40.239  30.079  30.688  1.00  0.00     0.074 A 
ATOM     17  C   UNL A   1      42.150  28.876  31.747  1.00  0.00     0.049 A 
ATOM     18  N   UNL A   1      39.770  30.805  31.659  1.00  0.00    -0.248 NA
ATOM     19  C   UNL A   1      39.395  30.070  29.475  1.00  0.00     0.031 C 
ATOM     20  C   UNL A   1      43.222  27.875  31.788  1.00  0.00     0.029 A 
ATOM     21  N   UNL A   1      42.012  29.271  33.046  1.00  0.00    -0.354 N 
ATOM     22  C   UNL A   1      38.621  31.395  31.150  1.00  0.00     0.074 A 
ATOM     23  C   UNL A   1      38.428  30.909  29.808  1.00  0.00     0.031 C 
ATOM     24  C   UNL A   1      43.661  27.756  33.051  1.00  0.00     0.029 A 
ATOM     25  C   UNL A   1      42.965  28.733  33.879  1.00  0.00     0.049 A 
ATOM     26  H   UNL A   1      41.302  29.878  33.357  1.00  0.00     0.167 HD
ATOM     27  C   UNL A   1      37.836  32.305  31.762  1.00  0.00     0.031 A 
ATOM     28  C   UNL A   1      43.277  29.073  35.143  1.00  0.00     0.031 A 
ATOM     29  C   UNL A   1      38.095  32.754  33.098  1.00  0.00     0.049 A 
ATOM     30  C   UNL A   1      42.474  30.191  35.757  1.00  0.00     0.074 A 
ATOM     31  C   UNL A   1      37.437  33.720  33.831  1.00  0.00     0.029 A 
ATOM     32  N   UNL A   1      39.120  32.259  33.896  1.00  0.00    -0.354 N 
ATOM     33  N   UNL A   1      41.431  30.822  35.260  1.00  0.00    -0.248 NA
ATOM     34  C   UNL A   1      42.899  30.670  37.075  1.00  0.00     0.031 C 
ATOM     35  C   UNL A   1      38.111  33.855  35.049  1.00  0.00     0.029 A 
ATOM     36  C   UNL A   1      39.144  32.928  35.101  1.00  0.00     0.049 A 
ATOM     37  H   UNL A   1      39.738  31.538  33.638  1.00  0.00     0.167 HD
ATOM     38  C   UNL A   1      41.071  31.768  36.207  1.00  0.00     0.074 A 
ATOM     39  C   UNL A   1      41.989  31.605  37.320  1.00  0.00     0.031 C 
ATOM     40  C   UNL A   1      40.084  32.699  36.170  1.00  0.00     0.031 A 
BRANCH  27  41
ATOM     41  C   UNL A   1      36.753  32.947  30.946  1.00  0.00    -0.014 A 
ATOM     42  C   UNL A   1      37.024  33.939  29.987  1.00  0.00     0.010 A 
ATOM     43  C   UNL A   1      35.421  32.550  31.166  1.00  0.00     0.010 A 
ATOM     44  C   UNL A   1      35.977  34.528  29.270  1.00  0.00     0.020 A 
ATOM     45  C   UNL A   1      34.376  33.120  30.437  1.00  0.00     0.020 A 
ATOM     46  C   UNL A   1      34.661  34.111  29.497  1.00  0.00     0.054 A 
BRANCH  46  47
ATOM     47  S   UNL A   1      33.329  34.851  28.514  1.00  0.00     0.124 S 
ATOM     48  O   UNL A   1      34.069  35.734  27.615  1.00  0.00    -0.237 OA
ATOM     49  O   UNL A   1      32.713  33.686  27.884  1.00  0.00    -0.237 OA
ATOM     50  O   UNL A   1      32.500  35.529  29.507  1.00  0.00    -0.744 OA
ENDBRANCH  46  47
ENDBRANCH  27  41
BRANCH  28  51
ATOM     51  C   UNL A   1      44.457  28.477  35.830  1.00  0.00    -0.014 A 
ATOM     52  C   UNL A   1      45.747  29.007  35.663  1.00  0.00     0.010 A 
ATOM     53  C   UNL A   1      44.297  27.332  36.638  1.00  0.00     0.010 A 
ATOM     54  C   UNL A   1      46.854  28.385  36.256  1.00  0.00     0.020 A 
ATOM     55  C   UNL A   1      45.394  26.728  37.260  1.00  0.00     0.020 A 
ATOM     56  C   UNL A   1      46.670  27.246  37.045  1.00  0.00     0.054 A 
BRANCH  56  57
ATOM     57  S   UNL A   1      48.119  26.450  37.794  1.00  0.00     0.124 S 
ATOM     58  O   UNL A   1      48.925  26.125  36.622  1.00  0.00    -0.237 OA
ATOM     59  O   UNL A   1      48.650  27.505  38.654  1.00  0.00    -0.237 OA
ATOM     60  O   UNL A   1      47.554  25.304  38.503  1.00  0.00    -0.744 OA
ENDBRANCH  56  57
ENDBRANCH  28  51
BRANCH  40  61
ATOM     61  C   UNL A   1      39.942  33.582  37.372  1.00  0.00    -0.014 A 
ATOM     62  C   UNL A   1      40.468  34.884  37.372  1.00  0.00     0.010 A 
ATOM     63  C   UNL A   1      39.170  33.138  38.461  1.00  0.00     0.010 A 
ATOM     64  C   UNL A   1      40.225  35.732  38.450  1.00  0.00     0.020 A 
ATOM     65  C   UNL A   1      38.898  33.994  39.524  1.00  0.00     0.020 A 
ATOM     66  C   UNL A   1      39.431  35.286  39.513  1.00  0.00     0.054 A 
BRANCH  66  67
ATOM     67  S   UNL A   1      39.049  36.441  40.854  1.00  0.00     0.124 S 
ATOM     68  O   UNL A   1      38.696  37.652  40.119  1.00  0.00    -0.237 OA
ATOM     69  O   UNL A   1      37.946  35.776  41.542  1.00  0.00    -0.237 OA
ATOM     70  O   UNL A   1      40.296  36.514  41.613  1.00  0.00    -0.744 OA
ENDBRANCH  66  67
ENDBRANCH  40  61
ENDBRANCH  14  15
ENDBRANCH   7   9
ENDBRANCH   6   7
ENDBRANCH   5   6
ENDBRANCH   4   5
ENDBRANCH   3   4
ENDBRANCH   2   3
ENDBRANCH   1   2
BRANCH   1  71
ATOM     71  O   UNL A   1      40.118  21.325  26.629  1.00  0.00    -0.377 OA
BRANCH  71  72
ATOM     72  C   UNL A   1      38.962  21.742  25.930  1.00  0.00     0.188 C 
BRANCH  72  73
ATOM     73  C   UNL A   1      37.972  20.689  25.363  1.00  0.00     0.188 C 
BRANCH  73  74
ATOM     74  O   UNL A   1      37.032  21.241  24.460  1.00  0.00    -0.376 OA
BRANCH  74  75
ATOM     75  C   UNL A   1      37.015  22.664  24.398  1.00  0.00     0.202 C 
BRANCH  75  76
ATOM     76  C   UNL A   1      36.396  23.309  23.146  1.00  0.00     0.261 C 
BRANCH  76  77
ATOM     77  O   UNL A   1      34.983  23.048  22.944  1.00  0.00    -0.463 OA
BRANCH  77  78
ATOM     78  C   UNL A   1      34.093  24.052  23.141  1.00  0.00     0.317 C 
ATOM     79  O   UNL A   1      34.121  25.067  22.447  1.00  0.00    -0.251 OA
BRANCH  78  80
ATOM     80  C   UNL A   1      33.129  23.786  24.398  1.00  0.00     0.102 C 
ATOM     81  C   UNL A   1      33.870  23.908  25.749  1.00  0.00     0.065 C 
ATOM     82  C   UNL A   1      32.683  22.292  24.350  1.00  0.00     0.012 A 
ATOM     83  C   UNL A   1      33.289  23.132  26.909  1.00  0.00     0.231 C 
ATOM     84  C   UNL A   1      32.963  21.396  25.409  1.00  0.00     0.123 A 
ATOM     85  C   UNL A   1      32.225  21.715  23.153  1.00  0.00     0.009 A 
ATOM     86  O   UNL A   1      33.397  21.749  26.658  1.00  0.00    -0.493 OA
ATOM     87  C   UNL A   1      32.908  20.010  25.242  1.00  0.00     0.047 A 
ATOM     88  C   UNL A   1      32.209  20.323  22.977  1.00  0.00     0.001 A 
ATOM     89  C   UNL A   1      32.567  19.471  24.014  1.00  0.00     0.004 A 
BRANCH  80  90
ATOM     90  C   UNL A   1      32.024  24.909  24.294  1.00  0.00     0.011 C 
ATOM     91  C   UNL A   1      30.762  24.579  23.490  1.00  0.00     0.005 C 
ATOM     92  C   UNL A   1      31.386  25.329  25.658  1.00  0.00     0.005 C 
ATOM     93  C   UNL A   1      29.785  25.682  23.873  1.00  0.00     0.000 C 
ATOM     94  C   UNL A   1      29.985  25.858  25.369  1.00  0.00     0.000 C 
ENDBRANCH  80  90
ENDBRANCH  78  80
ENDBRANCH  77  78
ENDBRANCH  76  77
ENDBRANCH  75  76
ENDBRANCH  74  75
ENDBRANCH  73  74
ENDBRANCH  72  73
ENDBRANCH  71  72
ENDBRANCH   1  71
TORSDOF 24
ENDMDL
MODEL 3
REMARK VINA RESULT:      -8.8      1.822      8.220
REMARK SMILES O=C(OCCOCCOCCOCCOC(=O)[C@]1(C2CCCC2)CCOc2ccccc21)c1ccc(-c2c3nc(c(-c4ccc(S(=O)(=O)[O-])cc4)c4ccc([nH]4)c(-c4ccc(S(=O)(=O)[O-])cc4)c4nc(c(-c5ccc(S(=O)(=O)[O-])cc5)c5ccc2[nH]5)C=C4)C=C3)cc1
REMARK SMILES IDX 8 1 7 2 6 3 5 4 4 5 3 6 2 7 1 8 33 9 34 10 92 11 35 12 91 13
REMARK SMILES IDX 36 14 37 15 38 16 85 17 39 18 90 19 84 20 86 21 40 22 89 23
REMARK SMILES IDX 83 24 82 25 41 27 71 28 52 29 70 30 53 31 56 32 69 33 87 34
REMARK SMILES IDX 54 35 55 36 68 38 88 39 57 40 42 41 43 42 51 43 44 44 50 45
REMARK SMILES IDX 45 46 46 47 47 48 48 49 49 50 72 51 73 52 81 53 74 54 80 55
REMARK SMILES IDX 75 56 76 57 77 58 78 59 79 60 58 61 59 62 67 63 60 64 66 65
REMARK SMILES IDX 61 66 62 67 63 68 64 69 65 70 9 71 10 72 11 73 12 74 13 75
REMARK SMILES IDX 14 76 15 77 16 78 17 79 18 80 24 81 32 82 25 83 27 84 31 85
REMARK SMILES IDX 26 86 28 87 30 88 29 89 19 90 20 91 23 92 21 93 22 94
REMARK H PARENT 86 26 56 37
REMARK Flexibility Score: inf
ROOT
ATOM      1  C   UNL A   1      36.932  20.192  24.590  1.00  0.00     0.188 C 
ENDROOT
BRANCH   1   2
ATOM      2  C   UNL A   1      37.902  19.270  25.337  1.00  0.00     0.188 C 
BRANCH   2   3
ATOM      3  O   UNL A   1      39.267  19.612  25.084  1.00  0.00    -0.376 OA
BRANCH   3   4
ATOM      4  C   UNL A   1      40.149  19.829  26.189  1.00  0.00     0.202 C 
BRANCH   4   5
ATOM      5  C   UNL A   1      40.180  21.238  26.760  1.00  0.00     0.261 C 
BRANCH   5   6
ATOM      6  O   UNL A   1      39.673  22.240  25.874  1.00  0.00    -0.460 OA
BRANCH   6   7
ATOM      7  C   UNL A   1      38.946  23.346  26.161  1.00  0.00     0.338 C 
ATOM      8  O   UNL A   1      37.789  23.384  25.741  1.00  0.00    -0.246 OA
BRANCH   7   9
ATOM      9  C   UNL A   1      39.454  24.551  26.894  1.00  0.00     0.060 A 
ATOM     10  C   UNL A   1      40.249  25.563  26.359  1.00  0.00     0.016 A 
ATOM     11  C   UNL A   1      39.002  24.719  28.214  1.00  0.00     0.016 A 
ATOM     12  C   UNL A   1      40.540  26.723  27.045  1.00  0.00     0.010 A 
ATOM     13  C   UNL A   1      39.337  25.859  28.948  1.00  0.00     0.010 A 
ATOM     14  C   UNL A   1      40.104  26.861  28.349  1.00  0.00    -0.014 A 
BRANCH  14  15
ATOM     15  C   UNL A   1      40.696  27.965  29.101  1.00  0.00     0.031 A 
ATOM     16  C   UNL A   1      39.802  29.122  29.401  1.00  0.00     0.074 A 
ATOM     17  C   UNL A   1      41.914  27.821  29.648  1.00  0.00     0.049 A 
ATOM     18  N   UNL A   1      40.095  30.271  29.934  1.00  0.00    -0.248 NA
ATOM     19  C   UNL A   1      38.370  28.953  29.074  1.00  0.00     0.031 C 
ATOM     20  C   UNL A   1      42.732  26.603  29.587  1.00  0.00     0.029 A 
ATOM     21  N   UNL A   1      42.667  28.692  30.381  1.00  0.00    -0.354 N 
ATOM     22  C   UNL A   1      38.905  30.986  29.937  1.00  0.00     0.074 A 
ATOM     23  C   UNL A   1      37.872  30.133  29.406  1.00  0.00     0.031 C 
ATOM     24  C   UNL A   1      43.887  26.820  30.237  1.00  0.00     0.029 A 
ATOM     25  C   UNL A   1      43.921  28.210  30.674  1.00  0.00     0.049 A 
ATOM     26  H   UNL A   1      42.345  29.575  30.673  1.00  0.00     0.167 HD
ATOM     27  C   UNL A   1      38.729  32.268  30.315  1.00  0.00     0.031 A 
ATOM     28  C   UNL A   1      44.990  28.866  31.161  1.00  0.00     0.031 A 
ATOM     29  C   UNL A   1      39.808  33.064  30.825  1.00  0.00     0.049 A 
ATOM     30  C   UNL A   1      44.806  30.335  31.446  1.00  0.00     0.074 A 
ATOM     31  C   UNL A   1      39.808  34.395  31.184  1.00  0.00     0.029 A 
ATOM     32  N   UNL A   1      41.095  32.580  31.032  1.00  0.00    -0.354 N 
ATOM     33  N   UNL A   1      43.705  31.053  31.377  1.00  0.00    -0.248 NA
ATOM     34  C   UNL A   1      45.999  31.092  31.836  1.00  0.00     0.031 C 
ATOM     35  C   UNL A   1      41.117  34.733  31.544  1.00  0.00     0.029 A 
ATOM     36  C   UNL A   1      41.914  33.597  31.474  1.00  0.00     0.049 A 
ATOM     37  H   UNL A   1      41.379  31.650  30.885  1.00  0.00     0.167 HD
ATOM     38  C   UNL A   1      44.071  32.345  31.722  1.00  0.00     0.074 A 
ATOM     39  C   UNL A   1      45.489  32.302  32.028  1.00  0.00     0.031 C 
ATOM     40  C   UNL A   1      43.319  33.473  31.774  1.00  0.00     0.031 A 
BRANCH  27  41
ATOM     41  C   UNL A   1      37.390  32.891  30.052  1.00  0.00    -0.014 A 
ATOM     42  C   UNL A   1      36.354  32.873  31.002  1.00  0.00     0.010 A 
ATOM     43  C   UNL A   1      37.165  33.497  28.802  1.00  0.00     0.010 A 
ATOM     44  C   UNL A   1      35.113  33.444  30.699  1.00  0.00     0.020 A 
ATOM     45  C   UNL A   1      35.936  34.087  28.505  1.00  0.00     0.020 A 
ATOM     46  C   UNL A   1      34.915  34.051  29.455  1.00  0.00     0.054 A 
BRANCH  46  47
ATOM     47  S   UNL A   1      33.315  34.831  29.110  1.00  0.00     0.124 S 
ATOM     48  O   UNL A   1      32.694  34.849  30.433  1.00  0.00    -0.237 OA
ATOM     49  O   UNL A   1      33.705  36.136  28.582  1.00  0.00    -0.237 OA
ATOM     50  O   UNL A   1      32.690  33.933  28.143  1.00  0.00    -0.744 OA
ENDBRANCH  46  47
ENDBRANCH  27  41
BRANCH  28  51
ATOM     51  C   UNL A   1      46.320  28.201  31.262  1.00  0.00    -0.014 A 
ATOM     52  C   UNL A   1      46.763  27.630  32.466  1.00  0.00     0.010 A 
ATOM     53  C   UNL A   1      47.178  28.170  30.144  1.00  0.00     0.010 A 
ATOM     54  C   UNL A   1      48.047  27.078  32.560  1.00  0.00     0.020 A 
ATOM     55  C   UNL A   1      48.447  27.590  30.224  1.00  0.00     0.020 A 
ATOM     56  C   UNL A   1      48.883  27.067  31.440  1.00  0.00     0.054 A 
BRANCH  56  57
ATOM     57  S   UNL A   1      50.547  26.358  31.588  1.00  0.00     0.124 S 
ATOM     58  O   UNL A   1      51.097  26.594  30.257  1.00  0.00    -0.237 OA
ATOM     59  O   UNL A   1      51.134  27.153  32.664  1.00  0.00    -0.237 OA
ATOM     60  O   UNL A   1      50.296  24.958  31.923  1.00  0.00    -0.744 OA
ENDBRANCH  56  57
ENDBRANCH  28  51
BRANCH  40  61
ATOM     61  C   UNL A   1      44.015  34.731  32.198  1.00  0.00    -0.014 A 
ATOM     62  C   UNL A   1      44.264  34.990  33.555  1.00  0.00     0.010 A 
ATOM     63  C   UNL A   1      44.527  35.595  31.214  1.00  0.00     0.010 A 
ATOM     64  C   UNL A   1      45.016  36.104  33.923  1.00  0.00     0.020 A 
ATOM     65  C   UNL A   1      45.307  36.690  31.577  1.00  0.00     0.020 A 
ATOM     66  C   UNL A   1      45.542  36.939  32.931  1.00  0.00     0.054 A 
BRANCH  66  67
ATOM     67  S   UNL A   1      46.597  38.323  33.434  1.00  0.00     0.124 S 
ATOM     68  O   UNL A   1      45.770  38.985  34.438  1.00  0.00    -0.237 OA
ATOM     69  O   UNL A   1      47.787  37.646  33.942  1.00  0.00    -0.237 OA
ATOM     70  O   UNL A   1      46.795  39.074  32.196  1.00  0.00    -0.744 OA
ENDBRANCH  66  67
ENDBRANCH  40  61
ENDBRANCH  14  15
ENDBRANCH   7   9
ENDBRANCH   6   7
ENDBRANCH   5   6
ENDBRANCH   4   5
ENDBRANCH   3   4
ENDBRANCH   2   3
ENDBRANCH   1   2
BRANCH   1  71
ATOM     71  O   UNL A   1      35.615  20.214  25.110  1.00  0.00    -0.377 OA
BRANCH  71  72
ATOM     72  C   UNL A   1      35.095  21.508  25.345  1.00  0.00     0.188 C 
BRANCH  72  73
ATOM     73  C   UNL A   1      34.066  22.125  24.359  1.00  0.00     0.188 C 
BRANCH  73  74
ATOM     74  O   UNL A   1      34.420  23.426  23.931  1.00  0.00    -0.376 OA
BRANCH  74  75
ATOM     75  C   UNL A   1      33.802  23.854  22.721  1.00  0.00     0.202 C 
BRANCH  75  76
ATOM     76  C   UNL A   1      33.465  25.350  22.592  1.00  0.00     0.261 C 
BRANCH  76  77
ATOM     77  O   UNL A   1      34.176  26.230  23.503  1.00  0.00    -0.463 OA
BRANCH  77  78
ATOM     78  C   UNL A   1      33.725  27.496  23.681  1.00  0.00     0.317 C 
ATOM     79  O   UNL A   1      34.027  28.392  22.895  1.00  0.00    -0.251 OA
BRANCH  78  80
ATOM     80  C   UNL A   1      32.881  27.666  25.037  1.00  0.00     0.102 C 
ATOM     81  C   UNL A   1      33.089  26.487  26.015  1.00  0.00     0.065 C 
ATOM     82  C   UNL A   1      31.367  27.585  24.671  1.00  0.00     0.012 A 
ATOM     83  C   UNL A   1      31.966  26.215  26.992  1.00  0.00     0.231 C 
ATOM     84  C   UNL A   1      30.518  26.597  25.224  1.00  0.00     0.123 A 
ATOM     85  C   UNL A   1      30.848  28.313  23.587  1.00  0.00     0.009 A 
ATOM     86  O   UNL A   1      30.818  25.794  26.291  1.00  0.00    -0.493 OA
ATOM     87  C   UNL A   1      29.283  26.275  24.653  1.00  0.00     0.047 A 
ATOM     88  C   UNL A   1      29.627  27.961  22.992  1.00  0.00     0.001 A 
ATOM     89  C   UNL A   1      28.853  26.932  23.513  1.00  0.00     0.004 A 
BRANCH  80  90
ATOM     90  C   UNL A   1      33.432  28.996  25.683  1.00  0.00     0.011 C 
ATOM     91  C   UNL A   1      32.478  29.787  26.584  1.00  0.00     0.005 C 
ATOM     92  C   UNL A   1      34.640  28.801  26.657  1.00  0.00     0.005 C 
ATOM     93  C   UNL A   1      33.388  30.772  27.307  1.00  0.00     0.000 C 
ATOM     94  C   UNL A   1      34.623  29.958  27.651  1.00  0.00     0.000 C 
ENDBRANCH  80  90
ENDBRANCH  78  80
ENDBRANCH  77  78
ENDBRANCH  76  77
ENDBRANCH  75  76
ENDBRANCH  74  75
ENDBRANCH  73  74
ENDBRANCH  72  73
ENDBRANCH  71  72
ENDBRANCH   1  71
TORSDOF 24
ENDMDL
