MODEL 1
REMARK VINA RESULT:      -9.0      0.000      0.000
REMARK SMILES Cc1cc(N2N=C(C(=O)OCCOCCOCCOCCOC(=O)c3ccc(-c4c5nc(c(-c6ccc(S(=O)(=O)[O-])cc6)c6ccc([nH]6)c(-c6ccc(S(=O)(=O)[O-])cc6)c6nc(c(-c7ccc(S(=O)(=O)[O-])cc7)c7ccc4[nH]7)C=C6)C=C5)cc3)C[C@H]2c2ccccc2)c([N+](=O)[O-])cc1C
REMARK SMILES IDX 17 1 16 2 15 3 14 4 13 5 12 6 11 7 10 8 8 9 9 10 7 11 5 12
REMARK SMILES IDX 6 13 86 14 85 15 4 16 1 17 2 18 3 19 98 20 97 21 99 22 93 23
REMARK SMILES IDX 94 24 95 25 96 26 87 27 88 28 92 29 89 30 91 31 90 32 18 33
REMARK SMILES IDX 19 34 20 35 21 36 22 37 23 38 24 39 25 40 26 41 84 42 27 43
REMARK SMILES IDX 83 44 28 45 29 46 30 47 77 48 31 49 82 50 76 51 78 52 32 53
REMARK SMILES IDX 81 54 75 55 74 56 33 58 63 59 44 60 62 61 45 62 48 63 61 64
REMARK SMILES IDX 79 65 46 66 47 67 60 69 80 70 49 71 34 72 35 73 43 74 36 75
REMARK SMILES IDX 42 76 37 77 38 78 39 79 40 80 41 81 64 82 65 83 73 84 66 85
REMARK SMILES IDX 72 86 67 87 68 88 69 89 70 90 71 91 50 92 51 93 59 94 52 95
REMARK SMILES IDX 58 96 53 97 54 98 55 99 56 100 57 101
REMARK H PARENT 78 57 48 68
REMARK Flexibility Score: inf
ROOT
ATOM      1  C   UNL A   1      34.500  35.042  28.276  1.00  0.00     0.188 C 
ENDROOT
BRANCH   1   2
ATOM      2  O   UNL A   1      35.362  34.053  28.838  1.00  0.00    -0.377 OA
BRANCH   2   3
ATOM      3  C   UNL A   1      35.752  32.964  28.017  1.00  0.00     0.188 C 
BRANCH   3   4
ATOM      4  C   UNL A   1      34.718  31.827  27.977  1.00  0.00     0.188 C 
BRANCH   4   5
ATOM      5  O   UNL A   1      35.110  30.710  27.201  1.00  0.00    -0.376 OA
BRANCH   5   6
ATOM      6  C   UNL A   1      34.768  29.379  27.561  1.00  0.00     0.202 C 
BRANCH   6   7
ATOM      7  C   UNL A   1      33.363  28.745  27.494  1.00  0.00     0.261 C 
BRANCH   7   8
ATOM      8  O   UNL A   1      33.259  27.464  26.885  1.00  0.00    -0.459 OA
BRANCH   8   9
ATOM      9  C   UNL A   1      32.037  26.931  26.765  1.00  0.00     0.354 C 
ATOM     10  O   UNL A   1      30.965  27.433  27.031  1.00  0.00    -0.245 OA
BRANCH   9  11
ATOM     11  C   UNL A   1      32.192  25.603  26.068  1.00  0.00     0.148 C 
ATOM     12  N   UNL A   1      33.057  23.818  25.352  1.00  0.00    -0.250 N 
ATOM     13  N   UNL A   1      33.293  24.912  26.125  1.00  0.00    -0.169 NA
ATOM     14  C   UNL A   1      31.846  23.958  24.513  1.00  0.00     0.144 C 
ATOM     15  C   UNL A   1      31.038  24.949  25.359  1.00  0.00     0.098 C 
BRANCH  12  16
ATOM     16  C   UNL A   1      34.038  22.850  25.234  1.00  0.00     0.138 A 
ATOM     17  C   UNL A   1      37.844  22.864  25.483  1.00  0.00     0.045 C 
ATOM     18  C   UNL A   1      36.452  22.322  25.315  1.00  0.00    -0.046 A 
ATOM     19  C   UNL A   1      35.372  23.209  25.481  1.00  0.00     0.039 A 
ATOM     20  C   UNL A   1      36.194  20.983  24.988  1.00  0.00    -0.041 A 
ATOM     21  C   UNL A   1      34.862  20.578  24.812  1.00  0.00     0.091 A 
ATOM     22  C   UNL A   1      37.279  19.950  24.847  1.00  0.00     0.045 C 
ATOM     23  C   UNL A   1      33.803  21.504  24.922  1.00  0.00     0.294 A 
BRANCH  23  24
ATOM     24  N   UNL A   1      32.447  20.998  24.700  1.00  0.00     0.065 N 
ATOM     25  O   UNL A   1      32.137  20.705  23.533  1.00  0.00    -0.258 OA
ATOM     26  O   UNL A   1      31.661  20.962  25.658  1.00  0.00    -0.258 OA
ENDBRANCH  23  24
ENDBRANCH  12  16
BRANCH  14  27
ATOM     27  C   UNL A   1      32.153  24.459  23.100  1.00  0.00    -0.023 A 
ATOM     28  C   UNL A   1      33.009  23.785  22.208  1.00  0.00     0.006 A 
ATOM     29  C   UNL A   1      31.561  25.652  22.649  1.00  0.00     0.006 A 
ATOM     30  C   UNL A   1      33.246  24.271  20.921  1.00  0.00     0.000 A 
ATOM     31  C   UNL A   1      31.760  26.112  21.344  1.00  0.00     0.000 A 
ATOM     32  C   UNL A   1      32.607  25.423  20.483  1.00  0.00     0.000 A 
ENDBRANCH  14  27
ENDBRANCH   9  11
ENDBRANCH   8   9
ENDBRANCH   7   8
ENDBRANCH   6   7
ENDBRANCH   5   6
ENDBRANCH   4   5
ENDBRANCH   3   4
ENDBRANCH   2   3
ENDBRANCH   1   2
BRANCH   1  33
ATOM     33  C   UNL A   1      33.213  35.498  29.003  1.00  0.00     0.188 C 
BRANCH  33  34
ATOM     34  O   UNL A   1      33.432  36.182  30.229  1.00  0.00    -0.376 OA
BRANCH  34  35
ATOM     35  C   UNL A   1      32.356  36.278  31.149  1.00  0.00     0.202 C 
BRANCH  35  36
ATOM     36  C   UNL A   1      32.345  35.277  32.313  1.00  0.00     0.261 C 
BRANCH  36  37
ATOM     37  O   UNL A   1      33.593  34.628  32.598  1.00  0.00    -0.460 OA
BRANCH  37  38
ATOM     38  C   UNL A   1      34.557  35.360  33.206  1.00  0.00     0.338 C 
ATOM     39  O   UNL A   1      34.428  36.425  33.762  1.00  0.00    -0.246 OA
BRANCH  38  40
ATOM     40  C   UNL A   1      35.781  34.527  33.238  1.00  0.00     0.060 A 
ATOM     41  C   UNL A   1      35.725  33.258  33.829  1.00  0.00     0.016 A 
ATOM     42  C   UNL A   1      36.970  34.992  32.672  1.00  0.00     0.016 A 
ATOM     43  C   UNL A   1      36.870  32.458  33.873  1.00  0.00     0.010 A 
ATOM     44  C   UNL A   1      38.118  34.198  32.735  1.00  0.00     0.010 A 
ATOM     45  C   UNL A   1      38.081  32.937  33.357  1.00  0.00    -0.014 A 
BRANCH  45  46
ATOM     46  C   UNL A   1      39.342  32.190  33.590  1.00  0.00     0.031 A 
ATOM     47  C   UNL A   1      40.065  32.383  34.895  1.00  0.00     0.074 A 
ATOM     48  C   UNL A   1      39.842  31.359  32.657  1.00  0.00     0.049 A 
ATOM     49  N   UNL A   1      41.209  31.889  35.289  1.00  0.00    -0.248 NA
ATOM     50  C   UNL A   1      39.410  33.253  35.887  1.00  0.00     0.031 C 
ATOM     51  C   UNL A   1      39.220  31.059  31.369  1.00  0.00     0.029 A 
ATOM     52  N   UNL A   1      41.004  30.626  32.648  1.00  0.00    -0.354 N 
ATOM     53  C   UNL A   1      41.420  32.398  36.565  1.00  0.00     0.074 A 
ATOM     54  C   UNL A   1      40.296  33.255  36.872  1.00  0.00     0.031 C 
ATOM     55  C   UNL A   1      40.015  30.215  30.686  1.00  0.00     0.029 A 
ATOM     56  C   UNL A   1      41.221  29.949  31.471  1.00  0.00     0.049 A 
ATOM     57  H   UNL A   1      41.624  30.590  33.412  1.00  0.00     0.167 HD
ATOM     58  C   UNL A   1      42.458  32.172  37.406  1.00  0.00     0.031 A 
ATOM     59  C   UNL A   1      42.280  29.223  31.061  1.00  0.00     0.031 A 
ATOM     60  C   UNL A   1      43.582  31.329  37.093  1.00  0.00     0.049 A 
ATOM     61  C   UNL A   1      43.459  29.048  31.986  1.00  0.00     0.074 A 
ATOM     62  C   UNL A   1      44.666  31.011  37.892  1.00  0.00     0.029 A 
ATOM     63  N   UNL A   1      43.777  30.685  35.880  1.00  0.00    -0.354 N 
ATOM     64  N   UNL A   1      43.622  29.496  33.208  1.00  0.00    -0.248 NA
ATOM     65  C   UNL A   1      44.595  28.265  31.475  1.00  0.00     0.031 C 
ATOM     66  C   UNL A   1      45.551  30.236  37.139  1.00  0.00     0.029 A 
ATOM     67  C   UNL A   1      44.984  30.006  35.895  1.00  0.00     0.049 A 
ATOM     68  H   UNL A   1      43.150  30.706  35.121  1.00  0.00     0.167 HD
ATOM     69  C   UNL A   1      44.870  29.033  33.619  1.00  0.00     0.074 A 
ATOM     70  C   UNL A   1      45.407  28.251  32.524  1.00  0.00     0.031 C 
ATOM     71  C   UNL A   1      45.512  29.237  34.796  1.00  0.00     0.031 A 
BRANCH  58  72
ATOM     72  C   UNL A   1      42.450  32.881  38.735  1.00  0.00    -0.014 A 
ATOM     73  C   UNL A   1      43.011  34.162  38.886  1.00  0.00     0.010 A 
ATOM     74  C   UNL A   1      41.822  32.275  39.837  1.00  0.00     0.010 A 
ATOM     75  C   UNL A   1      42.970  34.809  40.124  1.00  0.00     0.020 A 
ATOM     76  C   UNL A   1      41.753  32.931  41.070  1.00  0.00     0.020 A 
ATOM     77  C   UNL A   1      42.340  34.190  41.208  1.00  0.00     0.054 A 
BRANCH  77  78
ATOM     78  S   UNL A   1      42.272  35.070  42.793  1.00  0.00     0.124 S 
ATOM     79  O   UNL A   1      42.215  36.463  42.362  1.00  0.00    -0.237 OA
ATOM     80  O   UNL A   1      41.048  34.548  43.395  1.00  0.00    -0.237 OA
ATOM     81  O   UNL A   1      43.509  34.676  43.463  1.00  0.00    -0.744 OA
ENDBRANCH  77  78
ENDBRANCH  58  72
BRANCH  59  82
ATOM     82  C   UNL A   1      42.299  28.640  29.688  1.00  0.00    -0.014 A 
ATOM     83  C   UNL A   1      41.904  27.311  29.461  1.00  0.00     0.010 A 
ATOM     84  C   UNL A   1      42.729  29.419  28.598  1.00  0.00     0.010 A 
ATOM     85  C   UNL A   1      41.952  26.767  28.173  1.00  0.00     0.020 A 
ATOM     86  C   UNL A   1      42.748  28.890  27.304  1.00  0.00     0.020 A 
ATOM     87  C   UNL A   1      42.368  27.563  27.102  1.00  0.00     0.054 A 
BRANCH  87  88
ATOM     88  S   UNL A   1      42.369  26.854  25.432  1.00  0.00     0.124 S 
ATOM     89  O   UNL A   1      43.569  26.024  25.453  1.00  0.00    -0.237 OA
ATOM     90  O   UNL A   1      41.098  26.133  25.397  1.00  0.00    -0.237 OA
ATOM     91  O   UNL A   1      42.432  28.028  24.562  1.00  0.00    -0.744 OA
ENDBRANCH  87  88
ENDBRANCH  59  82
BRANCH  71  92
ATOM     92  C   UNL A   1      46.862  28.591  34.977  1.00  0.00    -0.014 A 
ATOM     93  C   UNL A   1      48.049  29.279  34.669  1.00  0.00     0.010 A 
ATOM     94  C   UNL A   1      46.947  27.298  35.528  1.00  0.00     0.010 A 
ATOM     95  C   UNL A   1      49.293  28.678  34.880  1.00  0.00     0.020 A 
ATOM     96  C   UNL A   1      48.189  26.705  35.770  1.00  0.00     0.020 A 
ATOM     97  C   UNL A   1      49.355  27.394  35.432  1.00  0.00     0.054 A 
BRANCH  97  98
ATOM     98  S   UNL A   1      50.983  26.656  35.740  1.00  0.00     0.124 S 
ATOM     99  O   UNL A   1      51.489  26.458  34.384  1.00  0.00    -0.237 OA
ATOM    100  O   UNL A   1      51.660  27.690  36.519  1.00  0.00    -0.237 OA
ATOM    101  O   UNL A   1      50.675  25.431  36.475  1.00  0.00    -0.744 OA
ENDBRANCH  97  98
ENDBRANCH  71  92
ENDBRANCH  45  46
ENDBRANCH  38  40
ENDBRANCH  37  38
ENDBRANCH  36  37
ENDBRANCH  35  36
ENDBRANCH  34  35
ENDBRANCH  33  34
ENDBRANCH   1  33
TORSDOF 26
ENDMDL
MODEL 2
REMARK VINA RESULT:      -8.9      1.067      7.713
REMARK SMILES Cc1cc(N2N=C(C(=O)OCCOCCOCCOCCOC(=O)c3ccc(-c4c5nc(c(-c6ccc(S(=O)(=O)[O-])cc6)c6ccc([nH]6)c(-c6ccc(S(=O)(=O)[O-])cc6)c6nc(c(-c7ccc(S(=O)(=O)[O-])cc7)c7ccc4[nH]7)C=C6)C=C5)cc3)C[C@H]2c2ccccc2)c([N+](=O)[O-])cc1C
REMARK SMILES IDX 17 1 16 2 15 3 14 4 13 5 12 6 11 7 10 8 8 9 9 10 7 11 5 12
REMARK SMILES IDX 6 13 86 14 85 15 4 16 1 17 2 18 3 19 98 20 97 21 99 22 93 23
REMARK SMILES IDX 94 24 95 25 96 26 87 27 88 28 92 29 89 30 91 31 90 32 18 33
REMARK SMILES IDX 19 34 20 35 21 36 22 37 23 38 24 39 25 40 26 41 84 42 27 43
REMARK SMILES IDX 83 44 28 45 29 46 30 47 77 48 31 49 82 50 76 51 78 52 32 53
REMARK SMILES IDX 81 54 75 55 74 56 33 58 63 59 44 60 62 61 45 62 48 63 61 64
REMARK SMILES IDX 79 65 46 66 47 67 60 69 80 70 49 71 34 72 35 73 43 74 36 75
REMARK SMILES IDX 42 76 37 77 38 78 39 79 40 80 41 81 64 82 65 83 73 84 66 85
REMARK SMILES IDX 72 86 67 87 68 88 69 89 70 90 71 91 50 92 51 93 59 94 52 95
REMARK SMILES IDX 58 96 53 97 54 98 55 99 56 100 57 101
REMARK H PARENT 78 57 48 68
REMARK Flexibility Score: inf
ROOT
ATOM      1  C   UNL A   1      34.009  34.660  28.422  1.00  0.00     0.188 C 
ENDROOT
BRANCH   1   2
ATOM      2  O   UNL A   1      35.209  34.404  29.152  1.00  0.00    -0.377 OA
BRANCH   2   3
ATOM      3  C   UNL A   1      36.135  33.479  28.607  1.00  0.00     0.188 C 
BRANCH   3   4
ATOM      4  C   UNL A   1      36.077  32.091  29.266  1.00  0.00     0.188 C 
BRANCH   4   5
ATOM      5  O   UNL A   1      36.808  31.090  28.585  1.00  0.00    -0.376 OA
BRANCH   5   6
ATOM      6  C   UNL A   1      36.176  30.100  27.786  1.00  0.00     0.202 C 
BRANCH   6   7
ATOM      7  C   UNL A   1      34.659  29.942  27.555  1.00  0.00     0.261 C 
BRANCH   7   8
ATOM      8  O   UNL A   1      34.190  28.647  27.198  1.00  0.00    -0.459 OA
BRANCH   8   9
ATOM      9  C   UNL A   1      32.880  28.503  26.968  1.00  0.00     0.354 C 
ATOM     10  O   UNL A   1      32.006  29.343  27.025  1.00  0.00    -0.245 OA
BRANCH   9  11
ATOM     11  C   UNL A   1      32.665  27.104  26.447  1.00  0.00     0.148 C 
ATOM     12  N   UNL A   1      33.055  25.121  25.845  1.00  0.00    -0.250 N 
ATOM     13  N   UNL A   1      33.622  26.225  26.403  1.00  0.00    -0.169 NA
ATOM     14  C   UNL A   1      31.741  25.402  25.226  1.00  0.00     0.144 C 
ATOM     15  C   UNL A   1      31.298  26.613  26.055  1.00  0.00     0.098 C 
BRANCH  12  16
ATOM     16  C   UNL A   1      33.815  23.976  25.691  1.00  0.00     0.138 A 
ATOM     17  C   UNL A   1      36.773  23.014  23.483  1.00  0.00     0.045 C 
ATOM     18  C   UNL A   1      35.705  22.881  24.533  1.00  0.00    -0.046 A 
ATOM     19  C   UNL A   1      34.915  24.010  24.820  1.00  0.00     0.039 A 
ATOM     20  C   UNL A   1      35.462  21.682  25.218  1.00  0.00    -0.041 A 
ATOM     21  C   UNL A   1      34.415  21.643  26.154  1.00  0.00     0.091 A 
ATOM     22  C   UNL A   1      36.290  20.442  25.022  1.00  0.00     0.045 C 
ATOM     23  C   UNL A   1      33.598  22.772  26.374  1.00  0.00     0.294 A 
BRANCH  23  24
ATOM     24  N   UNL A   1      32.517  22.633  27.352  1.00  0.00     0.065 N 
ATOM     25  O   UNL A   1      32.846  22.481  28.540  1.00  0.00    -0.258 OA
ATOM     26  O   UNL A   1      31.347  22.592  26.944  1.00  0.00    -0.258 OA
ENDBRANCH  23  24
ENDBRANCH  12  16
BRANCH  14  27
ATOM     27  C   UNL A   1      31.837  25.683  23.724  1.00  0.00    -0.023 A 
ATOM     28  C   UNL A   1      32.489  24.828  22.816  1.00  0.00     0.006 A 
ATOM     29  C   UNL A   1      31.250  26.851  23.204  1.00  0.00     0.006 A 
ATOM     30  C   UNL A   1      32.536  25.117  21.452  1.00  0.00     0.000 A 
ATOM     31  C   UNL A   1      31.255  27.114  21.832  1.00  0.00     0.000 A 
ATOM     32  C   UNL A   1      31.902  26.250  20.957  1.00  0.00     0.000 A 
ENDBRANCH  14  27
ENDBRANCH   9  11
ENDBRANCH   8   9
ENDBRANCH   7   8
ENDBRANCH   6   7
ENDBRANCH   5   6
ENDBRANCH   4   5
ENDBRANCH   3   4
ENDBRANCH   2   3
ENDBRANCH   1   2
BRANCH   1  33
ATOM     33  C   UNL A   1      32.932  35.633  28.957  1.00  0.00     0.188 C 
BRANCH  33  34
ATOM     34  O   UNL A   1      33.442  36.833  29.521  1.00  0.00    -0.376 OA
BRANCH  34  35
ATOM     35  C   UNL A   1      33.012  37.202  30.822  1.00  0.00     0.202 C 
BRANCH  35  36
ATOM     36  C   UNL A   1      32.987  36.096  31.887  1.00  0.00     0.261 C 
BRANCH  36  37
ATOM     37  O   UNL A   1      34.226  35.406  32.109  1.00  0.00    -0.460 OA
BRANCH  37  38
ATOM     38  C   UNL A   1      34.172  34.197  32.717  1.00  0.00     0.338 C 
ATOM     39  O   UNL A   1      33.183  33.560  32.996  1.00  0.00    -0.246 OA
BRANCH  38  40
ATOM     40  C   UNL A   1      35.562  33.694  32.812  1.00  0.00     0.060 A 
ATOM     41  C   UNL A   1      35.786  32.403  33.306  1.00  0.00     0.016 A 
ATOM     42  C   UNL A   1      36.633  34.490  32.399  1.00  0.00     0.016 A 
ATOM     43  C   UNL A   1      37.090  31.912  33.408  1.00  0.00     0.010 A 
ATOM     44  C   UNL A   1      37.937  34.003  32.520  1.00  0.00     0.010 A 
ATOM     45  C   UNL A   1      38.175  32.722  33.047  1.00  0.00    -0.014 A 
BRANCH  45  46
ATOM     46  C   UNL A   1      39.563  32.293  33.351  1.00  0.00     0.031 A 
ATOM     47  C   UNL A   1      40.305  31.469  32.333  1.00  0.00     0.074 A 
ATOM     48  C   UNL A   1      40.154  32.621  34.514  1.00  0.00     0.049 A 
ATOM     49  N   UNL A   1      41.493  30.931  32.409  1.00  0.00    -0.248 NA
ATOM     50  C   UNL A   1      39.609  31.219  31.059  1.00  0.00     0.031 C 
ATOM     51  C   UNL A   1      39.558  33.442  35.566  1.00  0.00     0.029 A 
ATOM     52  N   UNL A   1      41.391  32.285  35.011  1.00  0.00    -0.354 N 
ATOM     53  C   UNL A   1      41.683  30.265  31.204  1.00  0.00     0.074 A 
ATOM     54  C   UNL A   1      40.480  30.450  30.422  1.00  0.00     0.031 C 
ATOM     55  C   UNL A   1      40.423  33.534  36.592  1.00  0.00     0.029 A 
ATOM     56  C   UNL A   1      41.617  32.745  36.287  1.00  0.00     0.049 A 
ATOM     57  H   UNL A   1      42.052  31.763  34.501  1.00  0.00     0.167 HD
ATOM     58  C   UNL A   1      42.763  29.562  30.786  1.00  0.00     0.031 A 
ATOM     59  C   UNL A   1      42.651  32.530  37.124  1.00  0.00     0.031 A 
ATOM     60  C   UNL A   1      43.953  29.368  31.572  1.00  0.00     0.049 A 
ATOM     61  C   UNL A   1      43.810  31.679  36.665  1.00  0.00     0.074 A 
ATOM     62  C   UNL A   1      45.113  28.699  31.224  1.00  0.00     0.029 A 
ATOM     63  N   UNL A   1      44.130  29.826  32.870  1.00  0.00    -0.354 N 
ATOM     64  N   UNL A   1      43.997  31.097  35.505  1.00  0.00    -0.248 NA
ATOM     65  C   UNL A   1      44.899  31.462  37.630  1.00  0.00     0.031 C 
ATOM     66  C   UNL A   1      45.962  28.689  32.333  1.00  0.00     0.029 A 
ATOM     67  C   UNL A   1      45.364  29.417  33.350  1.00  0.00     0.049 A 
ATOM     68  H   UNL A   1      43.477  30.362  33.374  1.00  0.00     0.167 HD
ATOM     69  C   UNL A   1      45.232  30.461  35.594  1.00  0.00     0.074 A 
ATOM     70  C   UNL A   1      45.757  30.750  36.912  1.00  0.00     0.031 C 
ATOM     71  C   UNL A   1      45.873  29.705  34.667  1.00  0.00     0.031 A 
BRANCH  58  72
ATOM     72  C   UNL A   1      42.693  28.910  29.431  1.00  0.00    -0.014 A 
ATOM     73  C   UNL A   1      42.886  29.649  28.250  1.00  0.00     0.010 A 
ATOM     74  C   UNL A   1      42.482  27.522  29.342  1.00  0.00     0.010 A 
ATOM     75  C   UNL A   1      42.840  29.016  27.005  1.00  0.00     0.020 A 
ATOM     76  C   UNL A   1      42.463  26.880  28.101  1.00  0.00     0.020 A 
ATOM     77  C   UNL A   1      42.629  27.634  26.938  1.00  0.00     0.054 A 
BRANCH  77  78
ATOM     78  S   UNL A   1      42.609  26.835  25.310  1.00  0.00     0.124 S 
ATOM     79  O   UNL A   1      42.727  27.979  24.411  1.00  0.00    -0.237 OA
ATOM     80  O   UNL A   1      43.778  25.960  25.370  1.00  0.00    -0.237 OA
ATOM     81  O   UNL A   1      41.321  26.147  25.276  1.00  0.00    -0.744 OA
ENDBRANCH  77  78
ENDBRANCH  58  72
BRANCH  59  82
ATOM     82  C   UNL A   1      42.623  33.093  38.505  1.00  0.00    -0.014 A 
ATOM     83  C   UNL A   1      42.213  32.311  39.598  1.00  0.00     0.010 A 
ATOM     84  C   UNL A   1      43.000  34.431  38.728  1.00  0.00     0.010 A 
ATOM     85  C   UNL A   1      42.166  32.858  40.884  1.00  0.00     0.020 A 
ATOM     86  C   UNL A   1      42.984  34.972  40.016  1.00  0.00     0.020 A 
ATOM     87  C   UNL A   1      42.557  34.184  41.085  1.00  0.00     0.054 A 
BRANCH  87  88
ATOM     88  S   UNL A   1      42.541  34.857  42.770  1.00  0.00     0.124 S 
ATOM     89  O   UNL A   1      43.427  36.010  42.647  1.00  0.00    -0.237 OA
ATOM     90  O   UNL A   1      41.127  35.162  42.972  1.00  0.00    -0.237 OA
ATOM     91  O   UNL A   1      43.053  33.756  43.584  1.00  0.00    -0.744 OA
ENDBRANCH  87  88
ENDBRANCH  59  82
BRANCH  71  92
ATOM     92  C   UNL A   1      47.226  29.149  35.033  1.00  0.00    -0.014 A 
ATOM     93  C   UNL A   1      48.400  29.898  34.838  1.00  0.00     0.010 A 
ATOM     94  C   UNL A   1      47.318  27.884  35.642  1.00  0.00     0.010 A 
ATOM     95  C   UNL A   1      49.642  29.382  35.218  1.00  0.00     0.020 A 
ATOM     96  C   UNL A   1      48.554  27.376  36.052  1.00  0.00     0.020 A 
ATOM     97  C   UNL A   1      49.711  28.124  35.825  1.00  0.00     0.054 A 
BRANCH  97  98
ATOM     98  S   UNL A   1      51.330  27.498  36.353  1.00  0.00     0.124 S 
ATOM     99  O   UNL A   1      51.564  28.256  37.579  1.00  0.00    -0.237 OA
ATOM    100  O   UNL A   1      51.077  26.071  36.534  1.00  0.00    -0.237 OA
ATOM    101  O   UNL A   1      52.211  27.832  35.236  1.00  0.00    -0.744 OA
ENDBRANCH  97  98
ENDBRANCH  71  92
ENDBRANCH  45  46
ENDBRANCH  38  40
ENDBRANCH  37  38
ENDBRANCH  36  37
ENDBRANCH  35  36
ENDBRANCH  34  35
ENDBRANCH  33  34
ENDBRANCH   1  33
TORSDOF 26
ENDMDL
MODEL 3
REMARK VINA RESULT:      -8.4      5.113     13.883
REMARK SMILES Cc1cc(N2N=C(C(=O)OCCOCCOCCOCCOC(=O)c3ccc(-c4c5nc(c(-c6ccc(S(=O)(=O)[O-])cc6)c6ccc([nH]6)c(-c6ccc(S(=O)(=O)[O-])cc6)c6nc(c(-c7ccc(S(=O)(=O)[O-])cc7)c7ccc4[nH]7)C=C6)C=C5)cc3)C[C@H]2c2ccccc2)c([N+](=O)[O-])cc1C
REMARK SMILES IDX 17 1 16 2 15 3 14 4 13 5 12 6 11 7 10 8 8 9 9 10 7 11 5 12
REMARK SMILES IDX 6 13 86 14 85 15 4 16 1 17 2 18 3 19 98 20 97 21 99 22 93 23
REMARK SMILES IDX 94 24 95 25 96 26 87 27 88 28 92 29 89 30 91 31 90 32 18 33
REMARK SMILES IDX 19 34 20 35 21 36 22 37 23 38 24 39 25 40 26 41 84 42 27 43
REMARK SMILES IDX 83 44 28 45 29 46 30 47 77 48 31 49 82 50 76 51 78 52 32 53
REMARK SMILES IDX 81 54 75 55 74 56 33 58 63 59 44 60 62 61 45 62 48 63 61 64
REMARK SMILES IDX 79 65 46 66 47 67 60 69 80 70 49 71 34 72 35 73 43 74 36 75
REMARK SMILES IDX 42 76 37 77 38 78 39 79 40 80 41 81 64 82 65 83 73 84 66 85
REMARK SMILES IDX 72 86 67 87 68 88 69 89 70 90 71 91 50 92 51 93 59 94 52 95
REMARK SMILES IDX 58 96 53 97 54 98 55 99 56 100 57 101
REMARK H PARENT 78 57 48 68
REMARK Flexibility Score: inf
ROOT
ATOM      1  C   UNL A   1      45.232  25.183  32.275  1.00  0.00     0.188 C 
ENDROOT
BRANCH   1   2
ATOM      2  O   UNL A   1      45.253  26.089  31.172  1.00  0.00    -0.377 OA
BRANCH   2   3
ATOM      3  C   UNL A   1      46.180  27.162  31.209  1.00  0.00     0.188 C 
BRANCH   3   4
ATOM      4  C   UNL A   1      45.545  28.531  30.918  1.00  0.00     0.188 C 
BRANCH   4   5
ATOM      5  O   UNL A   1      45.973  29.128  29.709  1.00  0.00    -0.376 OA
BRANCH   5   6
ATOM      6  C   UNL A   1      45.238  30.162  29.070  1.00  0.00     0.202 C 
BRANCH   6   7
ATOM      7  C   UNL A   1      44.000  29.982  28.167  1.00  0.00     0.261 C 
BRANCH   7   8
ATOM      8  O   UNL A   1      44.227  29.918  26.764  1.00  0.00    -0.459 OA
BRANCH   8   9
ATOM      9  C   UNL A   1      43.881  28.792  26.130  1.00  0.00     0.354 C 
ATOM     10  O   UNL A   1      42.819  28.510  25.614  1.00  0.00    -0.245 OA
BRANCH   9  11
ATOM     11  C   UNL A   1      45.123  27.944  26.010  1.00  0.00     0.148 C 
ATOM     12  N   UNL A   1      46.952  27.182  25.288  1.00  0.00    -0.250 N 
ATOM     13  N   UNL A   1      46.027  28.162  25.100  1.00  0.00    -0.169 NA
ATOM     14  C   UNL A   1      46.469  26.099  26.174  1.00  0.00     0.144 C 
ATOM     15  C   UNL A   1      45.438  26.867  27.011  1.00  0.00     0.098 C 
BRANCH  12  16
ATOM     16  C   UNL A   1      48.080  27.156  24.489  1.00  0.00     0.138 A 
ATOM     17  C   UNL A   1      48.697  27.406  20.733  1.00  0.00     0.045 C 
ATOM     18  C   UNL A   1      49.004  27.288  22.200  1.00  0.00    -0.046 A 
ATOM     19  C   UNL A   1      47.934  27.370  23.110  1.00  0.00     0.039 A 
ATOM     20  C   UNL A   1      50.304  27.086  22.687  1.00  0.00    -0.041 A 
ATOM     21  C   UNL A   1      50.489  26.947  24.072  1.00  0.00     0.091 A 
ATOM     22  C   UNL A   1      51.517  27.043  21.798  1.00  0.00     0.045 C 
ATOM     23  C   UNL A   1      49.388  26.970  24.956  1.00  0.00     0.294 A 
BRANCH  23  24
ATOM     24  N   UNL A   1      49.673  26.795  26.381  1.00  0.00     0.065 N 
ATOM     25  O   UNL A   1      49.941  25.645  26.767  1.00  0.00    -0.258 OA
ATOM     26  O   UNL A   1      49.556  27.772  27.136  1.00  0.00    -0.258 OA
ENDBRANCH  23  24
ENDBRANCH  12  16
BRANCH  14  27
ATOM     27  C   UNL A   1      45.881  24.914  25.405  1.00  0.00    -0.023 A 
ATOM     28  C   UNL A   1      44.499  24.710  25.236  1.00  0.00     0.006 A 
ATOM     29  C   UNL A   1      46.748  23.970  24.828  1.00  0.00     0.006 A 
ATOM     30  C   UNL A   1      44.008  23.624  24.511  1.00  0.00     0.000 A 
ATOM     31  C   UNL A   1      46.258  22.910  24.061  1.00  0.00     0.000 A 
ATOM     32  C   UNL A   1      44.887  22.735  23.907  1.00  0.00     0.000 A 
ENDBRANCH  14  27
ENDBRANCH   9  11
ENDBRANCH   8   9
ENDBRANCH   7   8
ENDBRANCH   6   7
ENDBRANCH   5   6
ENDBRANCH   4   5
ENDBRANCH   3   4
ENDBRANCH   2   3
ENDBRANCH   1   2
BRANCH   1  33
ATOM     33  C   UNL A   1      46.530  24.775  33.009  1.00  0.00     0.188 C 
BRANCH  33  34
ATOM     34  O   UNL A   1      46.834  25.556  34.157  1.00  0.00    -0.376 OA
BRANCH  34  35
ATOM     35  C   UNL A   1      48.160  26.036  34.314  1.00  0.00     0.202 C 
BRANCH  35  36
ATOM     36  C   UNL A   1      48.889  25.658  35.611  1.00  0.00     0.261 C 
BRANCH  36  37
ATOM     37  O   UNL A   1      48.196  25.955  36.833  1.00  0.00    -0.460 OA
BRANCH  37  38
ATOM     38  C   UNL A   1      48.131  27.251  37.220  1.00  0.00     0.338 C 
ATOM     39  O   UNL A   1      49.007  27.908  37.733  1.00  0.00    -0.246 OA
BRANCH  38  40
ATOM     40  C   UNL A   1      46.843  27.790  36.725  1.00  0.00     0.060 A 
ATOM     41  C   UNL A   1      46.842  28.978  35.984  1.00  0.00     0.016 A 
ATOM     42  C   UNL A   1      45.648  27.113  36.978  1.00  0.00     0.016 A 
ATOM     43  C   UNL A   1      45.638  29.505  35.512  1.00  0.00     0.010 A 
ATOM     44  C   UNL A   1      44.443  27.652  36.521  1.00  0.00     0.010 A 
ATOM     45  C   UNL A   1      44.428  28.863  35.806  1.00  0.00    -0.014 A 
BRANCH  45  46
ATOM     46  C   UNL A   1      43.135  29.523  35.496  1.00  0.00     0.031 A 
ATOM     47  C   UNL A   1      42.385  29.099  34.262  1.00  0.00     0.074 A 
ATOM     48  C   UNL A   1      42.638  30.489  36.291  1.00  0.00     0.049 A 
ATOM     49  N   UNL A   1      41.277  29.579  33.761  1.00  0.00    -0.248 NA
ATOM     50  C   UNL A   1      42.965  27.986  33.491  1.00  0.00     0.031 C 
ATOM     51  C   UNL A   1      43.249  30.964  37.530  1.00  0.00     0.029 A 
ATOM     52  N   UNL A   1      41.505  31.255  36.158  1.00  0.00    -0.354 N 
ATOM     53  C   UNL A   1      41.034  28.840  32.608  1.00  0.00     0.074 A 
ATOM     54  C   UNL A   1      42.120  27.893  32.475  1.00  0.00     0.031 C 
ATOM     55  C   UNL A   1      42.492  31.953  38.039  1.00  0.00     0.029 A 
ATOM     56  C   UNL A   1      41.366  32.208  37.140  1.00  0.00     0.049 A 
ATOM     57  H   UNL A   1      40.855  31.134  35.429  1.00  0.00     0.167 HD
ATOM     58  C   UNL A   1      40.000  28.941  31.740  1.00  0.00     0.031 A 
ATOM     59  C   UNL A   1      40.456  33.193  37.281  1.00  0.00     0.031 A 
ATOM     60  C   UNL A   1      38.928  29.893  31.869  1.00  0.00     0.049 A 
ATOM     61  C   UNL A   1      39.355  33.335  36.259  1.00  0.00     0.074 A 
ATOM     62  C   UNL A   1      37.818  30.051  31.059  1.00  0.00     0.029 A 
ATOM     63  N   UNL A   1      38.840  30.859  32.860  1.00  0.00    -0.354 N 
ATOM     64  N   UNL A   1      39.112  32.598  35.202  1.00  0.00    -0.248 NA
ATOM     65  C   UNL A   1      38.405  34.440  36.454  1.00  0.00     0.031 C 
ATOM     66  C   UNL A   1      37.097  31.157  31.516  1.00  0.00     0.029 A 
ATOM     67  C   UNL A   1      37.717  31.644  32.656  1.00  0.00     0.049 A 
ATOM     68  H   UNL A   1      39.480  30.971  33.600  1.00  0.00     0.167 HD
ATOM     69  C   UNL A   1      37.970  33.139  34.617  1.00  0.00     0.074 A 
ATOM     70  C   UNL A   1      37.558  34.249  35.451  1.00  0.00     0.031 C 
ATOM     71  C   UNL A   1      37.321  32.751  33.490  1.00  0.00     0.031 A 
BRANCH  58  72
ATOM     72  C   UNL A   1      39.997  28.025  30.544  1.00  0.00    -0.014 A 
ATOM     73  C   UNL A   1      39.153  26.902  30.481  1.00  0.00     0.010 A 
ATOM     74  C   UNL A   1      40.817  28.327  29.442  1.00  0.00     0.010 A 
ATOM     75  C   UNL A   1      39.152  26.082  29.350  1.00  0.00     0.020 A 
ATOM     76  C   UNL A   1      40.799  27.526  28.297  1.00  0.00     0.020 A 
ATOM     77  C   UNL A   1      39.975  26.400  28.264  1.00  0.00     0.054 A 
BRANCH  77  78
ATOM     78  S   UNL A   1      39.926  25.336  26.795  1.00  0.00     0.124 S 
ATOM     79  O   UNL A   1      38.495  25.090  26.649  1.00  0.00    -0.237 OA
ATOM     80  O   UNL A   1      40.526  26.183  25.768  1.00  0.00    -0.237 OA
ATOM     81  O   UNL A   1      40.721  24.173  27.182  1.00  0.00    -0.744 OA
ENDBRANCH  77  78
ENDBRANCH  58  72
BRANCH  59  82
ATOM     82  C   UNL A   1      40.568  34.156  38.415  1.00  0.00    -0.014 A 
ATOM     83  C   UNL A   1      41.396  35.287  38.324  1.00  0.00     0.010 A 
ATOM     84  C   UNL A   1      39.848  33.932  39.603  1.00  0.00     0.010 A 
ATOM     85  C   UNL A   1      41.514  36.169  39.403  1.00  0.00     0.020 A 
ATOM     86  C   UNL A   1      39.938  34.827  40.672  1.00  0.00     0.020 A 
ATOM     87  C   UNL A   1      40.779  35.936  40.569  1.00  0.00     0.054 A 
BRANCH  87  88
ATOM     88  S   UNL A   1      40.903  37.122  41.936  1.00  0.00     0.124 S 
ATOM     89  O   UNL A   1      41.875  38.081  41.421  1.00  0.00    -0.237 OA
ATOM     90  O   UNL A   1      39.531  37.610  42.053  1.00  0.00    -0.237 OA
ATOM     91  O   UNL A   1      41.361  36.305  43.058  1.00  0.00    -0.744 OA
ENDBRANCH  87  88
ENDBRANCH  59  82
BRANCH  71  92
ATOM     92  C   UNL A   1      36.083  33.517  33.097  1.00  0.00    -0.014 A 
ATOM     93  C   UNL A   1      34.811  33.136  33.560  1.00  0.00     0.010 A 
ATOM     94  C   UNL A   1      36.202  34.675  32.307  1.00  0.00     0.010 A 
ATOM     95  C   UNL A   1      33.680  33.880  33.217  1.00  0.00     0.020 A 
ATOM     96  C   UNL A   1      35.078  35.441  31.987  1.00  0.00     0.020 A 
ATOM     97  C   UNL A   1      33.820  35.031  32.433  1.00  0.00     0.054 A 
BRANCH  97  98
ATOM     98  S   UNL A   1      32.341  36.005  32.042  1.00  0.00     0.124 S 
ATOM     99  O   UNL A   1      32.543  37.203  32.854  1.00  0.00    -0.237 OA
ATOM    100  O   UNL A   1      32.456  36.197  30.599  1.00  0.00    -0.237 OA
ATOM    101  O   UNL A   1      31.238  35.145  32.465  1.00  0.00    -0.744 OA
ENDBRANCH  97  98
ENDBRANCH  71  92
ENDBRANCH  45  46
ENDBRANCH  38  40
ENDBRANCH  37  38
ENDBRANCH  36  37
ENDBRANCH  35  36
ENDBRANCH  34  35
ENDBRANCH  33  34
ENDBRANCH   1  33
TORSDOF 26
ENDMDL
