MODEL 1
REMARK VINA RESULT:     -10.5      0.000      0.000
REMARK SMILES CS(=O)(=O)c1ccc(-n2nc(C(F)(F)F)cc2-c2ccc(CC(=O)OCCOCCOCCOCCOC(=O)c3ccc(-c4c5nc(c(-c6ccc(S(=O)(=O)[O-])cc6)c6ccc([nH]6)c(-c6ccc(S(=O)(=O)[O-])cc6)c6nc(c(-c7ccc(S(=O)(=O)[O-])cc7)c7ccc4[nH]7)C=C6)C=C5)cc3)cc2)cc1
REMARK SMILES IDX 30 1 29 2 28 3 27 4 26 5 25 6 23 7 24 8 22 9 21 10 18 11
REMARK SMILES IDX 19 12 101 13 20 14 100 15 17 16 9 17 10 18 11 19 16 20 8 21
REMARK SMILES IDX 5 22 6 23 103 24 7 25 102 26 2 27 1 28 3 29 4 30 12 31 13 32
REMARK SMILES IDX 14 33 15 34 31 35 32 36 33 37 34 38 35 39 36 40 37 41 38 42
REMARK SMILES IDX 39 43 40 44 41 45 99 46 42 47 98 48 43 49 44 50 45 51 92 52
REMARK SMILES IDX 46 53 97 54 91 55 93 56 47 57 96 58 90 59 89 60 48 62 78 63
REMARK SMILES IDX 59 64 77 65 60 66 63 67 76 68 94 69 61 70 62 71 75 73 95 74
REMARK SMILES IDX 64 75 49 76 50 77 58 78 51 79 57 80 52 81 53 82 54 83 55 84
REMARK SMILES IDX 56 85 79 86 80 87 88 88 81 89 87 90 82 91 83 92 84 93 85 94
REMARK SMILES IDX 86 95 65 96 66 97 74 98 67 99 73 100 68 101 69 102 70 103
REMARK SMILES IDX 71 104 72 105
REMARK H PARENT 93 61 63 72
REMARK Flexibility Score: inf
ROOT
ATOM      1  C   UNL A   1      33.963  28.504  26.243  1.00  0.00     0.188 C 
ENDROOT
BRANCH   1   2
ATOM      2  C   UNL A   1      32.910  28.853  25.163  1.00  0.00     0.188 C 
BRANCH   2   3
ATOM      3  O   UNL A   1      31.539  28.604  25.396  1.00  0.00    -0.376 OA
BRANCH   3   4
ATOM      4  C   UNL A   1      31.089  27.353  25.873  1.00  0.00     0.202 C 
BRANCH   4   5
ATOM      5  C   UNL A   1      30.042  26.473  25.140  1.00  0.00     0.261 C 
BRANCH   5   6
ATOM      6  O   UNL A   1      30.471  25.631  24.036  1.00  0.00    -0.463 OA
BRANCH   6   7
ATOM      7  C   UNL A   1      30.974  26.251  22.949  1.00  0.00     0.310 C 
ATOM      8  O   UNL A   1      30.408  27.215  22.430  1.00  0.00    -0.252 OA
BRANCH   7   9
ATOM      9  C   UNL A   1      32.351  25.810  22.437  1.00  0.00     0.158 C 
BRANCH   9  10
ATOM     10  C   UNL A   1      33.436  25.021  23.183  1.00  0.00    -0.037 A 
ATOM     11  C   UNL A   1      35.725  23.797  24.476  1.00  0.00     0.000 A 
ATOM     12  C   UNL A   1      34.971  24.789  25.120  1.00  0.00     0.010 A 
ATOM     13  C   UNL A   1      35.305  23.422  23.190  1.00  0.00     0.010 A 
ATOM     14  C   UNL A   1      33.870  25.405  24.476  1.00  0.00     0.005 A 
ATOM     15  C   UNL A   1      34.174  24.008  22.562  1.00  0.00     0.005 A 
BRANCH  11  16
ATOM     16  C   UNL A   1      36.872  23.118  25.134  1.00  0.00     0.075 A 
ATOM     17  N   UNL A   1      36.965  21.761  25.446  1.00  0.00    -0.233 N 
ATOM     18  N   UNL A   1      38.131  21.429  26.022  1.00  0.00    -0.163 NA
ATOM     19  C   UNL A   1      38.793  22.569  26.205  1.00  0.00     0.167 A 
ATOM     20  C   UNL A   1      38.033  23.656  25.688  1.00  0.00     0.064 A 
BRANCH  17  21
ATOM     21  C   UNL A   1      36.050  20.717  25.255  1.00  0.00     0.065 A 
ATOM     22  C   UNL A   1      34.296  18.668  24.691  1.00  0.00     0.067 A 
ATOM     23  C   UNL A   1      33.853  19.853  25.319  1.00  0.00     0.022 A 
ATOM     24  C   UNL A   1      35.659  18.442  24.538  1.00  0.00     0.022 A 
ATOM     25  C   UNL A   1      34.708  20.916  25.489  1.00  0.00     0.030 A 
ATOM     26  C   UNL A   1      36.535  19.471  24.819  1.00  0.00     0.030 A 
BRANCH  22  27
ATOM     27  S   UNL A   1      33.172  17.305  23.632  1.00  0.00     0.175 S 
ATOM     28  C   UNL A   1      32.054  18.224  21.523  1.00  0.00     0.163 C 
ATOM     29  O   UNL A   1      32.377  16.723  24.702  1.00  0.00    -0.224 OA
ATOM     30  O   UNL A   1      34.263  16.373  23.449  1.00  0.00    -0.224 OA
ENDBRANCH  22  27
ENDBRANCH  17  21
BRANCH  19  31
ATOM     31  C   UNL A   1      40.129  22.538  26.896  1.00  0.00     0.435 C 
ATOM     32  F   UNL A   1      40.374  23.683  27.589  1.00  0.00    -0.164 F 
ATOM     33  F   UNL A   1      40.222  21.508  27.778  1.00  0.00    -0.164 F 
ATOM     34  F   UNL A   1      41.151  22.393  26.012  1.00  0.00    -0.164 F 
ENDBRANCH  19  31
ENDBRANCH  11  16
ENDBRANCH   9  10
ENDBRANCH   7   9
ENDBRANCH   6   7
ENDBRANCH   5   6
ENDBRANCH   4   5
ENDBRANCH   3   4
ENDBRANCH   2   3
ENDBRANCH   1   2
BRANCH   1  35
ATOM     35  O   UNL A   1      34.658  29.545  26.888  1.00  0.00    -0.377 OA
BRANCH  35  36
ATOM     36  C   UNL A   1      33.900  30.620  27.382  1.00  0.00     0.188 C 
BRANCH  36  37
ATOM     37  C   UNL A   1      34.579  31.890  27.910  1.00  0.00     0.188 C 
BRANCH  37  38
ATOM     38  O   UNL A   1      34.387  32.452  29.189  1.00  0.00    -0.376 OA
BRANCH  38  39
ATOM     39  C   UNL A   1      35.146  33.600  29.607  1.00  0.00     0.202 C 
BRANCH  39  40
ATOM     40  C   UNL A   1      36.651  33.595  29.974  1.00  0.00     0.261 C 
BRANCH  40  41
ATOM     41  O   UNL A   1      37.060  33.578  31.369  1.00  0.00    -0.460 OA
BRANCH  41  42
ATOM     42  C   UNL A   1      36.286  33.125  32.407  1.00  0.00     0.338 C 
ATOM     43  O   UNL A   1      35.323  33.680  32.905  1.00  0.00    -0.246 OA
BRANCH  42  44
ATOM     44  C   UNL A   1      36.930  31.876  32.960  1.00  0.00     0.060 A 
ATOM     45  C   UNL A   1      38.556  32.314  33.561  1.00  0.00     0.016 A 
ATOM     46  C   UNL A   1      36.738  30.294  32.120  1.00  0.00     0.016 A 
ATOM     47  C   UNL A   1      39.994  31.323  33.161  1.00  0.00     0.010 A 
ATOM     48  C   UNL A   1      38.182  29.292  31.662  1.00  0.00     0.010 A 
ATOM     49  C   UNL A   1      39.820  29.809  32.205  1.00  0.00    -0.014 A 
BRANCH  49  50
ATOM     50  C   UNL A   1      40.980  28.981  31.784  1.00  0.00     0.031 A 
ATOM     51  C   UNL A   1      41.709  28.764  33.052  1.00  0.00     0.074 A 
ATOM     52  C   UNL A   1      41.321  28.418  30.572  1.00  0.00     0.049 A 
ATOM     53  N   UNL A   1      42.431  29.678  33.629  1.00  0.00    -0.248 NA
ATOM     54  C   UNL A   1      41.292  27.697  33.991  1.00  0.00     0.031 C 
ATOM     55  C   UNL A   1      40.619  28.416  29.275  1.00  0.00     0.029 A 
ATOM     56  N   UNL A   1      42.432  27.648  30.224  1.00  0.00    -0.354 N 
ATOM     57  C   UNL A   1      42.947  29.013  34.725  1.00  0.00     0.074 A 
ATOM     58  C   UNL A   1      41.918  28.088  35.109  1.00  0.00     0.031 C 
ATOM     59  C   UNL A   1      41.125  27.506  28.407  1.00  0.00     0.029 A 
ATOM     60  C   UNL A   1      42.348  26.976  28.961  1.00  0.00     0.049 A 
ATOM     61  H   UNL A   1      43.222  27.573  30.807  1.00  0.00     0.167 HD
ATOM     62  C   UNL A   1      44.296  28.808  34.769  1.00  0.00     0.031 A 
ATOM     63  C   UNL A   1      43.287  26.210  28.311  1.00  0.00     0.031 A 
ATOM     64  C   UNL A   1      44.961  29.643  33.793  1.00  0.00     0.049 A 
ATOM     65  C   UNL A   1      44.584  26.653  28.846  1.00  0.00     0.074 A 
ATOM     66  C   UNL A   1      45.107  31.000  33.586  1.00  0.00     0.029 A 
ATOM     67  N   UNL A   1      45.126  29.030  32.574  1.00  0.00    -0.354 N 
ATOM     68  N   UNL A   1      45.083  27.830  28.592  1.00  0.00    -0.248 NA
ATOM     69  C   UNL A   1      45.110  25.964  30.010  1.00  0.00     0.031 C 
ATOM     70  C   UNL A   1      45.290  31.179  32.186  1.00  0.00     0.029 A 
ATOM     71  C   UNL A   1      45.393  29.931  31.581  1.00  0.00     0.049 A 
ATOM     72  H   UNL A   1      45.060  28.058  32.433  1.00  0.00     0.167 HD
ATOM     73  C   UNL A   1      45.597  28.221  29.809  1.00  0.00     0.074 A 
ATOM     74  C   UNL A   1      45.724  26.994  30.596  1.00  0.00     0.031 C 
ATOM     75  C   UNL A   1      45.498  29.522  30.200  1.00  0.00     0.031 A 
BRANCH  62  76
ATOM     76  C   UNL A   1      44.931  27.510  35.231  1.00  0.00    -0.014 A 
ATOM     77  C   UNL A   1      44.528  26.311  34.616  1.00  0.00     0.010 A 
ATOM     78  C   UNL A   1      45.740  27.387  36.383  1.00  0.00     0.010 A 
ATOM     79  C   UNL A   1      44.936  25.065  35.113  1.00  0.00     0.020 A 
ATOM     80  C   UNL A   1      46.177  26.156  36.870  1.00  0.00     0.020 A 
ATOM     81  C   UNL A   1      45.773  24.999  36.228  1.00  0.00     0.054 A 
BRANCH  81  82
ATOM     82  S   UNL A   1      46.342  23.392  36.824  1.00  0.00     0.124 S 
ATOM     83  O   UNL A   1      47.512  23.153  35.986  1.00  0.00    -0.237 OA
ATOM     84  O   UNL A   1      46.611  23.673  38.232  1.00  0.00    -0.237 OA
ATOM     85  O   UNL A   1      45.201  22.512  36.580  1.00  0.00    -0.744 OA
ENDBRANCH  81  82
ENDBRANCH  62  76
BRANCH  63  86
ATOM     86  C   UNL A   1      43.266  25.019  27.380  1.00  0.00    -0.014 A 
ATOM     87  C   UNL A   1      43.234  25.171  25.964  1.00  0.00     0.010 A 
ATOM     88  C   UNL A   1      43.675  23.761  27.856  1.00  0.00     0.010 A 
ATOM     89  C   UNL A   1      43.679  24.152  25.081  1.00  0.00     0.020 A 
ATOM     90  C   UNL A   1      44.123  22.743  26.981  1.00  0.00     0.020 A 
ATOM     91  C   UNL A   1      44.153  22.948  25.600  1.00  0.00     0.054 A 
BRANCH  91  92
ATOM     92  S   UNL A   1      44.927  21.708  24.495  1.00  0.00     0.124 S 
ATOM     93  O   UNL A   1      44.091  20.528  24.700  1.00  0.00    -0.237 OA
ATOM     94  O   UNL A   1      44.819  22.331  23.178  1.00  0.00    -0.237 OA
ATOM     95  O   UNL A   1      46.291  21.592  25.009  1.00  0.00    -0.744 OA
ENDBRANCH  91  92
ENDBRANCH  63  86
BRANCH  75  96
ATOM     96  C   UNL A   1      45.470  30.593  29.145  1.00  0.00    -0.014 A 
ATOM     97  C   UNL A   1      46.587  31.210  28.550  1.00  0.00     0.010 A 
ATOM     98  C   UNL A   1      44.188  30.914  28.667  1.00  0.00     0.010 A 
ATOM     99  C   UNL A   1      46.408  32.135  27.504  1.00  0.00     0.020 A 
ATOM    100  C   UNL A   1      44.006  31.811  27.621  1.00  0.00     0.020 A 
ATOM    101  C   UNL A   1      45.115  32.428  27.048  1.00  0.00     0.054 A 
BRANCH 101 102
ATOM    102  S   UNL A   1      44.867  33.605  25.688  1.00  0.00     0.124 S 
ATOM    103  O   UNL A   1      43.996  34.608  26.292  1.00  0.00    -0.237 OA
ATOM    104  O   UNL A   1      46.228  34.045  25.389  1.00  0.00    -0.237 OA
ATOM    105  O   UNL A   1      44.244  32.798  24.639  1.00  0.00    -0.744 OA
ENDBRANCH 101 102
ENDBRANCH  75  96
ENDBRANCH  49  50
ENDBRANCH  42  44
ENDBRANCH  41  42
ENDBRANCH  40  41
ENDBRANCH  39  40
ENDBRANCH  38  39
ENDBRANCH  37  38
ENDBRANCH  36  37
ENDBRANCH  35  36
ENDBRANCH   1  35
TORSDOF 28
ENDMDL
MODEL 2
REMARK VINA RESULT:      -9.3      2.703      6.938
REMARK SMILES CS(=O)(=O)c1ccc(-n2nc(C(F)(F)F)cc2-c2ccc(CC(=O)OCCOCCOCCOCCOC(=O)c3ccc(-c4c5nc(c(-c6ccc(S(=O)(=O)[O-])cc6)c6ccc([nH]6)c(-c6ccc(S(=O)(=O)[O-])cc6)c6nc(c(-c7ccc(S(=O)(=O)[O-])cc7)c7ccc4[nH]7)C=C6)C=C5)cc3)cc2)cc1
REMARK SMILES IDX 30 1 29 2 28 3 27 4 26 5 25 6 23 7 24 8 22 9 21 10 18 11
REMARK SMILES IDX 19 12 101 13 20 14 100 15 17 16 9 17 10 18 11 19 16 20 8 21
REMARK SMILES IDX 5 22 6 23 103 24 7 25 102 26 2 27 1 28 3 29 4 30 12 31 13 32
REMARK SMILES IDX 14 33 15 34 31 35 32 36 33 37 34 38 35 39 36 40 37 41 38 42
REMARK SMILES IDX 39 43 40 44 41 45 99 46 42 47 98 48 43 49 44 50 45 51 92 52
REMARK SMILES IDX 46 53 97 54 91 55 93 56 47 57 96 58 90 59 89 60 48 62 78 63
REMARK SMILES IDX 59 64 77 65 60 66 63 67 76 68 94 69 61 70 62 71 75 73 95 74
REMARK SMILES IDX 64 75 49 76 50 77 58 78 51 79 57 80 52 81 53 82 54 83 55 84
REMARK SMILES IDX 56 85 79 86 80 87 88 88 81 89 87 90 82 91 83 92 84 93 85 94
REMARK SMILES IDX 86 95 65 96 66 97 74 98 67 99 73 100 68 101 69 102 70 103
REMARK SMILES IDX 71 104 72 105
REMARK H PARENT 93 61 63 72
REMARK Flexibility Score: inf
ROOT
ATOM      1  C   UNL A   1      33.274  28.133  22.404  1.00  0.00     0.188 C 
ENDROOT
BRANCH   1   2
ATOM      2  C   UNL A   1      32.140  27.089  22.262  1.00  0.00     0.188 C 
BRANCH   2   3
ATOM      3  O   UNL A   1      30.826  27.500  21.946  1.00  0.00    -0.376 OA
BRANCH   3   4
ATOM      4  C   UNL A   1      29.948  27.984  22.941  1.00  0.00     0.202 C 
BRANCH   4   5
ATOM      5  C   UNL A   1      28.956  27.090  23.730  1.00  0.00     0.261 C 
BRANCH   5   6
ATOM      6  O   UNL A   1      29.393  25.785  24.196  1.00  0.00    -0.463 OA
BRANCH   6   7
ATOM      7  C   UNL A   1      30.275  25.759  25.216  1.00  0.00     0.310 C 
ATOM      8  O   UNL A   1      30.536  26.768  25.875  1.00  0.00    -0.252 OA
BRANCH   7   9
ATOM      9  C   UNL A   1      30.858  24.404  25.634  1.00  0.00     0.158 C 
BRANCH   9  10
ATOM     10  C   UNL A   1      32.332  23.972  25.672  1.00  0.00    -0.037 A 
ATOM     11  C   UNL A   1      35.175  23.472  25.939  1.00  0.00     0.000 A 
ATOM     12  C   UNL A   1      34.270  23.065  26.929  1.00  0.00     0.010 A 
ATOM     13  C   UNL A   1      34.633  24.115  24.815  1.00  0.00     0.010 A 
ATOM     14  C   UNL A   1      32.884  23.333  26.810  1.00  0.00     0.005 A 
ATOM     15  C   UNL A   1      33.238  24.345  24.675  1.00  0.00     0.005 A 
BRANCH  11  16
ATOM     16  C   UNL A   1      36.631  23.185  26.027  1.00  0.00     0.075 A 
ATOM     17  N   UNL A   1      37.259  21.978  25.719  1.00  0.00    -0.233 N 
ATOM     18  N   UNL A   1      38.592  22.018  25.876  1.00  0.00    -0.163 NA
ATOM     19  C   UNL A   1      38.868  23.213  26.393  1.00  0.00     0.167 A 
ATOM     20  C   UNL A   1      37.670  23.968  26.529  1.00  0.00     0.064 A 
BRANCH  17  21
ATOM     21  C   UNL A   1      36.725  20.758  25.282  1.00  0.00     0.065 A 
ATOM     22  C   UNL A   1      35.574  18.352  24.587  1.00  0.00     0.067 A 
ATOM     23  C   UNL A   1      36.978  18.501  24.633  1.00  0.00     0.022 A 
ATOM     24  C   UNL A   1      34.762  19.475  24.691  1.00  0.00     0.022 A 
ATOM     25  C   UNL A   1      37.543  19.666  25.095  1.00  0.00     0.030 A 
ATOM     26  C   UNL A   1      35.341  20.679  25.042  1.00  0.00     0.030 A 
BRANCH  22  27
ATOM     27  S   UNL A   1      34.485  16.609  24.711  1.00  0.00     0.175 S 
ATOM     28  C   UNL A   1      32.199  16.834  25.837  1.00  0.00     0.163 C 
ATOM     29  O   UNL A   1      35.490  15.701  25.243  1.00  0.00    -0.224 OA
ATOM     30  O   UNL A   1      34.498  16.362  23.287  1.00  0.00    -0.224 OA
ENDBRANCH  22  27
ENDBRANCH  17  21
BRANCH  19  31
ATOM     31  C   UNL A   1      40.292  23.547  26.746  1.00  0.00     0.435 C 
ATOM     32  F   UNL A   1      41.179  23.000  25.872  1.00  0.00    -0.164 F 
ATOM     33  F   UNL A   1      40.513  24.888  26.754  1.00  0.00    -0.164 F 
ATOM     34  F   UNL A   1      40.627  23.085  27.980  1.00  0.00    -0.164 F 
ENDBRANCH  19  31
ENDBRANCH  11  16
ENDBRANCH   9  10
ENDBRANCH   7   9
ENDBRANCH   6   7
ENDBRANCH   5   6
ENDBRANCH   4   5
ENDBRANCH   3   4
ENDBRANCH   2   3
ENDBRANCH   1   2
BRANCH   1  35
ATOM     35  O   UNL A   1      33.242  29.040  23.481  1.00  0.00    -0.377 OA
BRANCH  35  36
ATOM     36  C   UNL A   1      33.302  28.507  24.778  1.00  0.00     0.188 C 
BRANCH  36  37
ATOM     37  C   UNL A   1      32.947  29.362  26.003  1.00  0.00     0.188 C 
BRANCH  37  38
ATOM     38  O   UNL A   1      33.697  30.454  26.486  1.00  0.00    -0.376 OA
BRANCH  38  39
ATOM     39  C   UNL A   1      34.578  30.297  27.611  1.00  0.00     0.202 C 
BRANCH  39  40
ATOM     40  C   UNL A   1      35.647  31.324  28.064  1.00  0.00     0.261 C 
BRANCH  40  41
ATOM     41  O   UNL A   1      37.058  30.974  28.017  1.00  0.00    -0.460 OA
BRANCH  41  42
ATOM     42  C   UNL A   1      37.977  31.295  28.983  1.00  0.00     0.338 C 
ATOM     43  O   UNL A   1      38.253  32.407  29.398  1.00  0.00    -0.246 OA
BRANCH  42  44
ATOM     44  C   UNL A   1      38.734  30.040  29.344  1.00  0.00     0.060 A 
ATOM     45  C   UNL A   1      39.599  30.338  30.880  1.00  0.00     0.016 A 
ATOM     46  C   UNL A   1      39.576  29.078  28.074  1.00  0.00     0.016 A 
ATOM     47  C   UNL A   1      41.321  29.888  31.081  1.00  0.00     0.010 A 
ATOM     48  C   UNL A   1      41.333  28.647  28.232  1.00  0.00     0.010 A 
ATOM     49  C   UNL A   1      42.203  29.045  29.759  1.00  0.00    -0.014 A 
BRANCH  49  50
ATOM     50  C   UNL A   1      43.648  28.705  29.838  1.00  0.00     0.031 A 
ATOM     51  C   UNL A   1      44.292  29.836  29.135  1.00  0.00     0.074 A 
ATOM     52  C   UNL A   1      44.323  27.684  30.472  1.00  0.00     0.049 A 
ATOM     53  N   UNL A   1      44.283  29.975  27.842  1.00  0.00    -0.248 NA
ATOM     54  C   UNL A   1      44.556  31.112  29.838  1.00  0.00     0.031 C 
ATOM     55  C   UNL A   1      43.834  26.589  31.330  1.00  0.00     0.029 A 
ATOM     56  N   UNL A   1      45.690  27.404  30.511  1.00  0.00    -0.354 N 
ATOM     57  C   UNL A   1      45.037  31.117  27.652  1.00  0.00     0.074 A 
ATOM     58  C   UNL A   1      44.758  31.934  28.799  1.00  0.00     0.031 C 
ATOM     59  C   UNL A   1      44.832  25.967  32.005  1.00  0.00     0.029 A 
ATOM     60  C   UNL A   1      46.096  26.440  31.491  1.00  0.00     0.049 A 
ATOM     61  H   UNL A   1      46.332  27.839  29.905  1.00  0.00     0.167 HD
ATOM     62  C   UNL A   1      46.231  30.991  27.002  1.00  0.00     0.031 A 
ATOM     63  C   UNL A   1      47.340  25.906  31.733  1.00  0.00     0.031 A 
ATOM     64  C   UNL A   1      46.306  29.709  26.337  1.00  0.00     0.049 A 
ATOM     65  C   UNL A   1      48.074  26.050  30.466  1.00  0.00     0.074 A 
ATOM     66  C   UNL A   1      45.613  29.076  25.325  1.00  0.00     0.029 A 
ATOM     67  N   UNL A   1      46.872  28.726  27.114  1.00  0.00    -0.354 N 
ATOM     68  N   UNL A   1      47.773  25.368  29.398  1.00  0.00    -0.248 NA
ATOM     69  C   UNL A   1      48.848  27.262  30.264  1.00  0.00     0.031 C 
ATOM     70  C   UNL A   1      45.723  27.679  25.571  1.00  0.00     0.029 A 
ATOM     71  C   UNL A   1      46.592  27.474  26.638  1.00  0.00     0.049 A 
ATOM     72  H   UNL A   1      47.414  28.901  27.916  1.00  0.00     0.167 HD
ATOM     73  C   UNL A   1      47.881  26.302  28.390  1.00  0.00     0.074 A 
ATOM     74  C   UNL A   1      48.682  27.392  28.947  1.00  0.00     0.031 C 
ATOM     75  C   UNL A   1      46.995  26.287  27.355  1.00  0.00     0.031 A 
BRANCH  62  76
ATOM     76  C   UNL A   1      47.496  31.712  27.428  1.00  0.00    -0.014 A 
ATOM     77  C   UNL A   1      48.250  31.174  28.486  1.00  0.00     0.010 A 
ATOM     78  C   UNL A   1      47.861  33.004  26.987  1.00  0.00     0.010 A 
ATOM     79  C   UNL A   1      49.324  31.879  29.047  1.00  0.00     0.020 A 
ATOM     80  C   UNL A   1      48.944  33.704  27.517  1.00  0.00     0.020 A 
ATOM     81  C   UNL A   1      49.673  33.133  28.545  1.00  0.00     0.054 A 
BRANCH  81  82
ATOM     82  S   UNL A   1      51.095  34.009  29.235  1.00  0.00     0.124 S 
ATOM     83  O   UNL A   1      51.999  32.912  29.560  1.00  0.00    -0.237 OA
ATOM     84  O   UNL A   1      51.496  34.857  28.115  1.00  0.00    -0.237 OA
ATOM     85  O   UNL A   1      50.534  34.724  30.379  1.00  0.00    -0.744 OA
ENDBRANCH  81  82
ENDBRANCH  62  76
BRANCH  63  86
ATOM     86  C   UNL A   1      48.092  25.400  32.943  1.00  0.00    -0.014 A 
ATOM     87  C   UNL A   1      47.457  24.621  33.952  1.00  0.00     0.010 A 
ATOM     88  C   UNL A   1      49.496  25.341  32.910  1.00  0.00     0.010 A 
ATOM     89  C   UNL A   1      48.184  23.759  34.815  1.00  0.00     0.020 A 
ATOM     90  C   UNL A   1      50.225  24.481  33.764  1.00  0.00     0.020 A 
ATOM     91  C   UNL A   1      49.570  23.671  34.694  1.00  0.00     0.054 A 
BRANCH  91  92
ATOM     92  S   UNL A   1      50.501  22.412  35.647  1.00  0.00     0.124 S 
ATOM     93  O   UNL A   1      50.058  21.159  35.042  1.00  0.00    -0.237 OA
ATOM     94  O   UNL A   1      51.894  22.773  35.392  1.00  0.00    -0.237 OA
ATOM     95  O   UNL A   1      50.054  22.622  37.023  1.00  0.00    -0.744 OA
ENDBRANCH  91  92
ENDBRANCH  63  86
BRANCH  75  96
ATOM     96  C   UNL A   1      46.381  24.977  26.948  1.00  0.00    -0.014 A 
ATOM     97  C   UNL A   1      45.230  24.385  27.502  1.00  0.00     0.010 A 
ATOM     98  C   UNL A   1      46.989  24.362  25.840  1.00  0.00     0.010 A 
ATOM     99  C   UNL A   1      44.715  23.195  26.953  1.00  0.00     0.020 A 
ATOM    100  C   UNL A   1      46.473  23.199  25.281  1.00  0.00     0.020 A 
ATOM    101  C   UNL A   1      45.343  22.611  25.845  1.00  0.00     0.054 A 
BRANCH 101 102
ATOM    102  S   UNL A   1      44.683  21.086  25.114  1.00  0.00     0.124 S 
ATOM    103  O   UNL A   1      43.484  20.846  25.910  1.00  0.00    -0.237 OA
ATOM    104  O   UNL A   1      44.454  21.467  23.722  1.00  0.00    -0.237 OA
ATOM    105  O   UNL A   1      45.758  20.114  25.309  1.00  0.00    -0.744 OA
ENDBRANCH 101 102
ENDBRANCH  75  96
ENDBRANCH  49  50
ENDBRANCH  42  44
ENDBRANCH  41  42
ENDBRANCH  40  41
ENDBRANCH  39  40
ENDBRANCH  38  39
ENDBRANCH  37  38
ENDBRANCH  36  37
ENDBRANCH  35  36
ENDBRANCH   1  35
TORSDOF 28
ENDMDL
MODEL 3
REMARK VINA RESULT:      -9.0      5.048     10.788
REMARK SMILES CS(=O)(=O)c1ccc(-n2nc(C(F)(F)F)cc2-c2ccc(CC(=O)OCCOCCOCCOCCOC(=O)c3ccc(-c4c5nc(c(-c6ccc(S(=O)(=O)[O-])cc6)c6ccc([nH]6)c(-c6ccc(S(=O)(=O)[O-])cc6)c6nc(c(-c7ccc(S(=O)(=O)[O-])cc7)c7ccc4[nH]7)C=C6)C=C5)cc3)cc2)cc1
REMARK SMILES IDX 30 1 29 2 28 3 27 4 26 5 25 6 23 7 24 8 22 9 21 10 18 11
REMARK SMILES IDX 19 12 101 13 20 14 100 15 17 16 9 17 10 18 11 19 16 20 8 21
REMARK SMILES IDX 5 22 6 23 103 24 7 25 102 26 2 27 1 28 3 29 4 30 12 31 13 32
REMARK SMILES IDX 14 33 15 34 31 35 32 36 33 37 34 38 35 39 36 40 37 41 38 42
REMARK SMILES IDX 39 43 40 44 41 45 99 46 42 47 98 48 43 49 44 50 45 51 92 52
REMARK SMILES IDX 46 53 97 54 91 55 93 56 47 57 96 58 90 59 89 60 48 62 78 63
REMARK SMILES IDX 59 64 77 65 60 66 63 67 76 68 94 69 61 70 62 71 75 73 95 74
REMARK SMILES IDX 64 75 49 76 50 77 58 78 51 79 57 80 52 81 53 82 54 83 55 84
REMARK SMILES IDX 56 85 79 86 80 87 88 88 81 89 87 90 82 91 83 92 84 93 85 94
REMARK SMILES IDX 86 95 65 96 66 97 74 98 67 99 73 100 68 101 69 102 70 103
REMARK SMILES IDX 71 104 72 105
REMARK H PARENT 93 61 63 72
REMARK Flexibility Score: inf
ROOT
ATOM      1  C   UNL A   1      44.023  27.481  27.247  1.00  0.00     0.188 C 
ENDROOT
BRANCH   1   2
ATOM      2  C   UNL A   1      44.273  26.684  25.944  1.00  0.00     0.188 C 
BRANCH   2   3
ATOM      3  O   UNL A   1      43.382  25.661  25.551  1.00  0.00    -0.376 OA
BRANCH   3   4
ATOM      4  C   UNL A   1      43.853  24.405  25.111  1.00  0.00     0.202 C 
BRANCH   4   5
ATOM      5  C   UNL A   1      43.016  23.099  25.163  1.00  0.00     0.261 C 
BRANCH   5   6
ATOM      6  O   UNL A   1      41.882  23.019  26.068  1.00  0.00    -0.463 OA
BRANCH   6   7
ATOM      7  C   UNL A   1      41.128  21.903  26.011  1.00  0.00     0.310 C 
ATOM      8  O   UNL A   1      41.587  20.826  25.625  1.00  0.00    -0.252 OA
BRANCH   7   9
ATOM      9  C   UNL A   1      39.700  21.965  26.568  1.00  0.00     0.158 C 
BRANCH   9  10
ATOM     10  C   UNL A   1      38.423  22.442  25.862  1.00  0.00    -0.037 A 
ATOM     11  C   UNL A   1      35.823  23.160  24.797  1.00  0.00     0.000 A 
ATOM     12  C   UNL A   1      36.439  23.933  25.792  1.00  0.00     0.010 A 
ATOM     13  C   UNL A   1      36.534  22.039  24.340  1.00  0.00     0.010 A 
ATOM     14  C   UNL A   1      37.697  23.566  26.330  1.00  0.00     0.005 A 
ATOM     15  C   UNL A   1      37.815  21.697  24.848  1.00  0.00     0.005 A 
BRANCH  11  16
ATOM     16  C   UNL A   1      34.514  23.531  24.199  1.00  0.00     0.075 A 
ATOM     17  N   UNL A   1      33.465  22.663  23.895  1.00  0.00    -0.233 N 
ATOM     18  N   UNL A   1      32.393  23.285  23.378  1.00  0.00    -0.163 NA
ATOM     19  C   UNL A   1      32.743  24.560  23.227  1.00  0.00     0.167 A 
ATOM     20  C   UNL A   1      34.070  24.756  23.703  1.00  0.00     0.064 A 
BRANCH  17  21
ATOM     21  C   UNL A   1      33.360  21.273  24.043  1.00  0.00     0.065 A 
ATOM     22  C   UNL A   1      33.345  18.528  24.300  1.00  0.00     0.067 A 
ATOM     23  C   UNL A   1      32.517  19.176  23.355  1.00  0.00     0.022 A 
ATOM     24  C   UNL A   1      34.022  19.285  25.250  1.00  0.00     0.022 A 
ATOM     25  C   UNL A   1      32.618  20.532  23.150  1.00  0.00     0.030 A 
ATOM     26  C   UNL A   1      34.030  20.659  25.116  1.00  0.00     0.030 A 
BRANCH  22  27
ATOM     27  S   UNL A   1      33.981  16.570  24.289  1.00  0.00     0.175 S 
ATOM     28  C   UNL A   1      36.048  16.092  25.718  1.00  0.00     0.163 C 
ATOM     29  O   UNL A   1      33.985  16.297  22.860  1.00  0.00    -0.224 OA
ATOM     30  O   UNL A   1      32.720  16.036  24.752  1.00  0.00    -0.224 OA
ENDBRANCH  22  27
ENDBRANCH  17  21
BRANCH  19  31
ATOM     31  C   UNL A   1      31.766  25.520  22.604  1.00  0.00     0.435 C 
ATOM     32  F   UNL A   1      32.001  26.806  22.978  1.00  0.00    -0.164 F 
ATOM     33  F   UNL A   1      31.812  25.483  21.246  1.00  0.00    -0.164 F 
ATOM     34  F   UNL A   1      30.485  25.238  22.961  1.00  0.00    -0.164 F 
ENDBRANCH  19  31
ENDBRANCH  11  16
ENDBRANCH   9  10
ENDBRANCH   7   9
ENDBRANCH   6   7
ENDBRANCH   5   6
ENDBRANCH   4   5
ENDBRANCH   3   4
ENDBRANCH   2   3
ENDBRANCH   1   2
BRANCH   1  35
ATOM     35  O   UNL A   1      44.994  27.456  28.266  1.00  0.00    -0.377 OA
BRANCH  35  36
ATOM     36  C   UNL A   1      46.068  26.565  28.114  1.00  0.00     0.188 C 
BRANCH  36  37
ATOM     37  C   UNL A   1      47.433  26.853  28.755  1.00  0.00     0.188 C 
BRANCH  37  38
ATOM     38  O   UNL A   1      47.725  26.781  30.132  1.00  0.00    -0.376 OA
BRANCH  38  39
ATOM     39  C   UNL A   1      48.506  27.805  30.770  1.00  0.00     0.202 C 
BRANCH  39  40
ATOM     40  C   UNL A   1      50.052  27.910  30.731  1.00  0.00     0.261 C 
BRANCH  40  41
ATOM     41  O   UNL A   1      50.839  26.843  30.134  1.00  0.00    -0.460 OA
BRANCH  41  42
ATOM     42  C   UNL A   1      52.108  26.495  30.521  1.00  0.00     0.338 C 
ATOM     43  O   UNL A   1      53.141  26.664  29.898  1.00  0.00    -0.246 OA
BRANCH  42  44
ATOM     44  C   UNL A   1      52.005  25.699  31.800  1.00  0.00     0.060 A 
ATOM     45  C   UNL A   1      50.612  24.589  31.649  1.00  0.00     0.016 A 
ATOM     46  C   UNL A   1      52.289  26.485  33.397  1.00  0.00     0.016 A 
ATOM     47  C   UNL A   1      49.409  24.420  32.966  1.00  0.00     0.010 A 
ATOM     48  C   UNL A   1      51.065  26.368  34.733  1.00  0.00     0.010 A 
ATOM     49  C   UNL A   1      49.622  25.312  34.514  1.00  0.00    -0.014 A 
BRANCH  49  50
ATOM     50  C   UNL A   1      48.626  25.267  35.617  1.00  0.00     0.031 A 
ATOM     51  C   UNL A   1      48.487  23.818  35.877  1.00  0.00     0.074 A 
ATOM     52  C   UNL A   1      48.014  26.262  36.348  1.00  0.00     0.049 A 
ATOM     53  N   UNL A   1      47.827  23.009  35.102  1.00  0.00    -0.248 NA
ATOM     54  C   UNL A   1      49.463  23.106  36.735  1.00  0.00     0.031 C 
ATOM     55  C   UNL A   1      48.171  27.728  36.308  1.00  0.00     0.029 A 
ATOM     56  N   UNL A   1      47.074  26.168  37.376  1.00  0.00    -0.354 N 
ATOM     57  C   UNL A   1      47.925  21.801  35.764  1.00  0.00     0.074 A 
ATOM     58  C   UNL A   1      49.214  21.834  36.395  1.00  0.00     0.031 C 
ATOM     59  C   UNL A   1      47.619  28.343  37.383  1.00  0.00     0.029 A 
ATOM     60  C   UNL A   1      46.851  27.370  38.123  1.00  0.00     0.049 A 
ATOM     61  H   UNL A   1      46.596  25.330  37.574  1.00  0.00     0.167 HD
ATOM     62  C   UNL A   1      46.778  21.254  36.263  1.00  0.00     0.031 A 
ATOM     63  C   UNL A   1      45.955  27.620  39.136  1.00  0.00     0.031 A 
ATOM     64  C   UNL A   1      45.622  21.906  35.690  1.00  0.00     0.049 A 
ATOM     65  C   UNL A   1      44.878  26.636  38.950  1.00  0.00     0.074 A 
ATOM     66  C   UNL A   1      45.086  22.040  34.425  1.00  0.00     0.029 A 
ATOM     67  N   UNL A   1      45.177  22.974  36.431  1.00  0.00    -0.354 N 
ATOM     68  N   UNL A   1      44.051  26.683  37.943  1.00  0.00    -0.248 NA
ATOM     69  C   UNL A   1      44.997  25.360  39.632  1.00  0.00     0.031 C 
ATOM     70  C   UNL A   1      44.367  23.269  34.418  1.00  0.00     0.029 A 
ATOM     71  C   UNL A   1      44.355  23.793  35.706  1.00  0.00     0.049 A 
ATOM     72  H   UNL A   1      45.420  23.132  37.372  1.00  0.00     0.167 HD
ATOM     73  C   UNL A   1      43.939  25.361  37.571  1.00  0.00     0.074 A 
ATOM     74  C   UNL A   1      44.410  24.585  38.719  1.00  0.00     0.031 C 
ATOM     75  C   UNL A   1      43.855  25.034  36.251  1.00  0.00     0.031 A 
BRANCH  62  76
ATOM     76  C   UNL A   1      46.691  20.589  37.624  1.00  0.00    -0.014 A 
ATOM     77  C   UNL A   1      46.439  19.206  37.679  1.00  0.00     0.010 A 
ATOM     78  C   UNL A   1      46.626  21.290  38.849  1.00  0.00     0.010 A 
ATOM     79  C   UNL A   1      46.168  18.563  38.894  1.00  0.00     0.020 A 
ATOM     80  C   UNL A   1      46.386  20.659  40.068  1.00  0.00     0.020 A 
ATOM     81  C   UNL A   1      46.160  19.294  40.083  1.00  0.00     0.054 A 
BRANCH  81  82
ATOM     82  S   UNL A   1      45.868  18.447  41.652  1.00  0.00     0.124 S 
ATOM     83  O   UNL A   1      44.425  18.584  41.807  1.00  0.00    -0.237 OA
ATOM     84  O   UNL A   1      46.355  17.101  41.361  1.00  0.00    -0.237 OA
ATOM     85  O   UNL A   1      46.679  19.202  42.605  1.00  0.00    -0.744 OA
ENDBRANCH  81  82
ENDBRANCH  62  76
BRANCH  63  86
ATOM     86  C   UNL A   1      45.923  28.493  40.370  1.00  0.00    -0.014 A 
ATOM     87  C   UNL A   1      45.949  29.914  40.288  1.00  0.00     0.010 A 
ATOM     88  C   UNL A   1      45.470  27.954  41.587  1.00  0.00     0.010 A 
ATOM     89  C   UNL A   1      45.458  30.745  41.330  1.00  0.00     0.020 A 
ATOM     90  C   UNL A   1      44.976  28.775  42.628  1.00  0.00     0.020 A 
ATOM     91  C   UNL A   1      44.942  30.165  42.488  1.00  0.00     0.054 A 
BRANCH  91  92
ATOM     92  S   UNL A   1      44.111  31.203  43.749  1.00  0.00     0.124 S 
ATOM     93  O   UNL A   1      43.812  32.427  43.010  1.00  0.00    -0.237 OA
ATOM     94  O   UNL A   1      42.951  30.399  44.124  1.00  0.00    -0.237 OA
ATOM     95  O   UNL A   1      45.121  31.349  44.795  1.00  0.00    -0.744 OA
ENDBRANCH  91  92
ENDBRANCH  63  86
BRANCH  75  96
ATOM     96  C   UNL A   1      43.236  26.019  35.300  1.00  0.00    -0.014 A 
ATOM     97  C   UNL A   1      41.861  26.281  35.145  1.00  0.00     0.010 A 
ATOM     98  C   UNL A   1      44.156  26.802  34.582  1.00  0.00     0.010 A 
ATOM     99  C   UNL A   1      41.431  27.303  34.278  1.00  0.00     0.020 A 
ATOM    100  C   UNL A   1      43.738  27.827  33.741  1.00  0.00     0.020 A 
ATOM    101  C   UNL A   1      42.376  28.069  33.582  1.00  0.00     0.054 A 
BRANCH 101 102
ATOM    102  S   UNL A   1      41.839  29.403  32.473  1.00  0.00     0.124 S 
ATOM    103  O   UNL A   1      40.407  29.155  32.349  1.00  0.00    -0.237 OA
ATOM    104  O   UNL A   1      42.213  30.607  33.211  1.00  0.00    -0.237 OA
ATOM    105  O   UNL A   1      42.614  29.172  31.253  1.00  0.00    -0.744 OA
ENDBRANCH 101 102
ENDBRANCH  75  96
ENDBRANCH  49  50
ENDBRANCH  42  44
ENDBRANCH  41  42
ENDBRANCH  40  41
ENDBRANCH  39  40
ENDBRANCH  38  39
ENDBRANCH  37  38
ENDBRANCH  36  37
ENDBRANCH  35  36
ENDBRANCH   1  35
TORSDOF 28
ENDMDL
