MODEL 1
REMARK VINA RESULT:      -9.5      0.000      0.000
REMARK SMILES Cc1nc2ccccc2n1CCC(=O)N1CC[C@H](O)C[C@@H]1C(=O)OCCOCCOCCOCCOC(=O)c1ccc(-c2c3nc(c(-c4ccc(S(=O)(=O)[O-])cc4)c4ccc([nH]4)c(-c4ccc(S(=O)(=O)[O-])cc4)c4nc(c(-c5ccc(S(=O)(=O)[O-])cc5)c5ccc2[nH]5)C=C4)C=C3)cc1
REMARK SMILES IDX 29 1 28 2 27 3 26 4 25 5 24 6 22 7 23 8 21 9 15 10 16 11
REMARK SMILES IDX 17 12 20 13 18 14 13 15 14 16 12 17 11 18 10 19 1 20 2 21
REMARK SMILES IDX 3 22 4 23 9 24 5 25 8 26 6 27 7 28 19 29 30 31 31 32 32 33
REMARK SMILES IDX 33 34 34 35 35 36 36 37 37 38 38 39 39 40 40 41 98 42 41 43
REMARK SMILES IDX 97 44 42 45 43 46 44 47 91 48 45 49 96 50 90 51 92 52 46 53
REMARK SMILES IDX 95 54 89 55 88 56 47 58 77 59 58 60 76 61 59 62 62 63 75 64
REMARK SMILES IDX 93 65 60 66 61 67 74 69 94 70 63 71 48 72 49 73 57 74 50 75
REMARK SMILES IDX 56 76 51 77 52 78 53 79 54 80 55 81 78 82 79 83 87 84 80 85
REMARK SMILES IDX 86 86 81 87 82 88 83 89 84 90 85 91 64 92 65 93 73 94 66 95
REMARK SMILES IDX 72 96 67 97 68 98 69 99 70 100 71 101
REMARK H PARENT 19 30 92 57 62 68
REMARK Flexibility Score: inf
ROOT
ATOM      1  C   UNL A   1      35.095  32.310  29.794  1.00  0.00     0.188 C 
ENDROOT
BRANCH   1   2
ATOM      2  C   UNL A   1      35.760  31.950  28.471  1.00  0.00     0.188 C 
BRANCH   2   3
ATOM      3  O   UNL A   1      35.400  30.721  27.896  1.00  0.00    -0.376 OA
BRANCH   3   4
ATOM      4  C   UNL A   1      34.124  30.538  27.296  1.00  0.00     0.202 C 
BRANCH   4   5
ATOM      5  C   UNL A   1      33.528  29.252  26.665  1.00  0.00     0.261 C 
BRANCH   5   6
ATOM      6  O   UNL A   1      33.122  29.234  25.285  1.00  0.00    -0.462 OA
BRANCH   6   7
ATOM      7  C   UNL A   1      31.798  29.099  25.065  1.00  0.00     0.329 C 
ATOM      8  O   UNL A   1      31.040  30.065  24.989  1.00  0.00    -0.250 OA
BRANCH   7   9
ATOM      9  C   UNL A   1      31.324  27.603  24.913  1.00  0.00     0.197 C 
ATOM     10  N   UNL A   1      32.320  26.500  24.587  1.00  0.00    -0.329 N 
ATOM     11  C   UNL A   1      32.784  26.453  23.211  1.00  0.00     0.123 C 
ATOM     12  C   UNL A   1      31.692  26.539  22.160  1.00  0.00     0.053 C 
ATOM     13  C   UNL A   1      30.218  27.628  23.840  1.00  0.00     0.069 C 
ATOM     14  C   UNL A   1      30.785  27.728  22.417  1.00  0.00     0.118 C 
BRANCH  10  15
ATOM     15  C   UNL A   1      32.694  25.522  25.521  1.00  0.00     0.225 C 
ATOM     16  O   UNL A   1      31.844  25.003  26.252  1.00  0.00    -0.275 OA
BRANCH  15  17
ATOM     17  C   UNL A   1      34.210  25.170  25.793  1.00  0.00     0.122 C 
BRANCH  17  18
ATOM     18  C   UNL A   1      35.224  24.470  24.850  1.00  0.00     0.134 C 
BRANCH  18  19
ATOM     19  N   UNL A   1      35.152  23.026  24.692  1.00  0.00    -0.328 N 
ATOM     20  C   UNL A   1      37.487  22.533  25.527  1.00  0.00     0.088 C 
ATOM     21  C   UNL A   1      36.109  22.137  25.135  1.00  0.00     0.106 A 
ATOM     22  N   UNL A   1      35.552  20.961  25.351  1.00  0.00    -0.234 NA
ATOM     23  C   UNL A   1      34.337  21.016  24.719  1.00  0.00     0.089 A 
ATOM     24  C   UNL A   1      34.170  22.255  24.097  1.00  0.00     0.068 A 
ATOM     25  C   UNL A   1      33.350  20.027  24.594  1.00  0.00     0.030 A 
ATOM     26  C   UNL A   1      33.170  22.458  23.135  1.00  0.00     0.028 A 
ATOM     27  C   UNL A   1      32.316  20.227  23.674  1.00  0.00     0.002 A 
ATOM     28  C   UNL A   1      32.276  21.393  22.903  1.00  0.00     0.002 A 
ENDBRANCH  18  19
ENDBRANCH  17  18
ENDBRANCH  15  17
ENDBRANCH  10  15
BRANCH  14  29
ATOM     29  O   UNL A   1      31.542  28.904  22.155  1.00  0.00    -0.393 OA
ATOM     30  H   UNL A   1      31.037  29.683  22.436  1.00  0.00     0.210 HD
ENDBRANCH  14  29
ENDBRANCH   7   9
ENDBRANCH   6   7
ENDBRANCH   5   6
ENDBRANCH   4   5
ENDBRANCH   3   4
ENDBRANCH   2   3
ENDBRANCH   1   2
BRANCH   1  31
ATOM     31  O   UNL A   1      34.266  33.430  29.797  1.00  0.00    -0.377 OA
BRANCH  31  32
ATOM     32  C   UNL A   1      34.526  34.405  28.834  1.00  0.00     0.188 C 
BRANCH  32  33
ATOM     33  C   UNL A   1      33.690  35.685  28.759  1.00  0.00     0.188 C 
BRANCH  33  34
ATOM     34  O   UNL A   1      32.589  35.691  29.638  1.00  0.00    -0.376 OA
BRANCH  34  35
ATOM     35  C   UNL A   1      32.735  36.324  30.892  1.00  0.00     0.202 C 
BRANCH  35  36
ATOM     36  C   UNL A   1      32.452  35.587  32.216  1.00  0.00     0.261 C 
BRANCH  36  37
ATOM     37  O   UNL A   1      33.599  35.307  33.032  1.00  0.00    -0.460 OA
BRANCH  37  38
ATOM     38  C   UNL A   1      34.015  34.035  33.220  1.00  0.00     0.338 C 
ATOM     39  O   UNL A   1      33.404  33.023  32.916  1.00  0.00    -0.246 OA
BRANCH  38  40
ATOM     40  C   UNL A   1      35.484  34.131  33.486  1.00  0.00     0.060 A 
ATOM     41  C   UNL A   1      36.298  34.970  32.723  1.00  0.00     0.016 A 
ATOM     42  C   UNL A   1      36.057  33.057  34.193  1.00  0.00     0.016 A 
ATOM     43  C   UNL A   1      37.626  34.591  32.511  1.00  0.00     0.010 A 
ATOM     44  C   UNL A   1      37.386  32.668  33.955  1.00  0.00     0.010 A 
ATOM     45  C   UNL A   1      38.162  33.386  33.051  1.00  0.00    -0.014 A 
BRANCH  45  46
ATOM     46  C   UNL A   1      39.609  33.142  32.829  1.00  0.00     0.031 A 
ATOM     47  C   UNL A   1      39.726  31.966  31.934  1.00  0.00     0.074 A 
ATOM     48  C   UNL A   1      40.756  33.779  33.169  1.00  0.00     0.049 A 
ATOM     49  N   UNL A   1      40.097  30.776  32.262  1.00  0.00    -0.248 NA
ATOM     50  C   UNL A   1      39.060  32.081  30.626  1.00  0.00     0.031 C 
ATOM     51  C   UNL A   1      40.951  35.091  33.786  1.00  0.00     0.029 A 
ATOM     52  N   UNL A   1      42.054  33.364  32.953  1.00  0.00    -0.354 N 
ATOM     53  C   UNL A   1      39.857  30.011  31.134  1.00  0.00     0.074 A 
ATOM     54  C   UNL A   1      39.023  30.802  30.266  1.00  0.00     0.031 C 
ATOM     55  C   UNL A   1      42.259  35.447  33.697  1.00  0.00     0.029 A 
ATOM     56  C   UNL A   1      43.026  34.352  33.123  1.00  0.00     0.049 A 
ATOM     57  H   UNL A   1      42.279  32.440  32.699  1.00  0.00     0.167 HD
ATOM     58  C   UNL A   1      40.554  28.877  30.876  1.00  0.00     0.031 A 
ATOM     59  C   UNL A   1      44.342  34.297  32.767  1.00  0.00     0.031 A 
ATOM     60  C   UNL A   1      41.202  28.360  32.049  1.00  0.00     0.049 A 
ATOM     61  C   UNL A   1      44.718  32.872  32.622  1.00  0.00     0.074 A 
ATOM     62  C   UNL A   1      40.759  27.910  33.276  1.00  0.00     0.029 A 
ATOM     63  N   UNL A   1      42.541  28.629  32.195  1.00  0.00    -0.354 N 
ATOM     64  N   UNL A   1      44.830  32.040  33.616  1.00  0.00    -0.248 NA
ATOM     65  C   UNL A   1      44.595  32.271  31.305  1.00  0.00     0.031 C 
ATOM     66  C   UNL A   1      41.739  28.347  34.210  1.00  0.00     0.029 A 
ATOM     67  C   UNL A   1      42.763  28.979  33.502  1.00  0.00     0.049 A 
ATOM     68  H   UNL A   1      43.221  28.579  31.486  1.00  0.00     0.167 HD
ATOM     69  C   UNL A   1      44.351  30.840  33.116  1.00  0.00     0.074 A 
ATOM     70  C   UNL A   1      44.298  31.023  31.668  1.00  0.00     0.031 C 
ATOM     71  C   UNL A   1      43.787  29.909  33.938  1.00  0.00     0.031 A 
BRANCH  58  72
ATOM     72  C   UNL A   1      40.925  28.495  29.472  1.00  0.00    -0.014 A 
ATOM     73  C   UNL A   1      41.951  29.145  28.750  1.00  0.00     0.010 A 
ATOM     74  C   UNL A   1      40.405  27.314  28.916  1.00  0.00     0.010 A 
ATOM     75  C   UNL A   1      42.392  28.697  27.512  1.00  0.00     0.020 A 
ATOM     76  C   UNL A   1      40.880  26.820  27.694  1.00  0.00     0.020 A 
ATOM     77  C   UNL A   1      41.854  27.530  26.992  1.00  0.00     0.054 A 
BRANCH  77  78
ATOM     78  S   UNL A   1      42.494  26.955  25.406  1.00  0.00     0.124 S 
ATOM     79  O   UNL A   1      42.474  28.183  24.617  1.00  0.00    -0.237 OA
ATOM     80  O   UNL A   1      43.819  26.459  25.766  1.00  0.00    -0.237 OA
ATOM     81  O   UNL A   1      41.532  25.934  25.001  1.00  0.00    -0.744 OA
ENDBRANCH  77  78
ENDBRANCH  58  72
BRANCH  59  82
ATOM     82  C   UNL A   1      45.202  35.358  32.154  1.00  0.00    -0.014 A 
ATOM     83  C   UNL A   1      44.756  36.033  31.003  1.00  0.00     0.010 A 
ATOM     84  C   UNL A   1      46.579  35.455  32.470  1.00  0.00     0.010 A 
ATOM     85  C   UNL A   1      45.653  36.676  30.141  1.00  0.00     0.020 A 
ATOM     86  C   UNL A   1      47.487  36.098  31.605  1.00  0.00     0.020 A 
ATOM     87  C   UNL A   1      47.019  36.663  30.419  1.00  0.00     0.054 A 
BRANCH  87  88
ATOM     88  S   UNL A   1      48.158  37.288  29.147  1.00  0.00     0.124 S 
ATOM     89  O   UNL A   1      48.867  36.072  28.754  1.00  0.00    -0.237 OA
ATOM     90  O   UNL A   1      47.245  37.831  28.143  1.00  0.00    -0.237 OA
ATOM     91  O   UNL A   1      48.963  38.280  29.855  1.00  0.00    -0.744 OA
ENDBRANCH  87  88
ENDBRANCH  59  82
BRANCH  71  92
ATOM     92  C   UNL A   1      44.040  29.970  35.430  1.00  0.00    -0.014 A 
ATOM     93  C   UNL A   1      43.294  30.925  36.147  1.00  0.00     0.010 A 
ATOM     94  C   UNL A   1      45.058  29.274  36.110  1.00  0.00     0.010 A 
ATOM     95  C   UNL A   1      43.584  31.223  37.478  1.00  0.00     0.020 A 
ATOM     96  C   UNL A   1      45.331  29.543  37.464  1.00  0.00     0.020 A 
ATOM     97  C   UNL A   1      44.611  30.541  38.127  1.00  0.00     0.054 A 
BRANCH  97  98
ATOM     98  S   UNL A   1      44.989  31.010  39.837  1.00  0.00     0.124 S 
ATOM     99  O   UNL A   1      45.730  32.258  39.658  1.00  0.00    -0.237 OA
ATOM    100  O   UNL A   1      43.661  31.154  40.431  1.00  0.00    -0.237 OA
ATOM    101  O   UNL A   1      45.777  29.893  40.348  1.00  0.00    -0.744 OA
ENDBRANCH  97  98
ENDBRANCH  71  92
ENDBRANCH  45  46
ENDBRANCH  38  40
ENDBRANCH  37  38
ENDBRANCH  36  37
ENDBRANCH  35  36
ENDBRANCH  34  35
ENDBRANCH  33  34
ENDBRANCH  32  33
ENDBRANCH  31  32
ENDBRANCH   1  31
TORSDOF 28
ENDMDL
MODEL 2
REMARK VINA RESULT:      -9.4      2.538      7.505
REMARK SMILES Cc1nc2ccccc2n1CCC(=O)N1CC[C@H](O)C[C@@H]1C(=O)OCCOCCOCCOCCOC(=O)c1ccc(-c2c3nc(c(-c4ccc(S(=O)(=O)[O-])cc4)c4ccc([nH]4)c(-c4ccc(S(=O)(=O)[O-])cc4)c4nc(c(-c5ccc(S(=O)(=O)[O-])cc5)c5ccc2[nH]5)C=C4)C=C3)cc1
REMARK SMILES IDX 29 1 28 2 27 3 26 4 25 5 24 6 22 7 23 8 21 9 15 10 16 11
REMARK SMILES IDX 17 12 20 13 18 14 13 15 14 16 12 17 11 18 10 19 1 20 2 21
REMARK SMILES IDX 3 22 4 23 9 24 5 25 8 26 6 27 7 28 19 29 30 31 31 32 32 33
REMARK SMILES IDX 33 34 34 35 35 36 36 37 37 38 38 39 39 40 40 41 98 42 41 43
REMARK SMILES IDX 97 44 42 45 43 46 44 47 91 48 45 49 96 50 90 51 92 52 46 53
REMARK SMILES IDX 95 54 89 55 88 56 47 58 77 59 58 60 76 61 59 62 62 63 75 64
REMARK SMILES IDX 93 65 60 66 61 67 74 69 94 70 63 71 48 72 49 73 57 74 50 75
REMARK SMILES IDX 56 76 51 77 52 78 53 79 54 80 55 81 78 82 79 83 87 84 80 85
REMARK SMILES IDX 86 86 81 87 82 88 83 89 84 90 85 91 64 92 65 93 73 94 66 95
REMARK SMILES IDX 72 96 67 97 68 98 69 99 70 100 71 101
REMARK H PARENT 19 30 92 57 62 68
REMARK Flexibility Score: inf
ROOT
ATOM      1  C   UNL A   1      34.863  31.490  28.738  1.00  0.00     0.188 C 
ENDROOT
BRANCH   1   2
ATOM      2  C   UNL A   1      34.279  31.206  27.361  1.00  0.00     0.188 C 
BRANCH   2   3
ATOM      3  O   UNL A   1      33.248  30.255  27.295  1.00  0.00    -0.376 OA
BRANCH   3   4
ATOM      4  C   UNL A   1      32.594  29.968  26.067  1.00  0.00     0.202 C 
BRANCH   4   5
ATOM      5  C   UNL A   1      31.764  28.714  25.683  1.00  0.00     0.261 C 
BRANCH   5   6
ATOM      6  O   UNL A   1      32.209  27.833  24.637  1.00  0.00    -0.462 OA
BRANCH   6   7
ATOM      7  C   UNL A   1      31.254  27.067  24.070  1.00  0.00     0.329 C 
ATOM      8  O   UNL A   1      30.296  27.547  23.467  1.00  0.00    -0.250 OA
BRANCH   7   9
ATOM      9  C   UNL A   1      31.486  25.518  24.250  1.00  0.00     0.197 C 
ATOM     10  N   UNL A   1      32.518  24.995  25.238  1.00  0.00    -0.329 N 
ATOM     11  C   UNL A   1      33.906  25.116  24.826  1.00  0.00     0.123 C 
ATOM     12  C   UNL A   1      34.203  24.642  23.415  1.00  0.00     0.053 C 
ATOM     13  C   UNL A   1      31.807  24.983  22.841  1.00  0.00     0.069 C 
ATOM     14  C   UNL A   1      33.253  25.280  22.418  1.00  0.00     0.118 C 
BRANCH  10  15
ATOM     15  C   UNL A   1      32.161  24.342  26.427  1.00  0.00     0.225 C 
ATOM     16  O   UNL A   1      31.332  24.850  27.190  1.00  0.00    -0.275 OA
BRANCH  15  17
ATOM     17  C   UNL A   1      32.910  23.041  26.918  1.00  0.00     0.122 C 
BRANCH  17  18
ATOM     18  C   UNL A   1      34.427  22.720  26.866  1.00  0.00     0.134 C 
BRANCH  18  19
ATOM     19  N   UNL A   1      34.905  21.751  25.892  1.00  0.00    -0.328 N 
ATOM     20  C   UNL A   1      37.077  22.931  25.362  1.00  0.00     0.088 C 
ATOM     21  C   UNL A   1      36.162  21.761  25.325  1.00  0.00     0.106 A 
ATOM     22  N   UNL A   1      36.485  20.538  24.950  1.00  0.00    -0.234 NA
ATOM     23  C   UNL A   1      35.310  19.834  24.962  1.00  0.00     0.089 A 
ATOM     24  C   UNL A   1      34.252  20.663  25.343  1.00  0.00     0.068 A 
ATOM     25  C   UNL A   1      35.065  18.497  24.612  1.00  0.00     0.030 A 
ATOM     26  C   UNL A   1      32.918  20.282  25.138  1.00  0.00     0.028 A 
ATOM     27  C   UNL A   1      33.741  18.081  24.448  1.00  0.00     0.002 A 
ATOM     28  C   UNL A   1      32.690  18.986  24.633  1.00  0.00     0.002 A 
ENDBRANCH  18  19
ENDBRANCH  17  18
ENDBRANCH  15  17
ENDBRANCH  10  15
BRANCH  14  29
ATOM     29  O   UNL A   1      33.583  26.662  22.342  1.00  0.00    -0.393 OA
ATOM     30  H   UNL A   1      34.115  26.911  23.113  1.00  0.00     0.210 HD
ENDBRANCH  14  29
ENDBRANCH   7   9
ENDBRANCH   6   7
ENDBRANCH   5   6
ENDBRANCH   4   5
ENDBRANCH   3   4
ENDBRANCH   2   3
ENDBRANCH   1   2
BRANCH   1  31
ATOM     31  O   UNL A   1      34.429  32.648  29.380  1.00  0.00    -0.377 OA
BRANCH  31  32
ATOM     32  C   UNL A   1      33.591  33.492  28.651  1.00  0.00     0.188 C 
BRANCH  32  33
ATOM     33  C   UNL A   1      33.288  34.913  29.131  1.00  0.00     0.188 C 
BRANCH  33  34
ATOM     34  O   UNL A   1      32.496  34.958  30.294  1.00  0.00    -0.376 OA
BRANCH  34  35
ATOM     35  C   UNL A   1      32.883  35.829  31.337  1.00  0.00     0.202 C 
BRANCH  35  36
ATOM     36  C   UNL A   1      33.455  35.303  32.669  1.00  0.00     0.261 C 
BRANCH  36  37
ATOM     37  O   UNL A   1      33.870  33.928  32.670  1.00  0.00    -0.460 OA
BRANCH  37  38
ATOM     38  C   UNL A   1      34.947  33.536  33.386  1.00  0.00     0.338 C 
ATOM     39  O   UNL A   1      35.021  33.473  34.603  1.00  0.00    -0.246 OA
BRANCH  38  40
ATOM     40  C   UNL A   1      35.841  32.837  32.411  1.00  0.00     0.060 A 
ATOM     41  C   UNL A   1      35.861  31.444  32.327  1.00  0.00     0.016 A 
ATOM     42  C   UNL A   1      36.936  33.581  31.932  1.00  0.00     0.016 A 
ATOM     43  C   UNL A   1      37.057  30.819  31.967  1.00  0.00     0.010 A 
ATOM     44  C   UNL A   1      38.143  32.946  31.595  1.00  0.00     0.010 A 
ATOM     45  C   UNL A   1      38.241  31.561  31.683  1.00  0.00    -0.014 A 
BRANCH  45  46
ATOM     46  C   UNL A   1      39.420  30.786  31.226  1.00  0.00     0.031 A 
ATOM     47  C   UNL A   1      40.234  30.472  32.423  1.00  0.00     0.074 A 
ATOM     48  C   UNL A   1      39.827  30.261  30.044  1.00  0.00     0.049 A 
ATOM     49  N   UNL A   1      41.357  31.008  32.760  1.00  0.00    -0.248 NA
ATOM     50  C   UNL A   1      39.554  29.713  33.486  1.00  0.00     0.031 C 
ATOM     51  C   UNL A   1      39.115  30.155  28.771  1.00  0.00     0.029 A 
ATOM     52  N   UNL A   1      41.021  29.627  29.763  1.00  0.00    -0.354 N 
ATOM     53  C   UNL A   1      41.609  30.523  34.032  1.00  0.00     0.074 A 
ATOM     54  C   UNL A   1      40.381  29.935  34.502  1.00  0.00     0.031 C 
ATOM     55  C   UNL A   1      39.791  29.322  27.938  1.00  0.00     0.029 A 
ATOM     56  C   UNL A   1      41.043  28.919  28.559  1.00  0.00     0.049 A 
ATOM     57  H   UNL A   1      41.798  29.672  30.364  1.00  0.00     0.167 HD
ATOM     58  C   UNL A   1      42.868  30.419  34.522  1.00  0.00     0.031 A 
ATOM     59  C   UNL A   1      41.985  28.027  28.134  1.00  0.00     0.031 A 
ATOM     60  C   UNL A   1      43.802  31.233  33.795  1.00  0.00     0.049 A 
ATOM     61  C   UNL A   1      43.229  28.278  28.898  1.00  0.00     0.074 A 
ATOM     62  C   UNL A   1      43.918  32.587  33.554  1.00  0.00     0.029 A 
ATOM     63  N   UNL A   1      44.584  30.604  32.857  1.00  0.00    -0.354 N 
ATOM     64  N   UNL A   1      43.982  29.327  28.746  1.00  0.00    -0.248 NA
ATOM     65  C   UNL A   1      43.432  27.525  30.124  1.00  0.00     0.031 C 
ATOM     66  C   UNL A   1      44.403  32.689  32.221  1.00  0.00     0.029 A 
ATOM     67  C   UNL A   1      44.625  31.397  31.740  1.00  0.00     0.049 A 
ATOM     68  H   UNL A   1      45.036  29.737  32.968  1.00  0.00     0.167 HD
ATOM     69  C   UNL A   1      44.427  29.620  30.025  1.00  0.00     0.074 A 
ATOM     70  C   UNL A   1      44.123  28.431  30.817  1.00  0.00     0.031 C 
ATOM     71  C   UNL A   1      44.751  30.896  30.384  1.00  0.00     0.031 A 
BRANCH  58  72
ATOM     72  C   UNL A   1      43.264  29.278  35.415  1.00  0.00    -0.014 A 
ATOM     73  C   UNL A   1      43.187  27.927  35.006  1.00  0.00     0.010 A 
ATOM     74  C   UNL A   1      43.942  29.542  36.616  1.00  0.00     0.010 A 
ATOM     75  C   UNL A   1      43.689  26.885  35.774  1.00  0.00     0.020 A 
ATOM     76  C   UNL A   1      44.502  28.505  37.373  1.00  0.00     0.020 A 
ATOM     77  C   UNL A   1      44.350  27.182  36.955  1.00  0.00     0.054 A 
BRANCH  77  78
ATOM     78  S   UNL A   1      45.034  25.802  37.895  1.00  0.00     0.124 S 
ATOM     79  O   UNL A   1      44.817  24.686  36.979  1.00  0.00    -0.237 OA
ATOM     80  O   UNL A   1      46.425  26.207  38.077  1.00  0.00    -0.237 OA
ATOM     81  O   UNL A   1      44.223  25.783  39.110  1.00  0.00    -0.744 OA
ENDBRANCH  77  78
ENDBRANCH  58  72
BRANCH  59  82
ATOM     82  C   UNL A   1      41.801  26.726  27.418  1.00  0.00    -0.014 A 
ATOM     83  C   UNL A   1      40.560  26.068  27.484  1.00  0.00     0.010 A 
ATOM     84  C   UNL A   1      42.916  25.967  26.986  1.00  0.00     0.010 A 
ATOM     85  C   UNL A   1      40.450  24.692  27.245  1.00  0.00     0.020 A 
ATOM     86  C   UNL A   1      42.813  24.582  26.746  1.00  0.00     0.020 A 
ATOM     87  C   UNL A   1      41.584  23.947  26.926  1.00  0.00     0.054 A 
BRANCH  87  88
ATOM     88  S   UNL A   1      41.433  22.135  26.874  1.00  0.00     0.124 S 
ATOM     89  O   UNL A   1      40.040  21.938  27.271  1.00  0.00    -0.237 OA
ATOM     90  O   UNL A   1      41.732  21.832  25.476  1.00  0.00    -0.237 OA
ATOM     91  O   UNL A   1      42.428  21.672  27.837  1.00  0.00    -0.744 OA
ENDBRANCH  87  88
ENDBRANCH  59  82
BRANCH  71  92
ATOM     92  C   UNL A   1      45.033  31.929  29.314  1.00  0.00    -0.014 A 
ATOM     93  C   UNL A   1      43.909  32.581  28.769  1.00  0.00     0.010 A 
ATOM     94  C   UNL A   1      46.288  32.165  28.722  1.00  0.00     0.010 A 
ATOM     95  C   UNL A   1      44.016  33.393  27.641  1.00  0.00     0.020 A 
ATOM     96  C   UNL A   1      46.409  33.013  27.606  1.00  0.00     0.020 A 
ATOM     97  C   UNL A   1      45.264  33.594  27.056  1.00  0.00     0.054 A 
BRANCH  97  98
ATOM     98  S   UNL A   1      45.339  34.607  25.554  1.00  0.00     0.124 S 
ATOM     99  O   UNL A   1      44.272  34.029  24.738  1.00  0.00    -0.237 OA
ATOM    100  O   UNL A   1      45.077  35.953  26.061  1.00  0.00    -0.237 OA
ATOM    101  O   UNL A   1      46.690  34.391  25.044  1.00  0.00    -0.744 OA
ENDBRANCH  97  98
ENDBRANCH  71  92
ENDBRANCH  45  46
ENDBRANCH  38  40
ENDBRANCH  37  38
ENDBRANCH  36  37
ENDBRANCH  35  36
ENDBRANCH  34  35
ENDBRANCH  33  34
ENDBRANCH  32  33
ENDBRANCH  31  32
ENDBRANCH   1  31
TORSDOF 28
ENDMDL
MODEL 3
REMARK VINA RESULT:      -9.4      2.255      7.705
REMARK SMILES Cc1nc2ccccc2n1CCC(=O)N1CC[C@H](O)C[C@@H]1C(=O)OCCOCCOCCOCCOC(=O)c1ccc(-c2c3nc(c(-c4ccc(S(=O)(=O)[O-])cc4)c4ccc([nH]4)c(-c4ccc(S(=O)(=O)[O-])cc4)c4nc(c(-c5ccc(S(=O)(=O)[O-])cc5)c5ccc2[nH]5)C=C4)C=C3)cc1
REMARK SMILES IDX 29 1 28 2 27 3 26 4 25 5 24 6 22 7 23 8 21 9 15 10 16 11
REMARK SMILES IDX 17 12 20 13 18 14 13 15 14 16 12 17 11 18 10 19 1 20 2 21
REMARK SMILES IDX 3 22 4 23 9 24 5 25 8 26 6 27 7 28 19 29 30 31 31 32 32 33
REMARK SMILES IDX 33 34 34 35 35 36 36 37 37 38 38 39 39 40 40 41 98 42 41 43
REMARK SMILES IDX 97 44 42 45 43 46 44 47 91 48 45 49 96 50 90 51 92 52 46 53
REMARK SMILES IDX 95 54 89 55 88 56 47 58 77 59 58 60 76 61 59 62 62 63 75 64
REMARK SMILES IDX 93 65 60 66 61 67 74 69 94 70 63 71 48 72 49 73 57 74 50 75
REMARK SMILES IDX 56 76 51 77 52 78 53 79 54 80 55 81 78 82 79 83 87 84 80 85
REMARK SMILES IDX 86 86 81 87 82 88 83 89 84 90 85 91 64 92 65 93 73 94 66 95
REMARK SMILES IDX 72 96 67 97 68 98 69 99 70 100 71 101
REMARK H PARENT 19 30 92 57 62 68
REMARK Flexibility Score: inf
ROOT
ATOM      1  C   UNL A   1      35.502  31.740  29.991  1.00  0.00     0.188 C 
ENDROOT
BRANCH   1   2
ATOM      2  C   UNL A   1      35.854  31.654  28.511  1.00  0.00     0.188 C 
BRANCH   2   3
ATOM      3  O   UNL A   1      35.198  30.664  27.762  1.00  0.00    -0.376 OA
BRANCH   3   4
ATOM      4  C   UNL A   1      33.801  30.739  27.513  1.00  0.00     0.202 C 
BRANCH   4   5
ATOM      5  C   UNL A   1      32.888  29.702  26.806  1.00  0.00     0.261 C 
BRANCH   5   6
ATOM      6  O   UNL A   1      32.719  29.729  25.378  1.00  0.00    -0.462 OA
BRANCH   6   7
ATOM      7  C   UNL A   1      31.490  29.402  24.927  1.00  0.00     0.329 C 
ATOM      8  O   UNL A   1      30.666  30.249  24.585  1.00  0.00    -0.250 OA
BRANCH   7   9
ATOM      9  C   UNL A   1      31.218  27.850  24.878  1.00  0.00     0.197 C 
ATOM     10  N   UNL A   1      32.351  26.869  24.621  1.00  0.00    -0.329 N 
ATOM     11  C   UNL A   1      32.821  26.790  23.248  1.00  0.00     0.123 C 
ATOM     12  C   UNL A   1      31.730  26.661  22.200  1.00  0.00     0.053 C 
ATOM     13  C   UNL A   1      30.120  27.657  23.813  1.00  0.00     0.069 C 
ATOM     14  C   UNL A   1      30.674  27.735  22.383  1.00  0.00     0.118 C 
BRANCH  10  15
ATOM     15  C   UNL A   1      32.849  26.014  25.615  1.00  0.00     0.225 C 
ATOM     16  O   UNL A   1      33.995  26.169  26.051  1.00  0.00    -0.275 OA
BRANCH  15  17
ATOM     17  C   UNL A   1      32.050  24.737  26.092  1.00  0.00     0.122 C 
BRANCH  17  18
ATOM     18  C   UNL A   1      32.340  23.244  25.783  1.00  0.00     0.134 C 
BRANCH  18  19
ATOM     19  N   UNL A   1      33.291  22.918  24.733  1.00  0.00    -0.328 N 
ATOM     20  C   UNL A   1      31.660  23.097  22.810  1.00  0.00     0.088 C 
ATOM     21  C   UNL A   1      33.027  22.997  23.381  1.00  0.00     0.106 A 
ATOM     22  N   UNL A   1      34.156  23.183  22.723  1.00  0.00    -0.234 NA
ATOM     23  C   UNL A   1      35.149  22.872  23.615  1.00  0.00     0.089 A 
ATOM     24  C   UNL A   1      34.598  22.479  24.836  1.00  0.00     0.068 A 
ATOM     25  C   UNL A   1      36.540  22.857  23.433  1.00  0.00     0.030 A 
ATOM     26  C   UNL A   1      35.369  21.820  25.805  1.00  0.00     0.028 A 
ATOM     27  C   UNL A   1      37.335  22.247  24.408  1.00  0.00     0.002 A 
ATOM     28  C   UNL A   1      36.745  21.669  25.537  1.00  0.00     0.002 A 
ENDBRANCH  18  19
ENDBRANCH  17  18
ENDBRANCH  15  17
ENDBRANCH  10  15
BRANCH  14  29
ATOM     29  O   UNL A   1      31.269  28.980  22.038  1.00  0.00    -0.393 OA
ATOM     30  H   UNL A   1      31.868  29.260  22.748  1.00  0.00     0.210 HD
ENDBRANCH  14  29
ENDBRANCH   7   9
ENDBRANCH   6   7
ENDBRANCH   5   6
ENDBRANCH   4   5
ENDBRANCH   3   4
ENDBRANCH   2   3
ENDBRANCH   1   2
BRANCH   1  31
ATOM     31  O   UNL A   1      34.899  32.918  30.427  1.00  0.00    -0.377 OA
BRANCH  31  32
ATOM     32  C   UNL A   1      34.182  33.645  29.476  1.00  0.00     0.188 C 
BRANCH  32  33
ATOM     33  C   UNL A   1      33.680  35.059  29.776  1.00  0.00     0.188 C 
BRANCH  33  34
ATOM     34  O   UNL A   1      33.132  35.201  31.065  1.00  0.00    -0.376 OA
BRANCH  34  35
ATOM     35  C   UNL A   1      33.526  36.313  31.843  1.00  0.00     0.202 C 
BRANCH  35  36
ATOM     36  C   UNL A   1      34.233  36.147  33.203  1.00  0.00     0.261 C 
BRANCH  36  37
ATOM     37  O   UNL A   1      35.392  35.301  33.204  1.00  0.00    -0.460 OA
BRANCH  37  38
ATOM     38  C   UNL A   1      35.296  34.005  33.575  1.00  0.00     0.338 C 
ATOM     39  O   UNL A   1      34.270  33.345  33.638  1.00  0.00    -0.246 OA
BRANCH  38  40
ATOM     40  C   UNL A   1      36.689  33.463  33.495  1.00  0.00     0.060 A 
ATOM     41  C   UNL A   1      37.557  33.863  32.477  1.00  0.00     0.016 A 
ATOM     42  C   UNL A   1      36.922  32.253  34.175  1.00  0.00     0.016 A 
ATOM     43  C   UNL A   1      38.509  32.950  32.021  1.00  0.00     0.010 A 
ATOM     44  C   UNL A   1      37.866  31.329  33.694  1.00  0.00     0.010 A 
ATOM     45  C   UNL A   1      38.615  31.636  32.564  1.00  0.00    -0.014 A 
BRANCH  45  46
ATOM     46  C   UNL A   1      39.724  30.792  32.055  1.00  0.00     0.031 A 
ATOM     47  C   UNL A   1      40.741  30.704  33.129  1.00  0.00     0.074 A 
ATOM     48  C   UNL A   1      39.942  30.060  30.935  1.00  0.00     0.049 A 
ATOM     49  N   UNL A   1      41.886  31.295  33.164  1.00  0.00    -0.248 NA
ATOM     50  C   UNL A   1      40.278  30.152  34.413  1.00  0.00     0.031 C 
ATOM     51  C   UNL A   1      39.026  29.721  29.846  1.00  0.00     0.029 A 
ATOM     52  N   UNL A   1      41.090  29.387  30.569  1.00  0.00    -0.354 N 
ATOM     53  C   UNL A   1      42.368  31.052  34.438  1.00  0.00     0.074 A 
ATOM     54  C   UNL A   1      41.259  30.557  35.214  1.00  0.00     0.031 C 
ATOM     55  C   UNL A   1      39.577  28.751  29.072  1.00  0.00     0.029 A 
ATOM     56  C   UNL A   1      40.930  28.471  29.528  1.00  0.00     0.049 A 
ATOM     57  H   UNL A   1      41.957  29.543  31.008  1.00  0.00     0.167 HD
ATOM     58  C   UNL A   1      43.696  31.041  34.713  1.00  0.00     0.031 A 
ATOM     59  C   UNL A   1      41.815  27.518  29.113  1.00  0.00     0.031 A 
ATOM     60  C   UNL A   1      44.464  31.710  33.700  1.00  0.00     0.049 A 
ATOM     61  C   UNL A   1      43.162  27.906  29.591  1.00  0.00     0.074 A 
ATOM     62  C   UNL A   1      44.491  32.997  33.202  1.00  0.00     0.029 A 
ATOM     63  N   UNL A   1      45.095  30.921  32.769  1.00  0.00    -0.354 N 
ATOM     64  N   UNL A   1      43.842  28.911  29.123  1.00  0.00    -0.248 NA
ATOM     65  C   UNL A   1      43.597  27.392  30.878  1.00  0.00     0.031 C 
ATOM     66  C   UNL A   1      44.737  32.853  31.809  1.00  0.00     0.029 A 
ATOM     67  C   UNL A   1      44.918  31.495  31.537  1.00  0.00     0.049 A 
ATOM     68  H   UNL A   1      45.587  30.089  32.954  1.00  0.00     0.167 HD
ATOM     69  C   UNL A   1      44.489  29.435  30.231  1.00  0.00     0.074 A 
ATOM     70  C   UNL A   1      44.365  28.410  31.265  1.00  0.00     0.031 C 
ATOM     71  C   UNL A   1      44.826  30.755  30.293  1.00  0.00     0.031 A 
BRANCH  58  72
ATOM     72  C   UNL A   1      44.276  30.083  35.713  1.00  0.00    -0.014 A 
ATOM     73  C   UNL A   1      44.573  30.456  37.044  1.00  0.00     0.010 A 
ATOM     74  C   UNL A   1      44.329  28.713  35.409  1.00  0.00     0.010 A 
ATOM     75  C   UNL A   1      44.970  29.536  38.006  1.00  0.00     0.020 A 
ATOM     76  C   UNL A   1      44.673  27.769  36.384  1.00  0.00     0.020 A 
ATOM     77  C   UNL A   1      45.013  28.193  37.670  1.00  0.00     0.054 A 
BRANCH  77  78
ATOM     78  S   UNL A   1      45.482  27.027  38.964  1.00  0.00     0.124 S 
ATOM     79  O   UNL A   1      44.185  26.477  39.349  1.00  0.00    -0.237 OA
ATOM     80  O   UNL A   1      46.369  26.111  38.253  1.00  0.00    -0.237 OA
ATOM     81  O   UNL A   1      46.126  27.872  39.966  1.00  0.00    -0.744 OA
ENDBRANCH  77  78
ENDBRANCH  58  72
BRANCH  59  82
ATOM     82  C   UNL A   1      41.555  26.108  28.686  1.00  0.00    -0.014 A 
ATOM     83  C   UNL A   1      42.500  25.109  28.983  1.00  0.00     0.010 A 
ATOM     84  C   UNL A   1      40.587  25.811  27.697  1.00  0.00     0.010 A 
ATOM     85  C   UNL A   1      42.555  23.915  28.251  1.00  0.00     0.020 A 
ATOM     86  C   UNL A   1      40.638  24.613  26.955  1.00  0.00     0.020 A 
ATOM     87  C   UNL A   1      41.656  23.695  27.209  1.00  0.00     0.054 A 
BRANCH  87  88
ATOM     88  S   UNL A   1      41.928  22.253  26.134  1.00  0.00     0.124 S 
ATOM     89  O   UNL A   1      40.559  21.862  25.803  1.00  0.00    -0.237 OA
ATOM     90  O   UNL A   1      42.698  22.822  25.029  1.00  0.00    -0.237 OA
ATOM     91  O   UNL A   1      42.658  21.316  26.981  1.00  0.00    -0.744 OA
ENDBRANCH  87  88
ENDBRANCH  59  82
BRANCH  71  92
ATOM     92  C   UNL A   1      44.887  31.575  29.022  1.00  0.00    -0.014 A 
ATOM     93  C   UNL A   1      46.104  31.535  28.315  1.00  0.00     0.010 A 
ATOM     94  C   UNL A   1      43.899  32.482  28.592  1.00  0.00     0.010 A 
ATOM     95  C   UNL A   1      46.357  32.404  27.253  1.00  0.00     0.020 A 
ATOM     96  C   UNL A   1      44.133  33.335  27.498  1.00  0.00     0.020 A 
ATOM     97  C   UNL A   1      45.375  33.310  26.859  1.00  0.00     0.054 A 
BRANCH  97  98
ATOM     98  S   UNL A   1      45.778  34.458  25.515  1.00  0.00     0.124 S 
ATOM     99  O   UNL A   1      47.217  34.257  25.358  1.00  0.00    -0.237 OA
ATOM    100  O   UNL A   1      44.956  33.964  24.412  1.00  0.00    -0.237 OA
ATOM    101  O   UNL A   1      45.391  35.767  26.036  1.00  0.00    -0.744 OA
ENDBRANCH  97  98
ENDBRANCH  71  92
ENDBRANCH  45  46
ENDBRANCH  38  40
ENDBRANCH  37  38
ENDBRANCH  36  37
ENDBRANCH  35  36
ENDBRANCH  34  35
ENDBRANCH  33  34
ENDBRANCH  32  33
ENDBRANCH  31  32
ENDBRANCH   1  31
TORSDOF 28
ENDMDL
