MODEL 1
REMARK VINA RESULT:      -9.6      0.000      0.000
REMARK SMILES Cc1cccc(N2C(=O)/C(=C/c3ccc(C(=O)OCCOCCOCCOCCOC(=O)c4ccc(-c5c6nc(c(-c7ccc(S(=O)(=O)[O-])cc7)c7ccc([nH]7)c(-c7ccc(S(=O)(=O)[O-])cc7)c7nc(c(-c8ccc(S(=O)(=O)[O-])cc8)c8ccc5[nH]8)C=C7)C=C6)cc4)cc3)c3ccccc3C2=O)c1
REMARK SMILES IDX 25 1 24 2 23 3 22 4 21 5 20 6 19 7 18 8 16 9 17 10 15 11
REMARK SMILES IDX 12 12 13 13 94 14 14 15 93 16 11 17 7 18 8 19 101 20 9 21
REMARK SMILES IDX 10 22 100 23 102 24 95 25 99 26 96 27 98 28 97 29 6 30 1 31
REMARK SMILES IDX 2 32 3 33 103 34 4 35 5 36 26 37 27 38 28 39 29 40 30 41
REMARK SMILES IDX 31 42 32 43 33 44 34 45 92 46 35 47 91 48 36 49 37 50 38 51
REMARK SMILES IDX 85 52 39 53 90 54 84 55 86 56 40 57 89 58 83 59 82 60 41 62
REMARK SMILES IDX 71 63 52 64 70 65 53 66 56 67 69 68 87 69 54 70 55 71 68 73
REMARK SMILES IDX 88 74 57 75 42 76 43 77 51 78 44 79 50 80 45 81 46 82 47 83
REMARK SMILES IDX 48 84 49 85 72 86 73 87 81 88 74 89 80 90 75 91 76 92 77 93
REMARK SMILES IDX 78 94 79 95 58 96 59 97 67 98 60 99 66 100 61 101 62 102
REMARK SMILES IDX 63 103 64 104 65 105
REMARK H PARENT 86 61 56 72
REMARK Flexibility Score: inf
ROOT
ATOM      1  C   UNL A   1      39.626  29.147  27.322  1.00  0.00     0.188 C 
ENDROOT
BRANCH   1   2
ATOM      2  O   UNL A   1      41.000  29.040  26.930  1.00  0.00    -0.377 OA
BRANCH   2   3
ATOM      3  C   UNL A   1      41.402  27.907  26.171  1.00  0.00     0.188 C 
BRANCH   3   4
ATOM      4  C   UNL A   1      41.606  26.601  26.940  1.00  0.00     0.188 C 
BRANCH   4   5
ATOM      5  O   UNL A   1      41.213  25.380  26.326  1.00  0.00    -0.376 OA
BRANCH   5   6
ATOM      6  C   UNL A   1      42.273  24.443  26.169  1.00  0.00     0.202 C 
BRANCH   6   7
ATOM      7  C   UNL A   1      42.097  23.076  26.823  1.00  0.00     0.261 C 
BRANCH   7   8
ATOM      8  O   UNL A   1      40.763  22.880  27.269  1.00  0.00    -0.460 OA
BRANCH   8   9
ATOM      9  C   UNL A   1      40.212  21.714  26.884  1.00  0.00     0.338 C 
ATOM     10  O   UNL A   1      40.470  20.587  27.249  1.00  0.00    -0.246 OA
BRANCH   9  11
ATOM     11  C   UNL A   1      38.957  22.099  26.231  1.00  0.00     0.060 A 
ATOM     12  C   UNL A   1      36.885  23.192  24.748  1.00  0.00    -0.025 A 
ATOM     13  C   UNL A   1      37.513  23.943  25.754  1.00  0.00     0.009 A 
ATOM     14  C   UNL A   1      37.300  21.878  24.500  1.00  0.00     0.009 A 
ATOM     15  C   UNL A   1      38.534  23.396  26.507  1.00  0.00     0.016 A 
ATOM     16  C   UNL A   1      38.361  21.334  25.225  1.00  0.00     0.016 A 
BRANCH  12  17
ATOM     17  C   UNL A   1      35.744  23.849  24.112  1.00  0.00     0.022 C 
ATOM     18  N   UNL A   1      32.517  24.913  24.108  1.00  0.00    -0.242 N 
ATOM     19  C   UNL A   1      33.643  24.569  23.345  1.00  0.00     0.265 C 
ATOM     20  C   UNL A   1      31.954  23.951  24.987  1.00  0.00     0.265 C 
ATOM     21  O   UNL A   1      34.021  25.031  22.271  1.00  0.00    -0.268 OA
ATOM     22  C   UNL A   1      34.461  23.487  23.956  1.00  0.00     0.049 C 
ATOM     23  C   UNL A   1      32.471  22.550  24.912  1.00  0.00     0.048 A 
ATOM     24  O   UNL A   1      31.044  24.128  25.796  1.00  0.00    -0.268 OA
ATOM     25  C   UNL A   1      33.738  22.307  24.383  1.00  0.00    -0.000 A 
ATOM     26  C   UNL A   1      31.686  21.479  25.359  1.00  0.00     0.014 A 
ATOM     27  C   UNL A   1      34.193  20.993  24.226  1.00  0.00     0.010 A 
ATOM     28  C   UNL A   1      32.154  20.169  25.231  1.00  0.00     0.001 A 
ATOM     29  C   UNL A   1      33.401  19.927  24.655  1.00  0.00     0.001 A 
BRANCH  18  30
ATOM     30  C   UNL A   1      31.914  26.239  23.938  1.00  0.00     0.053 A 
ATOM     31  C   UNL A   1      32.118  29.720  25.555  1.00  0.00     0.044 C 
ATOM     32  C   UNL A   1      31.691  28.612  24.636  1.00  0.00    -0.049 A 
ATOM     33  C   UNL A   1      30.798  28.854  23.601  1.00  0.00     0.003 A 
ATOM     34  C   UNL A   1      32.223  27.319  24.793  1.00  0.00     0.030 A 
ATOM     35  C   UNL A   1      30.433  27.811  22.760  1.00  0.00     0.002 A 
ATOM     36  C   UNL A   1      30.979  26.529  22.931  1.00  0.00     0.027 A 
ENDBRANCH  18  30
ENDBRANCH  12  17
ENDBRANCH   9  11
ENDBRANCH   8   9
ENDBRANCH   7   8
ENDBRANCH   6   7
ENDBRANCH   5   6
ENDBRANCH   4   5
ENDBRANCH   3   4
ENDBRANCH   2   3
ENDBRANCH   1   2
BRANCH   1  37
ATOM     37  C   UNL A   1      39.309  29.703  28.704  1.00  0.00     0.188 C 
BRANCH  37  38
ATOM     38  O   UNL A   1      38.188  30.583  28.558  1.00  0.00    -0.376 OA
BRANCH  38  39
ATOM     39  C   UNL A   1      37.748  31.223  29.744  1.00  0.00     0.202 C 
BRANCH  39  40
ATOM     40  C   UNL A   1      36.426  30.681  30.300  1.00  0.00     0.261 C 
BRANCH  40  41
ATOM     41  O   UNL A   1      36.326  30.848  31.733  1.00  0.00    -0.460 OA
BRANCH  41  42
ATOM     42  C   UNL A   1      37.048  29.980  32.504  1.00  0.00     0.338 C 
ATOM     43  O   UNL A   1      37.028  28.771  32.354  1.00  0.00    -0.246 OA
BRANCH  42  44
ATOM     44  C   UNL A   1      37.983  30.706  33.405  1.00  0.00     0.060 A 
ATOM     45  C   UNL A   1      38.731  30.062  34.401  1.00  0.00     0.016 A 
ATOM     46  C   UNL A   1      38.044  32.083  33.311  1.00  0.00     0.016 A 
ATOM     47  C   UNL A   1      39.379  30.804  35.414  1.00  0.00     0.010 A 
ATOM     48  C   UNL A   1      38.629  32.796  34.335  1.00  0.00     0.010 A 
ATOM     49  C   UNL A   1      39.270  32.191  35.428  1.00  0.00    -0.014 A 
BRANCH  49  50
ATOM     50  C   UNL A   1      39.651  33.131  36.514  1.00  0.00     0.031 A 
ATOM     51  C   UNL A   1      38.664  33.362  37.636  1.00  0.00     0.074 A 
ATOM     52  C   UNL A   1      40.977  33.374  36.706  1.00  0.00     0.049 A 
ATOM     53  N   UNL A   1      38.901  33.995  38.735  1.00  0.00    -0.248 NA
ATOM     54  C   UNL A   1      37.288  32.849  37.614  1.00  0.00     0.031 C 
ATOM     55  C   UNL A   1      41.671  33.589  37.985  1.00  0.00     0.029 A 
ATOM     56  N   UNL A   1      42.037  33.418  35.808  1.00  0.00    -0.354 N 
ATOM     57  C   UNL A   1      37.929  33.643  39.663  1.00  0.00     0.074 A 
ATOM     58  C   UNL A   1      36.897  33.011  38.885  1.00  0.00     0.031 C 
ATOM     59  C   UNL A   1      42.975  33.835  37.782  1.00  0.00     0.029 A 
ATOM     60  C   UNL A   1      43.097  34.132  36.377  1.00  0.00     0.049 A 
ATOM     61  H   UNL A   1      42.041  33.010  34.912  1.00  0.00     0.167 HD
ATOM     62  C   UNL A   1      38.188  33.776  41.003  1.00  0.00     0.031 A 
ATOM     63  C   UNL A   1      43.464  35.372  35.930  1.00  0.00     0.031 A 
ATOM     64  C   UNL A   1      39.448  34.509  41.237  1.00  0.00     0.049 A 
ATOM     65  C   UNL A   1      43.098  36.447  36.965  1.00  0.00     0.074 A 
ATOM     66  C   UNL A   1      40.583  34.276  41.994  1.00  0.00     0.029 A 
ATOM     67  N   UNL A   1      39.740  35.635  40.465  1.00  0.00    -0.354 N 
ATOM     68  N   UNL A   1      42.157  36.281  37.869  1.00  0.00    -0.248 NA
ATOM     69  C   UNL A   1      43.827  37.695  37.190  1.00  0.00     0.031 C 
ATOM     70  C   UNL A   1      41.613  35.141  41.520  1.00  0.00     0.029 A 
ATOM     71  C   UNL A   1      41.066  35.988  40.566  1.00  0.00     0.049 A 
ATOM     72  H   UNL A   1      39.078  36.116  39.917  1.00  0.00     0.167 HD
ATOM     73  C   UNL A   1      42.229  37.255  38.826  1.00  0.00     0.074 A 
ATOM     74  C   UNL A   1      43.251  38.157  38.320  1.00  0.00     0.031 C 
ATOM     75  C   UNL A   1      41.522  37.252  39.999  1.00  0.00     0.031 A 
BRANCH  62  76
ATOM     76  C   UNL A   1      37.440  33.052  42.136  1.00  0.00    -0.014 A 
ATOM     77  C   UNL A   1      38.015  31.901  42.725  1.00  0.00     0.010 A 
ATOM     78  C   UNL A   1      36.143  33.368  42.598  1.00  0.00     0.010 A 
ATOM     79  C   UNL A   1      37.347  31.110  43.684  1.00  0.00     0.020 A 
ATOM     80  C   UNL A   1      35.476  32.610  43.590  1.00  0.00     0.020 A 
ATOM     81  C   UNL A   1      36.079  31.474  44.120  1.00  0.00     0.054 A 
BRANCH  81  82
ATOM     82  S   UNL A   1      35.255  30.475  45.398  1.00  0.00     0.124 S 
ATOM     83  O   UNL A   1      36.148  29.326  45.533  1.00  0.00    -0.237 OA
ATOM     84  O   UNL A   1      35.222  31.380  46.543  1.00  0.00    -0.237 OA
ATOM     85  O   UNL A   1      33.948  30.175  44.815  1.00  0.00    -0.744 OA
ENDBRANCH  81  82
ENDBRANCH  62  76
BRANCH  63  86
ATOM     86  C   UNL A   1      43.605  35.396  34.432  1.00  0.00    -0.014 A 
ATOM     87  C   UNL A   1      44.391  34.325  33.931  1.00  0.00     0.010 A 
ATOM     88  C   UNL A   1      42.527  35.843  33.640  1.00  0.00     0.010 A 
ATOM     89  C   UNL A   1      43.920  33.521  32.884  1.00  0.00     0.020 A 
ATOM     90  C   UNL A   1      42.066  35.046  32.568  1.00  0.00     0.020 A 
ATOM     91  C   UNL A   1      42.717  33.844  32.264  1.00  0.00     0.054 A 
BRANCH  91  92
ATOM     92  S   UNL A   1      41.878  32.535  31.302  1.00  0.00     0.124 S 
ATOM     93  O   UNL A   1      42.961  31.997  30.489  1.00  0.00    -0.237 OA
ATOM     94  O   UNL A   1      41.370  31.651  32.350  1.00  0.00    -0.237 OA
ATOM     95  O   UNL A   1      40.849  33.270  30.574  1.00  0.00    -0.744 OA
ENDBRANCH  91  92
ENDBRANCH  63  86
BRANCH  75  96
ATOM     96  C   UNL A   1      41.165  38.484  40.802  1.00  0.00    -0.014 A 
ATOM     97  C   UNL A   1      40.118  39.344  40.451  1.00  0.00     0.010 A 
ATOM     98  C   UNL A   1      41.731  38.656  42.095  1.00  0.00     0.010 A 
ATOM     99  C   UNL A   1      39.679  40.339  41.331  1.00  0.00     0.020 A 
ATOM    100  C   UNL A   1      41.269  39.611  42.998  1.00  0.00     0.020 A 
ATOM    101  C   UNL A   1      40.250  40.461  42.600  1.00  0.00     0.054 A 
BRANCH 101 102
ATOM    102  S   UNL A   1      39.593  41.692  43.745  1.00  0.00     0.124 S 
ATOM    103  O   UNL A   1      40.312  41.366  44.974  1.00  0.00    -0.237 OA
ATOM    104  O   UNL A   1      39.972  42.952  43.111  1.00  0.00    -0.237 OA
ATOM    105  O   UNL A   1      38.157  41.420  43.767  1.00  0.00    -0.744 OA
ENDBRANCH 101 102
ENDBRANCH  75  96
ENDBRANCH  49  50
ENDBRANCH  42  44
ENDBRANCH  41  42
ENDBRANCH  40  41
ENDBRANCH  39  40
ENDBRANCH  38  39
ENDBRANCH  37  38
ENDBRANCH   1  37
TORSDOF 25
ENDMDL
MODEL 2
REMARK VINA RESULT:      -9.6      7.676     15.537
REMARK SMILES Cc1cccc(N2C(=O)/C(=C/c3ccc(C(=O)OCCOCCOCCOCCOC(=O)c4ccc(-c5c6nc(c(-c7ccc(S(=O)(=O)[O-])cc7)c7ccc([nH]7)c(-c7ccc(S(=O)(=O)[O-])cc7)c7nc(c(-c8ccc(S(=O)(=O)[O-])cc8)c8ccc5[nH]8)C=C7)C=C6)cc4)cc3)c3ccccc3C2=O)c1
REMARK SMILES IDX 25 1 24 2 23 3 22 4 21 5 20 6 19 7 18 8 16 9 17 10 15 11
REMARK SMILES IDX 12 12 13 13 94 14 14 15 93 16 11 17 7 18 8 19 101 20 9 21
REMARK SMILES IDX 10 22 100 23 102 24 95 25 99 26 96 27 98 28 97 29 6 30 1 31
REMARK SMILES IDX 2 32 3 33 103 34 4 35 5 36 26 37 27 38 28 39 29 40 30 41
REMARK SMILES IDX 31 42 32 43 33 44 34 45 92 46 35 47 91 48 36 49 37 50 38 51
REMARK SMILES IDX 85 52 39 53 90 54 84 55 86 56 40 57 89 58 83 59 82 60 41 62
REMARK SMILES IDX 71 63 52 64 70 65 53 66 56 67 69 68 87 69 54 70 55 71 68 73
REMARK SMILES IDX 88 74 57 75 42 76 43 77 51 78 44 79 50 80 45 81 46 82 47 83
REMARK SMILES IDX 48 84 49 85 72 86 73 87 81 88 74 89 80 90 75 91 76 92 77 93
REMARK SMILES IDX 78 94 79 95 58 96 59 97 67 98 60 99 66 100 61 101 62 102
REMARK SMILES IDX 63 103 64 104 65 105
REMARK H PARENT 86 61 56 72
REMARK Flexibility Score: inf
ROOT
ATOM      1  C   UNL A   1      50.131  33.818  25.824  1.00  0.00     0.188 C 
ENDROOT
BRANCH   1   2
ATOM      2  O   UNL A   1      48.831  33.218  25.875  1.00  0.00    -0.377 OA
BRANCH   2   3
ATOM      3  C   UNL A   1      47.748  33.989  26.377  1.00  0.00     0.188 C 
BRANCH   3   4
ATOM      4  C   UNL A   1      47.124  35.004  25.420  1.00  0.00     0.188 C 
BRANCH   4   5
ATOM      5  O   UNL A   1      45.873  34.694  24.819  1.00  0.00    -0.376 OA
BRANCH   5   6
ATOM      6  C   UNL A   1      45.047  33.843  25.606  1.00  0.00     0.202 C 
BRANCH   6   7
ATOM      7  C   UNL A   1      43.704  34.406  26.064  1.00  0.00     0.261 C 
BRANCH   7   8
ATOM      8  O   UNL A   1      43.854  35.266  27.183  1.00  0.00    -0.460 OA
BRANCH   8   9
ATOM      9  C   UNL A   1      42.695  35.684  27.725  1.00  0.00     0.338 C 
ATOM     10  O   UNL A   1      41.868  36.446  27.269  1.00  0.00    -0.246 OA
BRANCH   9  11
ATOM     11  C   UNL A   1      42.426  34.728  28.802  1.00  0.00     0.060 A 
ATOM     12  C   UNL A   1      42.274  33.207  31.116  1.00  0.00    -0.025 A 
ATOM     13  C   UNL A   1      43.452  33.226  30.353  1.00  0.00     0.009 A 
ATOM     14  C   UNL A   1      41.164  33.952  30.699  1.00  0.00     0.009 A 
ATOM     15  C   UNL A   1      43.526  33.968  29.191  1.00  0.00     0.016 A 
ATOM     16  C   UNL A   1      41.246  34.741  29.550  1.00  0.00     0.016 A 
BRANCH  12  17
ATOM     17  C   UNL A   1      42.292  32.290  32.254  1.00  0.00     0.022 C 
ATOM     18  N   UNL A   1      41.183  29.530  33.896  1.00  0.00    -0.242 N 
ATOM     19  C   UNL A   1      41.833  30.769  33.986  1.00  0.00     0.265 C 
ATOM     20  C   UNL A   1      39.858  29.475  33.391  1.00  0.00     0.265 C 
ATOM     21  O   UNL A   1      42.740  31.116  34.740  1.00  0.00    -0.268 OA
ATOM     22  C   UNL A   1      41.316  31.776  33.020  1.00  0.00     0.049 C 
ATOM     23  C   UNL A   1      39.145  30.770  33.161  1.00  0.00     0.048 A 
ATOM     24  O   UNL A   1      39.196  28.466  33.149  1.00  0.00    -0.268 OA
ATOM     25  C   UNL A   1      39.878  31.941  32.980  1.00  0.00    -0.000 A 
ATOM     26  C   UNL A   1      37.744  30.814  33.138  1.00  0.00     0.014 A 
ATOM     27  C   UNL A   1      39.220  33.169  32.854  1.00  0.00     0.010 A 
ATOM     28  C   UNL A   1      37.087  32.036  32.981  1.00  0.00     0.001 A 
ATOM     29  C   UNL A   1      37.824  33.213  32.851  1.00  0.00     0.001 A 
BRANCH  18  30
ATOM     30  C   UNL A   1      41.867  28.325  34.379  1.00  0.00     0.053 A 
ATOM     31  C   UNL A   1      41.732  25.961  37.407  1.00  0.00     0.044 C 
ATOM     32  C   UNL A   1      42.164  26.557  36.099  1.00  0.00    -0.049 A 
ATOM     33  C   UNL A   1      43.141  25.942  35.327  1.00  0.00     0.003 A 
ATOM     34  C   UNL A   1      41.555  27.733  35.623  1.00  0.00     0.030 A 
ATOM     35  C   UNL A   1      43.509  26.513  34.116  1.00  0.00     0.002 A 
ATOM     36  C   UNL A   1      42.885  27.684  33.656  1.00  0.00     0.027 A 
ENDBRANCH  18  30
ENDBRANCH  12  17
ENDBRANCH   9  11
ENDBRANCH   8   9
ENDBRANCH   7   8
ENDBRANCH   6   7
ENDBRANCH   5   6
ENDBRANCH   4   5
ENDBRANCH   3   4
ENDBRANCH   2   3
ENDBRANCH   1   2
BRANCH   1  37
ATOM     37  C   UNL A   1      50.845  34.110  27.137  1.00  0.00     0.188 C 
BRANCH  37  38
ATOM     38  O   UNL A   1      50.884  35.535  27.289  1.00  0.00    -0.376 OA
BRANCH  38  39
ATOM     39  C   UNL A   1      50.407  36.036  28.526  1.00  0.00     0.202 C 
BRANCH  39  40
ATOM     40  C   UNL A   1      50.804  35.193  29.742  1.00  0.00     0.261 C 
BRANCH  40  41
ATOM     41  O   UNL A   1      49.655  34.770  30.513  1.00  0.00    -0.460 OA
BRANCH  41  42
ATOM     42  C   UNL A   1      49.821  33.672  31.311  1.00  0.00     0.338 C 
ATOM     43  O   UNL A   1      50.615  33.627  32.234  1.00  0.00    -0.246 OA
BRANCH  42  44
ATOM     44  C   UNL A   1      48.794  32.635  31.025  1.00  0.00     0.060 A 
ATOM     45  C   UNL A   1      48.858  31.337  31.554  1.00  0.00     0.016 A 
ATOM     46  C   UNL A   1      47.787  32.942  30.131  1.00  0.00     0.016 A 
ATOM     47  C   UNL A   1      48.040  30.305  31.041  1.00  0.00     0.010 A 
ATOM     48  C   UNL A   1      47.035  31.918  29.597  1.00  0.00     0.010 A 
ATOM     49  C   UNL A   1      47.162  30.578  29.997  1.00  0.00    -0.014 A 
BRANCH  49  50
ATOM     50  C   UNL A   1      46.408  29.611  29.156  1.00  0.00     0.031 A 
ATOM     51  C   UNL A   1      44.988  29.275  29.556  1.00  0.00     0.074 A 
ATOM     52  C   UNL A   1      46.819  29.433  27.871  1.00  0.00     0.049 A 
ATOM     53  N   UNL A   1      44.141  28.606  28.849  1.00  0.00    -0.248 NA
ATOM     54  C   UNL A   1      44.385  29.712  30.822  1.00  0.00     0.031 C 
ATOM     55  C   UNL A   1      45.977  29.198  26.687  1.00  0.00     0.029 A 
ATOM     56  N   UNL A   1      48.086  29.488  27.301  1.00  0.00    -0.354 N 
ATOM     57  C   UNL A   1      42.865  28.862  29.336  1.00  0.00     0.074 A 
ATOM     58  C   UNL A   1      43.083  29.471  30.621  1.00  0.00     0.031 C 
ATOM     59  C   UNL A   1      46.736  29.034  25.591  1.00  0.00     0.029 A 
ATOM     60  C   UNL A   1      48.073  28.808  26.078  1.00  0.00     0.049 A 
ATOM     61  H   UNL A   1      48.868  29.936  27.696  1.00  0.00     0.167 HD
ATOM     62  C   UNL A   1      41.777  28.683  28.521  1.00  0.00     0.031 A 
ATOM     63  C   UNL A   1      48.714  27.612  25.903  1.00  0.00     0.031 A 
ATOM     64  C   UNL A   1      42.154  28.010  27.262  1.00  0.00     0.049 A 
ATOM     65  C   UNL A   1      47.694  26.472  25.754  1.00  0.00     0.074 A 
ATOM     66  C   UNL A   1      41.943  28.270  25.919  1.00  0.00     0.029 A 
ATOM     67  N   UNL A   1      43.048  26.938  27.298  1.00  0.00    -0.354 N 
ATOM     68  N   UNL A   1      46.465  26.545  26.218  1.00  0.00    -0.248 NA
ATOM     69  C   UNL A   1      47.885  25.258  24.962  1.00  0.00     0.031 C 
ATOM     70  C   UNL A   1      42.868  27.486  25.169  1.00  0.00     0.029 A 
ATOM     71  C   UNL A   1      43.548  26.654  26.047  1.00  0.00     0.049 A 
ATOM     72  H   UNL A   1      43.289  26.447  28.116  1.00  0.00     0.167 HD
ATOM     73  C   UNL A   1      45.697  25.534  25.711  1.00  0.00     0.074 A 
ATOM     74  C   UNL A   1      46.649  24.714  24.981  1.00  0.00     0.031 C 
ATOM     75  C   UNL A   1      44.337  25.445  25.843  1.00  0.00     0.031 A 
BRANCH  62  76
ATOM     76  C   UNL A   1      40.389  29.312  28.729  1.00  0.00    -0.014 A 
ATOM     77  C   UNL A   1      39.251  28.694  28.157  1.00  0.00     0.010 A 
ATOM     78  C   UNL A   1      40.132  30.545  29.369  1.00  0.00     0.010 A 
ATOM     79  C   UNL A   1      37.962  29.263  28.197  1.00  0.00     0.020 A 
ATOM     80  C   UNL A   1      38.837  31.109  29.456  1.00  0.00     0.020 A 
ATOM     81  C   UNL A   1      37.758  30.470  28.856  1.00  0.00     0.054 A 
BRANCH  81  82
ATOM     82  S   UNL A   1      36.078  31.162  28.946  1.00  0.00     0.124 S 
ATOM     83  O   UNL A   1      35.618  30.722  30.261  1.00  0.00    -0.237 OA
ATOM     84  O   UNL A   1      36.313  32.597  28.811  1.00  0.00    -0.237 OA
ATOM     85  O   UNL A   1      35.387  30.546  27.814  1.00  0.00    -0.744 OA
ENDBRANCH  81  82
ENDBRANCH  62  76
BRANCH  63  86
ATOM     86  C   UNL A   1      50.126  27.665  26.421  1.00  0.00    -0.014 A 
ATOM     87  C   UNL A   1      50.462  26.550  27.233  1.00  0.00     0.010 A 
ATOM     88  C   UNL A   1      51.142  28.217  25.614  1.00  0.00     0.010 A 
ATOM     89  C   UNL A   1      51.630  25.813  26.989  1.00  0.00     0.020 A 
ATOM     90  C   UNL A   1      52.331  27.488  25.385  1.00  0.00     0.020 A 
ATOM     91  C   UNL A   1      52.517  26.247  26.007  1.00  0.00     0.054 A 
BRANCH  91  92
ATOM     92  S   UNL A   1      53.718  25.035  25.351  1.00  0.00     0.124 S 
ATOM     93  O   UNL A   1      54.074  25.610  24.061  1.00  0.00    -0.237 OA
ATOM     94  O   UNL A   1      54.770  25.054  26.368  1.00  0.00    -0.237 OA
ATOM     95  O   UNL A   1      52.944  23.799  25.299  1.00  0.00    -0.744 OA
ENDBRANCH  91  92
ENDBRANCH  63  86
BRANCH  75  96
ATOM     96  C   UNL A   1      43.540  24.159  25.781  1.00  0.00    -0.014 A 
ATOM     97  C   UNL A   1      43.922  23.065  24.997  1.00  0.00     0.010 A 
ATOM     98  C   UNL A   1      42.507  23.939  26.733  1.00  0.00     0.010 A 
ATOM     99  C   UNL A   1      43.289  21.825  25.136  1.00  0.00     0.020 A 
ATOM    100  C   UNL A   1      41.904  22.696  26.914  1.00  0.00     0.020 A 
ATOM    101  C   UNL A   1      42.291  21.646  26.097  1.00  0.00     0.054 A 
BRANCH 101 102
ATOM    102  S   UNL A   1      41.563  20.008  26.315  1.00  0.00     0.124 S 
ATOM    103  O   UNL A   1      40.149  20.279  26.074  1.00  0.00    -0.237 OA
ATOM    104  O   UNL A   1      42.237  19.220  25.285  1.00  0.00    -0.237 OA
ATOM    105  O   UNL A   1      41.909  19.651  27.689  1.00  0.00    -0.744 OA
ENDBRANCH 101 102
ENDBRANCH  75  96
ENDBRANCH  49  50
ENDBRANCH  42  44
ENDBRANCH  41  42
ENDBRANCH  40  41
ENDBRANCH  39  40
ENDBRANCH  38  39
ENDBRANCH  37  38
ENDBRANCH   1  37
TORSDOF 25
ENDMDL
MODEL 3
REMARK VINA RESULT:      -9.4      4.556      9.562
REMARK SMILES Cc1cccc(N2C(=O)/C(=C/c3ccc(C(=O)OCCOCCOCCOCCOC(=O)c4ccc(-c5c6nc(c(-c7ccc(S(=O)(=O)[O-])cc7)c7ccc([nH]7)c(-c7ccc(S(=O)(=O)[O-])cc7)c7nc(c(-c8ccc(S(=O)(=O)[O-])cc8)c8ccc5[nH]8)C=C7)C=C6)cc4)cc3)c3ccccc3C2=O)c1
REMARK SMILES IDX 25 1 24 2 23 3 22 4 21 5 20 6 19 7 18 8 16 9 17 10 15 11
REMARK SMILES IDX 12 12 13 13 94 14 14 15 93 16 11 17 7 18 8 19 101 20 9 21
REMARK SMILES IDX 10 22 100 23 102 24 95 25 99 26 96 27 98 28 97 29 6 30 1 31
REMARK SMILES IDX 2 32 3 33 103 34 4 35 5 36 26 37 27 38 28 39 29 40 30 41
REMARK SMILES IDX 31 42 32 43 33 44 34 45 92 46 35 47 91 48 36 49 37 50 38 51
REMARK SMILES IDX 85 52 39 53 90 54 84 55 86 56 40 57 89 58 83 59 82 60 41 62
REMARK SMILES IDX 71 63 52 64 70 65 53 66 56 67 69 68 87 69 54 70 55 71 68 73
REMARK SMILES IDX 88 74 57 75 42 76 43 77 51 78 44 79 50 80 45 81 46 82 47 83
REMARK SMILES IDX 48 84 49 85 72 86 73 87 81 88 74 89 80 90 75 91 76 92 77 93
REMARK SMILES IDX 78 94 79 95 58 96 59 97 67 98 60 99 66 100 61 101 62 102
REMARK SMILES IDX 63 103 64 104 65 105
REMARK H PARENT 86 61 56 72
REMARK Flexibility Score: inf
ROOT
ATOM      1  C   UNL A   1      40.005  27.597  27.244  1.00  0.00     0.188 C 
ENDROOT
BRANCH   1   2
ATOM      2  O   UNL A   1      41.351  28.052  27.052  1.00  0.00    -0.377 OA
BRANCH   2   3
ATOM      3  C   UNL A   1      42.176  27.355  26.128  1.00  0.00     0.188 C 
BRANCH   3   4
ATOM      4  C   UNL A   1      42.843  26.075  26.633  1.00  0.00     0.188 C 
BRANCH   4   5
ATOM      5  O   UNL A   1      42.589  24.857  25.944  1.00  0.00    -0.376 OA
BRANCH   5   6
ATOM      6  C   UNL A   1      43.152  23.709  26.569  1.00  0.00     0.202 C 
BRANCH   6   7
ATOM      7  C   UNL A   1      42.250  22.916  27.512  1.00  0.00     0.261 C 
BRANCH   7   8
ATOM      8  O   UNL A   1      40.884  23.037  27.148  1.00  0.00    -0.460 OA
BRANCH   8   9
ATOM      9  C   UNL A   1      40.245  21.863  26.982  1.00  0.00     0.338 C 
ATOM     10  O   UNL A   1      40.454  20.796  27.518  1.00  0.00    -0.246 OA
BRANCH   9  11
ATOM     11  C   UNL A   1      38.985  22.220  26.325  1.00  0.00     0.060 A 
ATOM     12  C   UNL A   1      36.898  23.253  24.819  1.00  0.00    -0.025 A 
ATOM     13  C   UNL A   1      37.531  24.041  25.793  1.00  0.00     0.009 A 
ATOM     14  C   UNL A   1      37.316  21.931  24.615  1.00  0.00     0.009 A 
ATOM     15  C   UNL A   1      38.558  23.525  26.557  1.00  0.00     0.016 A 
ATOM     16  C   UNL A   1      38.383  21.417  25.351  1.00  0.00     0.016 A 
BRANCH  12  17
ATOM     17  C   UNL A   1      35.751  23.882  24.167  1.00  0.00     0.022 C 
ATOM     18  N   UNL A   1      32.493  24.847  24.110  1.00  0.00    -0.242 N 
ATOM     19  C   UNL A   1      33.644  24.548  23.366  1.00  0.00     0.265 C 
ATOM     20  C   UNL A   1      31.942  23.858  24.966  1.00  0.00     0.265 C 
ATOM     21  O   UNL A   1      34.029  25.035  22.306  1.00  0.00    -0.268 OA
ATOM     22  C   UNL A   1      34.482  23.483  23.981  1.00  0.00     0.049 C 
ATOM     23  C   UNL A   1      32.504  22.473  24.884  1.00  0.00     0.048 A 
ATOM     24  O   UNL A   1      31.012  23.996  25.759  1.00  0.00    -0.268 OA
ATOM     25  C   UNL A   1      33.788  22.276  24.379  1.00  0.00    -0.000 A 
ATOM     26  C   UNL A   1      31.744  21.373  25.302  1.00  0.00     0.014 A 
ATOM     27  C   UNL A   1      34.287  20.979  24.215  1.00  0.00     0.010 A 
ATOM     28  C   UNL A   1      32.254  20.080  25.167  1.00  0.00     0.001 A 
ATOM     29  C   UNL A   1      33.519  19.884  24.614  1.00  0.00     0.001 A 
BRANCH  18  30
ATOM     30  C   UNL A   1      31.853  26.156  23.945  1.00  0.00     0.053 A 
ATOM     31  C   UNL A   1      31.960  29.637  25.571  1.00  0.00     0.044 C 
ATOM     32  C   UNL A   1      31.564  28.521  24.649  1.00  0.00    -0.049 A 
ATOM     33  C   UNL A   1      30.664  28.740  23.615  1.00  0.00     0.003 A 
ATOM     34  C   UNL A   1      32.132  27.242  24.802  1.00  0.00     0.030 A 
ATOM     35  C   UNL A   1      30.328  27.689  22.772  1.00  0.00     0.002 A 
ATOM     36  C   UNL A   1      30.909  26.422  22.938  1.00  0.00     0.027 A 
ENDBRANCH  18  30
ENDBRANCH  12  17
ENDBRANCH   9  11
ENDBRANCH   8   9
ENDBRANCH   7   8
ENDBRANCH   6   7
ENDBRANCH   5   6
ENDBRANCH   4   5
ENDBRANCH   3   4
ENDBRANCH   2   3
ENDBRANCH   1   2
BRANCH   1  37
ATOM     37  C   UNL A   1      39.398  27.700  28.636  1.00  0.00     0.188 C 
BRANCH  37  38
ATOM     38  O   UNL A   1      38.164  28.416  28.507  1.00  0.00    -0.376 OA
BRANCH  38  39
ATOM     39  C   UNL A   1      38.274  29.762  28.075  1.00  0.00     0.202 C 
BRANCH  39  40
ATOM     40  C   UNL A   1      36.998  30.590  28.262  1.00  0.00     0.261 C 
BRANCH  40  41
ATOM     41  O   UNL A   1      37.284  31.980  28.542  1.00  0.00    -0.460 OA
BRANCH  41  42
ATOM     42  C   UNL A   1      37.038  32.414  29.815  1.00  0.00     0.338 C 
ATOM     43  O   UNL A   1      35.925  32.699  30.223  1.00  0.00    -0.246 OA
BRANCH  42  44
ATOM     44  C   UNL A   1      38.253  32.313  30.666  1.00  0.00     0.060 A 
ATOM     45  C   UNL A   1      39.535  32.636  30.200  1.00  0.00     0.016 A 
ATOM     46  C   UNL A   1      38.117  31.792  31.939  1.00  0.00     0.016 A 
ATOM     47  C   UNL A   1      40.687  32.259  30.927  1.00  0.00     0.010 A 
ATOM     48  C   UNL A   1      39.245  31.378  32.613  1.00  0.00     0.010 A 
ATOM     49  C   UNL A   1      40.548  31.555  32.119  1.00  0.00    -0.014 A 
BRANCH  49  50
ATOM     50  C   UNL A   1      41.601  30.858  32.901  1.00  0.00     0.031 A 
ATOM     51  C   UNL A   1      42.028  29.478  32.452  1.00  0.00     0.074 A 
ATOM     52  C   UNL A   1      42.435  31.618  33.663  1.00  0.00     0.049 A 
ATOM     53  N   UNL A   1      43.040  28.815  32.899  1.00  0.00    -0.248 NA
ATOM     54  C   UNL A   1      41.333  28.725  31.399  1.00  0.00     0.031 C 
ATOM     55  C   UNL A   1      43.868  31.401  33.910  1.00  0.00     0.029 A 
ATOM     56  N   UNL A   1      42.216  32.811  34.343  1.00  0.00    -0.354 N 
ATOM     57  C   UNL A   1      43.352  27.818  31.981  1.00  0.00     0.074 A 
ATOM     58  C   UNL A   1      42.200  27.743  31.123  1.00  0.00     0.031 C 
ATOM     59  C   UNL A   1      44.354  32.338  34.741  1.00  0.00     0.029 A 
ATOM     60  C   UNL A   1      43.199  32.970  35.326  1.00  0.00     0.049 A 
ATOM     61  H   UNL A   1      41.486  33.445  34.160  1.00  0.00     0.167 HD
ATOM     62  C   UNL A   1      44.618  27.293  31.954  1.00  0.00     0.031 A 
ATOM     63  C   UNL A   1      42.917  32.866  36.661  1.00  0.00     0.031 A 
ATOM     64  C   UNL A   1      45.417  27.751  33.107  1.00  0.00     0.049 A 
ATOM     65  C   UNL A   1      43.530  31.582  37.242  1.00  0.00     0.074 A 
ATOM     66  C   UNL A   1      46.668  28.324  33.258  1.00  0.00     0.029 A 
ATOM     67  N   UNL A   1      44.828  27.805  34.371  1.00  0.00    -0.354 N 
ATOM     68  N   UNL A   1      43.824  30.532  36.506  1.00  0.00    -0.248 NA
ATOM     69  C   UNL A   1      44.008  31.412  38.614  1.00  0.00     0.031 C 
ATOM     70  C   UNL A   1      46.735  28.898  34.562  1.00  0.00     0.029 A 
ATOM     71  C   UNL A   1      45.577  28.559  35.247  1.00  0.00     0.049 A 
ATOM     72  H   UNL A   1      43.983  27.359  34.607  1.00  0.00     0.167 HD
ATOM     73  C   UNL A   1      44.605  29.655  37.207  1.00  0.00     0.074 A 
ATOM     74  C   UNL A   1      44.638  30.220  38.546  1.00  0.00     0.031 C 
ATOM     75  C   UNL A   1      45.237  28.568  36.665  1.00  0.00     0.031 A 
BRANCH  62  76
ATOM     76  C   UNL A   1      45.248  26.538  30.770  1.00  0.00    -0.014 A 
ATOM     77  C   UNL A   1      46.187  27.199  29.943  1.00  0.00     0.010 A 
ATOM     78  C   UNL A   1      44.898  25.236  30.345  1.00  0.00     0.010 A 
ATOM     79  C   UNL A   1      46.722  26.624  28.772  1.00  0.00     0.020 A 
ATOM     80  C   UNL A   1      45.459  24.628  29.197  1.00  0.00     0.020 A 
ATOM     81  C   UNL A   1      46.361  25.333  28.406  1.00  0.00     0.054 A 
BRANCH  81  82
ATOM     82  S   UNL A   1      47.104  24.586  26.923  1.00  0.00     0.124 S 
ATOM     83  O   UNL A   1      46.669  25.484  25.857  1.00  0.00    -0.237 OA
ATOM     84  O   UNL A   1      48.532  24.619  27.228  1.00  0.00    -0.237 OA
ATOM     85  O   UNL A   1      46.519  23.247  26.879  1.00  0.00    -0.744 OA
ENDBRANCH  81  82
ENDBRANCH  62  76
BRANCH  63  86
ATOM     86  C   UNL A   1      41.713  33.688  37.033  1.00  0.00    -0.014 A 
ATOM     87  C   UNL A   1      40.677  33.626  36.064  1.00  0.00     0.010 A 
ATOM     88  C   UNL A   1      41.336  33.794  38.388  1.00  0.00     0.010 A 
ATOM     89  C   UNL A   1      39.360  33.330  36.443  1.00  0.00     0.020 A 
ATOM     90  C   UNL A   1      40.004  33.520  38.770  1.00  0.00     0.020 A 
ATOM     91  C   UNL A   1      39.052  33.199  37.794  1.00  0.00     0.054 A 
BRANCH  91  92
ATOM     92  S   UNL A   1      37.512  32.317  38.234  1.00  0.00     0.124 S 
ATOM     93  O   UNL A   1      37.705  31.015  37.609  1.00  0.00    -0.237 OA
ATOM     94  O   UNL A   1      37.549  32.330  39.696  1.00  0.00    -0.237 OA
ATOM     95  O   UNL A   1      36.473  33.152  37.643  1.00  0.00    -0.744 OA
ENDBRANCH  91  92
ENDBRANCH  63  86
BRANCH  75  96
ATOM     96  C   UNL A   1      45.646  27.328  37.432  1.00  0.00    -0.014 A 
ATOM     97  C   UNL A   1      44.875  26.786  38.467  1.00  0.00     0.010 A 
ATOM     98  C   UNL A   1      46.711  26.527  36.938  1.00  0.00     0.010 A 
ATOM     99  C   UNL A   1      45.169  25.526  38.999  1.00  0.00     0.020 A 
ATOM    100  C   UNL A   1      46.982  25.251  37.426  1.00  0.00     0.020 A 
ATOM    101  C   UNL A   1      46.213  24.764  38.471  1.00  0.00     0.054 A 
BRANCH 101 102
ATOM    102  S   UNL A   1      46.503  23.102  39.115  1.00  0.00     0.124 S 
ATOM    103  O   UNL A   1      45.287  22.868  39.888  1.00  0.00    -0.237 OA
ATOM    104  O   UNL A   1      46.636  22.306  37.897  1.00  0.00    -0.237 OA
ATOM    105  O   UNL A   1      47.729  23.239  39.899  1.00  0.00    -0.744 OA
ENDBRANCH 101 102
ENDBRANCH  75  96
ENDBRANCH  49  50
ENDBRANCH  42  44
ENDBRANCH  41  42
ENDBRANCH  40  41
ENDBRANCH  39  40
ENDBRANCH  38  39
ENDBRANCH  37  38
ENDBRANCH   1  37
TORSDOF 25
ENDMDL
