MODEL 1
REMARK VINA RESULT:      -8.1      0.000      0.000
REMARK SMILES CC(C)CSc1cc2c(cc1Cl)C=C(C(=O)OCCOCCOCCOCCOC(=O)c1ccc(-c3c4nc(c(-c5ccc(S(=O)(=O)[O-])cc5)c5ccc([nH]5)c(-c5ccc(S(=O)(=O)[O-])cc5)c5nc(c(-c6ccc(S(=O)(=O)[O-])cc6)c6ccc3[nH]6)C=C5)C=C4)cc1)[C@@H](C(F)(F)F)O2
REMARK SMILES IDX 23 1 22 2 21 3 20 4 19 5 18 6 17 7 15 8 16 9 14 10 6 11 7 12
REMARK SMILES IDX 11 13 8 14 10 15 12 16 9 17 97 18 13 19 92 20 5 21 4 22 2 23
REMARK SMILES IDX 1 24 3 25 93 26 94 27 95 28 96 29 24 30 25 31 26 32 27 33
REMARK SMILES IDX 28 34 29 35 30 36 31 37 32 38 33 39 91 40 34 41 90 42 35 43
REMARK SMILES IDX 36 44 37 45 84 46 38 47 89 48 83 49 85 50 39 51 88 52 82 53
REMARK SMILES IDX 81 54 40 56 70 57 51 58 69 59 52 60 55 61 68 62 86 63 53 64
REMARK SMILES IDX 54 65 67 67 87 68 56 69 41 70 42 71 50 72 43 73 49 74 44 75
REMARK SMILES IDX 45 76 46 77 47 78 48 79 71 80 72 81 80 82 73 83 79 84 74 85
REMARK SMILES IDX 75 86 76 87 77 88 78 89 57 90 58 91 66 92 59 93 65 94 60 95
REMARK SMILES IDX 61 96 62 97 63 98 64 99
REMARK H PARENT 85 55 55 66
REMARK Flexibility Score: inf
ROOT
ATOM      1  O   UNL A   1      34.388  22.635  23.888  1.00  0.00    -0.377 OA
ENDROOT
BRANCH   1   2
ATOM      2  C   UNL A   1      34.165  23.350  22.684  1.00  0.00     0.188 C 
BRANCH   2   3
ATOM      3  C   UNL A   1      32.686  23.354  22.259  1.00  0.00     0.188 C 
BRANCH   3   4
ATOM      4  O   UNL A   1      31.940  24.429  22.823  1.00  0.00    -0.376 OA
BRANCH   4   5
ATOM      5  C   UNL A   1      31.932  25.662  22.109  1.00  0.00     0.202 C 
BRANCH   5   6
ATOM      6  C   UNL A   1      30.931  26.739  22.557  1.00  0.00     0.261 C 
BRANCH   6   7
ATOM      7  O   UNL A   1      31.418  27.637  23.567  1.00  0.00    -0.460 OA
BRANCH   7   8
ATOM      8  C   UNL A   1      31.134  27.356  24.852  1.00  0.00     0.338 C 
ATOM      9  O   UNL A   1      30.268  26.610  25.270  1.00  0.00    -0.246 OA
BRANCH   8  10
ATOM     10  C   UNL A   1      32.202  27.956  25.680  1.00  0.00     0.087 C 
ATOM     11  C   UNL A   1      35.281  31.138  28.055  1.00  0.00     0.030 A 
ATOM     12  C   UNL A   1      35.293  29.755  27.799  1.00  0.00     0.063 A 
ATOM     13  C   UNL A   1      34.098  31.847  27.792  1.00  0.00     0.055 A 
ATOM     14  C   UNL A   1      34.221  29.131  27.161  1.00  0.00     0.129 A 
ATOM     15  C   UNL A   1      33.048  31.232  27.098  1.00  0.00     0.033 A 
ATOM     16  Cl  UNL A   1      33.832  33.479  28.292  1.00  0.00    -0.083 Cl
ATOM     17  C   UNL A   1      33.135  29.887  26.732  1.00  0.00     0.019 A 
ATOM     18  O   UNL A   1      34.342  27.792  26.934  1.00  0.00    -0.475 OA
ATOM     19  C   UNL A   1      32.145  29.283  25.858  1.00  0.00     0.027 C 
ATOM     20  C   UNL A   1      33.203  27.068  26.377  1.00  0.00     0.316 C 
BRANCH  11  21
ATOM     21  S   UNL A   1      36.830  31.813  28.649  1.00  0.00    -0.124 SA
BRANCH  21  22
ATOM     22  C   UNL A   1      37.724  30.376  29.370  1.00  0.00     0.078 C 
BRANCH  22  23
ATOM     23  C   UNL A   1      37.697  30.133  30.894  1.00  0.00    -0.007 C 
ATOM     24  C   UNL A   1      36.368  30.427  31.585  1.00  0.00     0.008 C 
ATOM     25  C   UNL A   1      38.050  28.657  31.149  1.00  0.00     0.008 C 
ENDBRANCH  22  23
ENDBRANCH  21  22
ENDBRANCH  11  21
BRANCH  20  26
ATOM     26  C   UNL A   1      33.775  25.964  25.473  1.00  0.00     0.430 C 
ATOM     27  F   UNL A   1      34.910  25.448  26.000  1.00  0.00    -0.167 F 
ATOM     28  F   UNL A   1      32.917  24.936  25.303  1.00  0.00    -0.167 F 
ATOM     29  F   UNL A   1      34.080  26.447  24.245  1.00  0.00    -0.167 F 
ENDBRANCH  20  26
ENDBRANCH   8  10
ENDBRANCH   7   8
ENDBRANCH   6   7
ENDBRANCH   5   6
ENDBRANCH   4   5
ENDBRANCH   3   4
ENDBRANCH   2   3
ENDBRANCH   1   2
BRANCH   1  30
ATOM     30  C   UNL A   1      35.720  22.211  24.171  1.00  0.00     0.188 C 
BRANCH  30  31
ATOM     31  C   UNL A   1      36.779  23.190  24.731  1.00  0.00     0.188 C 
BRANCH  31  32
ATOM     32  O   UNL A   1      37.826  22.556  25.465  1.00  0.00    -0.376 OA
BRANCH  32  33
ATOM     33  C   UNL A   1      38.017  21.167  25.229  1.00  0.00     0.202 C 
BRANCH  33  34
ATOM     34  C   UNL A   1      39.249  20.584  25.931  1.00  0.00     0.261 C 
BRANCH  34  35
ATOM     35  O   UNL A   1      40.362  21.481  26.051  1.00  0.00    -0.460 OA
BRANCH  35  36
ATOM     36  C   UNL A   1      41.195  21.314  27.105  1.00  0.00     0.338 C 
ATOM     37  O   UNL A   1      41.549  20.259  27.601  1.00  0.00    -0.246 OA
BRANCH  36  38
ATOM     38  C   UNL A   1      41.773  22.637  27.420  1.00  0.00     0.060 A 
ATOM     39  C   UNL A   1      42.360  22.872  28.666  1.00  0.00     0.016 A 
ATOM     40  C   UNL A   1      41.686  23.663  26.470  1.00  0.00     0.016 A 
ATOM     41  C   UNL A   1      42.892  24.130  28.948  1.00  0.00     0.010 A 
ATOM     42  C   UNL A   1      42.213  24.924  26.759  1.00  0.00     0.010 A 
ATOM     43  C   UNL A   1      42.842  25.158  27.990  1.00  0.00    -0.014 A 
BRANCH  43  44
ATOM     44  C   UNL A   1      43.630  26.394  28.207  1.00  0.00     0.031 A 
ATOM     45  C   UNL A   1      43.047  27.616  28.847  1.00  0.00     0.074 A 
ATOM     46  C   UNL A   1      44.919  26.382  27.814  1.00  0.00     0.049 A 
ATOM     47  N   UNL A   1      43.656  28.721  29.192  1.00  0.00    -0.248 NA
ATOM     48  C   UNL A   1      41.605  27.604  29.134  1.00  0.00     0.031 C 
ATOM     49  C   UNL A   1      45.581  25.247  27.168  1.00  0.00     0.029 A 
ATOM     50  N   UNL A   1      45.901  27.334  27.912  1.00  0.00    -0.354 N 
ATOM     51  C   UNL A   1      42.684  29.531  29.763  1.00  0.00     0.074 A 
ATOM     52  C   UNL A   1      41.431  28.806  29.674  1.00  0.00     0.031 C 
ATOM     53  C   UNL A   1      46.869  25.556  26.956  1.00  0.00     0.029 A 
ATOM     54  C   UNL A   1      47.116  26.917  27.425  1.00  0.00     0.049 A 
ATOM     55  H   UNL A   1      45.750  28.228  28.294  1.00  0.00     0.167 HD
ATOM     56  C   UNL A   1      42.834  30.755  30.323  1.00  0.00     0.031 A 
ATOM     57  C   UNL A   1      48.306  27.547  27.370  1.00  0.00     0.031 A 
ATOM     58  C   UNL A   1      44.085  31.474  30.381  1.00  0.00     0.049 A 
ATOM     59  C   UNL A   1      48.434  28.923  27.955  1.00  0.00     0.074 A 
ATOM     60  C   UNL A   1      44.339  32.702  30.968  1.00  0.00     0.029 A 
ATOM     61  N   UNL A   1      45.283  31.045  29.827  1.00  0.00    -0.354 N 
ATOM     62  N   UNL A   1      47.521  29.642  28.561  1.00  0.00    -0.248 NA
ATOM     63  C   UNL A   1      49.751  29.565  27.865  1.00  0.00     0.031 C 
ATOM     64  C   UNL A   1      45.667  33.048  30.704  1.00  0.00     0.029 A 
ATOM     65  C   UNL A   1      46.266  32.002  30.022  1.00  0.00     0.049 A 
ATOM     66  H   UNL A   1      45.415  30.187  29.363  1.00  0.00     0.167 HD
ATOM     67  C   UNL A   1      48.155  30.820  28.937  1.00  0.00     0.074 A 
ATOM     68  C   UNL A   1      49.536  30.705  28.510  1.00  0.00     0.031 C 
ATOM     69  C   UNL A   1      47.635  31.897  29.576  1.00  0.00     0.031 A 
BRANCH  56  70
ATOM     70  C   UNL A   1      41.629  31.414  30.947  1.00  0.00    -0.014 A 
ATOM     71  C   UNL A   1      40.935  32.419  30.246  1.00  0.00     0.010 A 
ATOM     72  C   UNL A   1      41.277  31.148  32.282  1.00  0.00     0.010 A 
ATOM     73  C   UNL A   1      39.938  33.168  30.879  1.00  0.00     0.020 A 
ATOM     74  C   UNL A   1      40.262  31.877  32.911  1.00  0.00     0.020 A 
ATOM     75  C   UNL A   1      39.617  32.900  32.212  1.00  0.00     0.054 A 
BRANCH  75  76
ATOM     76  S   UNL A   1      38.349  33.911  33.029  1.00  0.00     0.124 S 
ATOM     77  O   UNL A   1      39.153  34.810  33.849  1.00  0.00    -0.237 OA
ATOM     78  O   UNL A   1      37.661  34.530  31.899  1.00  0.00    -0.237 OA
ATOM     79  O   UNL A   1      37.556  32.931  33.768  1.00  0.00    -0.744 OA
ENDBRANCH  75  76
ENDBRANCH  56  70
BRANCH  57  80
ATOM     80  C   UNL A   1      49.470  26.830  26.781  1.00  0.00    -0.014 A 
ATOM     81  C   UNL A   1      50.348  26.103  27.605  1.00  0.00     0.010 A 
ATOM     82  C   UNL A   1      49.767  26.965  25.414  1.00  0.00     0.010 A 
ATOM     83  C   UNL A   1      51.534  25.577  27.088  1.00  0.00     0.020 A 
ATOM     84  C   UNL A   1      50.936  26.412  24.886  1.00  0.00     0.020 A 
ATOM     85  C   UNL A   1      51.827  25.750  25.733  1.00  0.00     0.054 A 
BRANCH  85  86
ATOM     86  S   UNL A   1      53.404  25.117  25.097  1.00  0.00     0.124 S 
ATOM     87  O   UNL A   1      53.226  23.674  25.244  1.00  0.00    -0.237 OA
ATOM     88  O   UNL A   1      53.416  25.613  23.723  1.00  0.00    -0.237 OA
ATOM     89  O   UNL A   1      54.396  25.719  25.983  1.00  0.00    -0.744 OA
ENDBRANCH  85  86
ENDBRANCH  57  80
BRANCH  69  90
ATOM     90  C   UNL A   1      48.548  33.067  29.845  1.00  0.00    -0.014 A 
ATOM     91  C   UNL A   1      48.721  34.063  28.866  1.00  0.00     0.010 A 
ATOM     92  C   UNL A   1      49.318  33.125  31.020  1.00  0.00     0.010 A 
ATOM     93  C   UNL A   1      49.668  35.076  29.041  1.00  0.00     0.020 A 
ATOM     94  C   UNL A   1      50.245  34.154  31.213  1.00  0.00     0.020 A 
ATOM     95  C   UNL A   1      50.431  35.109  30.211  1.00  0.00     0.054 A 
BRANCH  95  96
ATOM     96  S   UNL A   1      51.672  36.417  30.411  1.00  0.00     0.124 S 
ATOM     97  O   UNL A   1      52.266  36.485  29.079  1.00  0.00    -0.237 OA
ATOM     98  O   UNL A   1      50.865  37.571  30.801  1.00  0.00    -0.237 OA
ATOM     99  O   UNL A   1      52.548  35.900  31.461  1.00  0.00    -0.744 OA
ENDBRANCH  95  96
ENDBRANCH  69  90
ENDBRANCH  43  44
ENDBRANCH  36  38
ENDBRANCH  35  36
ENDBRANCH  34  35
ENDBRANCH  33  34
ENDBRANCH  32  33
ENDBRANCH  31  32
ENDBRANCH  30  31
ENDBRANCH   1  30
TORSDOF 27
ENDMDL
MODEL 2
REMARK VINA RESULT:      -7.3      0.904      7.764
REMARK SMILES CC(C)CSc1cc2c(cc1Cl)C=C(C(=O)OCCOCCOCCOCCOC(=O)c1ccc(-c3c4nc(c(-c5ccc(S(=O)(=O)[O-])cc5)c5ccc([nH]5)c(-c5ccc(S(=O)(=O)[O-])cc5)c5nc(c(-c6ccc(S(=O)(=O)[O-])cc6)c6ccc3[nH]6)C=C5)C=C4)cc1)[C@@H](C(F)(F)F)O2
REMARK SMILES IDX 23 1 22 2 21 3 20 4 19 5 18 6 17 7 15 8 16 9 14 10 6 11 7 12
REMARK SMILES IDX 11 13 8 14 10 15 12 16 9 17 97 18 13 19 92 20 5 21 4 22 2 23
REMARK SMILES IDX 1 24 3 25 93 26 94 27 95 28 96 29 24 30 25 31 26 32 27 33
REMARK SMILES IDX 28 34 29 35 30 36 31 37 32 38 33 39 91 40 34 41 90 42 35 43
REMARK SMILES IDX 36 44 37 45 84 46 38 47 89 48 83 49 85 50 39 51 88 52 82 53
REMARK SMILES IDX 81 54 40 56 70 57 51 58 69 59 52 60 55 61 68 62 86 63 53 64
REMARK SMILES IDX 54 65 67 67 87 68 56 69 41 70 42 71 50 72 43 73 49 74 44 75
REMARK SMILES IDX 45 76 46 77 47 78 48 79 71 80 72 81 80 82 73 83 79 84 74 85
REMARK SMILES IDX 75 86 76 87 77 88 78 89 57 90 58 91 66 92 59 93 65 94 60 95
REMARK SMILES IDX 61 96 62 97 63 98 64 99
REMARK H PARENT 85 55 55 66
REMARK Flexibility Score: inf
ROOT
ATOM      1  O   UNL A   1      35.208  22.964  24.160  1.00  0.00    -0.377 OA
ENDROOT
BRANCH   1   2
ATOM      2  C   UNL A   1      34.887  23.494  22.886  1.00  0.00     0.188 C 
BRANCH   2   3
ATOM      3  C   UNL A   1      33.430  23.215  22.474  1.00  0.00     0.188 C 
BRANCH   3   4
ATOM      4  O   UNL A   1      32.511  24.193  22.953  1.00  0.00    -0.376 OA
BRANCH   4   5
ATOM      5  C   UNL A   1      31.946  25.081  21.993  1.00  0.00     0.202 C 
BRANCH   5   6
ATOM      6  C   UNL A   1      31.047  26.214  22.513  1.00  0.00     0.261 C 
BRANCH   6   7
ATOM      7  O   UNL A   1      31.656  27.073  23.490  1.00  0.00    -0.460 OA
BRANCH   7   8
ATOM      8  C   UNL A   1      31.184  27.032  24.750  1.00  0.00     0.338 C 
ATOM      9  O   UNL A   1      30.224  26.404  25.158  1.00  0.00    -0.246 OA
BRANCH   8  10
ATOM     10  C   UNL A   1      32.165  27.723  25.611  1.00  0.00     0.087 C 
ATOM     11  C   UNL A   1      34.942  31.168  27.994  1.00  0.00     0.030 A 
ATOM     12  C   UNL A   1      35.025  29.774  27.825  1.00  0.00     0.063 A 
ATOM     13  C   UNL A   1      33.755  31.808  27.607  1.00  0.00     0.055 A 
ATOM     14  C   UNL A   1      34.026  29.069  27.153  1.00  0.00     0.129 A 
ATOM     15  C   UNL A   1      32.781  31.110  26.881  1.00  0.00     0.033 A 
ATOM     16  Cl  UNL A   1      33.390  33.455  27.986  1.00  0.00    -0.083 Cl
ATOM     17  C   UNL A   1      32.946  29.751  26.605  1.00  0.00     0.019 A 
ATOM     18  O   UNL A   1      34.216  27.725  27.018  1.00  0.00    -0.475 OA
ATOM     19  C   UNL A   1      32.045  29.055  25.703  1.00  0.00     0.027 C 
ATOM     20  C   UNL A   1      33.148  26.922  26.429  1.00  0.00     0.316 C 
BRANCH  11  21
ATOM     21  S   UNL A   1      36.418  31.942  28.651  1.00  0.00    -0.124 SA
BRANCH  21  22
ATOM     22  C   UNL A   1      37.090  30.726  29.857  1.00  0.00     0.078 C 
BRANCH  22  23
ATOM     23  C   UNL A   1      38.412  29.989  29.557  1.00  0.00    -0.007 C 
ATOM     24  C   UNL A   1      38.538  28.591  30.158  1.00  0.00     0.008 C 
ATOM     25  C   UNL A   1      38.554  29.865  28.030  1.00  0.00     0.008 C 
ENDBRANCH  22  23
ENDBRANCH  21  22
ENDBRANCH  11  21
BRANCH  20  26
ATOM     26  C   UNL A   1      33.825  25.792  25.636  1.00  0.00     0.430 C 
ATOM     27  F   UNL A   1      34.941  25.359  26.269  1.00  0.00    -0.167 F 
ATOM     28  F   UNL A   1      33.023  24.719  25.473  1.00  0.00    -0.167 F 
ATOM     29  F   UNL A   1      34.195  26.214  24.403  1.00  0.00    -0.167 F 
ENDBRANCH  20  26
ENDBRANCH   8  10
ENDBRANCH   7   8
ENDBRANCH   6   7
ENDBRANCH   5   6
ENDBRANCH   4   5
ENDBRANCH   3   4
ENDBRANCH   2   3
ENDBRANCH   1   2
BRANCH   1  30
ATOM     30  C   UNL A   1      36.584  22.726  24.453  1.00  0.00     0.188 C 
BRANCH  30  31
ATOM     31  C   UNL A   1      37.371  23.629  25.430  1.00  0.00     0.188 C 
BRANCH  31  32
ATOM     32  O   UNL A   1      38.429  22.960  26.117  1.00  0.00    -0.376 OA
BRANCH  32  33
ATOM     33  C   UNL A   1      38.512  21.552  25.937  1.00  0.00     0.202 C 
BRANCH  33  34
ATOM     34  C   UNL A   1      39.876  20.960  26.312  1.00  0.00     0.261 C 
BRANCH  34  35
ATOM     35  O   UNL A   1      41.008  21.769  25.959  1.00  0.00    -0.460 OA
BRANCH  35  36
ATOM     36  C   UNL A   1      42.198  21.469  26.530  1.00  0.00     0.338 C 
ATOM     37  O   UNL A   1      42.777  20.398  26.501  1.00  0.00    -0.246 OA
BRANCH  36  38
ATOM     38  C   UNL A   1      42.780  22.736  27.019  1.00  0.00     0.060 A 
ATOM     39  C   UNL A   1      43.338  22.810  28.298  1.00  0.00     0.016 A 
ATOM     40  C   UNL A   1      42.727  23.873  26.200  1.00  0.00     0.016 A 
ATOM     41  C   UNL A   1      43.874  24.017  28.746  1.00  0.00     0.010 A 
ATOM     42  C   UNL A   1      43.258  25.082  26.655  1.00  0.00     0.010 A 
ATOM     43  C   UNL A   1      43.858  25.155  27.920  1.00  0.00    -0.014 A 
BRANCH  43  44
ATOM     44  C   UNL A   1      44.652  26.345  28.307  1.00  0.00     0.031 A 
ATOM     45  C   UNL A   1      46.119  26.456  28.031  1.00  0.00     0.074 A 
ATOM     46  C   UNL A   1      43.997  27.353  28.916  1.00  0.00     0.049 A 
ATOM     47  N   UNL A   1      46.906  27.485  28.220  1.00  0.00    -0.248 NA
ATOM     48  C   UNL A   1      46.793  25.271  27.480  1.00  0.00     0.031 C 
ATOM     49  C   UNL A   1      42.569  27.341  29.243  1.00  0.00     0.029 A 
ATOM     50  N   UNL A   1      44.431  28.579  29.351  1.00  0.00    -0.354 N 
ATOM     51  C   UNL A   1      48.163  27.088  27.787  1.00  0.00     0.074 A 
ATOM     52  C   UNL A   1      48.045  25.704  27.370  1.00  0.00     0.031 C 
ATOM     53  C   UNL A   1      42.238  28.515  29.798  1.00  0.00     0.029 A 
ATOM     54  C   UNL A   1      43.432  29.352  29.892  1.00  0.00     0.049 A 
ATOM     55  H   UNL A   1      45.367  28.876  29.283  1.00  0.00     0.167 HD
ATOM     56  C   UNL A   1      49.301  27.821  27.730  1.00  0.00     0.031 A 
ATOM     57  C   UNL A   1      43.460  30.601  30.395  1.00  0.00     0.031 A 
ATOM     58  C   UNL A   1      49.408  29.191  28.173  1.00  0.00     0.049 A 
ATOM     59  C   UNL A   1      44.745  31.375  30.364  1.00  0.00     0.074 A 
ATOM     60  C   UNL A   1      50.511  30.026  28.113  1.00  0.00     0.029 A 
ATOM     61  N   UNL A   1      48.390  29.923  28.767  1.00  0.00    -0.354 N 
ATOM     62  N   UNL A   1      45.907  31.011  29.879  1.00  0.00    -0.248 NA
ATOM     63  C   UNL A   1      44.722  32.730  30.928  1.00  0.00     0.031 C 
ATOM     64  C   UNL A   1      50.183  31.233  28.736  1.00  0.00     0.029 A 
ATOM     65  C   UNL A   1      48.851  31.183  29.116  1.00  0.00     0.049 A 
ATOM     66  H   UNL A   1      47.474  29.596  28.919  1.00  0.00     0.167 HD
ATOM     67  C   UNL A   1      46.754  32.096  30.070  1.00  0.00     0.074 A 
ATOM     68  C   UNL A   1      45.963  33.139  30.692  1.00  0.00     0.031 C 
ATOM     69  C   UNL A   1      48.068  32.212  29.756  1.00  0.00     0.031 A 
BRANCH  56  70
ATOM     70  C   UNL A   1      50.540  27.184  27.151  1.00  0.00    -0.014 A 
ATOM     71  C   UNL A   1      50.585  26.845  25.785  1.00  0.00     0.010 A 
ATOM     72  C   UNL A   1      51.597  26.782  27.987  1.00  0.00     0.010 A 
ATOM     73  C   UNL A   1      51.643  26.086  25.275  1.00  0.00     0.020 A 
ATOM     74  C   UNL A   1      52.671  26.046  27.475  1.00  0.00     0.020 A 
ATOM     75  C   UNL A   1      52.673  25.681  26.127  1.00  0.00     0.054 A 
BRANCH  75  76
ATOM     76  S   UNL A   1      54.017  24.662  25.455  1.00  0.00     0.124 S 
ATOM     77  O   UNL A   1      53.315  23.445  25.064  1.00  0.00    -0.237 OA
ATOM     78  O   UNL A   1      54.519  25.484  24.355  1.00  0.00    -0.237 OA
ATOM     79  O   UNL A   1      54.935  24.520  26.583  1.00  0.00    -0.744 OA
ENDBRANCH  75  76
ENDBRANCH  56  70
BRANCH  57  80
ATOM     80  C   UNL A   1      42.197  31.193  30.914  1.00  0.00    -0.014 A 
ATOM     81  C   UNL A   1      41.458  32.096  30.127  1.00  0.00     0.010 A 
ATOM     82  C   UNL A   1      41.790  30.946  32.236  1.00  0.00     0.010 A 
ATOM     83  C   UNL A   1      40.373  32.786  30.669  1.00  0.00     0.020 A 
ATOM     84  C   UNL A   1      40.684  31.612  32.773  1.00  0.00     0.020 A 
ATOM     85  C   UNL A   1      40.004  32.551  31.996  1.00  0.00     0.054 A 
BRANCH  85  86
ATOM     86  S   UNL A   1      38.634  33.509  32.700  1.00  0.00     0.124 S 
ATOM     87  O   UNL A   1      37.551  32.528  32.694  1.00  0.00    -0.237 OA
ATOM     88  O   UNL A   1      39.144  33.875  34.018  1.00  0.00    -0.237 OA
ATOM     89  O   UNL A   1      38.478  34.620  31.765  1.00  0.00    -0.744 OA
ENDBRANCH  85  86
ENDBRANCH  57  80
BRANCH  69  90
ATOM     90  C   UNL A   1      48.763  33.507  30.097  1.00  0.00    -0.014 A 
ATOM     91  C   UNL A   1      49.322  33.689  31.376  1.00  0.00     0.010 A 
ATOM     92  C   UNL A   1      48.768  34.583  29.191  1.00  0.00     0.010 A 
ATOM     93  C   UNL A   1      49.843  34.930  31.755  1.00  0.00     0.020 A 
ATOM     94  C   UNL A   1      49.316  35.816  29.555  1.00  0.00     0.020 A 
ATOM     95  C   UNL A   1      49.827  35.988  30.843  1.00  0.00     0.054 A 
BRANCH  95  96
ATOM     96  S   UNL A   1      50.486  37.598  31.359  1.00  0.00     0.124 S 
ATOM     97  O   UNL A   1      51.865  37.270  31.711  1.00  0.00    -0.237 OA
ATOM     98  O   UNL A   1      50.319  38.415  30.159  1.00  0.00    -0.237 OA
ATOM     99  O   UNL A   1      49.628  37.976  32.481  1.00  0.00    -0.744 OA
ENDBRANCH  95  96
ENDBRANCH  69  90
ENDBRANCH  43  44
ENDBRANCH  36  38
ENDBRANCH  35  36
ENDBRANCH  34  35
ENDBRANCH  33  34
ENDBRANCH  32  33
ENDBRANCH  31  32
ENDBRANCH  30  31
ENDBRANCH   1  30
TORSDOF 27
ENDMDL
MODEL 3
REMARK VINA RESULT:      -7.2      1.828      8.071
REMARK SMILES CC(C)CSc1cc2c(cc1Cl)C=C(C(=O)OCCOCCOCCOCCOC(=O)c1ccc(-c3c4nc(c(-c5ccc(S(=O)(=O)[O-])cc5)c5ccc([nH]5)c(-c5ccc(S(=O)(=O)[O-])cc5)c5nc(c(-c6ccc(S(=O)(=O)[O-])cc6)c6ccc3[nH]6)C=C5)C=C4)cc1)[C@@H](C(F)(F)F)O2
REMARK SMILES IDX 23 1 22 2 21 3 20 4 19 5 18 6 17 7 15 8 16 9 14 10 6 11 7 12
REMARK SMILES IDX 11 13 8 14 10 15 12 16 9 17 97 18 13 19 92 20 5 21 4 22 2 23
REMARK SMILES IDX 1 24 3 25 93 26 94 27 95 28 96 29 24 30 25 31 26 32 27 33
REMARK SMILES IDX 28 34 29 35 30 36 31 37 32 38 33 39 91 40 34 41 90 42 35 43
REMARK SMILES IDX 36 44 37 45 84 46 38 47 89 48 83 49 85 50 39 51 88 52 82 53
REMARK SMILES IDX 81 54 40 56 70 57 51 58 69 59 52 60 55 61 68 62 86 63 53 64
REMARK SMILES IDX 54 65 67 67 87 68 56 69 41 70 42 71 50 72 43 73 49 74 44 75
REMARK SMILES IDX 45 76 46 77 47 78 48 79 71 80 72 81 80 82 73 83 79 84 74 85
REMARK SMILES IDX 75 86 76 87 77 88 78 89 57 90 58 91 66 92 59 93 65 94 60 95
REMARK SMILES IDX 61 96 62 97 63 98 64 99
REMARK H PARENT 85 55 55 66
REMARK Flexibility Score: inf
ROOT
ATOM      1  O   UNL A   1      34.537  22.682  25.595  1.00  0.00    -0.377 OA
ENDROOT
BRANCH   1   2
ATOM      2  C   UNL A   1      33.706  23.537  26.361  1.00  0.00     0.188 C 
BRANCH   2   3
ATOM      3  C   UNL A   1      32.252  23.037  26.444  1.00  0.00     0.188 C 
BRANCH   3   4
ATOM      4  O   UNL A   1      31.420  23.857  27.261  1.00  0.00    -0.376 OA
BRANCH   4   5
ATOM      5  C   UNL A   1      30.749  24.941  26.626  1.00  0.00     0.202 C 
BRANCH   5   6
ATOM      6  C   UNL A   1      31.613  26.079  26.059  1.00  0.00     0.261 C 
BRANCH   6   7
ATOM      7  O   UNL A   1      31.645  26.160  24.625  1.00  0.00    -0.460 OA
BRANCH   7   8
ATOM      8  C   UNL A   1      32.677  26.808  24.053  1.00  0.00     0.338 C 
ATOM      9  O   UNL A   1      33.184  26.577  22.970  1.00  0.00    -0.246 OA
BRANCH   8  10
ATOM     10  C   UNL A   1      32.963  27.999  24.880  1.00  0.00     0.087 C 
ATOM     11  C   UNL A   1      34.612  31.150  28.430  1.00  0.00     0.030 A 
ATOM     12  C   UNL A   1      33.655  31.231  27.402  1.00  0.00     0.063 A 
ATOM     13  C   UNL A   1      35.488  30.054  28.429  1.00  0.00     0.055 A 
ATOM     14  C   UNL A   1      33.475  30.181  26.501  1.00  0.00     0.129 A 
ATOM     15  C   UNL A   1      35.267  28.976  27.562  1.00  0.00     0.033 A 
ATOM     16  Cl  UNL A   1      36.877  29.941  29.452  1.00  0.00    -0.083 Cl
ATOM     17  C   UNL A   1      34.223  29.016  26.637  1.00  0.00     0.019 A 
ATOM     18  O   UNL A   1      32.501  30.345  25.561  1.00  0.00    -0.475 OA
ATOM     19  C   UNL A   1      33.864  27.843  25.860  1.00  0.00     0.027 C 
ATOM     20  C   UNL A   1      32.351  29.330  24.521  1.00  0.00     0.316 C 
BRANCH  11  21
ATOM     21  S   UNL A   1      34.539  32.469  29.640  1.00  0.00    -0.124 SA
BRANCH  21  22
ATOM     22  C   UNL A   1      34.776  34.013  28.669  1.00  0.00     0.078 C 
BRANCH  22  23
ATOM     23  C   UNL A   1      33.680  35.100  28.663  1.00  0.00    -0.007 C 
ATOM     24  C   UNL A   1      33.079  35.437  30.025  1.00  0.00     0.008 C 
ATOM     25  C   UNL A   1      34.287  36.387  28.079  1.00  0.00     0.008 C 
ENDBRANCH  22  23
ENDBRANCH  21  22
ENDBRANCH  11  21
BRANCH  20  26
ATOM     26  C   UNL A   1      30.851  29.246  24.195  1.00  0.00     0.430 C 
ATOM     27  F   UNL A   1      30.216  28.410  25.051  1.00  0.00    -0.167 F 
ATOM     28  F   UNL A   1      30.233  30.443  24.281  1.00  0.00    -0.167 F 
ATOM     29  F   UNL A   1      30.649  28.774  22.941  1.00  0.00    -0.167 F 
ENDBRANCH  20  26
ENDBRANCH   8  10
ENDBRANCH   7   8
ENDBRANCH   6   7
ENDBRANCH   5   6
ENDBRANCH   4   5
ENDBRANCH   3   4
ENDBRANCH   2   3
ENDBRANCH   1   2
BRANCH   1  30
ATOM     30  C   UNL A   1      35.873  22.473  26.049  1.00  0.00     0.188 C 
BRANCH  30  31
ATOM     31  C   UNL A   1      36.794  21.417  25.395  1.00  0.00     0.188 C 
BRANCH  31  32
ATOM     32  O   UNL A   1      38.091  21.908  25.056  1.00  0.00    -0.376 OA
BRANCH  32  33
ATOM     33  C   UNL A   1      39.038  21.986  26.114  1.00  0.00     0.202 C 
BRANCH  33  34
ATOM     34  C   UNL A   1      39.913  20.735  26.254  1.00  0.00     0.261 C 
BRANCH  34  35
ATOM     35  O   UNL A   1      41.256  20.873  25.765  1.00  0.00    -0.460 OA
BRANCH  35  36
ATOM     36  C   UNL A   1      42.269  20.679  26.642  1.00  0.00     0.338 C 
ATOM     37  O   UNL A   1      42.817  19.625  26.908  1.00  0.00    -0.246 OA
BRANCH  36  38
ATOM     38  C   UNL A   1      42.740  22.013  27.068  1.00  0.00     0.060 A 
ATOM     39  C   UNL A   1      43.031  22.263  28.411  1.00  0.00     0.016 A 
ATOM     40  C   UNL A   1      42.850  23.034  26.115  1.00  0.00     0.016 A 
ATOM     41  C   UNL A   1      43.466  23.531  28.797  1.00  0.00     0.010 A 
ATOM     42  C   UNL A   1      43.279  24.306  26.505  1.00  0.00     0.010 A 
ATOM     43  C   UNL A   1      43.614  24.554  27.844  1.00  0.00    -0.014 A 
BRANCH  43  44
ATOM     44  C   UNL A   1      44.314  25.805  28.222  1.00  0.00     0.031 A 
ATOM     45  C   UNL A   1      45.756  26.046  27.903  1.00  0.00     0.074 A 
ATOM     46  C   UNL A   1      43.594  26.745  28.866  1.00  0.00     0.049 A 
ATOM     47  N   UNL A   1      46.456  27.137  28.081  1.00  0.00    -0.248 NA
ATOM     48  C   UNL A   1      46.512  24.931  27.314  1.00  0.00     0.031 C 
ATOM     49  C   UNL A   1      42.184  26.604  29.237  1.00  0.00     0.029 A 
ATOM     50  N   UNL A   1      43.934  27.998  29.304  1.00  0.00    -0.354 N 
ATOM     51  C   UNL A   1      47.729  26.856  27.603  1.00  0.00     0.074 A 
ATOM     52  C   UNL A   1      47.718  25.472  27.170  1.00  0.00     0.031 C 
ATOM     53  C   UNL A   1      41.770  27.739  29.819  1.00  0.00     0.029 A 
ATOM     54  C   UNL A   1      42.889  28.676  29.887  1.00  0.00     0.049 A 
ATOM     55  H   UNL A   1      44.838  28.377  29.211  1.00  0.00     0.167 HD
ATOM     56  C   UNL A   1      48.797  27.687  27.521  1.00  0.00     0.031 A 
ATOM     57  C   UNL A   1      42.825  29.916  30.407  1.00  0.00     0.031 A 
ATOM     58  C   UNL A   1      48.798  29.055  27.980  1.00  0.00     0.049 A 
ATOM     59  C   UNL A   1      44.037  30.800  30.346  1.00  0.00     0.074 A 
ATOM     60  C   UNL A   1      49.822  29.984  27.897  1.00  0.00     0.029 A 
ATOM     61  N   UNL A   1      47.740  29.689  28.616  1.00  0.00    -0.354 N 
ATOM     62  N   UNL A   1      45.210  30.543  29.820  1.00  0.00    -0.248 NA
ATOM     63  C   UNL A   1      43.915  32.140  30.931  1.00  0.00     0.031 C 
ATOM     64  C   UNL A   1      49.411  31.150  28.548  1.00  0.00     0.029 A 
ATOM     65  C   UNL A   1      48.102  30.981  28.968  1.00  0.00     0.049 A 
ATOM     66  H   UNL A   1      46.861  29.282  28.792  1.00  0.00     0.167 HD
ATOM     67  C   UNL A   1      45.966  31.696  30.000  1.00  0.00     0.074 A 
ATOM     68  C   UNL A   1      45.107  32.659  30.662  1.00  0.00     0.031 C 
ATOM     69  C   UNL A   1      47.253  31.930  29.647  1.00  0.00     0.031 A 
BRANCH  56  70
ATOM     70  C   UNL A   1      50.066  27.166  26.895  1.00  0.00    -0.014 A 
ATOM     71  C   UNL A   1      50.258  27.267  25.503  1.00  0.00     0.010 A 
ATOM     72  C   UNL A   1      50.998  26.442  27.660  1.00  0.00     0.010 A 
ATOM     73  C   UNL A   1      51.336  26.625  24.885  1.00  0.00     0.020 A 
ATOM     74  C   UNL A   1      52.092  25.820  27.049  1.00  0.00     0.020 A 
ATOM     75  C   UNL A   1      52.239  25.895  25.661  1.00  0.00     0.054 A 
BRANCH  75  76
ATOM     76  S   UNL A   1      53.608  25.035  24.836  1.00  0.00     0.124 S 
ATOM     77  O   UNL A   1      53.380  25.366  23.434  1.00  0.00    -0.237 OA
ATOM     78  O   UNL A   1      54.784  25.649  25.448  1.00  0.00    -0.237 OA
ATOM     79  O   UNL A   1      53.394  23.633  25.190  1.00  0.00    -0.744 OA
ENDBRANCH  75  76
ENDBRANCH  56  70
BRANCH  57  80
ATOM     80  C   UNL A   1      41.534  30.390  30.974  1.00  0.00    -0.014 A 
ATOM     81  C   UNL A   1      40.715  31.269  30.240  1.00  0.00     0.010 A 
ATOM     82  C   UNL A   1      41.172  30.056  32.290  1.00  0.00     0.010 A 
ATOM     83  C   UNL A   1      39.593  31.853  30.831  1.00  0.00     0.020 A 
ATOM     84  C   UNL A   1      40.032  30.614  32.875  1.00  0.00     0.020 A 
ATOM     85  C   UNL A   1      39.269  31.534  32.153  1.00  0.00     0.054 A 
BRANCH  85  86
ATOM     86  S   UNL A   1      37.848  32.356  32.922  1.00  0.00     0.124 S 
ATOM     87  O   UNL A   1      37.511  31.424  33.996  1.00  0.00    -0.237 OA
ATOM     88  O   UNL A   1      38.411  33.633  33.351  1.00  0.00    -0.237 OA
ATOM     89  O   UNL A   1      36.873  32.440  31.838  1.00  0.00    -0.744 OA
ENDBRANCH  85  86
ENDBRANCH  57  80
BRANCH  69  90
ATOM     90  C   UNL A   1      47.844  33.276  29.984  1.00  0.00    -0.014 A 
ATOM     91  C   UNL A   1      48.485  33.473  31.222  1.00  0.00     0.010 A 
ATOM     92  C   UNL A   1      47.670  34.376  29.125  1.00  0.00     0.010 A 
ATOM     93  C   UNL A   1      48.912  34.747  31.608  1.00  0.00     0.020 A 
ATOM     94  C   UNL A   1      48.122  35.646  29.494  1.00  0.00     0.020 A 
ATOM     95  C   UNL A   1      48.718  35.827  30.744  1.00  0.00     0.054 A 
BRANCH  95  96
ATOM     96  S   UNL A   1      49.257  37.478  31.272  1.00  0.00     0.124 S 
ATOM     97  O   UNL A   1      48.188  38.329  30.760  1.00  0.00    -0.237 OA
ATOM     98  O   UNL A   1      49.318  37.348  32.726  1.00  0.00    -0.237 OA
ATOM     99  O   UNL A   1      50.554  37.640  30.616  1.00  0.00    -0.744 OA
ENDBRANCH  95  96
ENDBRANCH  69  90
ENDBRANCH  43  44
ENDBRANCH  36  38
ENDBRANCH  35  36
ENDBRANCH  34  35
ENDBRANCH  33  34
ENDBRANCH  32  33
ENDBRANCH  31  32
ENDBRANCH  30  31
ENDBRANCH   1  30
TORSDOF 27
ENDMDL
