MODEL 1
REMARK VINA RESULT:      -9.2      0.000      0.000
REMARK SMILES O=C(OCCOCCOCCOCCOC(=O)[C@@H]1[C@@H](C(=O)Nc2ccc(F)c(F)c2)[C@H]2CC[C@@H]1O2)c1ccc(-c2c3nc(c(-c4ccc(S(=O)(=O)[O-])cc4)c4ccc([nH]4)c(-c4ccc(S(=O)(=O)[O-])cc4)c4nc(c(-c5ccc(S(=O)(=O)[O-])cc5)c5ccc2[nH]5)C=C4)C=C3)cc1
REMARK SMILES IDX 8 1 7 2 6 3 5 4 4 5 3 6 2 7 1 8 36 9 37 10 95 11 38 12 94 13
REMARK SMILES IDX 39 14 40 15 41 16 88 17 42 18 93 19 87 20 89 21 43 22 92 23
REMARK SMILES IDX 86 24 85 25 44 27 74 28 55 29 73 30 56 31 59 32 72 33 90 34
REMARK SMILES IDX 57 35 58 36 71 38 91 39 60 40 45 41 46 42 54 43 47 44 53 45
REMARK SMILES IDX 48 46 49 47 50 48 51 49 52 50 75 51 76 52 84 53 77 54 83 55
REMARK SMILES IDX 78 56 79 57 80 58 81 59 82 60 61 61 62 62 70 63 63 64 69 65
REMARK SMILES IDX 64 66 65 67 66 68 67 69 68 70 9 71 10 72 11 73 12 74 13 75
REMARK SMILES IDX 14 76 15 77 16 78 17 79 18 80 19 81 34 82 31 83 33 84 35 85
REMARK SMILES IDX 32 86 20 87 21 88 22 89 23 91 24 92 30 93 25 94 28 95 26 96
REMARK SMILES IDX 29 97 27 98
REMARK H PARENT 89 26 59 37 22 90
REMARK Flexibility Score: inf
ROOT
ATOM      1  C   UNL A   1      44.537  18.468  25.249  1.00  0.00     0.188 C 
ENDROOT
BRANCH   1   2
ATOM      2  C   UNL A   1      45.924  18.976  25.563  1.00  0.00     0.188 C 
BRANCH   2   3
ATOM      3  O   UNL A   1      45.912  20.374  25.368  1.00  0.00    -0.376 OA
BRANCH   3   4
ATOM      4  C   UNL A   1      45.463  20.933  24.155  1.00  0.00     0.202 C 
BRANCH   4   5
ATOM      5  C   UNL A   1      44.487  22.102  24.205  1.00  0.00     0.261 C 
BRANCH   5   6
ATOM      6  O   UNL A   1      44.959  23.451  23.959  1.00  0.00    -0.460 OA
BRANCH   6   7
ATOM      7  C   UNL A   1      45.799  24.328  24.550  1.00  0.00     0.338 C 
ATOM      8  O   UNL A   1      46.982  24.312  24.211  1.00  0.00    -0.246 OA
BRANCH   7   9
ATOM      9  C   UNL A   1      45.426  25.246  25.661  1.00  0.00     0.060 A 
ATOM     10  C   UNL A   1      46.325  26.077  26.305  1.00  0.00     0.016 A 
ATOM     11  C   UNL A   1      44.070  25.391  25.997  1.00  0.00     0.016 A 
ATOM     12  C   UNL A   1      45.965  26.940  27.316  1.00  0.00     0.010 A 
ATOM     13  C   UNL A   1      43.671  26.283  27.002  1.00  0.00     0.010 A 
ATOM     14  C   UNL A   1      44.637  27.027  27.688  1.00  0.00    -0.014 A 
BRANCH  14  15
ATOM     15  C   UNL A   1      44.393  27.712  28.963  1.00  0.00     0.031 A 
ATOM     16  C   UNL A   1      44.630  26.909  30.206  1.00  0.00     0.074 A 
ATOM     17  C   UNL A   1      44.258  29.051  28.987  1.00  0.00     0.049 A 
ATOM     18  N   UNL A   1      44.478  27.251  31.452  1.00  0.00    -0.248 NA
ATOM     19  C   UNL A   1      45.150  25.539  30.017  1.00  0.00     0.031 C 
ATOM     20  C   UNL A   1      44.294  29.927  27.808  1.00  0.00     0.029 A 
ATOM     21  N   UNL A   1      44.135  29.916  30.036  1.00  0.00    -0.354 N 
ATOM     22  C   UNL A   1      44.833  26.128  32.189  1.00  0.00     0.074 A 
ATOM     23  C   UNL A   1      45.232  25.100  31.261  1.00  0.00     0.031 C 
ATOM     24  C   UNL A   1      44.220  31.206  28.209  1.00  0.00     0.029 A 
ATOM     25  C   UNL A   1      44.037  31.234  29.653  1.00  0.00     0.049 A 
ATOM     26  H   UNL A   1      44.118  29.625  30.977  1.00  0.00     0.167 HD
ATOM     27  C   UNL A   1      44.795  25.974  33.530  1.00  0.00     0.031 A 
ATOM     28  C   UNL A   1      43.771  32.322  30.400  1.00  0.00     0.031 A 
ATOM     29  C   UNL A   1      44.363  27.028  34.403  1.00  0.00     0.049 A 
ATOM     30  C   UNL A   1      43.556  32.094  31.871  1.00  0.00     0.074 A 
ATOM     31  C   UNL A   1      44.115  26.991  35.759  1.00  0.00     0.029 A 
ATOM     32  N   UNL A   1      44.112  28.327  33.975  1.00  0.00    -0.354 N 
ATOM     33  N   UNL A   1      43.720  30.986  32.562  1.00  0.00    -0.248 NA
ATOM     34  C   UNL A   1      43.091  33.237  32.662  1.00  0.00     0.031 C 
ATOM     35  C   UNL A   1      43.664  28.261  36.141  1.00  0.00     0.029 A 
ATOM     36  C   UNL A   1      43.693  29.102  35.035  1.00  0.00     0.049 A 
ATOM     37  H   UNL A   1      44.219  28.648  33.050  1.00  0.00     0.167 HD
ATOM     38  C   UNL A   1      43.388  31.300  33.871  1.00  0.00     0.074 A 
ATOM     39  C   UNL A   1      43.036  32.710  33.878  1.00  0.00     0.031 C 
ATOM     40  C   UNL A   1      43.364  30.506  34.972  1.00  0.00     0.031 A 
BRANCH  27  41
ATOM     41  C   UNL A   1      45.093  24.602  34.067  1.00  0.00    -0.014 A 
ATOM     42  C   UNL A   1      44.074  23.677  34.353  1.00  0.00     0.010 A 
ATOM     43  C   UNL A   1      46.426  24.265  34.367  1.00  0.00     0.010 A 
ATOM     44  C   UNL A   1      44.379  22.458  34.971  1.00  0.00     0.020 A 
ATOM     45  C   UNL A   1      46.737  23.040  34.963  1.00  0.00     0.020 A 
ATOM     46  C   UNL A   1      45.708  22.151  35.279  1.00  0.00     0.054 A 
BRANCH  46  47
ATOM     47  S   UNL A   1      46.077  20.573  36.094  1.00  0.00     0.124 S 
ATOM     48  O   UNL A   1      45.667  20.841  37.470  1.00  0.00    -0.237 OA
ATOM     49  O   UNL A   1      45.235  19.630  35.361  1.00  0.00    -0.237 OA
ATOM     50  O   UNL A   1      47.514  20.405  35.893  1.00  0.00    -0.744 OA
ENDBRANCH  46  47
ENDBRANCH  27  41
BRANCH  28  51
ATOM     51  C   UNL A   1      43.583  33.659  29.765  1.00  0.00    -0.014 A 
ATOM     52  C   UNL A   1      42.303  34.194  29.543  1.00  0.00     0.010 A 
ATOM     53  C   UNL A   1      44.706  34.410  29.360  1.00  0.00     0.010 A 
ATOM     54  C   UNL A   1      42.151  35.440  28.918  1.00  0.00     0.020 A 
ATOM     55  C   UNL A   1      44.560  35.667  28.765  1.00  0.00     0.020 A 
ATOM     56  C   UNL A   1      43.280  36.168  28.533  1.00  0.00     0.054 A 
BRANCH  56  57
ATOM     57  S   UNL A   1      43.058  37.785  27.739  1.00  0.00     0.124 S 
ATOM     58  O   UNL A   1      44.387  38.349  27.807  1.00  0.00    -0.237 OA
ATOM     59  O   UNL A   1      42.584  37.415  26.401  1.00  0.00    -0.237 OA
ATOM     60  O   UNL A   1      42.047  38.441  28.579  1.00  0.00    -0.744 OA
ENDBRANCH  56  57
ENDBRANCH  28  51
BRANCH  40  61
ATOM     61  C   UNL A   1      42.984  31.160  36.265  1.00  0.00    -0.014 A 
ATOM     62  C   UNL A   1      41.642  31.445  36.566  1.00  0.00     0.010 A 
ATOM     63  C   UNL A   1      43.984  31.410  37.221  1.00  0.00     0.010 A 
ATOM     64  C   UNL A   1      41.308  31.991  37.805  1.00  0.00     0.020 A 
ATOM     65  C   UNL A   1      43.649  31.927  38.470  1.00  0.00     0.020 A 
ATOM     66  C   UNL A   1      42.313  32.223  38.750  1.00  0.00     0.054 A 
BRANCH  66  67
ATOM     67  S   UNL A   1      41.845  32.866  40.376  1.00  0.00     0.124 S 
ATOM     68  O   UNL A   1      41.536  31.642  41.109  1.00  0.00    -0.237 OA
ATOM     69  O   UNL A   1      43.053  33.568  40.803  1.00  0.00    -0.237 OA
ATOM     70  O   UNL A   1      40.700  33.728  40.091  1.00  0.00    -0.744 OA
ENDBRANCH  66  67
ENDBRANCH  40  61
ENDBRANCH  14  15
ENDBRANCH   7   9
ENDBRANCH   6   7
ENDBRANCH   5   6
ENDBRANCH   4   5
ENDBRANCH   3   4
ENDBRANCH   2   3
ENDBRANCH   1   2
BRANCH   1  71
ATOM     71  O   UNL A   1      43.610  18.778  26.269  1.00  0.00    -0.377 OA
BRANCH  71  72
ATOM     72  C   UNL A   1      42.324  19.260  25.885  1.00  0.00     0.188 C 
BRANCH  72  73
ATOM     73  C   UNL A   1      41.699  20.411  26.666  1.00  0.00     0.188 C 
BRANCH  73  74
ATOM     74  O   UNL A   1      40.804  21.227  25.950  1.00  0.00    -0.376 OA
BRANCH  74  75
ATOM     75  C   UNL A   1      39.405  21.058  26.169  1.00  0.00     0.202 C 
BRANCH  75  76
ATOM     76  C   UNL A   1      38.324  21.761  25.313  1.00  0.00     0.261 C 
BRANCH  76  77
ATOM     77  O   UNL A   1      36.996  21.890  25.886  1.00  0.00    -0.463 OA
BRANCH  77  78
ATOM     78  C   UNL A   1      36.491  23.149  25.911  1.00  0.00     0.312 C 
ATOM     79  O   UNL A   1      37.184  24.133  26.172  1.00  0.00    -0.252 OA
BRANCH  78  80
ATOM     80  C   UNL A   1      34.995  23.330  25.616  1.00  0.00     0.143 C 
ATOM     81  C   UNL A   1      34.111  22.204  25.058  1.00  0.00     0.124 C 
ATOM     82  C   UNL A   1      34.936  24.357  24.467  1.00  0.00     0.133 C 
ATOM     83  C   UNL A   1      33.681  22.772  23.678  1.00  0.00     0.132 C 
ATOM     84  C   UNL A   1      33.567  25.029  24.401  1.00  0.00     0.036 C 
ATOM     85  O   UNL A   1      34.877  23.501  23.300  1.00  0.00    -0.373 OA
ATOM     86  C   UNL A   1      32.727  23.965  23.697  1.00  0.00     0.035 C 
BRANCH  81  87
ATOM     87  C   UNL A   1      32.883  21.796  25.867  1.00  0.00     0.231 C 
ATOM     88  O   UNL A   1      32.520  22.397  26.877  1.00  0.00    -0.274 OA
ATOM     89  N   UNL A   1      32.054  20.834  25.339  1.00  0.00    -0.326 N 
ATOM     90  H   UNL A   1      31.093  21.046  25.345  1.00  0.00     0.169 HD
BRANCH  89  91
ATOM     91  C   UNL A   1      32.403  19.587  24.791  1.00  0.00     0.044 A 
ATOM     92  C   UNL A   1      32.380  19.355  23.410  1.00  0.00     0.029 A 
ATOM     93  C   UNL A   1      32.908  18.599  25.643  1.00  0.00     0.068 A 
ATOM     94  C   UNL A   1      32.839  18.144  22.884  1.00  0.00     0.044 A 
ATOM     95  C   UNL A   1      33.342  17.384  25.113  1.00  0.00     0.160 A 
ATOM     96  C   UNL A   1      33.316  17.160  23.743  1.00  0.00     0.158 A 
ATOM     97  F   UNL A   1      33.788  16.430  25.942  1.00  0.00    -0.204 F 
ATOM     98  F   UNL A   1      33.737  15.994  23.238  1.00  0.00    -0.204 F 
ENDBRANCH  89  91
ENDBRANCH  81  87
ENDBRANCH  78  80
ENDBRANCH  77  78
ENDBRANCH  76  77
ENDBRANCH  75  76
ENDBRANCH  74  75
ENDBRANCH  73  74
ENDBRANCH  72  73
ENDBRANCH  71  72
ENDBRANCH   1  71
TORSDOF 25
ENDMDL
MODEL 2
REMARK VINA RESULT:      -8.9      5.194      9.271
REMARK SMILES O=C(OCCOCCOCCOCCOC(=O)[C@@H]1[C@@H](C(=O)Nc2ccc(F)c(F)c2)[C@H]2CC[C@@H]1O2)c1ccc(-c2c3nc(c(-c4ccc(S(=O)(=O)[O-])cc4)c4ccc([nH]4)c(-c4ccc(S(=O)(=O)[O-])cc4)c4nc(c(-c5ccc(S(=O)(=O)[O-])cc5)c5ccc2[nH]5)C=C4)C=C3)cc1
REMARK SMILES IDX 8 1 7 2 6 3 5 4 4 5 3 6 2 7 1 8 36 9 37 10 95 11 38 12 94 13
REMARK SMILES IDX 39 14 40 15 41 16 88 17 42 18 93 19 87 20 89 21 43 22 92 23
REMARK SMILES IDX 86 24 85 25 44 27 74 28 55 29 73 30 56 31 59 32 72 33 90 34
REMARK SMILES IDX 57 35 58 36 71 38 91 39 60 40 45 41 46 42 54 43 47 44 53 45
REMARK SMILES IDX 48 46 49 47 50 48 51 49 52 50 75 51 76 52 84 53 77 54 83 55
REMARK SMILES IDX 78 56 79 57 80 58 81 59 82 60 61 61 62 62 70 63 63 64 69 65
REMARK SMILES IDX 64 66 65 67 66 68 67 69 68 70 9 71 10 72 11 73 12 74 13 75
REMARK SMILES IDX 14 76 15 77 16 78 17 79 18 80 19 81 34 82 31 83 33 84 35 85
REMARK SMILES IDX 32 86 20 87 21 88 22 89 23 91 24 92 30 93 25 94 28 95 26 96
REMARK SMILES IDX 29 97 27 98
REMARK H PARENT 89 26 59 37 22 90
REMARK Flexibility Score: inf
ROOT
ATOM      1  C   UNL A   1      41.249  20.533  27.439  1.00  0.00     0.188 C 
ENDROOT
BRANCH   1   2
ATOM      2  C   UNL A   1      40.327  20.846  26.285  1.00  0.00     0.188 C 
BRANCH   2   3
ATOM      3  O   UNL A   1      39.826  22.150  26.490  1.00  0.00    -0.376 OA
BRANCH   3   4
ATOM      4  C   UNL A   1      38.512  22.490  26.111  1.00  0.00     0.202 C 
BRANCH   4   5
ATOM      5  C   UNL A   1      38.029  23.917  26.343  1.00  0.00     0.261 C 
BRANCH   5   6
ATOM      6  O   UNL A   1      38.939  25.029  26.151  1.00  0.00    -0.460 OA
BRANCH   6   7
ATOM      7  C   UNL A   1      39.968  25.592  26.820  1.00  0.00     0.338 C 
ATOM      8  O   UNL A   1      41.112  25.266  26.501  1.00  0.00    -0.246 OA
BRANCH   7   9
ATOM      9  C   UNL A   1      39.826  26.500  27.991  1.00  0.00     0.060 A 
ATOM     10  C   UNL A   1      40.239  27.820  27.994  1.00  0.00     0.016 A 
ATOM     11  C   UNL A   1      39.115  26.052  29.116  1.00  0.00     0.016 A 
ATOM     12  C   UNL A   1      40.081  28.658  29.075  1.00  0.00     0.010 A 
ATOM     13  C   UNL A   1      38.913  26.893  30.220  1.00  0.00     0.010 A 
ATOM     14  C   UNL A   1      39.440  28.190  30.205  1.00  0.00    -0.014 A 
BRANCH  14  15
ATOM     15  C   UNL A   1      39.600  29.024  31.402  1.00  0.00     0.031 A 
ATOM     16  C   UNL A   1      40.905  28.901  32.129  1.00  0.00     0.074 A 
ATOM     17  C   UNL A   1      38.742  30.034  31.632  1.00  0.00     0.049 A 
ATOM     18  N   UNL A   1      41.307  29.498  33.213  1.00  0.00    -0.248 NA
ATOM     19  C   UNL A   1      41.914  28.006  31.525  1.00  0.00     0.031 C 
ATOM     20  C   UNL A   1      37.589  30.374  30.787  1.00  0.00     0.029 A 
ATOM     21  N   UNL A   1      38.741  31.002  32.596  1.00  0.00    -0.354 N 
ATOM     22  C   UNL A   1      42.589  29.016  33.447  1.00  0.00     0.074 A 
ATOM     23  C   UNL A   1      42.914  28.097  32.385  1.00  0.00     0.031 C 
ATOM     24  C   UNL A   1      37.011  31.490  31.262  1.00  0.00     0.029 A 
ATOM     25  C   UNL A   1      37.691  31.884  32.488  1.00  0.00     0.049 A 
ATOM     26  H   UNL A   1      39.426  31.062  33.301  1.00  0.00     0.167 HD
ATOM     27  C   UNL A   1      43.403  29.305  34.485  1.00  0.00     0.031 A 
ATOM     28  C   UNL A   1      37.306  32.860  33.332  1.00  0.00     0.031 A 
ATOM     29  C   UNL A   1      43.011  30.209  35.528  1.00  0.00     0.049 A 
ATOM     30  C   UNL A   1      38.133  33.042  34.574  1.00  0.00     0.074 A 
ATOM     31  C   UNL A   1      43.642  30.491  36.721  1.00  0.00     0.029 A 
ATOM     32  N   UNL A   1      41.858  30.985  35.481  1.00  0.00    -0.354 N 
ATOM     33  N   UNL A   1      39.269  32.460  34.896  1.00  0.00    -0.248 NA
ATOM     34  C   UNL A   1      37.625  33.975  35.583  1.00  0.00     0.031 C 
ATOM     35  C   UNL A   1      42.839  31.401  37.420  1.00  0.00     0.029 A 
ATOM     36  C   UNL A   1      41.744  31.734  36.632  1.00  0.00     0.049 A 
ATOM     37  H   UNL A   1      41.216  30.998  34.734  1.00  0.00     0.167 HD
ATOM     38  C   UNL A   1      39.617  32.964  36.140  1.00  0.00     0.074 A 
ATOM     39  C   UNL A   1      38.580  33.916  36.501  1.00  0.00     0.031 C 
ATOM     40  C   UNL A   1      40.685  32.670  36.924  1.00  0.00     0.031 A 
BRANCH  27  41
ATOM     41  C   UNL A   1      44.687  28.530  34.578  1.00  0.00    -0.014 A 
ATOM     42  C   UNL A   1      45.798  28.829  33.769  1.00  0.00     0.010 A 
ATOM     43  C   UNL A   1      44.752  27.422  35.443  1.00  0.00     0.010 A 
ATOM     44  C   UNL A   1      46.931  28.007  33.793  1.00  0.00     0.020 A 
ATOM     45  C   UNL A   1      45.889  26.613  35.486  1.00  0.00     0.020 A 
ATOM     46  C   UNL A   1      46.966  26.899  34.646  1.00  0.00     0.054 A 
BRANCH  46  47
ATOM     47  S   UNL A   1      48.439  25.840  34.646  1.00  0.00     0.124 S 
ATOM     48  O   UNL A   1      47.963  24.661  33.926  1.00  0.00    -0.237 OA
ATOM     49  O   UNL A   1      49.419  26.656  33.934  1.00  0.00    -0.237 OA
ATOM     50  O   UNL A   1      48.718  25.633  36.064  1.00  0.00    -0.744 OA
ENDBRANCH  46  47
ENDBRANCH  27  41
BRANCH  28  51
ATOM     51  C   UNL A   1      36.052  33.631  33.089  1.00  0.00    -0.014 A 
ATOM     52  C   UNL A   1      34.803  33.159  33.528  1.00  0.00     0.010 A 
ATOM     53  C   UNL A   1      36.102  34.857  32.394  1.00  0.00     0.010 A 
ATOM     54  C   UNL A   1      33.634  33.886  33.263  1.00  0.00     0.020 A 
ATOM     55  C   UNL A   1      34.942  35.601  32.155  1.00  0.00     0.020 A 
ATOM     56  C   UNL A   1      33.711  35.103  32.578  1.00  0.00     0.054 A 
BRANCH  56  57
ATOM     57  S   UNL A   1      32.186  36.035  32.260  1.00  0.00     0.124 S 
ATOM     58  O   UNL A   1      32.326  37.169  33.145  1.00  0.00    -0.237 OA
ATOM     59  O   UNL A   1      32.288  36.321  30.825  1.00  0.00    -0.237 OA
ATOM     60  O   UNL A   1      31.125  35.082  32.613  1.00  0.00    -0.744 OA
ENDBRANCH  56  57
ENDBRANCH  28  51
BRANCH  40  61
ATOM     61  C   UNL A   1      40.795  33.417  38.218  1.00  0.00    -0.014 A 
ATOM     62  C   UNL A   1      40.299  32.872  39.414  1.00  0.00     0.010 A 
ATOM     63  C   UNL A   1      41.483  34.643  38.241  1.00  0.00     0.010 A 
ATOM     64  C   UNL A   1      40.475  33.556  40.617  1.00  0.00     0.020 A 
ATOM     65  C   UNL A   1      41.686  35.312  39.445  1.00  0.00     0.020 A 
ATOM     66  C   UNL A   1      41.172  34.769  40.624  1.00  0.00     0.054 A 
BRANCH  66  67
ATOM     67  S   UNL A   1      41.448  35.602  42.207  1.00  0.00     0.124 S 
ATOM     68  O   UNL A   1      42.615  36.430  41.914  1.00  0.00    -0.237 OA
ATOM     69  O   UNL A   1      40.197  36.328  42.410  1.00  0.00    -0.237 OA
ATOM     70  O   UNL A   1      41.682  34.503  43.141  1.00  0.00    -0.744 OA
ENDBRANCH  66  67
ENDBRANCH  40  61
ENDBRANCH  14  15
ENDBRANCH   7   9
ENDBRANCH   6   7
ENDBRANCH   5   6
ENDBRANCH   4   5
ENDBRANCH   3   4
ENDBRANCH   2   3
ENDBRANCH   1   2
BRANCH   1  71
ATOM     71  O   UNL A   1      42.430  21.308  27.404  1.00  0.00    -0.377 OA
BRANCH  71  72
ATOM     72  C   UNL A   1      43.160  21.365  26.181  1.00  0.00     0.188 C 
BRANCH  72  73
ATOM     73  C   UNL A   1      43.353  22.715  25.495  1.00  0.00     0.188 C 
BRANCH  73  74
ATOM     74  O   UNL A   1      43.642  22.670  24.119  1.00  0.00    -0.376 OA
BRANCH  74  75
ATOM     75  C   UNL A   1      45.007  22.622  23.712  1.00  0.00     0.202 C 
BRANCH  75  76
ATOM     76  C   UNL A   1      46.163  23.214  24.553  1.00  0.00     0.261 C 
BRANCH  76  77
ATOM     77  O   UNL A   1      46.273  24.661  24.614  1.00  0.00    -0.463 OA
BRANCH  77  78
ATOM     78  C   UNL A   1      47.512  25.162  24.378  1.00  0.00     0.312 C 
ATOM     79  O   UNL A   1      47.984  25.248  23.245  1.00  0.00    -0.252 OA
BRANCH  78  80
ATOM     80  C   UNL A   1      48.346  25.615  25.585  1.00  0.00     0.143 C 
ATOM     81  C   UNL A   1      47.855  26.664  26.595  1.00  0.00     0.124 C 
ATOM     82  C   UNL A   1      49.570  26.330  24.979  1.00  0.00     0.133 C 
ATOM     83  C   UNL A   1      48.883  27.812  26.408  1.00  0.00     0.132 C 
ATOM     84  C   UNL A   1      50.726  26.381  25.974  1.00  0.00     0.036 C 
ATOM     85  O   UNL A   1      49.144  27.715  24.984  1.00  0.00    -0.373 OA
ATOM     86  C   UNL A   1      50.309  27.536  26.883  1.00  0.00     0.035 C 
BRANCH  81  87
ATOM     87  C   UNL A   1      47.778  26.257  28.064  1.00  0.00     0.231 C 
ATOM     88  O   UNL A   1      48.262  25.210  28.492  1.00  0.00    -0.274 OA
ATOM     89  N   UNL A   1      47.311  27.185  28.965  1.00  0.00    -0.326 N 
ATOM     90  H   UNL A   1      47.856  27.307  29.776  1.00  0.00     0.169 HD
BRANCH  89  91
ATOM     91  C   UNL A   1      46.154  27.981  28.878  1.00  0.00     0.044 A 
ATOM     92  C   UNL A   1      44.951  27.479  28.369  1.00  0.00     0.029 A 
ATOM     93  C   UNL A   1      46.182  29.264  29.434  1.00  0.00     0.068 A 
ATOM     94  C   UNL A   1      43.788  28.255  28.398  1.00  0.00     0.044 A 
ATOM     95  C   UNL A   1      45.024  30.041  29.437  1.00  0.00     0.160 A 
ATOM     96  C   UNL A   1      43.833  29.538  28.930  1.00  0.00     0.158 A 
ATOM     97  F   UNL A   1      45.070  31.284  29.937  1.00  0.00    -0.204 F 
ATOM     98  F   UNL A   1      42.722  30.286  28.938  1.00  0.00    -0.204 F 
ENDBRANCH  89  91
ENDBRANCH  81  87
ENDBRANCH  78  80
ENDBRANCH  77  78
ENDBRANCH  76  77
ENDBRANCH  75  76
ENDBRANCH  74  75
ENDBRANCH  73  74
ENDBRANCH  72  73
ENDBRANCH  71  72
ENDBRANCH   1  71
TORSDOF 25
ENDMDL
MODEL 3
REMARK VINA RESULT:      -8.5      5.493     12.953
REMARK SMILES O=C(OCCOCCOCCOCCOC(=O)[C@@H]1[C@@H](C(=O)Nc2ccc(F)c(F)c2)[C@H]2CC[C@@H]1O2)c1ccc(-c2c3nc(c(-c4ccc(S(=O)(=O)[O-])cc4)c4ccc([nH]4)c(-c4ccc(S(=O)(=O)[O-])cc4)c4nc(c(-c5ccc(S(=O)(=O)[O-])cc5)c5ccc2[nH]5)C=C4)C=C3)cc1
REMARK SMILES IDX 8 1 7 2 6 3 5 4 4 5 3 6 2 7 1 8 36 9 37 10 95 11 38 12 94 13
REMARK SMILES IDX 39 14 40 15 41 16 88 17 42 18 93 19 87 20 89 21 43 22 92 23
REMARK SMILES IDX 86 24 85 25 44 27 74 28 55 29 73 30 56 31 59 32 72 33 90 34
REMARK SMILES IDX 57 35 58 36 71 38 91 39 60 40 45 41 46 42 54 43 47 44 53 45
REMARK SMILES IDX 48 46 49 47 50 48 51 49 52 50 75 51 76 52 84 53 77 54 83 55
REMARK SMILES IDX 78 56 79 57 80 58 81 59 82 60 61 61 62 62 70 63 63 64 69 65
REMARK SMILES IDX 64 66 65 67 66 68 67 69 68 70 9 71 10 72 11 73 12 74 13 75
REMARK SMILES IDX 14 76 15 77 16 78 17 79 18 80 19 81 34 82 31 83 33 84 35 85
REMARK SMILES IDX 32 86 20 87 21 88 22 89 23 91 24 92 30 93 25 94 28 95 26 96
REMARK SMILES IDX 29 97 27 98
REMARK H PARENT 89 26 59 37 22 90
REMARK Flexibility Score: inf
ROOT
ATOM      1  C   UNL A   1      34.622  34.051  30.531  1.00  0.00     0.188 C 
ENDROOT
BRANCH   1   2
ATOM      2  C   UNL A   1      34.854  34.690  31.878  1.00  0.00     0.188 C 
BRANCH   2   3
ATOM      3  O   UNL A   1      34.582  33.711  32.859  1.00  0.00    -0.376 OA
BRANCH   3   4
ATOM      4  C   UNL A   1      35.191  33.767  34.128  1.00  0.00     0.202 C 
BRANCH   4   5
ATOM      5  C   UNL A   1      36.583  33.172  34.298  1.00  0.00     0.261 C 
BRANCH   5   6
ATOM      6  O   UNL A   1      37.036  32.752  35.610  1.00  0.00    -0.460 OA
BRANCH   6   7
ATOM      7  C   UNL A   1      37.808  31.770  36.123  1.00  0.00     0.338 C 
ATOM      8  O   UNL A   1      37.621  31.440  37.294  1.00  0.00    -0.246 OA
BRANCH   7   9
ATOM      9  C   UNL A   1      38.945  31.124  35.412  1.00  0.00     0.060 A 
ATOM     10  C   UNL A   1      40.255  31.170  35.856  1.00  0.00     0.016 A 
ATOM     11  C   UNL A   1      38.676  30.304  34.304  1.00  0.00     0.016 A 
ATOM     12  C   UNL A   1      41.295  30.549  35.203  1.00  0.00     0.010 A 
ATOM     13  C   UNL A   1      39.713  29.636  33.636  1.00  0.00     0.010 A 
ATOM     14  C   UNL A   1      41.032  29.799  34.072  1.00  0.00    -0.014 A 
BRANCH  14  15
ATOM     15  C   UNL A   1      42.211  29.449  33.270  1.00  0.00     0.031 A 
ATOM     16  C   UNL A   1      42.767  30.532  32.396  1.00  0.00     0.074 A 
ATOM     17  C   UNL A   1      42.898  28.326  33.548  1.00  0.00     0.049 A 
ATOM     18  N   UNL A   1      43.778  30.497  31.578  1.00  0.00    -0.248 NA
ATOM     19  C   UNL A   1      42.112  31.853  32.487  1.00  0.00     0.031 C 
ATOM     20  C   UNL A   1      42.547  27.355  34.594  1.00  0.00     0.029 A 
ATOM     21  N   UNL A   1      44.066  27.845  33.030  1.00  0.00    -0.354 N 
ATOM     22  C   UNL A   1      43.848  31.768  31.023  1.00  0.00     0.074 A 
ATOM     23  C   UNL A   1      42.798  32.564  31.609  1.00  0.00     0.031 C 
ATOM     24  C   UNL A   1      43.500  26.410  34.652  1.00  0.00     0.029 A 
ATOM     25  C   UNL A   1      44.468  26.655  33.593  1.00  0.00     0.049 A 
ATOM     26  H   UNL A   1      44.573  28.305  32.322  1.00  0.00     0.167 HD
ATOM     27  C   UNL A   1      44.707  32.211  30.079  1.00  0.00     0.031 A 
ATOM     28  C   UNL A   1      45.478  25.840  33.236  1.00  0.00     0.031 A 
ATOM     29  C   UNL A   1      45.716  31.362  29.514  1.00  0.00     0.049 A 
ATOM     30  C   UNL A   1      46.313  26.275  32.062  1.00  0.00     0.074 A 
ATOM     31  C   UNL A   1      46.558  31.598  28.448  1.00  0.00     0.029 A 
ATOM     32  N   UNL A   1      46.008  30.089  29.993  1.00  0.00    -0.354 N 
ATOM     33  N   UNL A   1      46.275  27.415  31.407  1.00  0.00    -0.248 NA
ATOM     34  C   UNL A   1      47.297  25.317  31.553  1.00  0.00     0.031 C 
ATOM     35  C   UNL A   1      47.326  30.444  28.250  1.00  0.00     0.029 A 
ATOM     36  C   UNL A   1      47.006  29.516  29.234  1.00  0.00     0.049 A 
ATOM     37  H   UNL A   1      45.568  29.661  30.762  1.00  0.00     0.167 HD
ATOM     38  C   UNL A   1      47.237  27.317  30.414  1.00  0.00     0.074 A 
ATOM     39  C   UNL A   1      47.856  26.011  30.571  1.00  0.00     0.031 C 
ATOM     40  C   UNL A   1      47.581  28.210  29.451  1.00  0.00     0.031 A 
BRANCH  27  41
ATOM     41  C   UNL A   1      44.474  33.595  29.542  1.00  0.00    -0.014 A 
ATOM     42  C   UNL A   1      45.150  34.717  30.054  1.00  0.00     0.010 A 
ATOM     43  C   UNL A   1      43.491  33.783  28.553  1.00  0.00     0.010 A 
ATOM     44  C   UNL A   1      44.814  36.004  29.619  1.00  0.00     0.020 A 
ATOM     45  C   UNL A   1      43.170  35.064  28.099  1.00  0.00     0.020 A 
ATOM     46  C   UNL A   1      43.820  36.169  28.649  1.00  0.00     0.054 A 
BRANCH  46  47
ATOM     47  S   UNL A   1      43.391  37.849  28.112  1.00  0.00     0.124 S 
ATOM     48  O   UNL A   1      44.302  38.049  26.988  1.00  0.00    -0.237 OA
ATOM     49  O   UNL A   1      41.979  37.722  27.760  1.00  0.00    -0.237 OA
ATOM     50  O   UNL A   1      43.665  38.669  29.289  1.00  0.00    -0.744 OA
ENDBRANCH  46  47
ENDBRANCH  27  41
BRANCH  28  51
ATOM     51  C   UNL A   1      45.670  24.520  33.905  1.00  0.00    -0.014 A 
ATOM     52  C   UNL A   1      44.786  23.450  33.686  1.00  0.00     0.010 A 
ATOM     53  C   UNL A   1      46.751  24.330  34.789  1.00  0.00     0.010 A 
ATOM     54  C   UNL A   1      44.970  22.228  34.348  1.00  0.00     0.020 A 
ATOM     55  C   UNL A   1      46.957  23.103  35.428  1.00  0.00     0.020 A 
ATOM     56  C   UNL A   1      46.054  22.062  35.215  1.00  0.00     0.054 A 
BRANCH  56  57
ATOM     57  S   UNL A   1      46.280  20.466  36.050  1.00  0.00     0.124 S 
ATOM     58  O   UNL A   1      45.656  20.696  37.333  1.00  0.00    -0.237 OA
ATOM     59  O   UNL A   1      45.582  19.541  35.150  1.00  0.00    -0.237 OA
ATOM     60  O   UNL A   1      47.740  20.299  36.075  1.00  0.00    -0.744 OA
ENDBRANCH  56  57
ENDBRANCH  28  51
BRANCH  40  61
ATOM     61  C   UNL A   1      48.697  27.813  28.533  1.00  0.00    -0.014 A 
ATOM     62  C   UNL A   1      48.433  27.273  27.263  1.00  0.00     0.010 A 
ATOM     63  C   UNL A   1      50.023  28.068  28.923  1.00  0.00     0.010 A 
ATOM     64  C   UNL A   1      49.488  26.975  26.401  1.00  0.00     0.020 A 
ATOM     65  C   UNL A   1      51.076  27.800  28.051  1.00  0.00     0.020 A 
ATOM     66  C   UNL A   1      50.802  27.246  26.799  1.00  0.00     0.054 A 
BRANCH  66  67
ATOM     67  S   UNL A   1      52.148  26.917  25.634  1.00  0.00     0.124 S 
ATOM     68  O   UNL A   1      52.012  25.480  25.412  1.00  0.00    -0.237 OA
ATOM     69  O   UNL A   1      51.802  27.765  24.497  1.00  0.00    -0.237 OA
ATOM     70  O   UNL A   1      53.345  27.324  26.366  1.00  0.00    -0.744 OA
ENDBRANCH  66  67
ENDBRANCH  40  61
ENDBRANCH  14  15
ENDBRANCH   7   9
ENDBRANCH   6   7
ENDBRANCH   5   6
ENDBRANCH   4   5
ENDBRANCH   3   4
ENDBRANCH   2   3
ENDBRANCH   1   2
BRANCH   1  71
ATOM     71  O   UNL A   1      35.561  33.034  30.252  1.00  0.00    -0.377 OA
BRANCH  71  72
ATOM     72  C   UNL A   1      36.884  33.423  29.889  1.00  0.00     0.188 C 
BRANCH  72  73
ATOM     73  C   UNL A   1      37.966  32.353  29.771  1.00  0.00     0.188 C 
BRANCH  73  74
ATOM     74  O   UNL A   1      37.892  31.525  28.636  1.00  0.00    -0.376 OA
BRANCH  74  75
ATOM     75  C   UNL A   1      37.958  30.113  28.818  1.00  0.00     0.202 C 
BRANCH  75  76
ATOM     76  C   UNL A   1      39.149  29.252  28.334  1.00  0.00     0.261 C 
BRANCH  76  77
ATOM     77  O   UNL A   1      39.433  28.030  29.067  1.00  0.00    -0.463 OA
BRANCH  77  78
ATOM     78  C   UNL A   1      40.526  27.342  28.650  1.00  0.00     0.312 C 
ATOM     79  O   UNL A   1      40.780  26.205  29.047  1.00  0.00    -0.252 OA
BRANCH  78  80
ATOM     80  C   UNL A   1      41.476  28.032  27.660  1.00  0.00     0.143 C 
ATOM     81  C   UNL A   1      42.617  27.294  26.943  1.00  0.00     0.124 C 
ATOM     82  C   UNL A   1      42.263  29.053  28.509  1.00  0.00     0.133 C 
ATOM     83  C   UNL A   1      43.877  28.017  27.492  1.00  0.00     0.132 C 
ATOM     84  C   UNL A   1      42.855  30.154  27.633  1.00  0.00     0.036 C 
ATOM     85  O   UNL A   1      43.456  28.304  28.851  1.00  0.00    -0.373 OA
ATOM     86  C   UNL A   1      44.085  29.463  27.046  1.00  0.00     0.035 C 
BRANCH  81  87
ATOM     87  C   UNL A   1      42.624  27.306  25.417  1.00  0.00     0.231 C 
ATOM     88  O   UNL A   1      41.914  28.060  24.753  1.00  0.00    -0.274 OA
ATOM     89  N   UNL A   1      43.594  26.575  24.772  1.00  0.00    -0.326 N 
ATOM     90  H   UNL A   1      44.082  27.045  24.058  1.00  0.00     0.169 HD
BRANCH  89  91
ATOM     91  C   UNL A   1      43.978  25.241  25.002  1.00  0.00     0.044 A 
ATOM     92  C   UNL A   1      43.044  24.199  25.032  1.00  0.00     0.029 A 
ATOM     93  C   UNL A   1      45.343  24.941  25.073  1.00  0.00     0.068 A 
ATOM     94  C   UNL A   1      43.463  22.871  25.149  1.00  0.00     0.044 A 
ATOM     95  C   UNL A   1      45.753  23.615  25.214  1.00  0.00     0.160 A 
ATOM     96  C   UNL A   1      44.820  22.586  25.244  1.00  0.00     0.158 A 
ATOM     97  F   UNL A   1      47.060  23.341  25.320  1.00  0.00    -0.204 F 
ATOM     98  F   UNL A   1      45.217  21.314  25.375  1.00  0.00    -0.204 F 
ENDBRANCH  89  91
ENDBRANCH  81  87
ENDBRANCH  78  80
ENDBRANCH  77  78
ENDBRANCH  76  77
ENDBRANCH  75  76
ENDBRANCH  74  75
ENDBRANCH  73  74
ENDBRANCH  72  73
ENDBRANCH  71  72
ENDBRANCH   1  71
TORSDOF 25
ENDMDL
