MODEL 1
REMARK VINA RESULT:      -8.2      0.000      0.000
REMARK SMILES CC[NH2+][C@]1(C(=O)OCCOCCOCCOCCOC(=O)c2ccc(-c3c4nc(c(-c5ccc(S(=O)(=O)[O-])cc5)c5ccc([nH]5)c(-c5ccc(S(=O)(=O)[O-])cc5)c5nc(c(-c6ccc(S(=O)(=O)[O-])cc6)c6ccc3[nH]6)C=C5)C=C4)cc2)CCC[C@H]1CCSc1n[nH]c(=O)n1C
REMARK SMILES IDX 12 1 11 2 10 3 9 4 8 5 7 6 5 7 6 8 4 9 82 10 85 11 83 12
REMARK SMILES IDX 84 13 3 14 2 17 1 18 86 19 87 20 88 21 89 22 90 23 94 24
REMARK SMILES IDX 91 25 92 26 95 27 93 29 13 30 14 31 15 32 16 33 17 34 18 35
REMARK SMILES IDX 19 36 20 37 21 38 22 39 23 40 81 41 24 42 80 43 25 44 26 45
REMARK SMILES IDX 27 46 74 47 28 48 79 49 73 50 75 51 29 52 78 53 72 54 71 55
REMARK SMILES IDX 30 57 60 58 41 59 59 60 42 61 45 62 58 63 76 64 43 65 44 66
REMARK SMILES IDX 57 68 77 69 46 70 31 71 32 72 40 73 33 74 39 75 34 76 35 77
REMARK SMILES IDX 36 78 37 79 38 80 61 81 62 82 70 83 63 84 69 85 64 86 65 87
REMARK SMILES IDX 66 88 67 89 68 90 47 91 48 92 56 93 49 94 55 95 50 96 51 97
REMARK SMILES IDX 52 98 53 99 54 100
REMARK H PARENT 3 15 3 16 91 28 75 56 45 67
REMARK Flexibility Score: inf
ROOT
ATOM      1  C   UNL A   1      35.593  31.541  27.621  1.00  0.00     0.188 C 
ENDROOT
BRANCH   1   2
ATOM      2  C   UNL A   1      34.492  30.524  27.972  1.00  0.00     0.188 C 
BRANCH   2   3
ATOM      3  O   UNL A   1      33.186  30.817  27.507  1.00  0.00    -0.376 OA
BRANCH   3   4
ATOM      4  C   UNL A   1      32.561  29.924  26.602  1.00  0.00     0.202 C 
BRANCH   4   5
ATOM      5  C   UNL A   1      33.410  28.781  26.013  1.00  0.00     0.261 C 
BRANCH   5   6
ATOM      6  O   UNL A   1      32.745  27.827  25.163  1.00  0.00    -0.459 OA
BRANCH   6   7
ATOM      7  C   UNL A   1      32.750  26.539  25.573  1.00  0.00     0.368 C 
ATOM      8  O   UNL A   1      33.667  26.060  26.221  1.00  0.00    -0.245 OA
BRANCH   7   9
ATOM      9  C   UNL A   1      31.476  25.750  25.238  1.00  0.00     0.197 C 
ATOM     10  C   UNL A   1      30.386  26.690  24.677  1.00  0.00     0.081 C 
ATOM     11  C   UNL A   1      31.731  24.747  24.061  1.00  0.00     0.063 C 
ATOM     12  C   UNL A   1      29.449  25.755  23.949  1.00  0.00     0.008 C 
ATOM     13  C   UNL A   1      30.392  24.774  23.260  1.00  0.00     0.011 C 
BRANCH   9  14
ATOM     14  N   UNL A   1      30.941  25.130  26.503  1.00  0.00    -0.332 N 
ATOM     15  H   UNL A   1      31.374  25.618  27.288  1.00  0.00     0.347 HD
ATOM     16  H   UNL A   1      29.928  25.228  26.427  1.00  0.00     0.347 HD
BRANCH  14  17
ATOM     17  C   UNL A   1      31.156  23.704  26.707  1.00  0.00     0.257 C 
ATOM     18  C   UNL A   1      29.877  22.981  27.092  1.00  0.00     0.071 C 
ENDBRANCH  14  17
ENDBRANCH   9  14
BRANCH  11  19
ATOM     19  C   UNL A   1      32.911  25.005  23.099  1.00  0.00     0.022 C 
BRANCH  19  20
ATOM     20  C   UNL A   1      33.890  23.902  22.629  1.00  0.00     0.079 C 
BRANCH  20  21
ATOM     21  S   UNL A   1      35.417  23.221  23.340  1.00  0.00    -0.086 SA
BRANCH  21  22
ATOM     22  C   UNL A   1      35.295  22.681  24.968  1.00  0.00     0.191 A 
ATOM     23  N   UNL A   1      36.048  23.193  25.903  1.00  0.00    -0.146 NA
ATOM     24  N   UNL A   1      34.267  21.925  25.441  1.00  0.00    -0.273 N 
ATOM     25  N   UNL A   1      35.478  22.757  27.071  1.00  0.00    -0.226 N 
ATOM     26  C   UNL A   1      34.366  21.976  26.807  1.00  0.00     0.343 A 
ATOM     27  C   UNL A   1      33.289  21.088  24.801  1.00  0.00     0.157 C 
ATOM     28  H   UNL A   1      35.812  22.970  27.971  1.00  0.00     0.195 HD
ATOM     29  O   UNL A   1      33.655  21.441  27.644  1.00  0.00    -0.246 OA
ENDBRANCH  21  22
ENDBRANCH  20  21
ENDBRANCH  19  20
ENDBRANCH  11  19
ENDBRANCH   7   9
ENDBRANCH   6   7
ENDBRANCH   5   6
ENDBRANCH   4   5
ENDBRANCH   3   4
ENDBRANCH   2   3
ENDBRANCH   1   2
BRANCH   1  30
ATOM     30  O   UNL A   1      36.043  32.470  28.590  1.00  0.00    -0.377 OA
BRANCH  30  31
ATOM     31  C   UNL A   1      35.319  33.676  28.769  1.00  0.00     0.188 C 
BRANCH  31  32
ATOM     32  C   UNL A   1      34.403  33.835  30.001  1.00  0.00     0.188 C 
BRANCH  32  33
ATOM     33  O   UNL A   1      35.024  34.439  31.127  1.00  0.00    -0.376 OA
BRANCH  33  34
ATOM     34  C   UNL A   1      35.860  33.628  31.931  1.00  0.00     0.202 C 
BRANCH  34  35
ATOM     35  C   UNL A   1      35.566  32.121  31.959  1.00  0.00     0.261 C 
BRANCH  35  36
ATOM     36  O   UNL A   1      36.636  31.252  31.566  1.00  0.00    -0.460 OA
BRANCH  36  37
ATOM     37  C   UNL A   1      37.671  31.086  32.417  1.00  0.00     0.338 C 
ATOM     38  O   UNL A   1      37.634  31.131  33.634  1.00  0.00    -0.246 OA
BRANCH  37  39
ATOM     39  C   UNL A   1      38.817  30.603  31.612  1.00  0.00     0.060 A 
ATOM     40  C   UNL A   1      39.833  29.865  32.240  1.00  0.00     0.016 A 
ATOM     41  C   UNL A   1      38.829  30.786  30.227  1.00  0.00     0.016 A 
ATOM     42  C   UNL A   1      40.866  29.312  31.482  1.00  0.00     0.010 A 
ATOM     43  C   UNL A   1      39.888  30.275  29.476  1.00  0.00     0.010 A 
ATOM     44  C   UNL A   1      40.925  29.564  30.106  1.00  0.00    -0.014 A 
BRANCH  44  45
ATOM     45  C   UNL A   1      42.198  29.355  29.380  1.00  0.00     0.031 A 
ATOM     46  C   UNL A   1      42.435  27.985  28.806  1.00  0.00     0.074 A 
ATOM     47  C   UNL A   1      43.121  30.323  29.245  1.00  0.00     0.049 A 
ATOM     48  N   UNL A   1      43.488  27.507  28.201  1.00  0.00    -0.248 NA
ATOM     49  C   UNL A   1      41.329  27.020  28.948  1.00  0.00     0.031 C 
ATOM     50  C   UNL A   1      42.988  31.698  29.721  1.00  0.00     0.029 A 
ATOM     51  N   UNL A   1      44.369  30.280  28.676  1.00  0.00    -0.354 N 
ATOM     52  C   UNL A   1      43.179  26.184  27.905  1.00  0.00     0.074 A 
ATOM     53  C   UNL A   1      41.852  25.928  28.416  1.00  0.00     0.031 C 
ATOM     54  C   UNL A   1      44.126  32.363  29.446  1.00  0.00     0.029 A 
ATOM     55  C   UNL A   1      45.076  31.451  28.808  1.00  0.00     0.049 A 
ATOM     56  H   UNL A   1      44.725  29.485  28.215  1.00  0.00     0.167 HD
ATOM     57  C   UNL A   1      43.935  25.261  27.270  1.00  0.00     0.031 A 
ATOM     58  C   UNL A   1      46.353  31.739  28.483  1.00  0.00     0.031 A 
ATOM     59  C   UNL A   1      45.265  25.514  26.793  1.00  0.00     0.049 A 
ATOM     60  C   UNL A   1      47.207  30.676  27.837  1.00  0.00     0.074 A 
ATOM     61  C   UNL A   1      46.112  24.654  26.117  1.00  0.00     0.029 A 
ATOM     62  N   UNL A   1      45.951  26.708  26.959  1.00  0.00    -0.354 N 
ATOM     63  N   UNL A   1      46.890  29.441  27.523  1.00  0.00    -0.248 NA
ATOM     64  C   UNL A   1      48.589  31.045  27.495  1.00  0.00     0.031 C 
ATOM     65  C   UNL A   1      47.335  25.307  25.935  1.00  0.00     0.029 A 
ATOM     66  C   UNL A   1      47.223  26.599  26.431  1.00  0.00     0.049 A 
ATOM     67  H   UNL A   1      45.585  27.514  27.390  1.00  0.00     0.167 HD
ATOM     68  C   UNL A   1      48.023  28.897  26.923  1.00  0.00     0.074 A 
ATOM     69  C   UNL A   1      49.028  29.939  26.909  1.00  0.00     0.031 C 
ATOM     70  C   UNL A   1      48.212  27.649  26.425  1.00  0.00     0.031 A 
BRANCH  57  71
ATOM     71  C   UNL A   1      43.355  23.882  27.118  1.00  0.00    -0.014 A 
ATOM     72  C   UNL A   1      42.788  23.452  25.904  1.00  0.00     0.010 A 
ATOM     73  C   UNL A   1      43.381  22.998  28.212  1.00  0.00     0.010 A 
ATOM     74  C   UNL A   1      42.216  22.181  25.802  1.00  0.00     0.020 A 
ATOM     75  C   UNL A   1      42.839  21.715  28.105  1.00  0.00     0.020 A 
ATOM     76  C   UNL A   1      42.242  21.323  26.905  1.00  0.00     0.054 A 
BRANCH  76  77
ATOM     77  S   UNL A   1      41.501  19.675  26.743  1.00  0.00     0.124 S 
ATOM     78  O   UNL A   1      42.668  18.807  26.879  1.00  0.00    -0.237 OA
ATOM     79  O   UNL A   1      40.558  19.639  27.857  1.00  0.00    -0.237 OA
ATOM     80  O   UNL A   1      40.893  19.697  25.415  1.00  0.00    -0.744 OA
ENDBRANCH  76  77
ENDBRANCH  57  71
BRANCH  58  81
ATOM     81  C   UNL A   1      46.913  33.085  28.797  1.00  0.00    -0.014 A 
ATOM     82  C   UNL A   1      47.445  33.370  30.066  1.00  0.00     0.010 A 
ATOM     83  C   UNL A   1      46.928  34.089  27.810  1.00  0.00     0.010 A 
ATOM     84  C   UNL A   1      47.979  34.633  30.343  1.00  0.00     0.020 A 
ATOM     85  C   UNL A   1      47.485  35.343  28.074  1.00  0.00     0.020 A 
ATOM     86  C   UNL A   1      48.004  35.609  29.342  1.00  0.00     0.054 A 
BRANCH  86  87
ATOM     87  S   UNL A   1      48.775  37.212  29.700  1.00  0.00     0.124 S 
ATOM     88  O   UNL A   1      48.224  38.059  28.648  1.00  0.00    -0.237 OA
ATOM     89  O   UNL A   1      48.300  37.493  31.053  1.00  0.00    -0.237 OA
ATOM     90  O   UNL A   1      50.206  36.934  29.597  1.00  0.00    -0.744 OA
ENDBRANCH  86  87
ENDBRANCH  58  81
BRANCH  70  91
ATOM     91  C   UNL A   1      49.539  27.339  25.782  1.00  0.00    -0.014 A 
ATOM     92  C   UNL A   1      49.731  27.473  24.396  1.00  0.00     0.010 A 
ATOM     93  C   UNL A   1      50.635  26.998  26.595  1.00  0.00     0.010 A 
ATOM     94  C   UNL A   1      50.992  27.251  23.833  1.00  0.00     0.020 A 
ATOM     95  C   UNL A   1      51.904  26.805  26.041  1.00  0.00     0.020 A 
ATOM     96  C   UNL A   1      52.071  26.923  24.662  1.00  0.00     0.054 A 
BRANCH  96  97
ATOM     97  S   UNL A   1      53.709  26.703  23.914  1.00  0.00     0.124 S 
ATOM     98  O   UNL A   1      53.448  27.007  22.510  1.00  0.00    -0.237 OA
ATOM     99  O   UNL A   1      54.522  27.684  24.630  1.00  0.00    -0.237 OA
ATOM    100  O   UNL A   1      54.036  25.306  24.197  1.00  0.00    -0.744 OA
ENDBRANCH  96  97
ENDBRANCH  70  91
ENDBRANCH  44  45
ENDBRANCH  37  39
ENDBRANCH  36  37
ENDBRANCH  35  36
ENDBRANCH  34  35
ENDBRANCH  33  34
ENDBRANCH  32  33
ENDBRANCH  31  32
ENDBRANCH  30  31
ENDBRANCH   1  30
TORSDOF 29
ENDMDL
MODEL 2
REMARK VINA RESULT:      -8.1      1.298      2.013
REMARK SMILES CC[NH2+][C@]1(C(=O)OCCOCCOCCOCCOC(=O)c2ccc(-c3c4nc(c(-c5ccc(S(=O)(=O)[O-])cc5)c5ccc([nH]5)c(-c5ccc(S(=O)(=O)[O-])cc5)c5nc(c(-c6ccc(S(=O)(=O)[O-])cc6)c6ccc3[nH]6)C=C5)C=C4)cc2)CCC[C@H]1CCSc1n[nH]c(=O)n1C
REMARK SMILES IDX 12 1 11 2 10 3 9 4 8 5 7 6 5 7 6 8 4 9 82 10 85 11 83 12
REMARK SMILES IDX 84 13 3 14 2 17 1 18 86 19 87 20 88 21 89 22 90 23 94 24
REMARK SMILES IDX 91 25 92 26 95 27 93 29 13 30 14 31 15 32 16 33 17 34 18 35
REMARK SMILES IDX 19 36 20 37 21 38 22 39 23 40 81 41 24 42 80 43 25 44 26 45
REMARK SMILES IDX 27 46 74 47 28 48 79 49 73 50 75 51 29 52 78 53 72 54 71 55
REMARK SMILES IDX 30 57 60 58 41 59 59 60 42 61 45 62 58 63 76 64 43 65 44 66
REMARK SMILES IDX 57 68 77 69 46 70 31 71 32 72 40 73 33 74 39 75 34 76 35 77
REMARK SMILES IDX 36 78 37 79 38 80 61 81 62 82 70 83 63 84 69 85 64 86 65 87
REMARK SMILES IDX 66 88 67 89 68 90 47 91 48 92 56 93 49 94 55 95 50 96 51 97
REMARK SMILES IDX 52 98 53 99 54 100
REMARK H PARENT 3 15 3 16 91 28 75 56 45 67
REMARK Flexibility Score: inf
ROOT
ATOM      1  C   UNL A   1      35.591  30.164  27.356  1.00  0.00     0.188 C 
ENDROOT
BRANCH   1   2
ATOM      2  C   UNL A   1      34.188  29.572  27.577  1.00  0.00     0.188 C 
BRANCH   2   3
ATOM      3  O   UNL A   1      33.089  30.420  27.291  1.00  0.00    -0.376 OA
BRANCH   3   4
ATOM      4  C   UNL A   1      32.190  30.060  26.257  1.00  0.00     0.202 C 
BRANCH   4   5
ATOM      5  C   UNL A   1      32.783  29.498  24.950  1.00  0.00     0.261 C 
BRANCH   5   6
ATOM      6  O   UNL A   1      32.892  28.067  24.830  1.00  0.00    -0.459 OA
BRANCH   6   7
ATOM      7  C   UNL A   1      31.770  27.398  24.481  1.00  0.00     0.368 C 
ATOM      8  O   UNL A   1      30.772  27.375  25.186  1.00  0.00    -0.245 OA
BRANCH   7   9
ATOM      9  C   UNL A   1      31.813  26.743  23.093  1.00  0.00     0.197 C 
ATOM     10  C   UNL A   1      33.274  26.521  22.643  1.00  0.00     0.081 C 
ATOM     11  C   UNL A   1      31.223  25.292  23.139  1.00  0.00     0.063 C 
ATOM     12  C   UNL A   1      33.160  25.461  21.572  1.00  0.00     0.008 C 
ATOM     13  C   UNL A   1      32.117  24.501  22.134  1.00  0.00     0.011 C 
BRANCH   9  14
ATOM     14  N   UNL A   1      31.162  27.668  22.098  1.00  0.00    -0.332 N 
ATOM     15  H   UNL A   1      31.864  28.352  21.813  1.00  0.00     0.347 HD
ATOM     16  H   UNL A   1      30.822  27.052  21.359  1.00  0.00     0.347 HD
BRANCH  14  17
ATOM     17  C   UNL A   1      29.984  28.410  22.526  1.00  0.00     0.257 C 
ATOM     18  C   UNL A   1      29.983  29.837  22.003  1.00  0.00     0.071 C 
ENDBRANCH  14  17
ENDBRANCH   9  14
BRANCH  11  19
ATOM     19  C   UNL A   1      31.179  24.543  24.488  1.00  0.00     0.022 C 
BRANCH  19  20
ATOM     20  C   UNL A   1      31.569  23.054  24.655  1.00  0.00     0.079 C 
BRANCH  20  21
ATOM     21  S   UNL A   1      32.155  22.083  26.075  1.00  0.00    -0.086 SA
BRANCH  21  22
ATOM     22  C   UNL A   1      33.506  21.066  25.765  1.00  0.00     0.191 A 
ATOM     23  N   UNL A   1      33.340  19.838  25.352  1.00  0.00    -0.146 NA
ATOM     24  N   UNL A   1      34.785  21.515  25.654  1.00  0.00    -0.273 N 
ATOM     25  N   UNL A   1      34.586  19.453  24.933  1.00  0.00    -0.226 N 
ATOM     26  C   UNL A   1      35.497  20.482  25.102  1.00  0.00     0.343 A 
ATOM     27  C   UNL A   1      35.443  22.719  26.086  1.00  0.00     0.157 C 
ATOM     28  H   UNL A   1      34.804  18.568  24.561  1.00  0.00     0.195 HD
ATOM     29  O   UNL A   1      36.685  20.436  24.826  1.00  0.00    -0.246 OA
ENDBRANCH  21  22
ENDBRANCH  20  21
ENDBRANCH  19  20
ENDBRANCH  11  19
ENDBRANCH   7   9
ENDBRANCH   6   7
ENDBRANCH   5   6
ENDBRANCH   4   5
ENDBRANCH   3   4
ENDBRANCH   2   3
ENDBRANCH   1   2
BRANCH   1  30
ATOM     30  O   UNL A   1      36.086  31.171  28.218  1.00  0.00    -0.377 OA
BRANCH  30  31
ATOM     31  C   UNL A   1      35.594  32.493  28.079  1.00  0.00     0.188 C 
BRANCH  31  32
ATOM     32  C   UNL A   1      34.817  33.141  29.246  1.00  0.00     0.188 C 
BRANCH  32  33
ATOM     33  O   UNL A   1      35.541  34.134  29.959  1.00  0.00    -0.376 OA
BRANCH  33  34
ATOM     34  C   UNL A   1      36.056  33.786  31.231  1.00  0.00     0.202 C 
BRANCH  34  35
ATOM     35  C   UNL A   1      35.727  32.385  31.767  1.00  0.00     0.261 C 
BRANCH  35  36
ATOM     36  O   UNL A   1      36.736  31.381  31.598  1.00  0.00    -0.460 OA
BRANCH  36  37
ATOM     37  C   UNL A   1      37.826  31.431  32.393  1.00  0.00     0.338 C 
ATOM     38  O   UNL A   1      37.855  31.690  33.583  1.00  0.00    -0.246 OA
BRANCH  37  39
ATOM     39  C   UNL A   1      38.956  30.880  31.609  1.00  0.00     0.060 A 
ATOM     40  C   UNL A   1      39.979  30.187  32.275  1.00  0.00     0.016 A 
ATOM     41  C   UNL A   1      38.944  30.954  30.214  1.00  0.00     0.016 A 
ATOM     42  C   UNL A   1      40.996  29.571  31.544  1.00  0.00     0.010 A 
ATOM     43  C   UNL A   1      39.987  30.380  29.487  1.00  0.00     0.010 A 
ATOM     44  C   UNL A   1      41.032  29.714  30.152  1.00  0.00    -0.014 A 
BRANCH  44  45
ATOM     45  C   UNL A   1      42.291  29.441  29.423  1.00  0.00     0.031 A 
ATOM     46  C   UNL A   1      42.442  28.073  28.816  1.00  0.00     0.074 A 
ATOM     47  C   UNL A   1      43.275  30.351  29.313  1.00  0.00     0.049 A 
ATOM     48  N   UNL A   1      43.464  27.544  28.200  1.00  0.00    -0.248 NA
ATOM     49  C   UNL A   1      41.276  27.178  28.932  1.00  0.00     0.031 C 
ATOM     50  C   UNL A   1      43.229  31.719  29.823  1.00  0.00     0.029 A 
ATOM     51  N   UNL A   1      44.520  30.242  28.745  1.00  0.00    -0.354 N 
ATOM     52  C   UNL A   1      43.071  26.251  27.872  1.00  0.00     0.074 A 
ATOM     53  C   UNL A   1      41.729  26.068  28.374  1.00  0.00     0.031 C 
ATOM     54  C   UNL A   1      44.408  32.317  29.565  1.00  0.00     0.029 A 
ATOM     55  C   UNL A   1      45.299  31.362  28.907  1.00  0.00     0.049 A 
ATOM     56  H   UNL A   1      44.825  29.438  28.266  1.00  0.00     0.167 HD
ATOM     57  C   UNL A   1      43.769  25.297  27.215  1.00  0.00     0.031 A 
ATOM     58  C   UNL A   1      46.593  31.575  28.591  1.00  0.00     0.031 A 
ATOM     59  C   UNL A   1      45.114  25.476  26.746  1.00  0.00     0.049 A 
ATOM     60  C   UNL A   1      47.379  30.476  27.919  1.00  0.00     0.074 A 
ATOM     61  C   UNL A   1      45.905  24.580  26.051  1.00  0.00     0.029 A 
ATOM     62  N   UNL A   1      45.874  26.619  26.943  1.00  0.00    -0.354 N 
ATOM     63  N   UNL A   1      46.985  29.272  27.575  1.00  0.00    -0.248 NA
ATOM     64  C   UNL A   1      48.783  30.763  27.589  1.00  0.00     0.031 C 
ATOM     65  C   UNL A   1      47.168  25.158  25.887  1.00  0.00     0.029 A 
ATOM     66  C   UNL A   1      47.138  26.441  26.414  1.00  0.00     0.049 A 
ATOM     67  H   UNL A   1      45.559  27.436  27.393  1.00  0.00     0.167 HD
ATOM     68  C   UNL A   1      48.082  28.670  26.964  1.00  0.00     0.074 A 
ATOM     69  C   UNL A   1      49.152  29.646  26.976  1.00  0.00     0.031 C 
ATOM     70  C   UNL A   1      48.192  27.426  26.435  1.00  0.00     0.031 A 
BRANCH  57  71
ATOM     71  C   UNL A   1      43.102  23.962  27.028  1.00  0.00    -0.014 A 
ATOM     72  C   UNL A   1      42.319  23.683  25.893  1.00  0.00     0.010 A 
ATOM     73  C   UNL A   1      43.265  22.967  28.009  1.00  0.00     0.010 A 
ATOM     74  C   UNL A   1      41.673  22.451  25.765  1.00  0.00     0.020 A 
ATOM     75  C   UNL A   1      42.648  21.721  27.869  1.00  0.00     0.020 A 
ATOM     76  C   UNL A   1      41.840  21.479  26.757  1.00  0.00     0.054 A 
BRANCH  76  77
ATOM     77  S   UNL A   1      41.000  19.883  26.561  1.00  0.00     0.124 S 
ATOM     78  O   UNL A   1      40.885  19.433  27.945  1.00  0.00    -0.237 OA
ATOM     79  O   UNL A   1      39.744  20.262  25.918  1.00  0.00    -0.237 OA
ATOM     80  O   UNL A   1      41.916  19.109  25.727  1.00  0.00    -0.744 OA
ENDBRANCH  76  77
ENDBRANCH  57  71
BRANCH  58  81
ATOM     81  C   UNL A   1      47.237  32.874  28.938  1.00  0.00    -0.014 A 
ATOM     82  C   UNL A   1      47.245  33.946  28.030  1.00  0.00     0.010 A 
ATOM     83  C   UNL A   1      47.837  33.046  30.200  1.00  0.00     0.010 A 
ATOM     84  C   UNL A   1      47.842  35.163  28.374  1.00  0.00     0.020 A 
ATOM     85  C   UNL A   1      48.410  34.270  30.559  1.00  0.00     0.020 A 
ATOM     86  C   UNL A   1      48.413  35.321  29.641  1.00  0.00     0.054 A 
BRANCH  86  87
ATOM     87  S   UNL A   1      49.108  36.934  30.095  1.00  0.00     0.124 S 
ATOM     88  O   UNL A   1      49.579  37.436  28.808  1.00  0.00    -0.237 OA
ATOM     89  O   UNL A   1      47.953  37.625  30.661  1.00  0.00    -0.237 OA
ATOM     90  O   UNL A   1      50.155  36.596  31.057  1.00  0.00    -0.744 OA
ENDBRANCH  86  87
ENDBRANCH  58  81
BRANCH  70  91
ATOM     91  C   UNL A   1      49.499  27.047  25.786  1.00  0.00    -0.014 A 
ATOM     92  C   UNL A   1      49.975  27.723  24.649  1.00  0.00     0.010 A 
ATOM     93  C   UNL A   1      50.303  26.060  26.383  1.00  0.00     0.010 A 
ATOM     94  C   UNL A   1      51.225  27.402  24.110  1.00  0.00     0.020 A 
ATOM     95  C   UNL A   1      51.566  25.757  25.866  1.00  0.00     0.020 A 
ATOM     96  C   UNL A   1      52.014  26.424  24.726  1.00  0.00     0.054 A 
BRANCH  96  97
ATOM     97  S   UNL A   1      53.657  26.072  24.044  1.00  0.00     0.124 S 
ATOM     98  O   UNL A   1      54.404  27.272  24.411  1.00  0.00    -0.237 OA
ATOM     99  O   UNL A   1      54.042  24.852  24.750  1.00  0.00    -0.237 OA
ATOM    100  O   UNL A   1      53.412  25.906  22.613  1.00  0.00    -0.744 OA
ENDBRANCH  96  97
ENDBRANCH  70  91
ENDBRANCH  44  45
ENDBRANCH  37  39
ENDBRANCH  36  37
ENDBRANCH  35  36
ENDBRANCH  34  35
ENDBRANCH  33  34
ENDBRANCH  32  33
ENDBRANCH  31  32
ENDBRANCH  30  31
ENDBRANCH   1  30
TORSDOF 29
ENDMDL
MODEL 3
REMARK VINA RESULT:      -7.3      5.705     11.158
REMARK SMILES CC[NH2+][C@]1(C(=O)OCCOCCOCCOCCOC(=O)c2ccc(-c3c4nc(c(-c5ccc(S(=O)(=O)[O-])cc5)c5ccc([nH]5)c(-c5ccc(S(=O)(=O)[O-])cc5)c5nc(c(-c6ccc(S(=O)(=O)[O-])cc6)c6ccc3[nH]6)C=C5)C=C4)cc2)CCC[C@H]1CCSc1n[nH]c(=O)n1C
REMARK SMILES IDX 12 1 11 2 10 3 9 4 8 5 7 6 5 7 6 8 4 9 82 10 85 11 83 12
REMARK SMILES IDX 84 13 3 14 2 17 1 18 86 19 87 20 88 21 89 22 90 23 94 24
REMARK SMILES IDX 91 25 92 26 95 27 93 29 13 30 14 31 15 32 16 33 17 34 18 35
REMARK SMILES IDX 19 36 20 37 21 38 22 39 23 40 81 41 24 42 80 43 25 44 26 45
REMARK SMILES IDX 27 46 74 47 28 48 79 49 73 50 75 51 29 52 78 53 72 54 71 55
REMARK SMILES IDX 30 57 60 58 41 59 59 60 42 61 45 62 58 63 76 64 43 65 44 66
REMARK SMILES IDX 57 68 77 69 46 70 31 71 32 72 40 73 33 74 39 75 34 76 35 77
REMARK SMILES IDX 36 78 37 79 38 80 61 81 62 82 70 83 63 84 69 85 64 86 65 87
REMARK SMILES IDX 66 88 67 89 68 90 47 91 48 92 56 93 49 94 55 95 50 96 51 97
REMARK SMILES IDX 52 98 53 99 54 100
REMARK H PARENT 3 15 3 16 91 28 75 56 45 67
REMARK Flexibility Score: inf
ROOT
ATOM      1  C   UNL A   1      39.617  21.507  26.175  1.00  0.00     0.188 C 
ENDROOT
BRANCH   1   2
ATOM      2  C   UNL A   1      38.506  22.554  25.983  1.00  0.00     0.188 C 
BRANCH   2   3
ATOM      3  O   UNL A   1      37.255  22.075  25.518  1.00  0.00    -0.376 OA
BRANCH   3   4
ATOM      4  C   UNL A   1      37.046  21.936  24.124  1.00  0.00     0.202 C 
BRANCH   4   5
ATOM      5  C   UNL A   1      36.670  23.197  23.322  1.00  0.00     0.261 C 
BRANCH   5   6
ATOM      6  O   UNL A   1      35.274  23.548  23.249  1.00  0.00    -0.459 OA
BRANCH   6   7
ATOM      7  C   UNL A   1      34.820  24.431  24.167  1.00  0.00     0.368 C 
ATOM      8  O   UNL A   1      35.488  24.783  25.127  1.00  0.00    -0.245 OA
BRANCH   7   9
ATOM      9  C   UNL A   1      33.436  25.024  23.864  1.00  0.00     0.197 C 
ATOM     10  C   UNL A   1      33.243  25.200  22.341  1.00  0.00     0.081 C 
ATOM     11  C   UNL A   1      32.298  24.021  24.259  1.00  0.00     0.063 C 
ATOM     12  C   UNL A   1      31.743  25.287  22.179  1.00  0.00     0.008 C 
ATOM     13  C   UNL A   1      31.221  24.233  23.150  1.00  0.00     0.011 C 
BRANCH   9  14
ATOM     14  N   UNL A   1      33.340  26.386  24.499  1.00  0.00    -0.332 N 
ATOM     15  H   UNL A   1      32.434  26.442  24.965  1.00  0.00     0.347 HD
ATOM     16  H   UNL A   1      34.155  26.442  25.110  1.00  0.00     0.347 HD
BRANCH  14  17
ATOM     17  C   UNL A   1      33.453  27.551  23.632  1.00  0.00     0.257 C 
ATOM     18  C   UNL A   1      33.226  28.851  24.385  1.00  0.00     0.071 C 
ENDBRANCH  14  17
ENDBRANCH   9  14
BRANCH  11  19
ATOM     19  C   UNL A   1      32.630  22.517  24.374  1.00  0.00     0.022 C 
BRANCH  19  20
ATOM     20  C   UNL A   1      33.165  21.854  25.666  1.00  0.00     0.079 C 
BRANCH  20  21
ATOM     21  S   UNL A   1      33.584  20.138  26.091  1.00  0.00    -0.086 SA
BRANCH  21  22
ATOM     22  C   UNL A   1      33.166  18.963  24.907  1.00  0.00     0.191 A 
ATOM     23  N   UNL A   1      32.020  19.019  24.283  1.00  0.00    -0.146 NA
ATOM     24  N   UNL A   1      34.055  18.098  24.350  1.00  0.00    -0.273 N 
ATOM     25  N   UNL A   1      32.163  18.141  23.240  1.00  0.00    -0.226 N 
ATOM     26  C   UNL A   1      33.422  17.565  23.257  1.00  0.00     0.343 A 
ATOM     27  C   UNL A   1      35.352  17.628  24.754  1.00  0.00     0.157 C 
ATOM     28  H   UNL A   1      31.467  17.948  22.572  1.00  0.00     0.195 HD
ATOM     29  O   UNL A   1      33.840  16.740  22.460  1.00  0.00    -0.246 OA
ENDBRANCH  21  22
ENDBRANCH  20  21
ENDBRANCH  19  20
ENDBRANCH  11  19
ENDBRANCH   7   9
ENDBRANCH   6   7
ENDBRANCH   5   6
ENDBRANCH   4   5
ENDBRANCH   3   4
ENDBRANCH   2   3
ENDBRANCH   1   2
BRANCH   1  30
ATOM     30  O   UNL A   1      39.367  20.141  25.901  1.00  0.00    -0.377 OA
BRANCH  30  31
ATOM     31  C   UNL A   1      40.439  19.218  25.999  1.00  0.00     0.188 C 
BRANCH  31  32
ATOM     32  C   UNL A   1      41.886  19.744  26.118  1.00  0.00     0.188 C 
BRANCH  32  33
ATOM     33  O   UNL A   1      42.850  18.994  25.393  1.00  0.00    -0.376 OA
BRANCH  33  34
ATOM     34  C   UNL A   1      44.149  19.542  25.263  1.00  0.00     0.202 C 
BRANCH  34  35
ATOM     35  C   UNL A   1      44.254  21.022  24.868  1.00  0.00     0.261 C 
BRANCH  35  36
ATOM     36  O   UNL A   1      44.465  21.957  25.933  1.00  0.00    -0.460 OA
BRANCH  36  37
ATOM     37  C   UNL A   1      43.950  23.199  25.805  1.00  0.00     0.338 C 
ATOM     38  O   UNL A   1      43.270  23.620  24.887  1.00  0.00    -0.246 OA
BRANCH  37  39
ATOM     39  C   UNL A   1      44.163  23.888  27.100  1.00  0.00     0.060 A 
ATOM     40  C   UNL A   1      43.049  24.268  27.865  1.00  0.00     0.016 A 
ATOM     41  C   UNL A   1      45.456  24.055  27.603  1.00  0.00     0.016 A 
ATOM     42  C   UNL A   1      43.227  24.823  29.133  1.00  0.00     0.010 A 
ATOM     43  C   UNL A   1      45.635  24.654  28.850  1.00  0.00     0.010 A 
ATOM     44  C   UNL A   1      44.523  25.067  29.604  1.00  0.00    -0.014 A 
BRANCH  44  45
ATOM     45  C   UNL A   1      44.725  26.015  30.724  1.00  0.00     0.031 A 
ATOM     46  C   UNL A   1      44.794  27.476  30.372  1.00  0.00     0.074 A 
ATOM     47  C   UNL A   1      44.862  25.610  31.998  1.00  0.00     0.049 A 
ATOM     48  N   UNL A   1      45.042  28.505  31.137  1.00  0.00    -0.248 NA
ATOM     49  C   UNL A   1      44.559  27.816  28.957  1.00  0.00     0.031 C 
ATOM     50  C   UNL A   1      44.773  24.229  32.467  1.00  0.00     0.029 A 
ATOM     51  N   UNL A   1      45.125  26.337  33.133  1.00  0.00    -0.354 N 
ATOM     52  C   UNL A   1      45.010  29.610  30.294  1.00  0.00     0.074 A 
ATOM     53  C   UNL A   1      44.741  29.126  28.959  1.00  0.00     0.031 C 
ATOM     54  C   UNL A   1      45.005  24.206  33.793  1.00  0.00     0.029 A 
ATOM     55  C   UNL A   1      45.293  25.563  34.256  1.00  0.00     0.049 A 
ATOM     56  H   UNL A   1      45.187  27.320  33.141  1.00  0.00     0.167 HD
ATOM     57  C   UNL A   1      45.196  30.913  30.602  1.00  0.00     0.031 A 
ATOM     58  C   UNL A   1      45.670  25.910  35.504  1.00  0.00     0.031 A 
ATOM     59  C   UNL A   1      45.493  31.383  31.925  1.00  0.00     0.049 A 
ATOM     60  C   UNL A   1      45.940  27.362  35.816  1.00  0.00     0.074 A 
ATOM     61  C   UNL A   1      45.679  32.686  32.351  1.00  0.00     0.029 A 
ATOM     62  N   UNL A   1      45.670  30.568  33.032  1.00  0.00    -0.354 N 
ATOM     63  N   UNL A   1      45.865  28.404  35.021  1.00  0.00    -0.248 NA
ATOM     64  C   UNL A   1      46.340  27.686  37.193  1.00  0.00     0.031 C 
ATOM     65  C   UNL A   1      46.035  32.652  33.703  1.00  0.00     0.029 A 
ATOM     66  C   UNL A   1      45.997  31.334  34.135  1.00  0.00     0.049 A 
ATOM     67  H   UNL A   1      45.576  29.588  33.032  1.00  0.00     0.167 HD
ATOM     68  C   UNL A   1      46.182  29.509  35.808  1.00  0.00     0.074 A 
ATOM     69  C   UNL A   1      46.437  29.009  37.143  1.00  0.00     0.031 C 
ATOM     70  C   UNL A   1      46.248  30.818  35.459  1.00  0.00     0.031 A 
BRANCH  57  71
ATOM     71  C   UNL A   1      45.141  31.903  29.471  1.00  0.00    -0.014 A 
ATOM     72  C   UNL A   1      43.937  32.527  29.097  1.00  0.00     0.010 A 
ATOM     73  C   UNL A   1      46.320  32.215  28.770  1.00  0.00     0.010 A 
ATOM     74  C   UNL A   1      43.905  33.409  28.013  1.00  0.00     0.020 A 
ATOM     75  C   UNL A   1      46.299  33.120  27.706  1.00  0.00     0.020 A 
ATOM     76  C   UNL A   1      45.086  33.697  27.323  1.00  0.00     0.054 A 
BRANCH  76  77
ATOM     77  S   UNL A   1      45.019  34.853  25.928  1.00  0.00     0.124 S 
ATOM     78  O   UNL A   1      45.275  36.132  26.585  1.00  0.00    -0.237 OA
ATOM     79  O   UNL A   1      46.088  34.367  25.060  1.00  0.00    -0.237 OA
ATOM     80  O   UNL A   1      43.667  34.684  25.402  1.00  0.00    -0.744 OA
ENDBRANCH  76  77
ENDBRANCH  57  71
BRANCH  58  81
ATOM     81  C   UNL A   1      45.849  24.858  36.544  1.00  0.00    -0.014 A 
ATOM     82  C   UNL A   1      44.833  24.575  37.472  1.00  0.00     0.010 A 
ATOM     83  C   UNL A   1      47.045  24.117  36.597  1.00  0.00     0.010 A 
ATOM     84  C   UNL A   1      45.009  23.576  38.436  1.00  0.00     0.020 A 
ATOM     85  C   UNL A   1      47.215  23.099  37.540  1.00  0.00     0.020 A 
ATOM     86  C   UNL A   1      46.197  22.837  38.457  1.00  0.00     0.054 A 
BRANCH  86  87
ATOM     87  S   UNL A   1      46.370  21.492  39.663  1.00  0.00     0.124 S 
ATOM     88  O   UNL A   1      45.323  21.810  40.628  1.00  0.00    -0.237 OA
ATOM     89  O   UNL A   1      46.139  20.305  38.844  1.00  0.00    -0.237 OA
ATOM     90  O   UNL A   1      47.739  21.645  40.150  1.00  0.00    -0.744 OA
ENDBRANCH  86  87
ENDBRANCH  58  81
BRANCH  70  91
ATOM     91  C   UNL A   1      46.573  31.820  36.537  1.00  0.00    -0.014 A 
ATOM     92  C   UNL A   1      47.894  32.234  36.778  1.00  0.00     0.010 A 
ATOM     93  C   UNL A   1      45.523  32.423  37.254  1.00  0.00     0.010 A 
ATOM     94  C   UNL A   1      48.160  33.220  37.734  1.00  0.00     0.020 A 
ATOM     95  C   UNL A   1      45.782  33.430  38.188  1.00  0.00     0.020 A 
ATOM     96  C   UNL A   1      47.101  33.815  38.429  1.00  0.00     0.054 A 
BRANCH  96  97
ATOM     97  S   UNL A   1      47.469  35.135  39.616  1.00  0.00     0.124 S 
ATOM     98  O   UNL A   1      46.899  36.307  38.957  1.00  0.00    -0.237 OA
ATOM     99  O   UNL A   1      46.770  34.689  40.819  1.00  0.00    -0.237 OA
ATOM    100  O   UNL A   1      48.928  35.123  39.710  1.00  0.00    -0.744 OA
ENDBRANCH  96  97
ENDBRANCH  70  91
ENDBRANCH  44  45
ENDBRANCH  37  39
ENDBRANCH  36  37
ENDBRANCH  35  36
ENDBRANCH  34  35
ENDBRANCH  33  34
ENDBRANCH  32  33
ENDBRANCH  31  32
ENDBRANCH  30  31
ENDBRANCH   1  30
TORSDOF 29
ENDMDL
