MODEL 1
REMARK VINA RESULT:      -9.2      0.000      0.000
REMARK SMILES CCC(CC)(NC(=O)NC1CCC(C)(C)CC1)C(=O)OCCOCCOCCOCCOC(=O)c1ccc(-c2c3nc(c(-c4ccc(S(=O)(=O)[O-])cc4)c4ccc([nH]4)c(-c4ccc(S(=O)(=O)[O-])cc4)c4nc(c(-c5ccc(S(=O)(=O)[O-])cc5)c5ccc2[nH]5)C=C4)C=C3)cc1
REMARK SMILES IDX 27 1 26 2 25 3 24 4 23 5 22 6 21 7 20 8 18 9 19 10 3 11 2 12
REMARK SMILES IDX 1 13 4 14 5 15 6 16 7 17 8 19 9 20 10 22 11 23 17 24 12 25
REMARK SMILES IDX 16 26 13 27 14 28 15 29 28 30 29 31 30 32 31 33 32 34 33 35
REMARK SMILES IDX 34 36 35 37 36 38 94 39 37 40 93 41 38 42 39 43 40 44 87 45
REMARK SMILES IDX 41 46 92 47 86 48 88 49 42 50 91 51 85 52 84 53 43 55 73 56
REMARK SMILES IDX 54 57 72 58 55 59 58 60 71 61 89 62 56 63 57 64 70 66 90 67
REMARK SMILES IDX 59 68 44 69 45 70 53 71 46 72 52 73 47 74 48 75 49 76 50 77
REMARK SMILES IDX 51 78 74 79 75 80 83 81 76 82 82 83 77 84 78 85 79 86 80 87
REMARK SMILES IDX 81 88 60 89 61 90 69 91 62 92 68 93 63 94 64 95 65 96 66 97
REMARK SMILES IDX 67 98
REMARK H PARENT 6 18 9 21 88 54 58 65
REMARK Flexibility Score: inf
ROOT
ATOM      1  C   UNL A   1      40.988  21.699  27.852  1.00  0.00     0.188 C 
ENDROOT
BRANCH   1   2
ATOM      2  O   UNL A   1      39.716  22.033  27.251  1.00  0.00    -0.377 OA
BRANCH   2   3
ATOM      3  C   UNL A   1      39.245  21.541  25.971  1.00  0.00     0.188 C 
BRANCH   3   4
ATOM      4  C   UNL A   1      37.826  22.101  25.475  1.00  0.00     0.188 C 
BRANCH   4   5
ATOM      5  O   UNL A   1      36.613  21.344  25.639  1.00  0.00    -0.376 OA
BRANCH   5   6
ATOM      6  C   UNL A   1      36.166  20.217  24.828  1.00  0.00     0.202 C 
BRANCH   6   7
ATOM      7  C   UNL A   1      34.794  19.492  24.714  1.00  0.00     0.261 C 
BRANCH   7   8
ATOM      8  O   UNL A   1      33.715  20.341  24.419  1.00  0.00    -0.461 OA
BRANCH   8   9
ATOM      9  C   UNL A   1      32.783  20.375  25.382  1.00  0.00     0.331 C 
ATOM     10  O   UNL A   1      32.295  19.378  25.904  1.00  0.00    -0.249 OA
BRANCH   9  11
ATOM     11  C   UNL A   1      32.542  21.816  25.841  1.00  0.00     0.139 C 
BRANCH  11  12
ATOM     12  C   UNL A   1      33.074  22.837  24.767  1.00  0.00     0.037 C 
ATOM     13  C   UNL A   1      32.105  23.246  23.645  1.00  0.00     0.007 C 
ENDBRANCH  11  12
BRANCH  11  14
ATOM     14  C   UNL A   1      33.416  21.918  27.153  1.00  0.00     0.037 C 
ATOM     15  C   UNL A   1      34.457  23.033  27.234  1.00  0.00     0.007 C 
ENDBRANCH  11  14
BRANCH  11  16
ATOM     16  N   UNL A   1      31.082  22.117  26.245  1.00  0.00    -0.322 N 
ATOM     17  C   UNL A   1      30.150  22.984  26.631  1.00  0.00     0.315 C 
ATOM     18  H   UNL A   1      30.617  21.251  26.188  1.00  0.00     0.166 HD
ATOM     19  O   UNL A   1      29.212  22.408  27.219  1.00  0.00    -0.249 OA
ATOM     20  N   UNL A   1      29.929  24.293  26.508  1.00  0.00    -0.335 N 
ATOM     21  H   UNL A   1      29.107  24.427  27.032  1.00  0.00     0.165 HD
BRANCH  20  22
ATOM     22  C   UNL A   1      30.251  25.730  25.994  1.00  0.00     0.083 C 
ATOM     23  C   UNL A   1      31.729  26.039  26.230  1.00  0.00     0.025 C 
ATOM     24  C   UNL A   1      29.884  26.079  24.532  1.00  0.00     0.025 C 
ATOM     25  C   UNL A   1      32.427  27.143  25.400  1.00  0.00     0.008 C 
ATOM     26  C   UNL A   1      30.774  26.806  23.550  1.00  0.00     0.008 C 
ATOM     27  C   UNL A   1      31.735  27.781  24.177  1.00  0.00    -0.035 C 
ATOM     28  C   UNL A   1      32.778  28.110  23.082  1.00  0.00     0.011 C 
ATOM     29  C   UNL A   1      31.003  29.090  24.528  1.00  0.00     0.011 C 
ENDBRANCH  20  22
ENDBRANCH  11  16
ENDBRANCH   9  11
ENDBRANCH   8   9
ENDBRANCH   7   8
ENDBRANCH   6   7
ENDBRANCH   5   6
ENDBRANCH   4   5
ENDBRANCH   3   4
ENDBRANCH   2   3
ENDBRANCH   1   2
BRANCH   1  30
ATOM     30  C   UNL A   1      41.914  20.623  27.251  1.00  0.00     0.188 C 
BRANCH  30  31
ATOM     31  O   UNL A   1      43.207  21.024  26.835  1.00  0.00    -0.376 OA
BRANCH  31  32
ATOM     32  C   UNL A   1      43.278  21.580  25.531  1.00  0.00     0.202 C 
BRANCH  32  33
ATOM     33  C   UNL A   1      43.824  23.016  25.417  1.00  0.00     0.261 C 
BRANCH  33  34
ATOM     34  O   UNL A   1      43.057  24.037  26.104  1.00  0.00    -0.460 OA
BRANCH  34  35
ATOM     35  C   UNL A   1      43.589  25.274  26.147  1.00  0.00     0.338 C 
ATOM     36  O   UNL A   1      44.511  25.699  25.427  1.00  0.00    -0.246 OA
BRANCH  35  37
ATOM     37  C   UNL A   1      42.895  26.160  27.105  1.00  0.00     0.060 A 
ATOM     38  C   UNL A   1      43.397  27.451  27.332  1.00  0.00     0.016 A 
ATOM     39  C   UNL A   1      41.870  25.670  27.919  1.00  0.00     0.016 A 
ATOM     40  C   UNL A   1      42.912  28.233  28.393  1.00  0.00     0.010 A 
ATOM     41  C   UNL A   1      41.395  26.450  28.988  1.00  0.00     0.010 A 
ATOM     42  C   UNL A   1      41.937  27.721  29.263  1.00  0.00    -0.014 A 
BRANCH  42  43
ATOM     43  C   UNL A   1      41.608  28.400  30.554  1.00  0.00     0.031 A 
ATOM     44  C   UNL A   1      40.450  29.373  30.589  1.00  0.00     0.074 A 
ATOM     45  C   UNL A   1      42.327  28.205  31.677  1.00  0.00     0.049 A 
ATOM     46  N   UNL A   1      40.083  30.199  31.537  1.00  0.00    -0.248 NA
ATOM     47  C   UNL A   1      39.597  29.419  29.390  1.00  0.00     0.031 C 
ATOM     48  C   UNL A   1      43.429  27.257  31.827  1.00  0.00     0.029 A 
ATOM     49  N   UNL A   1      42.250  28.823  32.906  1.00  0.00    -0.354 N 
ATOM     50  C   UNL A   1      38.976  30.881  31.040  1.00  0.00     0.074 A 
ATOM     51  C   UNL A   1      38.735  30.376  29.705  1.00  0.00     0.031 C 
ATOM     52  C   UNL A   1      43.944  27.378  33.065  1.00  0.00     0.029 A 
ATOM     53  C   UNL A   1      43.243  28.443  33.781  1.00  0.00     0.049 A 
ATOM     54  H   UNL A   1      41.550  29.476  33.137  1.00  0.00     0.167 HD
ATOM     55  C   UNL A   1      38.228  31.845  31.634  1.00  0.00     0.031 A 
ATOM     56  C   UNL A   1      43.578  28.924  34.998  1.00  0.00     0.031 A 
ATOM     57  C   UNL A   1      38.462  32.359  32.959  1.00  0.00     0.049 A 
ATOM     58  C   UNL A   1      42.789  30.064  35.603  1.00  0.00     0.074 A 
ATOM     59  C   UNL A   1      37.742  33.324  33.644  1.00  0.00     0.029 A 
ATOM     60  N   UNL A   1      39.492  31.963  33.796  1.00  0.00    -0.354 N 
ATOM     61  N   UNL A   1      41.739  30.688  35.125  1.00  0.00    -0.248 NA
ATOM     62  C   UNL A   1      43.234  30.563  36.915  1.00  0.00     0.031 C 
ATOM     63  C   UNL A   1      38.375  33.557  34.869  1.00  0.00     0.029 A 
ATOM     64  C   UNL A   1      39.447  32.687  34.976  1.00  0.00     0.049 A 
ATOM     65  H   UNL A   1      40.158  31.269  33.583  1.00  0.00     0.167 HD
ATOM     66  C   UNL A   1      41.382  31.628  36.091  1.00  0.00     0.074 A 
ATOM     67  C   UNL A   1      42.316  31.480  37.186  1.00  0.00     0.031 C 
ATOM     68  C   UNL A   1      40.372  32.533  36.070  1.00  0.00     0.031 A 
BRANCH  55  69
ATOM     69  C   UNL A   1      37.099  32.450  30.840  1.00  0.00    -0.014 A 
ATOM     70  C   UNL A   1      37.318  33.517  29.950  1.00  0.00     0.010 A 
ATOM     71  C   UNL A   1      35.811  31.889  30.929  1.00  0.00     0.010 A 
ATOM     72  C   UNL A   1      36.265  34.024  29.182  1.00  0.00     0.020 A 
ATOM     73  C   UNL A   1      34.763  32.374  30.143  1.00  0.00     0.020 A 
ATOM     74  C   UNL A   1      34.995  33.447  29.281  1.00  0.00     0.054 A 
BRANCH  74  75
ATOM     75  S   UNL A   1      33.661  34.094  28.235  1.00  0.00     0.124 S 
ATOM     76  O   UNL A   1      32.861  34.849  29.198  1.00  0.00    -0.237 OA
ATOM     77  O   UNL A   1      34.387  34.899  27.254  1.00  0.00    -0.237 OA
ATOM     78  O   UNL A   1      33.022  32.893  27.702  1.00  0.00    -0.744 OA
ENDBRANCH  74  75
ENDBRANCH  55  69
BRANCH  56  79
ATOM     79  C   UNL A   1      44.759  28.375  35.729  1.00  0.00    -0.014 A 
ATOM     80  C   UNL A   1      44.617  27.302  36.627  1.00  0.00     0.010 A 
ATOM     81  C   UNL A   1      46.031  28.957  35.562  1.00  0.00     0.010 A 
ATOM     82  C   UNL A   1      45.713  26.840  37.363  1.00  0.00     0.020 A 
ATOM     83  C   UNL A   1      47.137  28.476  36.270  1.00  0.00     0.020 A 
ATOM     84  C   UNL A   1      46.968  27.429  37.178  1.00  0.00     0.054 A 
BRANCH  84  85
ATOM     85  S   UNL A   1      48.384  26.787  38.115  1.00  0.00     0.124 S 
ATOM     86  O   UNL A   1      48.965  25.836  37.173  1.00  0.00    -0.237 OA
ATOM     87  O   UNL A   1      49.170  27.994  38.364  1.00  0.00    -0.237 OA
ATOM     88  O   UNL A   1      47.769  26.198  39.303  1.00  0.00    -0.744 OA
ENDBRANCH  84  85
ENDBRANCH  56  79
BRANCH  68  89
ATOM     89  C   UNL A   1      40.182  33.410  37.283  1.00  0.00    -0.014 A 
ATOM     90  C   UNL A   1      39.382  33.006  38.366  1.00  0.00     0.010 A 
ATOM     91  C   UNL A   1      40.867  34.639  37.364  1.00  0.00     0.010 A 
ATOM     92  C   UNL A   1      39.243  33.827  39.491  1.00  0.00     0.020 A 
ATOM     93  C   UNL A   1      40.756  35.447  38.500  1.00  0.00     0.020 A 
ATOM     94  C   UNL A   1      39.931  35.042  39.551  1.00  0.00     0.054 A 
BRANCH  94  95
ATOM     95  S   UNL A   1      39.767  36.069  41.038  1.00  0.00     0.124 S 
ATOM     96  O   UNL A   1      38.442  36.656  40.857  1.00  0.00    -0.237 OA
ATOM     97  O   UNL A   1      39.879  35.092  42.116  1.00  0.00    -0.237 OA
ATOM     98  O   UNL A   1      40.882  37.009  40.937  1.00  0.00    -0.744 OA
ENDBRANCH  94  95
ENDBRANCH  68  89
ENDBRANCH  42  43
ENDBRANCH  35  37
ENDBRANCH  34  35
ENDBRANCH  33  34
ENDBRANCH  32  33
ENDBRANCH  31  32
ENDBRANCH  30  31
ENDBRANCH   1  30
TORSDOF 27
ENDMDL
MODEL 2
REMARK VINA RESULT:      -9.0      1.079      2.024
REMARK SMILES CCC(CC)(NC(=O)NC1CCC(C)(C)CC1)C(=O)OCCOCCOCCOCCOC(=O)c1ccc(-c2c3nc(c(-c4ccc(S(=O)(=O)[O-])cc4)c4ccc([nH]4)c(-c4ccc(S(=O)(=O)[O-])cc4)c4nc(c(-c5ccc(S(=O)(=O)[O-])cc5)c5ccc2[nH]5)C=C4)C=C3)cc1
REMARK SMILES IDX 27 1 26 2 25 3 24 4 23 5 22 6 21 7 20 8 18 9 19 10 3 11 2 12
REMARK SMILES IDX 1 13 4 14 5 15 6 16 7 17 8 19 9 20 10 22 11 23 17 24 12 25
REMARK SMILES IDX 16 26 13 27 14 28 15 29 28 30 29 31 30 32 31 33 32 34 33 35
REMARK SMILES IDX 34 36 35 37 36 38 94 39 37 40 93 41 38 42 39 43 40 44 87 45
REMARK SMILES IDX 41 46 92 47 86 48 88 49 42 50 91 51 85 52 84 53 43 55 73 56
REMARK SMILES IDX 54 57 72 58 55 59 58 60 71 61 89 62 56 63 57 64 70 66 90 67
REMARK SMILES IDX 59 68 44 69 45 70 53 71 46 72 52 73 47 74 48 75 49 76 50 77
REMARK SMILES IDX 51 78 74 79 75 80 83 81 76 82 82 83 77 84 78 85 79 86 80 87
REMARK SMILES IDX 81 88 60 89 61 90 69 91 62 92 68 93 63 94 64 95 65 96 66 97
REMARK SMILES IDX 67 98
REMARK H PARENT 6 18 9 21 88 54 58 65
REMARK Flexibility Score: inf
ROOT
ATOM      1  C   UNL A   1      41.229  22.475  27.773  1.00  0.00     0.188 C 
ENDROOT
BRANCH   1   2
ATOM      2  O   UNL A   1      39.937  21.956  27.386  1.00  0.00    -0.377 OA
BRANCH   2   3
ATOM      3  C   UNL A   1      39.620  21.393  26.087  1.00  0.00     0.188 C 
BRANCH   3   4
ATOM      4  C   UNL A   1      38.233  21.862  25.431  1.00  0.00     0.188 C 
BRANCH   4   5
ATOM      5  O   UNL A   1      36.989  21.208  25.742  1.00  0.00    -0.376 OA
BRANCH   5   6
ATOM      6  C   UNL A   1      36.258  20.267  24.902  1.00  0.00     0.202 C 
BRANCH   6   7
ATOM      7  C   UNL A   1      34.821  19.677  25.000  1.00  0.00     0.261 C 
BRANCH   7   8
ATOM      8  O   UNL A   1      33.872  20.335  24.200  1.00  0.00    -0.461 OA
BRANCH   8   9
ATOM      9  C   UNL A   1      32.784  20.728  24.877  1.00  0.00     0.331 C 
ATOM     10  O   UNL A   1      31.785  20.033  25.039  1.00  0.00    -0.249 OA
BRANCH   9  11
ATOM     11  C   UNL A   1      33.031  22.082  25.546  1.00  0.00     0.139 C 
BRANCH  11  12
ATOM     12  C   UNL A   1      33.186  21.911  27.104  1.00  0.00     0.037 C 
ATOM     13  C   UNL A   1      34.034  22.959  27.845  1.00  0.00     0.007 C 
ENDBRANCH  11  12
BRANCH  11  14
ATOM     14  C   UNL A   1      31.705  22.880  25.227  1.00  0.00     0.037 C 
ATOM     15  C   UNL A   1      30.708  23.094  26.364  1.00  0.00     0.007 C 
ENDBRANCH  11  14
BRANCH  11  16
ATOM     16  N   UNL A   1      34.201  22.886  24.938  1.00  0.00    -0.322 N 
ATOM     17  C   UNL A   1      34.637  23.890  24.181  1.00  0.00     0.315 C 
ATOM     18  H   UNL A   1      35.015  22.444  25.270  1.00  0.00     0.166 HD
ATOM     19  O   UNL A   1      35.796  23.675  23.771  1.00  0.00    -0.249 OA
ATOM     20  N   UNL A   1      34.186  25.083  23.794  1.00  0.00    -0.335 N 
ATOM     21  H   UNL A   1      34.896  25.400  23.190  1.00  0.00     0.165 HD
BRANCH  20  22
ATOM     22  C   UNL A   1      33.158  26.255  23.768  1.00  0.00     0.083 C 
ATOM     23  C   UNL A   1      32.356  26.203  22.468  1.00  0.00     0.025 C 
ATOM     24  C   UNL A   1      32.186  26.397  24.963  1.00  0.00     0.025 C 
ATOM     25  C   UNL A   1      30.977  26.900  22.386  1.00  0.00     0.008 C 
ATOM     26  C   UNL A   1      30.700  26.658  24.863  1.00  0.00     0.008 C 
ATOM     27  C   UNL A   1      30.281  27.447  23.652  1.00  0.00    -0.035 C 
ATOM     28  C   UNL A   1      28.748  27.270  23.540  1.00  0.00     0.011 C 
ATOM     29  C   UNL A   1      30.560  28.946  23.877  1.00  0.00     0.011 C 
ENDBRANCH  20  22
ENDBRANCH  11  16
ENDBRANCH   9  11
ENDBRANCH   8   9
ENDBRANCH   7   8
ENDBRANCH   6   7
ENDBRANCH   5   6
ENDBRANCH   4   5
ENDBRANCH   3   4
ENDBRANCH   2   3
ENDBRANCH   1   2
BRANCH   1  30
ATOM     30  C   UNL A   1      42.519  21.641  27.626  1.00  0.00     0.188 C 
BRANCH  30  31
ATOM     31  O   UNL A   1      43.499  22.101  26.712  1.00  0.00    -0.376 OA
BRANCH  31  32
ATOM     32  C   UNL A   1      43.018  22.415  25.415  1.00  0.00     0.202 C 
BRANCH  32  33
ATOM     33  C   UNL A   1      43.387  23.802  24.855  1.00  0.00     0.261 C 
BRANCH  33  34
ATOM     34  O   UNL A   1      42.612  24.915  25.369  1.00  0.00    -0.460 OA
BRANCH  34  35
ATOM     35  C   UNL A   1      43.301  25.973  25.841  1.00  0.00     0.338 C 
ATOM     36  O   UNL A   1      44.413  26.360  25.436  1.00  0.00    -0.246 OA
BRANCH  35  37
ATOM     37  C   UNL A   1      42.553  26.729  26.866  1.00  0.00     0.060 A 
ATOM     38  C   UNL A   1      42.831  28.093  27.050  1.00  0.00     0.016 A 
ATOM     39  C   UNL A   1      41.718  26.071  27.773  1.00  0.00     0.016 A 
ATOM     40  C   UNL A   1      42.317  28.786  28.159  1.00  0.00     0.010 A 
ATOM     41  C   UNL A   1      41.214  26.765  28.888  1.00  0.00     0.010 A 
ATOM     42  C   UNL A   1      41.540  28.116  29.116  1.00  0.00    -0.014 A 
BRANCH  42  43
ATOM     43  C   UNL A   1      41.219  28.740  30.437  1.00  0.00     0.031 A 
ATOM     44  C   UNL A   1      40.074  29.724  30.517  1.00  0.00     0.074 A 
ATOM     45  C   UNL A   1      41.936  28.485  31.550  1.00  0.00     0.049 A 
ATOM     46  N   UNL A   1      39.716  30.511  31.501  1.00  0.00    -0.248 NA
ATOM     47  C   UNL A   1      39.221  29.835  29.321  1.00  0.00     0.031 C 
ATOM     48  C   UNL A   1      43.026  27.518  31.655  1.00  0.00     0.029 A 
ATOM     49  N   UNL A   1      41.866  29.047  32.805  1.00  0.00    -0.354 N 
ATOM     50  C   UNL A   1      38.618  31.228  31.037  1.00  0.00     0.074 A 
ATOM     51  C   UNL A   1      38.371  30.787  29.680  1.00  0.00     0.031 C 
ATOM     52  C   UNL A   1      43.543  27.576  32.898  1.00  0.00     0.029 A 
ATOM     53  C   UNL A   1      42.855  28.617  33.662  1.00  0.00     0.049 A 
ATOM     54  H   UNL A   1      41.175  29.698  33.066  1.00  0.00     0.167 HD
ATOM     55  C   UNL A   1      37.882  32.173  31.674  1.00  0.00     0.031 A 
ATOM     56  C   UNL A   1      43.196  29.038  34.899  1.00  0.00     0.031 A 
ATOM     57  C   UNL A   1      38.121  32.624  33.021  1.00  0.00     0.049 A 
ATOM     58  C   UNL A   1      42.421  30.158  35.556  1.00  0.00     0.074 A 
ATOM     59  C   UNL A   1      37.413  33.565  33.749  1.00  0.00     0.029 A 
ATOM     60  N   UNL A   1      39.147  32.177  33.838  1.00  0.00    -0.354 N 
ATOM     61  N   UNL A   1      41.378  30.816  35.107  1.00  0.00    -0.248 NA
ATOM     62  C   UNL A   1      42.871  30.591  36.889  1.00  0.00     0.031 C 
ATOM     63  C   UNL A   1      38.049  33.734  34.983  1.00  0.00     0.029 A 
ATOM     64  C   UNL A   1      39.110  32.848  35.050  1.00  0.00     0.049 A 
ATOM     65  H   UNL A   1      39.804  31.485  33.594  1.00  0.00     0.167 HD
ATOM     66  C   UNL A   1      41.033  31.716  36.115  1.00  0.00     0.074 A 
ATOM     67  C   UNL A   1      41.965  31.507  37.201  1.00  0.00     0.031 C 
ATOM     68  C   UNL A   1      40.034  32.632  36.136  1.00  0.00     0.031 A 
BRANCH  55  69
ATOM     69  C   UNL A   1      36.760  32.827  30.909  1.00  0.00    -0.014 A 
ATOM     70  C   UNL A   1      35.414  32.521  31.177  1.00  0.00     0.010 A 
ATOM     71  C   UNL A   1      37.057  33.824  29.961  1.00  0.00     0.010 A 
ATOM     72  C   UNL A   1      34.389  33.182  30.495  1.00  0.00     0.020 A 
ATOM     73  C   UNL A   1      36.035  34.508  29.297  1.00  0.00     0.020 A 
ATOM     74  C   UNL A   1      34.706  34.174  29.561  1.00  0.00     0.054 A 
BRANCH  74  75
ATOM     75  S   UNL A   1      33.353  35.051  28.728  1.00  0.00     0.124 S 
ATOM     76  O   UNL A   1      34.071  36.101  28.009  1.00  0.00    -0.237 OA
ATOM     77  O   UNL A   1      32.765  34.007  27.891  1.00  0.00    -0.237 OA
ATOM     78  O   UNL A   1      32.509  35.514  29.826  1.00  0.00    -0.744 OA
ENDBRANCH  74  75
ENDBRANCH  55  69
BRANCH  56  79
ATOM     79  C   UNL A   1      44.370  28.441  35.603  1.00  0.00    -0.014 A 
ATOM     80  C   UNL A   1      45.667  28.948  35.402  1.00  0.00     0.010 A 
ATOM     81  C   UNL A   1      44.200  27.327  36.447  1.00  0.00     0.010 A 
ATOM     82  C   UNL A   1      46.771  28.338  36.007  1.00  0.00     0.020 A 
ATOM     83  C   UNL A   1      45.297  26.735  37.082  1.00  0.00     0.020 A 
ATOM     84  C   UNL A   1      46.579  27.236  36.845  1.00  0.00     0.054 A 
BRANCH  84  85
ATOM     85  S   UNL A   1      48.022  26.486  37.651  1.00  0.00     0.124 S 
ATOM     86  O   UNL A   1      47.892  25.085  37.266  1.00  0.00    -0.237 OA
ATOM     87  O   UNL A   1      49.135  27.211  37.041  1.00  0.00    -0.237 OA
ATOM     88  O   UNL A   1      47.807  26.770  39.069  1.00  0.00    -0.744 OA
ENDBRANCH  84  85
ENDBRANCH  56  79
BRANCH  68  89
ATOM     89  C   UNL A   1      39.854  33.456  37.388  1.00  0.00    -0.014 A 
ATOM     90  C   UNL A   1      40.571  34.648  37.594  1.00  0.00     0.010 A 
ATOM     91  C   UNL A   1      38.906  33.057  38.350  1.00  0.00     0.010 A 
ATOM     92  C   UNL A   1      40.367  35.407  38.751  1.00  0.00     0.020 A 
ATOM     93  C   UNL A   1      38.677  33.829  39.493  1.00  0.00     0.020 A 
ATOM     94  C   UNL A   1      39.421  34.993  39.694  1.00  0.00     0.054 A 
BRANCH  94  95
ATOM     95  S   UNL A   1      39.147  36.016  41.167  1.00  0.00     0.124 S 
ATOM     96  O   UNL A   1      40.504  36.185  41.677  1.00  0.00    -0.237 OA
ATOM     97  O   UNL A   1      38.530  37.218  40.612  1.00  0.00    -0.237 OA
ATOM     98  O   UNL A   1      38.266  35.198  42.000  1.00  0.00    -0.744 OA
ENDBRANCH  94  95
ENDBRANCH  68  89
ENDBRANCH  42  43
ENDBRANCH  35  37
ENDBRANCH  34  35
ENDBRANCH  33  34
ENDBRANCH  32  33
ENDBRANCH  31  32
ENDBRANCH  30  31
ENDBRANCH   1  30
TORSDOF 27
ENDMDL
MODEL 3
REMARK VINA RESULT:      -8.6      6.247     10.899
REMARK SMILES CCC(CC)(NC(=O)NC1CCC(C)(C)CC1)C(=O)OCCOCCOCCOCCOC(=O)c1ccc(-c2c3nc(c(-c4ccc(S(=O)(=O)[O-])cc4)c4ccc([nH]4)c(-c4ccc(S(=O)(=O)[O-])cc4)c4nc(c(-c5ccc(S(=O)(=O)[O-])cc5)c5ccc2[nH]5)C=C4)C=C3)cc1
REMARK SMILES IDX 27 1 26 2 25 3 24 4 23 5 22 6 21 7 20 8 18 9 19 10 3 11 2 12
REMARK SMILES IDX 1 13 4 14 5 15 6 16 7 17 8 19 9 20 10 22 11 23 17 24 12 25
REMARK SMILES IDX 16 26 13 27 14 28 15 29 28 30 29 31 30 32 31 33 32 34 33 35
REMARK SMILES IDX 34 36 35 37 36 38 94 39 37 40 93 41 38 42 39 43 40 44 87 45
REMARK SMILES IDX 41 46 92 47 86 48 88 49 42 50 91 51 85 52 84 53 43 55 73 56
REMARK SMILES IDX 54 57 72 58 55 59 58 60 71 61 89 62 56 63 57 64 70 66 90 67
REMARK SMILES IDX 59 68 44 69 45 70 53 71 46 72 52 73 47 74 48 75 49 76 50 77
REMARK SMILES IDX 51 78 74 79 75 80 83 81 76 82 82 83 77 84 78 85 79 86 80 87
REMARK SMILES IDX 81 88 60 89 61 90 69 91 62 92 68 93 63 94 64 95 65 96 66 97
REMARK SMILES IDX 67 98
REMARK H PARENT 6 18 9 21 88 54 58 65
REMARK Flexibility Score: inf
ROOT
ATOM      1  C   UNL A   1      40.124  22.501  26.567  1.00  0.00     0.188 C 
ENDROOT
BRANCH   1   2
ATOM      2  O   UNL A   1      38.687  22.634  26.474  1.00  0.00    -0.377 OA
BRANCH   2   3
ATOM      3  C   UNL A   1      37.986  23.836  26.066  1.00  0.00     0.188 C 
BRANCH   3   4
ATOM      4  C   UNL A   1      36.383  23.764  26.089  1.00  0.00     0.188 C 
BRANCH   4   5
ATOM      5  O   UNL A   1      35.581  24.450  25.112  1.00  0.00    -0.376 OA
BRANCH   5   6
ATOM      6  C   UNL A   1      34.360  25.210  25.356  1.00  0.00     0.202 C 
BRANCH   6   7
ATOM      7  C   UNL A   1      34.041  26.731  25.272  1.00  0.00     0.261 C 
BRANCH   7   8
ATOM      8  O   UNL A   1      33.302  27.103  24.136  1.00  0.00    -0.461 OA
BRANCH   8   9
ATOM      9  C   UNL A   1      32.037  27.451  24.413  1.00  0.00     0.331 C 
ATOM     10  O   UNL A   1      31.710  28.174  25.349  1.00  0.00    -0.249 OA
BRANCH   9  11
ATOM     11  C   UNL A   1      31.095  26.957  23.312  1.00  0.00     0.139 C 
BRANCH  11  12
ATOM     12  C   UNL A   1      30.049  28.072  22.935  1.00  0.00     0.037 C 
ATOM     13  C   UNL A   1      30.580  29.312  22.195  1.00  0.00     0.007 C 
ENDBRANCH  11  12
BRANCH  11  14
ATOM     14  C   UNL A   1      30.355  25.743  24.000  1.00  0.00     0.037 C 
ATOM     15  C   UNL A   1      29.024  26.019  24.697  1.00  0.00     0.007 C 
ENDBRANCH  11  14
BRANCH  11  16
ATOM     16  N   UNL A   1      31.814  26.400  22.064  1.00  0.00    -0.322 N 
ATOM     17  C   UNL A   1      32.599  25.486  21.500  1.00  0.00     0.315 C 
ATOM     18  H   UNL A   1      31.578  27.018  21.335  1.00  0.00     0.166 HD
ATOM     19  O   UNL A   1      33.135  25.928  20.463  1.00  0.00    -0.249 OA
ATOM     20  N   UNL A   1      32.918  24.210  21.719  1.00  0.00    -0.335 N 
ATOM     21  H   UNL A   1      33.591  24.030  21.023  1.00  0.00     0.165 HD
BRANCH  20  22
ATOM     22  C   UNL A   1      32.816  22.845  22.466  1.00  0.00     0.083 C 
ATOM     23  C   UNL A   1      34.187  22.462  23.022  1.00  0.00     0.025 C 
ATOM     24  C   UNL A   1      31.754  22.703  23.581  1.00  0.00     0.025 C 
ATOM     25  C   UNL A   1      34.289  21.457  24.194  1.00  0.00     0.008 C 
ATOM     26  C   UNL A   1      31.983  22.085  24.942  1.00  0.00     0.008 C 
ATOM     27  C   UNL A   1      33.034  21.007  24.973  1.00  0.00    -0.035 C 
ATOM     28  C   UNL A   1      33.378  20.794  26.466  1.00  0.00     0.011 C 
ATOM     29  C   UNL A   1      32.449  19.686  24.438  1.00  0.00     0.011 C 
ENDBRANCH  20  22
ENDBRANCH  11  16
ENDBRANCH   9  11
ENDBRANCH   8   9
ENDBRANCH   7   8
ENDBRANCH   6   7
ENDBRANCH   5   6
ENDBRANCH   4   5
ENDBRANCH   3   4
ENDBRANCH   2   3
ENDBRANCH   1   2
BRANCH   1  30
ATOM     30  C   UNL A   1      40.815  22.023  27.860  1.00  0.00     0.188 C 
BRANCH  30  31
ATOM     31  O   UNL A   1      41.812  21.023  27.743  1.00  0.00    -0.376 OA
BRANCH  31  32
ATOM     32  C   UNL A   1      41.373  19.793  27.189  1.00  0.00     0.202 C 
BRANCH  32  33
ATOM     33  C   UNL A   1      42.334  19.090  26.212  1.00  0.00     0.261 C 
BRANCH  33  34
ATOM     34  O   UNL A   1      42.772  19.882  25.080  1.00  0.00    -0.460 OA
BRANCH  34  35
ATOM     35  C   UNL A   1      44.086  19.846  24.780  1.00  0.00     0.338 C 
ATOM     36  O   UNL A   1      44.700  18.874  24.305  1.00  0.00    -0.246 OA
BRANCH  35  37
ATOM     37  C   UNL A   1      44.753  21.148  24.987  1.00  0.00     0.060 A 
ATOM     38  C   UNL A   1      45.086  21.549  26.290  1.00  0.00     0.016 A 
ATOM     39  C   UNL A   1      44.884  22.060  23.935  1.00  0.00     0.016 A 
ATOM     40  C   UNL A   1      45.503  22.865  26.552  1.00  0.00     0.010 A 
ATOM     41  C   UNL A   1      45.291  23.379  24.201  1.00  0.00     0.010 A 
ATOM     42  C   UNL A   1      45.565  23.808  25.515  1.00  0.00    -0.014 A 
BRANCH  42  43
ATOM     43  C   UNL A   1      45.726  25.268  25.796  1.00  0.00     0.031 A 
ATOM     44  C   UNL A   1      47.109  25.876  25.717  1.00  0.00     0.074 A 
ATOM     45  C   UNL A   1      44.690  26.053  26.153  1.00  0.00     0.049 A 
ATOM     46  N   UNL A   1      47.519  27.066  26.077  1.00  0.00    -0.248 NA
ATOM     47  C   UNL A   1      48.169  25.020  25.158  1.00  0.00     0.031 C 
ATOM     48  C   UNL A   1      43.291  25.638  26.214  1.00  0.00     0.029 A 
ATOM     49  N   UNL A   1      44.666  27.369  26.561  1.00  0.00    -0.354 N 
ATOM     50  C   UNL A   1      48.885  27.094  25.815  1.00  0.00     0.074 A 
ATOM     51  C   UNL A   1      49.236  25.799  25.272  1.00  0.00     0.031 C 
ATOM     52  C   UNL A   1      42.549  26.668  26.663  1.00  0.00     0.029 A 
ATOM     53  C   UNL A   1      43.424  27.801  26.969  1.00  0.00     0.049 A 
ATOM     54  H   UNL A   1      45.463  27.947  26.562  1.00  0.00     0.167 HD
ATOM     55  C   UNL A   1      49.774  28.100  26.013  1.00  0.00     0.031 A 
ATOM     56  C   UNL A   1      43.039  28.953  27.558  1.00  0.00     0.031 A 
ATOM     57  C   UNL A   1      49.438  29.390  26.558  1.00  0.00     0.049 A 
ATOM     58  C   UNL A   1      44.062  30.026  27.856  1.00  0.00     0.074 A 
ATOM     59  C   UNL A   1      50.273  30.473  26.776  1.00  0.00     0.029 A 
ATOM     60  N   UNL A   1      48.174  29.772  26.979  1.00  0.00    -0.354 N 
ATOM     61  N   UNL A   1      45.347  30.041  27.591  1.00  0.00    -0.248 NA
ATOM     62  C   UNL A   1      43.580  31.241  28.535  1.00  0.00     0.031 C 
ATOM     63  C   UNL A   1      49.528  31.486  27.388  1.00  0.00     0.029 A 
ATOM     64  C   UNL A   1      48.214  31.061  27.486  1.00  0.00     0.049 A 
ATOM     65  H   UNL A   1      47.367  29.210  26.924  1.00  0.00     0.167 HD
ATOM     66  C   UNL A   1      45.815  31.275  28.042  1.00  0.00     0.074 A 
ATOM     67  C   UNL A   1      44.676  31.985  28.580  1.00  0.00     0.031 C 
ATOM     68  C   UNL A   1      47.077  31.771  28.013  1.00  0.00     0.031 A 
BRANCH  55  69
ATOM     69  C   UNL A   1      51.220  27.840  25.678  1.00  0.00    -0.014 A 
ATOM     70  C   UNL A   1      51.760  28.200  24.430  1.00  0.00     0.010 A 
ATOM     71  C   UNL A   1      52.072  27.298  26.659  1.00  0.00     0.010 A 
ATOM     72  C   UNL A   1      53.117  28.001  24.163  1.00  0.00     0.020 A 
ATOM     73  C   UNL A   1      53.435  27.124  26.406  1.00  0.00     0.020 A 
ATOM     74  C   UNL A   1      53.948  27.467  25.154  1.00  0.00     0.054 A 
BRANCH  74  75
ATOM     75  S   UNL A   1      55.715  27.267  24.795  1.00  0.00     0.124 S 
ATOM     76  O   UNL A   1      55.855  25.813  24.766  1.00  0.00    -0.237 OA
ATOM     77  O   UNL A   1      55.855  27.937  23.504  1.00  0.00    -0.237 OA
ATOM     78  O   UNL A   1      56.375  27.933  25.915  1.00  0.00    -0.744 OA
ENDBRANCH  74  75
ENDBRANCH  55  69
BRANCH  56  79
ATOM     79  C   UNL A   1      41.618  29.155  27.969  1.00  0.00    -0.014 A 
ATOM     80  C   UNL A   1      41.261  29.225  29.328  1.00  0.00     0.010 A 
ATOM     81  C   UNL A   1      40.602  29.230  26.996  1.00  0.00     0.010 A 
ATOM     82  C   UNL A   1      39.920  29.340  29.707  1.00  0.00     0.020 A 
ATOM     83  C   UNL A   1      39.262  29.380  27.370  1.00  0.00     0.020 A 
ATOM     84  C   UNL A   1      38.928  29.419  28.724  1.00  0.00     0.054 A 
BRANCH  84  85
ATOM     85  S   UNL A   1      37.198  29.608  29.239  1.00  0.00     0.124 S 
ATOM     86  O   UNL A   1      37.068  31.058  29.344  1.00  0.00    -0.237 OA
ATOM     87  O   UNL A   1      36.471  28.985  28.135  1.00  0.00    -0.237 OA
ATOM     88  O   UNL A   1      37.136  28.879  30.505  1.00  0.00    -0.744 OA
ENDBRANCH  84  85
ENDBRANCH  56  79
BRANCH  68  89
ATOM     89  C   UNL A   1      47.299  33.170  28.533  1.00  0.00    -0.014 A 
ATOM     90  C   UNL A   1      47.159  34.296  27.702  1.00  0.00     0.010 A 
ATOM     91  C   UNL A   1      47.596  33.364  29.897  1.00  0.00     0.010 A 
ATOM     92  C   UNL A   1      47.344  35.584  28.216  1.00  0.00     0.020 A 
ATOM     93  C   UNL A   1      47.751  34.651  30.421  1.00  0.00     0.020 A 
ATOM     94  C   UNL A   1      47.639  35.754  29.572  1.00  0.00     0.054 A 
BRANCH  94  95
ATOM     95  S   UNL A   1      47.835  37.437  30.222  1.00  0.00     0.124 S 
ATOM     96  O   UNL A   1      49.273  37.650  30.087  1.00  0.00    -0.237 OA
ATOM     97  O   UNL A   1      46.996  38.226  29.324  1.00  0.00    -0.237 OA
ATOM     98  O   UNL A   1      47.347  37.338  31.596  1.00  0.00    -0.744 OA
ENDBRANCH  94  95
ENDBRANCH  68  89
ENDBRANCH  42  43
ENDBRANCH  35  37
ENDBRANCH  34  35
ENDBRANCH  33  34
ENDBRANCH  32  33
ENDBRANCH  31  32
ENDBRANCH  30  31
ENDBRANCH   1  30
TORSDOF 27
ENDMDL
