MODEL 1
REMARK VINA RESULT:      -7.2      0.000      0.000
REMARK SMILES CC[NH+]1CCN(c2ccc(NC(=O)C3CCCC3)c(C(=O)OCCOCCOCCOCCOC(=O)c3ccc(-c4c5nc(c(-c6ccc(S(=O)(=O)[O-])cc6)c6ccc([nH]6)c(-c6ccc(S(=O)(=O)[O-])cc6)c6nc(c(-c7ccc(S(=O)(=O)[O-])cc7)c7ccc4[nH]7)C=C6)C=C5)cc3)c2)CC1
REMARK SMILES IDX 29 1 28 2 27 3 26 4 25 5 24 6 23 7 22 8 20 9 21 10 19 11
REMARK SMILES IDX 7 12 8 13 97 14 9 15 10 16 6 17 3 18 4 19 99 20 5 22 98 23
REMARK SMILES IDX 2 24 1 25 11 26 12 27 13 29 14 30 15 31 18 32 16 33 17 34
REMARK SMILES IDX 30 35 31 36 32 37 33 38 34 39 35 40 36 41 37 42 38 43 96 44
REMARK SMILES IDX 39 45 95 46 40 47 41 48 42 49 89 50 43 51 94 52 88 53 90 54
REMARK SMILES IDX 44 55 93 56 87 57 86 58 45 60 75 61 56 62 74 63 57 64 60 65
REMARK SMILES IDX 73 66 91 67 58 68 59 69 72 71 92 72 61 73 46 74 47 75 55 76
REMARK SMILES IDX 48 77 54 78 49 79 50 80 51 81 52 82 53 83 76 84 77 85 85 86
REMARK SMILES IDX 78 87 84 88 79 89 80 90 81 91 82 92 83 93 62 94 63 95 71 96
REMARK SMILES IDX 64 97 70 98 65 99 66 100 67 101 68 102 69 103
REMARK H PARENT 3 21 11 28 90 59 60 70
REMARK Flexibility Score: inf
ROOT
ATOM      1  C   UNL A   1      34.965  33.838  33.572  1.00  0.00     0.188 C 
ENDROOT
BRANCH   1   2
ATOM      2  O   UNL A   1      36.356  33.780  33.886  1.00  0.00    -0.377 OA
BRANCH   2   3
ATOM      3  C   UNL A   1      36.783  33.237  35.127  1.00  0.00     0.188 C 
BRANCH   3   4
ATOM      4  C   UNL A   1      37.835  32.108  35.120  1.00  0.00     0.188 C 
BRANCH   4   5
ATOM      5  O   UNL A   1      38.708  32.130  36.233  1.00  0.00    -0.376 OA
BRANCH   5   6
ATOM      6  C   UNL A   1      38.383  32.900  37.372  1.00  0.00     0.202 C 
BRANCH   6   7
ATOM      7  C   UNL A   1      39.075  34.246  37.624  1.00  0.00     0.261 C 
BRANCH   7   8
ATOM      8  O   UNL A   1      40.367  34.428  37.038  1.00  0.00    -0.460 OA
BRANCH   8   9
ATOM      9  C   UNL A   1      40.580  35.538  36.299  1.00  0.00     0.340 C 
ATOM     10  O   UNL A   1      39.730  36.321  35.910  1.00  0.00    -0.246 OA
BRANCH   9  11
ATOM     11  C   UNL A   1      42.045  35.777  36.195  1.00  0.00     0.085 A 
ATOM     12  C   UNL A   1      43.887  37.394  36.209  1.00  0.00     0.038 A 
ATOM     13  C   UNL A   1      44.754  36.332  36.015  1.00  0.00     0.028 A 
ATOM     14  C   UNL A   1      42.533  37.090  36.376  1.00  0.00     0.043 A 
ATOM     15  C   UNL A   1      44.273  35.037  35.854  1.00  0.00     0.029 A 
ATOM     16  C   UNL A   1      42.925  34.743  35.814  1.00  0.00     0.055 A 
BRANCH  12  17
ATOM     17  N   UNL A   1      44.341  38.688  36.187  1.00  0.00    -0.360 N 
ATOM     18  N   UNL A   1      44.852  41.571  36.180  1.00  0.00    -0.332 N 
ATOM     19  C   UNL A   1      44.390  40.853  34.968  1.00  0.00     0.283 C 
ATOM     20  C   UNL A   1      44.378  40.836  37.377  1.00  0.00     0.283 C 
ATOM     21  H   UNL A   1      44.454  42.511  36.183  1.00  0.00     0.348 HD
ATOM     22  C   UNL A   1      44.718  39.338  34.924  1.00  0.00     0.178 C 
ATOM     23  C   UNL A   1      44.775  39.347  37.418  1.00  0.00     0.178 C 
BRANCH  18  24
ATOM     24  C   UNL A   1      46.305  41.759  36.190  1.00  0.00     0.258 C 
ATOM     25  C   UNL A   1      46.688  42.632  37.376  1.00  0.00     0.071 C 
ENDBRANCH  18  24
ENDBRANCH  12  17
BRANCH  16  26
ATOM     26  N   UNL A   1      42.431  33.517  35.310  1.00  0.00    -0.325 N 
ATOM     27  C   UNL A   1      42.270  32.957  34.077  1.00  0.00     0.227 C 
ATOM     28  H   UNL A   1      42.129  32.917  36.030  1.00  0.00     0.169 HD
ATOM     29  O   UNL A   1      41.597  31.913  34.053  1.00  0.00    -0.274 OA
BRANCH  27  30
ATOM     30  C   UNL A   1      42.829  33.453  32.738  1.00  0.00     0.079 C 
ATOM     31  C   UNL A   1      42.333  34.788  32.193  1.00  0.00     0.013 C 
ATOM     32  C   UNL A   1      44.353  33.443  32.678  1.00  0.00     0.013 C 
ATOM     33  C   UNL A   1      43.535  35.478  31.549  1.00  0.00     0.001 C 
ATOM     34  C   UNL A   1      44.788  34.688  31.912  1.00  0.00     0.001 C 
ENDBRANCH  27  30
ENDBRANCH  16  26
ENDBRANCH   9  11
ENDBRANCH   8   9
ENDBRANCH   7   8
ENDBRANCH   6   7
ENDBRANCH   5   6
ENDBRANCH   4   5
ENDBRANCH   3   4
ENDBRANCH   2   3
ENDBRANCH   1   2
BRANCH   1  35
ATOM     35  C   UNL A   1      34.426  34.667  32.380  1.00  0.00     0.188 C 
BRANCH  35  36
ATOM     36  O   UNL A   1      33.917  33.898  31.302  1.00  0.00    -0.376 OA
BRANCH  36  37
ATOM     37  C   UNL A   1      34.787  33.607  30.226  1.00  0.00     0.202 C 
BRANCH  37  38
ATOM     38  C   UNL A   1      35.305  32.167  30.118  1.00  0.00     0.261 C 
BRANCH  38  39
ATOM     39  O   UNL A   1      36.525  31.875  30.813  1.00  0.00    -0.460 OA
BRANCH  39  40
ATOM     40  C   UNL A   1      36.827  30.575  31.017  1.00  0.00     0.338 C 
ATOM     41  O   UNL A   1      36.066  29.692  31.379  1.00  0.00    -0.246 OA
BRANCH  40  42
ATOM     42  C   UNL A   1      38.207  30.361  30.536  1.00  0.00     0.060 A 
ATOM     43  C   UNL A   1      38.450  30.268  29.159  1.00  0.00     0.016 A 
ATOM     44  C   UNL A   1      39.259  30.274  31.449  1.00  0.00     0.016 A 
ATOM     45  C   UNL A   1      39.748  30.055  28.694  1.00  0.00     0.010 A 
ATOM     46  C   UNL A   1      40.554  30.037  30.984  1.00  0.00     0.010 A 
ATOM     47  C   UNL A   1      40.799  29.892  29.606  1.00  0.00    -0.014 A 
BRANCH  47  48
ATOM     48  C   UNL A   1      42.107  29.367  29.146  1.00  0.00     0.031 A 
ATOM     49  C   UNL A   1      43.263  30.327  29.063  1.00  0.00     0.074 A 
ATOM     50  C   UNL A   1      42.272  28.075  28.816  1.00  0.00     0.049 A 
ATOM     51  N   UNL A   1      44.480  30.125  28.629  1.00  0.00    -0.248 NA
ATOM     52  C   UNL A   1      43.009  31.700  29.530  1.00  0.00     0.031 C 
ATOM     53  C   UNL A   1      41.243  27.040  28.898  1.00  0.00     0.029 A 
ATOM     54  N   UNL A   1      43.376  27.417  28.333  1.00  0.00    -0.354 N 
ATOM     55  C   UNL A   1      45.133  31.346  28.763  1.00  0.00     0.074 A 
ATOM     56  C   UNL A   1      44.169  32.289  29.283  1.00  0.00     0.031 C 
ATOM     57  C   UNL A   1      41.762  25.878  28.461  1.00  0.00     0.029 A 
ATOM     58  C   UNL A   1      43.144  26.096  28.035  1.00  0.00     0.049 A 
ATOM     59  H   UNL A   1      44.252  27.850  28.210  1.00  0.00     0.167 HD
ATOM     60  C   UNL A   1      46.421  31.653  28.482  1.00  0.00     0.031 A 
ATOM     61  C   UNL A   1      43.944  25.175  27.458  1.00  0.00     0.031 A 
ATOM     62  C   UNL A   1      47.369  30.717  27.939  1.00  0.00     0.049 A 
ATOM     63  C   UNL A   1      45.351  25.560  27.072  1.00  0.00     0.074 A 
ATOM     64  C   UNL A   1      48.698  30.927  27.621  1.00  0.00     0.029 A 
ATOM     65  N   UNL A   1      47.085  29.396  27.624  1.00  0.00    -0.354 N 
ATOM     66  N   UNL A   1      45.962  26.713  27.221  1.00  0.00    -0.248 NA
ATOM     67  C   UNL A   1      46.178  24.518  26.449  1.00  0.00     0.031 C 
ATOM     68  C   UNL A   1      49.201  29.752  27.054  1.00  0.00     0.029 A 
ATOM     69  C   UNL A   1      48.207  28.786  27.090  1.00  0.00     0.049 A 
ATOM     70  H   UNL A   1      46.214  28.957  27.761  1.00  0.00     0.167 HD
ATOM     71  C   UNL A   1      47.254  26.523  26.738  1.00  0.00     0.074 A 
ATOM     72  C   UNL A   1      47.340  25.144  26.307  1.00  0.00     0.031 C 
ATOM     73  C   UNL A   1      48.278  27.410  26.663  1.00  0.00     0.031 A 
BRANCH  60  74
ATOM     74  C   UNL A   1      46.863  33.073  28.723  1.00  0.00    -0.014 A 
ATOM     75  C   UNL A   1      46.417  34.127  27.902  1.00  0.00     0.010 A 
ATOM     76  C   UNL A   1      47.721  33.363  29.799  1.00  0.00     0.010 A 
ATOM     77  C   UNL A   1      46.857  35.433  28.127  1.00  0.00     0.020 A 
ATOM     78  C   UNL A   1      48.136  34.674  30.048  1.00  0.00     0.020 A 
ATOM     79  C   UNL A   1      47.715  35.698  29.199  1.00  0.00     0.054 A 
BRANCH  79  80
ATOM     80  S   UNL A   1      48.256  37.406  29.475  1.00  0.00     0.124 S 
ATOM     81  O   UNL A   1      49.653  37.354  29.047  1.00  0.00    -0.237 OA
ATOM     82  O   UNL A   1      47.363  38.169  28.607  1.00  0.00    -0.237 OA
ATOM     83  O   UNL A   1      48.053  37.609  30.907  1.00  0.00    -0.744 OA
ENDBRANCH  79  80
ENDBRANCH  60  74
BRANCH  61  84
ATOM     84  C   UNL A   1      43.424  23.806  27.184  1.00  0.00    -0.014 A 
ATOM     85  C   UNL A   1      43.334  23.315  25.870  1.00  0.00     0.010 A 
ATOM     86  C   UNL A   1      43.015  22.981  28.249  1.00  0.00     0.010 A 
ATOM     87  C   UNL A   1      42.838  22.030  25.626  1.00  0.00     0.020 A 
ATOM     88  C   UNL A   1      42.547  21.686  28.011  1.00  0.00     0.020 A 
ATOM     89  C   UNL A   1      42.454  21.222  26.699  1.00  0.00     0.054 A 
BRANCH  89  90
ATOM     90  S   UNL A   1      41.874  19.535  26.361  1.00  0.00     0.124 S 
ATOM     91  O   UNL A   1      42.417  18.794  27.494  1.00  0.00    -0.237 OA
ATOM     92  O   UNL A   1      40.422  19.700  26.347  1.00  0.00    -0.237 OA
ATOM     93  O   UNL A   1      42.470  19.221  25.064  1.00  0.00    -0.744 OA
ENDBRANCH  89  90
ENDBRANCH  61  84
BRANCH  73  94
ATOM     94  C   UNL A   1      49.600  26.911  26.136  1.00  0.00    -0.014 A 
ATOM     95  C   UNL A   1      49.934  27.012  24.773  1.00  0.00     0.010 A 
ATOM     96  C   UNL A   1      50.551  26.393  27.035  1.00  0.00     0.010 A 
ATOM     97  C   UNL A   1      51.182  26.574  24.317  1.00  0.00     0.020 A 
ATOM     98  C   UNL A   1      51.810  25.984  26.589  1.00  0.00     0.020 A 
ATOM     99  C   UNL A   1      52.112  26.065  25.229  1.00  0.00     0.054 A 
BRANCH  99 100
ATOM    100  S   UNL A   1      53.740  25.547  24.618  1.00  0.00     0.124 S 
ATOM    101  O   UNL A   1      53.631  24.092  24.658  1.00  0.00    -0.237 OA
ATOM    102  O   UNL A   1      53.782  26.137  23.281  1.00  0.00    -0.237 OA
ATOM    103  O   UNL A   1      54.675  26.129  25.578  1.00  0.00    -0.744 OA
ENDBRANCH  99 100
ENDBRANCH  73  94
ENDBRANCH  47  48
ENDBRANCH  40  42
ENDBRANCH  39  40
ENDBRANCH  38  39
ENDBRANCH  37  38
ENDBRANCH  36  37
ENDBRANCH  35  36
ENDBRANCH   1  35
TORSDOF 27
ENDMDL
MODEL 2
REMARK VINA RESULT:      -7.2      3.979      6.331
REMARK SMILES CC[NH+]1CCN(c2ccc(NC(=O)C3CCCC3)c(C(=O)OCCOCCOCCOCCOC(=O)c3ccc(-c4c5nc(c(-c6ccc(S(=O)(=O)[O-])cc6)c6ccc([nH]6)c(-c6ccc(S(=O)(=O)[O-])cc6)c6nc(c(-c7ccc(S(=O)(=O)[O-])cc7)c7ccc4[nH]7)C=C6)C=C5)cc3)c2)CC1
REMARK SMILES IDX 29 1 28 2 27 3 26 4 25 5 24 6 23 7 22 8 20 9 21 10 19 11
REMARK SMILES IDX 7 12 8 13 97 14 9 15 10 16 6 17 3 18 4 19 99 20 5 22 98 23
REMARK SMILES IDX 2 24 1 25 11 26 12 27 13 29 14 30 15 31 18 32 16 33 17 34
REMARK SMILES IDX 30 35 31 36 32 37 33 38 34 39 35 40 36 41 37 42 38 43 96 44
REMARK SMILES IDX 39 45 95 46 40 47 41 48 42 49 89 50 43 51 94 52 88 53 90 54
REMARK SMILES IDX 44 55 93 56 87 57 86 58 45 60 75 61 56 62 74 63 57 64 60 65
REMARK SMILES IDX 73 66 91 67 58 68 59 69 72 71 92 72 61 73 46 74 47 75 55 76
REMARK SMILES IDX 48 77 54 78 49 79 50 80 51 81 52 82 53 83 76 84 77 85 85 86
REMARK SMILES IDX 78 87 84 88 79 89 80 90 81 91 82 92 83 93 62 94 63 95 71 96
REMARK SMILES IDX 64 97 70 98 65 99 66 100 67 101 68 102 69 103
REMARK H PARENT 3 21 11 28 90 59 60 70
REMARK Flexibility Score: inf
ROOT
ATOM      1  C   UNL A   1      34.906  34.149  33.526  1.00  0.00     0.188 C 
ENDROOT
BRANCH   1   2
ATOM      2  O   UNL A   1      36.222  34.527  33.929  1.00  0.00    -0.377 OA
BRANCH   2   3
ATOM      3  C   UNL A   1      36.834  33.895  35.043  1.00  0.00     0.188 C 
BRANCH   3   4
ATOM      4  C   UNL A   1      38.233  33.269  34.863  1.00  0.00     0.188 C 
BRANCH   4   5
ATOM      5  O   UNL A   1      38.817  32.813  36.069  1.00  0.00    -0.376 OA
BRANCH   5   6
ATOM      6  C   UNL A   1      38.013  32.611  37.213  1.00  0.00     0.202 C 
BRANCH   6   7
ATOM      7  C   UNL A   1      38.587  32.840  38.618  1.00  0.00     0.261 C 
BRANCH   7   8
ATOM      8  O   UNL A   1      37.645  33.006  39.681  1.00  0.00    -0.460 OA
BRANCH   8   9
ATOM      9  C   UNL A   1      37.522  32.008  40.583  1.00  0.00     0.340 C 
ATOM     10  O   UNL A   1      37.284  30.837  40.338  1.00  0.00    -0.246 OA
BRANCH   9  11
ATOM     11  C   UNL A   1      37.920  32.515  41.924  1.00  0.00     0.085 A 
ATOM     12  C   UNL A   1      39.300  32.215  43.927  1.00  0.00     0.038 A 
ATOM     13  C   UNL A   1      38.732  33.372  44.431  1.00  0.00     0.028 A 
ATOM     14  C   UNL A   1      38.939  31.839  42.631  1.00  0.00     0.043 A 
ATOM     15  C   UNL A   1      37.741  34.048  43.726  1.00  0.00     0.029 A 
ATOM     16  C   UNL A   1      37.226  33.581  42.534  1.00  0.00     0.055 A 
BRANCH  12  17
ATOM     17  N   UNL A   1      40.142  31.451  44.695  1.00  0.00    -0.360 N 
ATOM     18  N   UNL A   1      41.904  29.499  45.983  1.00  0.00    -0.332 N 
ATOM     19  C   UNL A   1      40.426  29.373  46.027  1.00  0.00     0.283 C 
ATOM     20  C   UNL A   1      42.279  30.244  44.758  1.00  0.00     0.283 C 
ATOM     21  H   UNL A   1      42.317  28.567  45.951  1.00  0.00     0.348 HD
ATOM     22  C   UNL A   1      39.639  30.696  45.851  1.00  0.00     0.178 C 
ATOM     23  C   UNL A   1      41.592  31.614  44.601  1.00  0.00     0.178 C 
BRANCH  18  24
ATOM     24  C   UNL A   1      42.440  30.125  47.194  1.00  0.00     0.258 C 
ATOM     25  C   UNL A   1      43.797  29.515  47.514  1.00  0.00     0.071 C 
ENDBRANCH  18  24
ENDBRANCH  12  17
BRANCH  16  26
ATOM     26  N   UNL A   1      36.004  34.054  41.999  1.00  0.00    -0.325 N 
ATOM     27  C   UNL A   1      34.687  33.725  42.123  1.00  0.00     0.227 C 
ATOM     28  H   UNL A   1      36.140  34.811  41.385  1.00  0.00     0.169 HD
ATOM     29  O   UNL A   1      33.926  34.272  41.307  1.00  0.00    -0.274 OA
BRANCH  27  30
ATOM     30  C   UNL A   1      34.044  32.782  43.147  1.00  0.00     0.079 C 
ATOM     31  C   UNL A   1      34.488  31.324  43.172  1.00  0.00     0.013 C 
ATOM     32  C   UNL A   1      34.082  33.323  44.574  1.00  0.00     0.013 C 
ATOM     33  C   UNL A   1      34.531  30.899  44.639  1.00  0.00     0.001 C 
ATOM     34  C   UNL A   1      34.356  32.145  45.501  1.00  0.00     0.001 C 
ENDBRANCH  27  30
ENDBRANCH  16  26
ENDBRANCH   9  11
ENDBRANCH   8   9
ENDBRANCH   7   8
ENDBRANCH   6   7
ENDBRANCH   5   6
ENDBRANCH   4   5
ENDBRANCH   3   4
ENDBRANCH   2   3
ENDBRANCH   1   2
BRANCH   1  35
ATOM     35  C   UNL A   1      34.191  34.816  32.325  1.00  0.00     0.188 C 
BRANCH  35  36
ATOM     36  O   UNL A   1      33.803  33.924  31.292  1.00  0.00    -0.376 OA
BRANCH  36  37
ATOM     37  C   UNL A   1      34.703  33.721  30.220  1.00  0.00     0.202 C 
BRANCH  37  38
ATOM     38  C   UNL A   1      35.206  32.290  29.993  1.00  0.00     0.261 C 
BRANCH  38  39
ATOM     39  O   UNL A   1      36.436  31.938  30.641  1.00  0.00    -0.460 OA
BRANCH  39  40
ATOM     40  C   UNL A   1      36.702  30.623  30.795  1.00  0.00     0.338 C 
ATOM     41  O   UNL A   1      35.910  29.743  31.092  1.00  0.00    -0.246 OA
BRANCH  40  42
ATOM     42  C   UNL A   1      38.092  30.397  30.349  1.00  0.00     0.060 A 
ATOM     43  C   UNL A   1      38.365  30.278  28.980  1.00  0.00     0.016 A 
ATOM     44  C   UNL A   1      39.123  30.326  31.287  1.00  0.00     0.016 A 
ATOM     45  C   UNL A   1      39.673  30.054  28.547  1.00  0.00     0.010 A 
ATOM     46  C   UNL A   1      40.428  30.079  30.855  1.00  0.00     0.010 A 
ATOM     47  C   UNL A   1      40.703  29.907  29.485  1.00  0.00    -0.014 A 
BRANCH  47  48
ATOM     48  C   UNL A   1      42.020  29.372  29.064  1.00  0.00     0.031 A 
ATOM     49  C   UNL A   1      43.183  30.325  29.002  1.00  0.00     0.074 A 
ATOM     50  C   UNL A   1      42.187  28.076  28.751  1.00  0.00     0.049 A 
ATOM     51  N   UNL A   1      44.409  30.113  28.602  1.00  0.00    -0.248 NA
ATOM     52  C   UNL A   1      42.923  31.704  29.449  1.00  0.00     0.031 C 
ATOM     53  C   UNL A   1      41.151  27.046  28.816  1.00  0.00     0.029 A 
ATOM     54  N   UNL A   1      43.300  27.407  28.303  1.00  0.00    -0.354 N 
ATOM     55  C   UNL A   1      45.064  31.332  28.740  1.00  0.00     0.074 A 
ATOM     56  C   UNL A   1      44.092  32.285  29.227  1.00  0.00     0.031 C 
ATOM     57  C   UNL A   1      41.675  25.878  28.405  1.00  0.00     0.029 A 
ATOM     58  C   UNL A   1      43.068  26.085  28.012  1.00  0.00     0.049 A 
ATOM     59  H   UNL A   1      44.180  27.835  28.199  1.00  0.00     0.167 HD
ATOM     60  C   UNL A   1      46.361  31.630  28.491  1.00  0.00     0.031 A 
ATOM     61  C   UNL A   1      43.879  25.155  27.465  1.00  0.00     0.031 A 
ATOM     62  C   UNL A   1      47.317  30.685  27.982  1.00  0.00     0.049 A 
ATOM     63  C   UNL A   1      45.297  25.529  27.111  1.00  0.00     0.074 A 
ATOM     64  C   UNL A   1      48.656  30.885  27.696  1.00  0.00     0.029 A 
ATOM     65  N   UNL A   1      47.036  29.362  27.672  1.00  0.00    -0.354 N 
ATOM     66  N   UNL A   1      45.910  26.680  27.265  1.00  0.00    -0.248 NA
ATOM     67  C   UNL A   1      46.135  24.477  26.520  1.00  0.00     0.031 C 
ATOM     68  C   UNL A   1      49.167  29.703  27.153  1.00  0.00     0.029 A 
ATOM     69  C   UNL A   1      48.168  28.742  27.172  1.00  0.00     0.049 A 
ATOM     70  H   UNL A   1      46.159  28.929  27.790  1.00  0.00     0.167 HD
ATOM     71  C   UNL A   1      47.213  26.480  26.818  1.00  0.00     0.074 A 
ATOM     72  C   UNL A   1      47.303  25.096  26.402  1.00  0.00     0.031 C 
ATOM     73  C   UNL A   1      48.243  27.361  26.761  1.00  0.00     0.031 A 
BRANCH  60  74
ATOM     74  C   UNL A   1      46.803  33.051  28.729  1.00  0.00    -0.014 A 
ATOM     75  C   UNL A   1      47.274  33.469  29.987  1.00  0.00     0.010 A 
ATOM     76  C   UNL A   1      46.767  33.978  27.672  1.00  0.00     0.010 A 
ATOM     77  C   UNL A   1      47.658  34.796  30.195  1.00  0.00     0.020 A 
ATOM     78  C   UNL A   1      47.181  35.299  27.866  1.00  0.00     0.020 A 
ATOM     79  C   UNL A   1      47.607  35.703  29.132  1.00  0.00     0.054 A 
BRANCH  79  80
ATOM     80  S   UNL A   1      48.126  37.415  29.427  1.00  0.00     0.124 S 
ATOM     81  O   UNL A   1      49.336  37.508  28.613  1.00  0.00    -0.237 OA
ATOM     82  O   UNL A   1      46.983  38.184  28.942  1.00  0.00    -0.237 OA
ATOM     83  O   UNL A   1      48.343  37.469  30.871  1.00  0.00    -0.744 OA
ENDBRANCH  79  80
ENDBRANCH  60  74
BRANCH  61  84
ATOM     84  C   UNL A   1      43.359  23.786  27.191  1.00  0.00    -0.014 A 
ATOM     85  C   UNL A   1      42.945  23.413  25.900  1.00  0.00     0.010 A 
ATOM     86  C   UNL A   1      43.279  22.841  28.232  1.00  0.00     0.010 A 
ATOM     87  C   UNL A   1      42.452  22.126  25.657  1.00  0.00     0.020 A 
ATOM     88  C   UNL A   1      42.816  21.545  27.986  1.00  0.00     0.020 A 
ATOM     89  C   UNL A   1      42.397  21.199  26.701  1.00  0.00     0.054 A 
BRANCH  89  90
ATOM     90  S   UNL A   1      41.816  19.516  26.348  1.00  0.00     0.124 S 
ATOM     91  O   UNL A   1      40.371  19.702  26.274  1.00  0.00    -0.237 OA
ATOM     92  O   UNL A   1      42.482  19.215  25.082  1.00  0.00    -0.237 OA
ATOM     93  O   UNL A   1      42.291  18.742  27.492  1.00  0.00    -0.744 OA
ENDBRANCH  89  90
ENDBRANCH  61  84
BRANCH  73  94
ATOM     94  C   UNL A   1      49.576  26.851  26.273  1.00  0.00    -0.014 A 
ATOM     95  C   UNL A   1      49.997  27.047  24.945  1.00  0.00     0.010 A 
ATOM     96  C   UNL A   1      50.449  26.222  27.180  1.00  0.00     0.010 A 
ATOM     97  C   UNL A   1      51.254  26.594  24.529  1.00  0.00     0.020 A 
ATOM     98  C   UNL A   1      51.717  25.798  26.777  1.00  0.00     0.020 A 
ATOM     99  C   UNL A   1      52.106  25.975  25.448  1.00  0.00     0.054 A 
BRANCH  99 100
ATOM    100  S   UNL A   1      53.748  25.440  24.893  1.00  0.00     0.124 S 
ATOM    101  O   UNL A   1      53.533  24.019  24.632  1.00  0.00    -0.237 OA
ATOM    102  O   UNL A   1      53.972  26.269  23.711  1.00  0.00    -0.237 OA
ATOM    103  O   UNL A   1      54.615  25.739  26.030  1.00  0.00    -0.744 OA
ENDBRANCH  99 100
ENDBRANCH  73  94
ENDBRANCH  47  48
ENDBRANCH  40  42
ENDBRANCH  39  40
ENDBRANCH  38  39
ENDBRANCH  37  38
ENDBRANCH  36  37
ENDBRANCH  35  36
ENDBRANCH   1  35
TORSDOF 27
ENDMDL
MODEL 3
REMARK VINA RESULT:      -6.5      6.415     13.712
REMARK SMILES CC[NH+]1CCN(c2ccc(NC(=O)C3CCCC3)c(C(=O)OCCOCCOCCOCCOC(=O)c3ccc(-c4c5nc(c(-c6ccc(S(=O)(=O)[O-])cc6)c6ccc([nH]6)c(-c6ccc(S(=O)(=O)[O-])cc6)c6nc(c(-c7ccc(S(=O)(=O)[O-])cc7)c7ccc4[nH]7)C=C6)C=C5)cc3)c2)CC1
REMARK SMILES IDX 29 1 28 2 27 3 26 4 25 5 24 6 23 7 22 8 20 9 21 10 19 11
REMARK SMILES IDX 7 12 8 13 97 14 9 15 10 16 6 17 3 18 4 19 99 20 5 22 98 23
REMARK SMILES IDX 2 24 1 25 11 26 12 27 13 29 14 30 15 31 18 32 16 33 17 34
REMARK SMILES IDX 30 35 31 36 32 37 33 38 34 39 35 40 36 41 37 42 38 43 96 44
REMARK SMILES IDX 39 45 95 46 40 47 41 48 42 49 89 50 43 51 94 52 88 53 90 54
REMARK SMILES IDX 44 55 93 56 87 57 86 58 45 60 75 61 56 62 74 63 57 64 60 65
REMARK SMILES IDX 73 66 91 67 58 68 59 69 72 71 92 72 61 73 46 74 47 75 55 76
REMARK SMILES IDX 48 77 54 78 49 79 50 80 51 81 52 82 53 83 76 84 77 85 85 86
REMARK SMILES IDX 78 87 84 88 79 89 80 90 81 91 82 92 83 93 62 94 63 95 71 96
REMARK SMILES IDX 64 97 70 98 65 99 66 100 67 101 68 102 69 103
REMARK H PARENT 3 21 11 28 90 59 60 70
REMARK Flexibility Score: inf
ROOT
ATOM      1  C   UNL A   1      36.662  30.619  30.434  1.00  0.00     0.188 C 
ENDROOT
BRANCH   1   2
ATOM      2  O   UNL A   1      35.955  30.368  29.221  1.00  0.00    -0.377 OA
BRANCH   2   3
ATOM      3  C   UNL A   1      36.483  29.462  28.264  1.00  0.00     0.188 C 
BRANCH   3   4
ATOM      4  C   UNL A   1      37.875  29.748  27.662  1.00  0.00     0.188 C 
BRANCH   4   5
ATOM      5  O   UNL A   1      38.929  29.042  28.290  1.00  0.00    -0.376 OA
BRANCH   5   6
ATOM      6  C   UNL A   1      40.167  28.884  27.630  1.00  0.00     0.202 C 
BRANCH   6   7
ATOM      7  C   UNL A   1      40.852  27.511  27.582  1.00  0.00     0.261 C 
BRANCH   7   8
ATOM      8  O   UNL A   1      40.133  26.453  26.941  1.00  0.00    -0.460 OA
BRANCH   8   9
ATOM      9  C   UNL A   1      39.579  25.498  27.719  1.00  0.00     0.340 C 
ATOM     10  O   UNL A   1      38.843  25.681  28.675  1.00  0.00    -0.246 OA
BRANCH   9  11
ATOM     11  C   UNL A   1      39.842  24.165  27.112  1.00  0.00     0.085 A 
ATOM     12  C   UNL A   1      41.496  22.527  26.346  1.00  0.00     0.038 A 
ATOM     13  C   UNL A   1      40.442  21.704  25.989  1.00  0.00     0.028 A 
ATOM     14  C   UNL A   1      41.180  23.730  26.982  1.00  0.00     0.043 A 
ATOM     15  C   UNL A   1      39.125  22.126  26.133  1.00  0.00     0.029 A 
ATOM     16  C   UNL A   1      38.793  23.393  26.573  1.00  0.00     0.055 A 
BRANCH  12  17
ATOM     17  N   UNL A   1      42.790  22.189  26.039  1.00  0.00    -0.360 N 
ATOM     18  N   UNL A   1      45.573  21.302  25.829  1.00  0.00    -0.332 N 
ATOM     19  C   UNL A   1      45.202  22.575  26.493  1.00  0.00     0.283 C 
ATOM     20  C   UNL A   1      44.429  20.364  25.931  1.00  0.00     0.283 C 
ATOM     21  H   UNL A   1      46.381  20.900  26.305  1.00  0.00     0.348 HD
ATOM     22  C   UNL A   1      43.858  23.198  26.038  1.00  0.00     0.178 C 
ATOM     23  C   UNL A   1      43.094  20.913  25.391  1.00  0.00     0.178 C 
BRANCH  18  24
ATOM     24  C   UNL A   1      45.994  21.506  24.440  1.00  0.00     0.258 C 
ATOM     25  C   UNL A   1      46.511  22.927  24.279  1.00  0.00     0.071 C 
ENDBRANCH  18  24
ENDBRANCH  12  17
BRANCH  16  26
ATOM     26  N   UNL A   1      37.503  23.943  26.392  1.00  0.00    -0.325 N 
ATOM     27  C   UNL A   1      36.258  23.458  26.116  1.00  0.00     0.227 C 
ATOM     28  H   UNL A   1      37.503  24.923  26.491  1.00  0.00     0.169 HD
ATOM     29  O   UNL A   1      35.406  24.316  25.833  1.00  0.00    -0.274 OA
BRANCH  27  30
ATOM     30  C   UNL A   1      35.794  21.996  26.128  1.00  0.00     0.079 C 
ATOM     31  C   UNL A   1      34.509  21.648  26.870  1.00  0.00     0.013 C 
ATOM     32  C   UNL A   1      35.735  21.369  24.738  1.00  0.00     0.013 C 
ATOM     33  C   UNL A   1      33.791  20.585  26.039  1.00  0.00     0.001 C 
ATOM     34  C   UNL A   1      34.505  20.470  24.696  1.00  0.00     0.001 C 
ENDBRANCH  27  30
ENDBRANCH  16  26
ENDBRANCH   9  11
ENDBRANCH   8   9
ENDBRANCH   7   8
ENDBRANCH   6   7
ENDBRANCH   5   6
ENDBRANCH   4   5
ENDBRANCH   3   4
ENDBRANCH   2   3
ENDBRANCH   1   2
BRANCH   1  35
ATOM     35  C   UNL A   1      36.018  31.382  31.619  1.00  0.00     0.188 C 
BRANCH  35  36
ATOM     36  O   UNL A   1      34.787  32.018  31.319  1.00  0.00    -0.376 OA
BRANCH  36  37
ATOM     37  C   UNL A   1      34.607  33.353  31.750  1.00  0.00     0.202 C 
BRANCH  37  38
ATOM     38  C   UNL A   1      34.009  33.560  33.147  1.00  0.00     0.261 C 
BRANCH  38  39
ATOM     39  O   UNL A   1      34.940  33.833  34.203  1.00  0.00    -0.460 OA
BRANCH  39  40
ATOM     40  C   UNL A   1      36.058  34.518  33.882  1.00  0.00     0.338 C 
ATOM     41  O   UNL A   1      36.144  35.469  33.122  1.00  0.00    -0.246 OA
BRANCH  40  42
ATOM     42  C   UNL A   1      37.141  34.038  34.765  1.00  0.00     0.060 A 
ATOM     43  C   UNL A   1      38.422  34.595  34.650  1.00  0.00     0.016 A 
ATOM     44  C   UNL A   1      36.879  33.053  35.718  1.00  0.00     0.016 A 
ATOM     45  C   UNL A   1      39.454  34.142  35.471  1.00  0.00     0.010 A 
ATOM     46  C   UNL A   1      37.918  32.584  36.524  1.00  0.00     0.010 A 
ATOM     47  C   UNL A   1      39.219  33.102  36.379  1.00  0.00    -0.014 A 
BRANCH  47  48
ATOM     48  C   UNL A   1      40.359  32.412  37.029  1.00  0.00     0.031 A 
ATOM     49  C   UNL A   1      40.797  32.895  38.385  1.00  0.00     0.074 A 
ATOM     50  C   UNL A   1      40.987  31.379  36.441  1.00  0.00     0.049 A 
ATOM     51  N   UNL A   1      41.804  32.501  39.122  1.00  0.00    -0.248 NA
ATOM     52  C   UNL A   1      39.993  33.971  38.988  1.00  0.00     0.031 C 
ATOM     53  C   UNL A   1      40.627  30.790  35.152  1.00  0.00     0.029 A 
ATOM     54  N   UNL A   1      42.074  30.649  36.855  1.00  0.00    -0.354 N 
ATOM     55  C   UNL A   1      41.758  33.286  40.269  1.00  0.00     0.074 A 
ATOM     56  C   UNL A   1      40.649  34.200  40.115  1.00  0.00     0.031 C 
ATOM     57  C   UNL A   1      41.491  29.798  34.873  1.00  0.00     0.029 A 
ATOM     58  C   UNL A   1      42.485  29.708  35.942  1.00  0.00     0.049 A 
ATOM     59  H   UNL A   1      42.517  30.787  37.722  1.00  0.00     0.167 HD
ATOM     60  C   UNL A   1      42.563  33.245  41.356  1.00  0.00     0.031 A 
ATOM     61  C   UNL A   1      43.557  28.888  35.954  1.00  0.00     0.031 A 
ATOM     62  C   UNL A   1      43.681  32.351  41.492  1.00  0.00     0.049 A 
ATOM     63  C   UNL A   1      44.494  28.918  37.136  1.00  0.00     0.074 A 
ATOM     64  C   UNL A   1      44.560  32.227  42.554  1.00  0.00     0.029 A 
ATOM     65  N   UNL A   1      44.083  31.433  40.533  1.00  0.00    -0.354 N 
ATOM     66  N   UNL A   1      44.429  29.651  38.224  1.00  0.00    -0.248 NA
ATOM     67  C   UNL A   1      45.643  28.003  37.097  1.00  0.00     0.031 C 
ATOM     68  C   UNL A   1      45.530  31.281  42.209  1.00  0.00     0.029 A 
ATOM     69  C   UNL A   1      45.212  30.759  40.965  1.00  0.00     0.049 A 
ATOM     70  H   UNL A   1      43.631  31.283  39.670  1.00  0.00     0.167 HD
ATOM     71  C   UNL A   1      45.510  29.263  39.009  1.00  0.00     0.074 A 
ATOM     72  C   UNL A   1      46.203  28.221  38.280  1.00  0.00     0.031 C 
ATOM     73  C   UNL A   1      45.892  29.723  40.227  1.00  0.00     0.031 A 
BRANCH  60  74
ATOM     74  C   UNL A   1      42.282  34.226  42.464  1.00  0.00    -0.014 A 
ATOM     75  C   UNL A   1      41.392  33.915  43.509  1.00  0.00     0.010 A 
ATOM     76  C   UNL A   1      42.934  35.473  42.472  1.00  0.00     0.010 A 
ATOM     77  C   UNL A   1      41.127  34.848  44.514  1.00  0.00     0.020 A 
ATOM     78  C   UNL A   1      42.697  36.396  43.494  1.00  0.00     0.020 A 
ATOM     79  C   UNL A   1      41.781  36.084  44.499  1.00  0.00     0.054 A 
BRANCH  79  80
ATOM     80  S   UNL A   1      41.428  37.268  45.826  1.00  0.00     0.124 S 
ATOM     81  O   UNL A   1      40.754  38.342  45.101  1.00  0.00    -0.237 OA
ATOM     82  O   UNL A   1      40.580  36.493  46.729  1.00  0.00    -0.237 OA
ATOM     83  O   UNL A   1      42.749  37.605  46.352  1.00  0.00    -0.744 OA
ENDBRANCH  79  80
ENDBRANCH  60  74
BRANCH  61  84
ATOM     84  C   UNL A   1      43.817  27.989  34.796  1.00  0.00    -0.014 A 
ATOM     85  C   UNL A   1      44.526  28.444  33.670  1.00  0.00     0.010 A 
ATOM     86  C   UNL A   1      43.352  26.660  34.816  1.00  0.00     0.010 A 
ATOM     87  C   UNL A   1      44.757  27.592  32.585  1.00  0.00     0.020 A 
ATOM     88  C   UNL A   1      43.609  25.797  33.747  1.00  0.00     0.020 A 
ATOM     89  C   UNL A   1      44.303  26.272  32.634  1.00  0.00     0.054 A 
BRANCH  89  90
ATOM     90  S   UNL A   1      44.672  25.167  31.242  1.00  0.00     0.124 S 
ATOM     91  O   UNL A   1      44.359  23.856  31.802  1.00  0.00    -0.237 OA
ATOM     92  O   UNL A   1      43.759  25.650  30.208  1.00  0.00    -0.237 OA
ATOM     93  O   UNL A   1      46.088  25.412  30.976  1.00  0.00    -0.744 OA
ENDBRANCH  89  90
ENDBRANCH  61  84
BRANCH  73  94
ATOM     94  C   UNL A   1      47.091  29.077  40.877  1.00  0.00    -0.014 A 
ATOM     95  C   UNL A   1      48.391  29.583  40.691  1.00  0.00     0.010 A 
ATOM     96  C   UNL A   1      46.902  27.983  41.742  1.00  0.00     0.010 A 
ATOM     97  C   UNL A   1      49.479  28.985  41.334  1.00  0.00     0.020 A 
ATOM     98  C   UNL A   1      47.982  27.405  42.411  1.00  0.00     0.020 A 
ATOM     99  C   UNL A   1      49.267  27.902  42.192  1.00  0.00     0.054 A 
BRANCH  99 100
ATOM    100  S   UNL A   1      50.692  27.175  43.049  1.00  0.00     0.124 S 
ATOM    101  O   UNL A   1      51.786  28.032  42.602  1.00  0.00    -0.237 OA
ATOM    102  O   UNL A   1      50.321  27.312  44.456  1.00  0.00    -0.237 OA
ATOM    103  O   UNL A   1      50.734  25.801  42.554  1.00  0.00    -0.744 OA
ENDBRANCH  99 100
ENDBRANCH  73  94
ENDBRANCH  47  48
ENDBRANCH  40  42
ENDBRANCH  39  40
ENDBRANCH  38  39
ENDBRANCH  37  38
ENDBRANCH  36  37
ENDBRANCH  35  36
ENDBRANCH   1  35
TORSDOF 27
ENDMDL
