MODEL 1
REMARK VINA RESULT:      -8.5      0.000      0.000
REMARK SMILES NS(=O)(=O)c1ccc(-n2nc(C(F)(F)F)cc2-c2ccc(CC(=O)OCCOCCOCCOCCOC(=O)c3ccc(-c4c5nc(c(-c6ccc(S(=O)(=O)[O-])cc6)c6ccc([nH]6)c(-c6ccc(S(=O)(=O)[O-])cc6)c6nc(c(-c7ccc(S(=O)(=O)[O-])cc7)c7ccc4[nH]7)C=C6)C=C5)cc3)cc2)cc1
REMARK SMILES IDX 30 1 29 2 28 3 27 4 26 5 25 6 23 7 24 8 22 9 21 10 18 11
REMARK SMILES IDX 19 12 101 13 20 14 100 15 17 16 9 17 10 18 11 19 16 20 8 21
REMARK SMILES IDX 5 22 6 23 103 24 7 25 102 26 2 27 3 28 4 29 1 30 12 33 13 34
REMARK SMILES IDX 14 35 15 36 31 37 32 38 33 39 34 40 35 41 36 42 37 43 38 44
REMARK SMILES IDX 39 45 40 46 41 47 99 48 42 49 98 50 43 51 44 52 45 53 92 54
REMARK SMILES IDX 46 55 97 56 91 57 93 58 47 59 96 60 90 61 89 62 48 64 78 65
REMARK SMILES IDX 59 66 77 67 60 68 63 69 76 70 94 71 61 72 62 73 75 75 95 76
REMARK SMILES IDX 64 77 49 78 50 79 58 80 51 81 57 82 52 83 53 84 54 85 55 86
REMARK SMILES IDX 56 87 79 88 80 89 88 90 81 91 87 92 82 93 83 94 84 95 85 96
REMARK SMILES IDX 86 97 65 98 66 99 74 100 67 101 73 102 68 103 69 104 70 105
REMARK SMILES IDX 71 106 72 107
REMARK H PARENT 1 31 1 32 93 63 63 74
REMARK Flexibility Score: inf
ROOT
ATOM      1  C   UNL A   1      49.270  33.540  27.766  1.00  0.00     0.188 C 
ENDROOT
BRANCH   1   2
ATOM      2  C   UNL A   1      49.048  32.101  27.231  1.00  0.00     0.188 C 
BRANCH   2   3
ATOM      3  O   UNL A   1      47.852  31.714  26.548  1.00  0.00    -0.376 OA
BRANCH   3   4
ATOM      4  C   UNL A   1      46.737  32.589  26.552  1.00  0.00     0.202 C 
BRANCH   4   5
ATOM      5  C   UNL A   1      45.370  31.889  26.665  1.00  0.00     0.261 C 
BRANCH   5   6
ATOM      6  O   UNL A   1      45.442  30.486  26.998  1.00  0.00    -0.463 OA
BRANCH   6   7
ATOM      7  C   UNL A   1      44.257  29.837  27.030  1.00  0.00     0.310 C 
ATOM      8  O   UNL A   1      43.271  30.182  26.380  1.00  0.00    -0.252 OA
BRANCH   7   9
ATOM      9  C   UNL A   1      44.202  28.633  27.945  1.00  0.00     0.158 C 
BRANCH   9  10
ATOM     10  C   UNL A   1      43.534  27.323  27.547  1.00  0.00    -0.037 A 
ATOM     11  C   UNL A   1      41.815  25.135  26.867  1.00  0.00     0.000 A 
ATOM     12  C   UNL A   1      42.253  26.035  25.890  1.00  0.00     0.010 A 
ATOM     13  C   UNL A   1      42.300  25.313  28.174  1.00  0.00     0.010 A 
ATOM     14  C   UNL A   1      43.100  27.111  26.225  1.00  0.00     0.005 A 
ATOM     15  C   UNL A   1      43.153  26.383  28.510  1.00  0.00     0.005 A 
BRANCH  11  16
ATOM     16  C   UNL A   1      40.725  24.169  26.604  1.00  0.00     0.075 A 
ATOM     17  N   UNL A   1      40.775  22.875  26.057  1.00  0.00    -0.233 N 
ATOM     18  N   UNL A   1      39.533  22.429  25.733  1.00  0.00    -0.163 NA
ATOM     19  C   UNL A   1      38.669  23.341  26.194  1.00  0.00     0.167 A 
ATOM     20  C   UNL A   1      39.368  24.446  26.724  1.00  0.00     0.064 A 
BRANCH  17  21
ATOM     21  C   UNL A   1      41.866  21.980  25.830  1.00  0.00     0.065 A 
ATOM     22  C   UNL A   1      44.067  20.265  25.325  1.00  0.00     0.082 A 
ATOM     23  C   UNL A   1      42.872  19.794  25.870  1.00  0.00     0.024 A 
ATOM     24  C   UNL A   1      44.174  21.623  25.047  1.00  0.00     0.024 A 
ATOM     25  C   UNL A   1      41.771  20.625  26.114  1.00  0.00     0.030 A 
ATOM     26  C   UNL A   1      43.068  22.466  25.266  1.00  0.00     0.030 A 
BRANCH  22  27
ATOM     27  S   UNL A   1      45.472  19.179  25.108  1.00  0.00     0.238 S 
ATOM     28  O   UNL A   1      46.609  19.760  25.787  1.00  0.00    -0.207 OA
ATOM     29  O   UNL A   1      45.543  18.830  23.714  1.00  0.00    -0.207 OA
BRANCH  27  30
ATOM     30  N   UNL A   1      45.202  17.792  25.998  1.00  0.00    -0.225 NA
ATOM     31  H   UNL A   1      45.578  17.912  26.939  1.00  0.00     0.137 HD
ATOM     32  H   UNL A   1      45.662  17.003  25.546  1.00  0.00     0.137 HD
ENDBRANCH  27  30
ENDBRANCH  22  27
ENDBRANCH  17  21
BRANCH  19  33
ATOM     33  C   UNL A   1      37.172  23.176  26.105  1.00  0.00     0.435 C 
ATOM     34  F   UNL A   1      36.503  23.722  27.150  1.00  0.00    -0.164 F 
ATOM     35  F   UNL A   1      36.677  23.726  24.966  1.00  0.00    -0.164 F 
ATOM     36  F   UNL A   1      36.828  21.857  26.071  1.00  0.00    -0.164 F 
ENDBRANCH  19  33
ENDBRANCH  11  16
ENDBRANCH   9  10
ENDBRANCH   7   9
ENDBRANCH   6   7
ENDBRANCH   5   6
ENDBRANCH   4   5
ENDBRANCH   3   4
ENDBRANCH   2   3
ENDBRANCH   1   2
BRANCH   1  37
ATOM     37  O   UNL A   1      48.486  33.868  28.903  1.00  0.00    -0.377 OA
BRANCH  37  38
ATOM     38  C   UNL A   1      48.855  34.983  29.700  1.00  0.00     0.188 C 
BRANCH  38  39
ATOM     39  C   UNL A   1      47.750  35.828  30.357  1.00  0.00     0.188 C 
BRANCH  39  40
ATOM     40  O   UNL A   1      47.349  36.947  29.603  1.00  0.00    -0.376 OA
BRANCH  40  41
ATOM     41  C   UNL A   1      46.147  36.939  28.875  1.00  0.00     0.202 C 
BRANCH  41  42
ATOM     42  C   UNL A   1      45.391  38.214  28.534  1.00  0.00     0.261 C 
BRANCH  42  43
ATOM     43  O   UNL A   1      44.958  38.437  27.189  1.00  0.00    -0.460 OA
BRANCH  43  44
ATOM     44  C   UNL A   1      44.186  39.558  27.052  1.00  0.00     0.338 C 
ATOM     45  O   UNL A   1      42.967  39.570  26.994  1.00  0.00    -0.246 OA
BRANCH  44  46
ATOM     46  C   UNL A   1      45.049  40.724  26.747  1.00  0.00     0.060 A 
ATOM     47  C   UNL A   1      44.416  41.968  26.690  1.00  0.00     0.016 A 
ATOM     48  C   UNL A   1      46.373  40.589  26.316  1.00  0.00     0.016 A 
ATOM     49  C   UNL A   1      45.045  43.029  26.045  1.00  0.00     0.010 A 
ATOM     50  C   UNL A   1      46.990  41.649  25.641  1.00  0.00     0.010 A 
ATOM     51  C   UNL A   1      46.302  42.852  25.449  1.00  0.00    -0.014 A 
BRANCH  51  52
ATOM     52  C   UNL A   1      46.935  44.029  24.846  1.00  0.00     0.031 A 
ATOM     53  C   UNL A   1      46.355  44.400  23.548  1.00  0.00     0.074 A 
ATOM     54  C   UNL A   1      47.936  44.804  25.311  1.00  0.00     0.049 A 
ATOM     55  N   UNL A   1      46.824  44.118  22.380  1.00  0.00    -0.248 NA
ATOM     56  C   UNL A   1      45.044  45.058  23.559  1.00  0.00     0.031 C 
ATOM     57  C   UNL A   1      48.442  44.872  26.667  1.00  0.00     0.029 A 
ATOM     58  N   UNL A   1      48.683  45.757  24.666  1.00  0.00    -0.354 N 
ATOM     59  C   UNL A   1      45.972  44.759  21.499  1.00  0.00     0.074 A 
ATOM     60  C   UNL A   1      44.798  45.133  22.254  1.00  0.00     0.031 C 
ATOM     61  C   UNL A   1      49.332  45.874  26.794  1.00  0.00     0.029 A 
ATOM     62  C   UNL A   1      49.492  46.516  25.508  1.00  0.00     0.049 A 
ATOM     63  H   UNL A   1      48.650  45.891  23.691  1.00  0.00     0.167 HD
ATOM     64  C   UNL A   1      46.393  45.201  20.285  1.00  0.00     0.031 A 
ATOM     65  C   UNL A   1      50.195  47.637  25.209  1.00  0.00     0.031 A 
ATOM     66  C   UNL A   1      47.661  44.652  19.886  1.00  0.00     0.049 A 
ATOM     67  C   UNL A   1      50.417  47.653  23.745  1.00  0.00     0.074 A 
ATOM     68  C   UNL A   1      48.177  43.376  19.763  1.00  0.00     0.029 A 
ATOM     69  N   UNL A   1      48.744  45.500  19.862  1.00  0.00    -0.354 N 
ATOM     70  N   UNL A   1      51.236  46.851  23.125  1.00  0.00    -0.248 NA
ATOM     71  C   UNL A   1      49.456  48.339  22.896  1.00  0.00     0.031 C 
ATOM     72  C   UNL A   1      49.555  43.487  20.105  1.00  0.00     0.029 A 
ATOM     73  C   UNL A   1      49.812  44.827  20.400  1.00  0.00     0.049 A 
ATOM     74  H   UNL A   1      48.752  46.423  19.520  1.00  0.00     0.167 HD
ATOM     75  C   UNL A   1      50.642  46.615  21.895  1.00  0.00     0.074 A 
ATOM     76  C   UNL A   1      49.623  47.650  21.765  1.00  0.00     0.031 C 
ATOM     77  C   UNL A   1      50.835  45.439  21.229  1.00  0.00     0.031 A 
BRANCH  64  78
ATOM     78  C   UNL A   1      45.806  46.436  19.662  1.00  0.00    -0.014 A 
ATOM     79  C   UNL A   1      46.071  47.692  20.228  1.00  0.00     0.010 A 
ATOM     80  C   UNL A   1      44.808  46.364  18.666  1.00  0.00     0.010 A 
ATOM     81  C   UNL A   1      45.356  48.825  19.817  1.00  0.00     0.020 A 
ATOM     82  C   UNL A   1      44.133  47.491  18.209  1.00  0.00     0.020 A 
ATOM     83  C   UNL A   1      44.391  48.714  18.812  1.00  0.00     0.054 A 
BRANCH  83  84
ATOM     84  S   UNL A   1      43.421  50.162  18.337  1.00  0.00     0.124 S 
ATOM     85  O   UNL A   1      44.153  50.634  17.166  1.00  0.00    -0.237 OA
ATOM     86  O   UNL A   1      42.105  49.587  18.077  1.00  0.00    -0.237 OA
ATOM     87  O   UNL A   1      43.496  51.022  19.517  1.00  0.00    -0.744 OA
ENDBRANCH  83  84
ENDBRANCH  64  78
BRANCH  65  88
ATOM     88  C   UNL A   1      50.477  48.803  26.091  1.00  0.00    -0.014 A 
ATOM     89  C   UNL A   1      49.749  50.000  25.957  1.00  0.00     0.010 A 
ATOM     90  C   UNL A   1      51.278  48.663  27.244  1.00  0.00     0.010 A 
ATOM     91  C   UNL A   1      49.747  50.968  26.979  1.00  0.00     0.020 A 
ATOM     92  C   UNL A   1      51.306  49.632  28.253  1.00  0.00     0.020 A 
ATOM     93  C   UNL A   1      50.508  50.762  28.134  1.00  0.00     0.054 A 
BRANCH  93  94
ATOM     94  S   UNL A   1      50.320  51.886  29.548  1.00  0.00     0.124 S 
ATOM     95  O   UNL A   1      48.970  52.405  29.356  1.00  0.00    -0.237 OA
ATOM     96  O   UNL A   1      50.498  50.991  30.689  1.00  0.00    -0.237 OA
ATOM     97  O   UNL A   1      51.394  52.859  29.358  1.00  0.00    -0.744 OA
ENDBRANCH  93  94
ENDBRANCH  65  88
BRANCH  77  98
ATOM     98  C   UNL A   1      52.022  44.574  21.592  1.00  0.00    -0.014 A 
ATOM     99  C   UNL A   1      52.289  44.118  22.897  1.00  0.00     0.010 A 
ATOM    100  C   UNL A   1      52.826  44.094  20.542  1.00  0.00     0.010 A 
ATOM    101  C   UNL A   1      53.342  43.226  23.145  1.00  0.00     0.020 A 
ATOM    102  C   UNL A   1      53.865  43.188  20.778  1.00  0.00     0.020 A 
ATOM    103  C   UNL A   1      54.123  42.763  22.081  1.00  0.00     0.054 A 
BRANCH 103 104
ATOM    104  S   UNL A   1      55.430  41.545  22.403  1.00  0.00     0.124 S 
ATOM    105  O   UNL A   1      55.084  40.461  21.488  1.00  0.00    -0.237 OA
ATOM    106  O   UNL A   1      56.647  42.285  22.074  1.00  0.00    -0.237 OA
ATOM    107  O   UNL A   1      55.272  41.233  23.823  1.00  0.00    -0.744 OA
ENDBRANCH 103 104
ENDBRANCH  77  98
ENDBRANCH  51  52
ENDBRANCH  44  46
ENDBRANCH  43  44
ENDBRANCH  42  43
ENDBRANCH  41  42
ENDBRANCH  40  41
ENDBRANCH  39  40
ENDBRANCH  38  39
ENDBRANCH  37  38
ENDBRANCH   1  37
TORSDOF 29
ENDMDL
MODEL 2
REMARK VINA RESULT:      -8.4     11.659     17.553
REMARK SMILES NS(=O)(=O)c1ccc(-n2nc(C(F)(F)F)cc2-c2ccc(CC(=O)OCCOCCOCCOCCOC(=O)c3ccc(-c4c5nc(c(-c6ccc(S(=O)(=O)[O-])cc6)c6ccc([nH]6)c(-c6ccc(S(=O)(=O)[O-])cc6)c6nc(c(-c7ccc(S(=O)(=O)[O-])cc7)c7ccc4[nH]7)C=C6)C=C5)cc3)cc2)cc1
REMARK SMILES IDX 30 1 29 2 28 3 27 4 26 5 25 6 23 7 24 8 22 9 21 10 18 11
REMARK SMILES IDX 19 12 101 13 20 14 100 15 17 16 9 17 10 18 11 19 16 20 8 21
REMARK SMILES IDX 5 22 6 23 103 24 7 25 102 26 2 27 3 28 4 29 1 30 12 33 13 34
REMARK SMILES IDX 14 35 15 36 31 37 32 38 33 39 34 40 35 41 36 42 37 43 38 44
REMARK SMILES IDX 39 45 40 46 41 47 99 48 42 49 98 50 43 51 44 52 45 53 92 54
REMARK SMILES IDX 46 55 97 56 91 57 93 58 47 59 96 60 90 61 89 62 48 64 78 65
REMARK SMILES IDX 59 66 77 67 60 68 63 69 76 70 94 71 61 72 62 73 75 75 95 76
REMARK SMILES IDX 64 77 49 78 50 79 58 80 51 81 57 82 52 83 53 84 54 85 55 86
REMARK SMILES IDX 56 87 79 88 80 89 88 90 81 91 87 92 82 93 83 94 84 95 85 96
REMARK SMILES IDX 86 97 65 98 66 99 74 100 67 101 73 102 68 103 69 104 70 105
REMARK SMILES IDX 71 106 72 107
REMARK H PARENT 1 31 1 32 93 63 63 74
REMARK Flexibility Score: inf
ROOT
ATOM      1  C   UNL A   1      41.508  26.974  27.367  1.00  0.00     0.188 C 
ENDROOT
BRANCH   1   2
ATOM      2  C   UNL A   1      41.695  28.424  27.882  1.00  0.00     0.188 C 
BRANCH   2   3
ATOM      3  O   UNL A   1      40.688  29.107  28.634  1.00  0.00    -0.376 OA
BRANCH   3   4
ATOM      4  C   UNL A   1      39.350  29.098  28.167  1.00  0.00     0.202 C 
BRANCH   4   5
ATOM      5  C   UNL A   1      38.574  30.407  28.412  1.00  0.00     0.261 C 
BRANCH   5   6
ATOM      6  O   UNL A   1      37.356  30.246  29.170  1.00  0.00    -0.463 OA
BRANCH   6   7
ATOM      7  C   UNL A   1      36.221  30.596  28.524  1.00  0.00     0.310 C 
ATOM      8  O   UNL A   1      36.131  31.573  27.782  1.00  0.00    -0.252 OA
BRANCH   7   9
ATOM      9  C   UNL A   1      35.029  29.700  28.779  1.00  0.00     0.158 C 
BRANCH   9  10
ATOM     10  C   UNL A   1      34.178  29.120  27.657  1.00  0.00    -0.037 A 
ATOM     11  C   UNL A   1      32.395  28.536  25.492  1.00  0.00     0.000 A 
ATOM     12  C   UNL A   1      33.712  28.939  25.249  1.00  0.00     0.010 A 
ATOM     13  C   UNL A   1      32.005  28.371  26.833  1.00  0.00     0.010 A 
ATOM     14  C   UNL A   1      34.589  29.225  26.315  1.00  0.00     0.005 A 
ATOM     15  C   UNL A   1      32.884  28.649  27.900  1.00  0.00     0.005 A 
BRANCH  11  16
ATOM     16  C   UNL A   1      31.382  28.490  24.414  1.00  0.00     0.075 A 
ATOM     17  N   UNL A   1      31.056  27.455  23.522  1.00  0.00    -0.233 N 
ATOM     18  N   UNL A   1      30.262  27.903  22.515  1.00  0.00    -0.163 NA
ATOM     19  C   UNL A   1      29.945  29.169  22.815  1.00  0.00     0.167 A 
ATOM     20  C   UNL A   1      30.635  29.578  23.975  1.00  0.00     0.064 A 
BRANCH  17  21
ATOM     21  C   UNL A   1      31.379  26.062  23.522  1.00  0.00     0.065 A 
ATOM     22  C   UNL A   1      32.103  23.321  23.494  1.00  0.00     0.082 A 
ATOM     23  C   UNL A   1      30.771  23.733  23.521  1.00  0.00     0.024 A 
ATOM     24  C   UNL A   1      33.095  24.296  23.504  1.00  0.00     0.024 A 
ATOM     25  C   UNL A   1      30.396  25.084  23.523  1.00  0.00     0.030 A 
ATOM     26  C   UNL A   1      32.733  25.656  23.483  1.00  0.00     0.030 A 
BRANCH  22  27
ATOM     27  S   UNL A   1      32.533  21.586  23.575  1.00  0.00     0.238 S 
ATOM     28  O   UNL A   1      33.941  21.478  23.887  1.00  0.00    -0.207 OA
ATOM     29  O   UNL A   1      31.982  20.945  22.411  1.00  0.00    -0.207 OA
BRANCH  27  30
ATOM     30  N   UNL A   1      31.819  20.935  24.938  1.00  0.00    -0.225 NA
ATOM     31  H   UNL A   1      31.224  20.151  24.669  1.00  0.00     0.137 HD
ATOM     32  H   UNL A   1      31.254  21.648  25.399  1.00  0.00     0.137 HD
ENDBRANCH  27  30
ENDBRANCH  22  27
ENDBRANCH  17  21
BRANCH  19  33
ATOM     33  C   UNL A   1      29.004  30.003  21.981  1.00  0.00     0.435 C 
ATOM     34  F   UNL A   1      28.660  31.178  22.562  1.00  0.00    -0.164 F 
ATOM     35  F   UNL A   1      29.537  30.285  20.763  1.00  0.00    -0.164 F 
ATOM     36  F   UNL A   1      27.841  29.332  21.740  1.00  0.00    -0.164 F 
ENDBRANCH  19  33
ENDBRANCH  11  16
ENDBRANCH   9  10
ENDBRANCH   7   9
ENDBRANCH   6   7
ENDBRANCH   5   6
ENDBRANCH   4   5
ENDBRANCH   3   4
ENDBRANCH   2   3
ENDBRANCH   1   2
BRANCH   1  37
ATOM     37  O   UNL A   1      40.251  26.398  27.689  1.00  0.00    -0.377 OA
BRANCH  37  38
ATOM     38  C   UNL A   1      40.201  25.057  28.149  1.00  0.00     0.188 C 
BRANCH  38  39
ATOM     39  C   UNL A   1      40.185  23.914  27.119  1.00  0.00     0.188 C 
BRANCH  39  40
ATOM     40  O   UNL A   1      41.256  23.009  27.239  1.00  0.00    -0.376 OA
BRANCH  40  41
ATOM     41  C   UNL A   1      41.905  22.497  26.102  1.00  0.00     0.202 C 
BRANCH  41  42
ATOM     42  C   UNL A   1      42.728  23.371  25.169  1.00  0.00     0.261 C 
BRANCH  42  43
ATOM     43  O   UNL A   1      43.373  22.780  24.037  1.00  0.00    -0.460 OA
BRANCH  43  44
ATOM     44  C   UNL A   1      44.644  22.349  24.306  1.00  0.00     0.338 C 
ATOM     45  O   UNL A   1      45.062  21.221  24.104  1.00  0.00    -0.246 OA
BRANCH  44  46
ATOM     46  C   UNL A   1      45.364  23.379  25.091  1.00  0.00     0.060 A 
ATOM     47  C   UNL A   1      46.012  22.940  26.248  1.00  0.00     0.016 A 
ATOM     48  C   UNL A   1      45.231  24.750  24.839  1.00  0.00     0.016 A 
ATOM     49  C   UNL A   1      46.368  23.862  27.227  1.00  0.00     0.010 A 
ATOM     50  C   UNL A   1      45.562  25.670  25.839  1.00  0.00     0.010 A 
ATOM     51  C   UNL A   1      46.074  25.223  27.061  1.00  0.00    -0.014 A 
BRANCH  51  52
ATOM     52  C   UNL A   1      46.538  26.146  28.102  1.00  0.00     0.031 A 
ATOM     53  C   UNL A   1      47.371  27.238  27.580  1.00  0.00     0.074 A 
ATOM     54  C   UNL A   1      46.300  26.141  29.429  1.00  0.00     0.049 A 
ATOM     55  N   UNL A   1      48.660  27.302  27.590  1.00  0.00    -0.248 NA
ATOM     56  C   UNL A   1      46.692  28.321  26.862  1.00  0.00     0.031 C 
ATOM     57  C   UNL A   1      45.271  25.408  30.138  1.00  0.00     0.029 A 
ATOM     58  N   UNL A   1      46.905  26.853  30.434  1.00  0.00    -0.354 N 
ATOM     59  C   UNL A   1      48.950  28.550  27.071  1.00  0.00     0.074 A 
ATOM     60  C   UNL A   1      47.737  29.036  26.453  1.00  0.00     0.031 C 
ATOM     61  C   UNL A   1      45.232  25.773  31.433  1.00  0.00     0.029 A 
ATOM     62  C   UNL A   1      46.264  26.759  31.667  1.00  0.00     0.049 A 
ATOM     63  H   UNL A   1      47.722  27.385  30.294  1.00  0.00     0.167 HD
ATOM     64  C   UNL A   1      50.070  29.235  27.423  1.00  0.00     0.031 A 
ATOM     65  C   UNL A   1      46.501  27.480  32.792  1.00  0.00     0.031 A 
ATOM     66  C   UNL A   1      51.049  28.419  28.092  1.00  0.00     0.049 A 
ATOM     67  C   UNL A   1      47.879  28.013  32.705  1.00  0.00     0.074 A 
ATOM     68  C   UNL A   1      51.690  27.230  27.803  1.00  0.00     0.029 A 
ATOM     69  N   UNL A   1      51.258  28.643  29.433  1.00  0.00    -0.354 N 
ATOM     70  N   UNL A   1      48.951  27.282  32.825  1.00  0.00    -0.248 NA
ATOM     71  C   UNL A   1      48.087  29.330  32.126  1.00  0.00     0.031 C 
ATOM     72  C   UNL A   1      51.879  26.583  29.058  1.00  0.00     0.029 A 
ATOM     73  C   UNL A   1      51.362  27.420  30.048  1.00  0.00     0.049 A 
ATOM     74  H   UNL A   1      51.321  29.521  29.873  1.00  0.00     0.167 HD
ATOM     75  C   UNL A   1      49.879  27.865  31.978  1.00  0.00     0.074 A 
ATOM     76  C   UNL A   1      49.335  29.185  31.676  1.00  0.00     0.031 C 
ATOM     77  C   UNL A   1      50.853  27.123  31.374  1.00  0.00     0.031 A 
BRANCH  64  78
ATOM     78  C   UNL A   1      50.075  30.735  27.491  1.00  0.00    -0.014 A 
ATOM     79  C   UNL A   1      50.910  31.466  26.632  1.00  0.00     0.010 A 
ATOM     80  C   UNL A   1      49.446  31.435  28.545  1.00  0.00     0.010 A 
ATOM     81  C   UNL A   1      51.111  32.839  26.831  1.00  0.00     0.020 A 
ATOM     82  C   UNL A   1      49.592  32.806  28.716  1.00  0.00     0.020 A 
ATOM     83  C   UNL A   1      50.451  33.496  27.873  1.00  0.00     0.054 A 
BRANCH  83  84
ATOM     84  S   UNL A   1      50.769  35.250  28.169  1.00  0.00     0.124 S 
ATOM     85  O   UNL A   1      50.286  35.410  29.536  1.00  0.00    -0.237 OA
ATOM     86  O   UNL A   1      52.216  35.341  27.989  1.00  0.00    -0.237 OA
ATOM     87  O   UNL A   1      49.977  35.917  27.137  1.00  0.00    -0.744 OA
ENDBRANCH  83  84
ENDBRANCH  64  78
BRANCH  65  88
ATOM     88  C   UNL A   1      45.517  27.920  33.820  1.00  0.00    -0.014 A 
ATOM     89  C   UNL A   1      44.996  29.228  33.805  1.00  0.00     0.010 A 
ATOM     90  C   UNL A   1      44.882  26.984  34.663  1.00  0.00     0.010 A 
ATOM     91  C   UNL A   1      43.833  29.554  34.527  1.00  0.00     0.020 A 
ATOM     92  C   UNL A   1      43.741  27.307  35.407  1.00  0.00     0.020 A 
ATOM     93  C   UNL A   1      43.199  28.581  35.303  1.00  0.00     0.054 A 
BRANCH  93  94
ATOM     94  S   UNL A   1      41.575  28.931  36.036  1.00  0.00     0.124 S 
ATOM     95  O   UNL A   1      41.866  30.060  36.913  1.00  0.00    -0.237 OA
ATOM     96  O   UNL A   1      40.757  29.233  34.865  1.00  0.00    -0.237 OA
ATOM     97  O   UNL A   1      41.231  27.685  36.720  1.00  0.00    -0.744 OA
ENDBRANCH  93  94
ENDBRANCH  65  88
BRANCH  77  98
ATOM     98  C   UNL A   1      51.208  25.769  31.950  1.00  0.00    -0.014 A 
ATOM     99  C   UNL A   1      50.357  24.649  31.903  1.00  0.00     0.010 A 
ATOM    100  C   UNL A   1      52.516  25.591  32.440  1.00  0.00     0.010 A 
ATOM    101  C   UNL A   1      50.792  23.395  32.354  1.00  0.00     0.020 A 
ATOM    102  C   UNL A   1      52.965  24.338  32.872  1.00  0.00     0.020 A 
ATOM    103  C   UNL A   1      52.097  23.247  32.833  1.00  0.00     0.054 A 
BRANCH 103 104
ATOM    104  S   UNL A   1      52.677  21.602  33.336  1.00  0.00     0.124 S 
ATOM    105  O   UNL A   1      51.452  20.966  33.812  1.00  0.00    -0.237 OA
ATOM    106  O   UNL A   1      53.228  21.061  32.094  1.00  0.00    -0.237 OA
ATOM    107  O   UNL A   1      53.671  21.886  34.370  1.00  0.00    -0.744 OA
ENDBRANCH 103 104
ENDBRANCH  77  98
ENDBRANCH  51  52
ENDBRANCH  44  46
ENDBRANCH  43  44
ENDBRANCH  42  43
ENDBRANCH  41  42
ENDBRANCH  40  41
ENDBRANCH  39  40
ENDBRANCH  38  39
ENDBRANCH  37  38
ENDBRANCH   1  37
TORSDOF 29
ENDMDL
MODEL 3
REMARK VINA RESULT:      -8.3      8.420     17.640
REMARK SMILES NS(=O)(=O)c1ccc(-n2nc(C(F)(F)F)cc2-c2ccc(CC(=O)OCCOCCOCCOCCOC(=O)c3ccc(-c4c5nc(c(-c6ccc(S(=O)(=O)[O-])cc6)c6ccc([nH]6)c(-c6ccc(S(=O)(=O)[O-])cc6)c6nc(c(-c7ccc(S(=O)(=O)[O-])cc7)c7ccc4[nH]7)C=C6)C=C5)cc3)cc2)cc1
REMARK SMILES IDX 30 1 29 2 28 3 27 4 26 5 25 6 23 7 24 8 22 9 21 10 18 11
REMARK SMILES IDX 19 12 101 13 20 14 100 15 17 16 9 17 10 18 11 19 16 20 8 21
REMARK SMILES IDX 5 22 6 23 103 24 7 25 102 26 2 27 3 28 4 29 1 30 12 33 13 34
REMARK SMILES IDX 14 35 15 36 31 37 32 38 33 39 34 40 35 41 36 42 37 43 38 44
REMARK SMILES IDX 39 45 40 46 41 47 99 48 42 49 98 50 43 51 44 52 45 53 92 54
REMARK SMILES IDX 46 55 97 56 91 57 93 58 47 59 96 60 90 61 89 62 48 64 78 65
REMARK SMILES IDX 59 66 77 67 60 68 63 69 76 70 94 71 61 72 62 73 75 75 95 76
REMARK SMILES IDX 64 77 49 78 50 79 58 80 51 81 57 82 52 83 53 84 54 85 55 86
REMARK SMILES IDX 56 87 79 88 80 89 88 90 81 91 87 92 82 93 83 94 84 95 85 96
REMARK SMILES IDX 86 97 65 98 66 99 74 100 67 101 73 102 68 103 69 104 70 105
REMARK SMILES IDX 71 106 72 107
REMARK H PARENT 1 31 1 32 93 63 63 74
REMARK Flexibility Score: inf
ROOT
ATOM      1  C   UNL A   1      38.911  32.453  34.524  1.00  0.00     0.188 C 
ENDROOT
BRANCH   1   2
ATOM      2  C   UNL A   1      39.224  31.055  33.931  1.00  0.00     0.188 C 
BRANCH   2   3
ATOM      3  O   UNL A   1      38.457  30.485  32.866  1.00  0.00    -0.376 OA
BRANCH   3   4
ATOM      4  C   UNL A   1      38.980  30.502  31.549  1.00  0.00     0.202 C 
BRANCH   4   5
ATOM      5  C   UNL A   1      38.244  31.443  30.576  1.00  0.00     0.261 C 
BRANCH   5   6
ATOM      6  O   UNL A   1      39.112  32.287  29.789  1.00  0.00    -0.463 OA
BRANCH   6   7
ATOM      7  C   UNL A   1      39.853  33.172  30.493  1.00  0.00     0.310 C 
ATOM      8  O   UNL A   1      39.407  33.859  31.411  1.00  0.00    -0.252 OA
BRANCH   7   9
ATOM      9  C   UNL A   1      41.302  33.285  30.070  1.00  0.00     0.158 C 
BRANCH   9  10
ATOM     10  C   UNL A   1      41.984  34.622  29.811  1.00  0.00    -0.037 A 
ATOM     11  C   UNL A   1      43.539  36.865  28.943  1.00  0.00     0.000 A 
ATOM     12  C   UNL A   1      42.314  36.564  28.339  1.00  0.00     0.010 A 
ATOM     13  C   UNL A   1      43.942  36.063  30.025  1.00  0.00     0.010 A 
ATOM     14  C   UNL A   1      41.548  35.461  28.768  1.00  0.00     0.005 A 
ATOM     15  C   UNL A   1      43.174  34.964  30.461  1.00  0.00     0.005 A 
BRANCH  11  16
ATOM     16  C   UNL A   1      44.483  37.838  28.348  1.00  0.00     0.075 A 
ATOM     17  N   UNL A   1      44.662  39.205  28.617  1.00  0.00    -0.233 N 
ATOM     18  N   UNL A   1      45.438  39.796  27.671  1.00  0.00    -0.163 NA
ATOM     19  C   UNL A   1      45.888  38.814  26.880  1.00  0.00     0.167 A 
ATOM     20  C   UNL A   1      45.303  37.586  27.253  1.00  0.00     0.064 A 
BRANCH  17  21
ATOM     21  C   UNL A   1      44.211  40.030  29.694  1.00  0.00     0.065 A 
ATOM     22  C   UNL A   1      43.277  41.718  31.771  1.00  0.00     0.082 A 
ATOM     23  C   UNL A   1      44.319  40.813  31.967  1.00  0.00     0.024 A 
ATOM     24  C   UNL A   1      42.673  41.767  30.519  1.00  0.00     0.024 A 
ATOM     25  C   UNL A   1      44.802  39.980  30.949  1.00  0.00     0.030 A 
ATOM     26  C   UNL A   1      43.162  40.953  29.480  1.00  0.00     0.030 A 
BRANCH  22  27
ATOM     27  S   UNL A   1      42.643  42.702  33.124  1.00  0.00     0.238 S 
ATOM     28  O   UNL A   1      41.786  41.867  33.935  1.00  0.00    -0.207 OA
ATOM     29  O   UNL A   1      42.162  43.942  32.576  1.00  0.00    -0.207 OA
BRANCH  27  30
ATOM     30  N   UNL A   1      43.906  43.028  34.168  1.00  0.00    -0.225 NA
ATOM     31  H   UNL A   1      44.793  42.923  33.673  1.00  0.00     0.137 HD
ATOM     32  H   UNL A   1      43.876  42.377  34.952  1.00  0.00     0.137 HD
ENDBRANCH  27  30
ENDBRANCH  22  27
ENDBRANCH  17  21
BRANCH  19  33
ATOM     33  C   UNL A   1      46.854  39.048  25.745  1.00  0.00     0.435 C 
ATOM     34  F   UNL A   1      46.565  40.145  25.004  1.00  0.00    -0.164 F 
ATOM     35  F   UNL A   1      48.129  39.178  26.196  1.00  0.00    -0.164 F 
ATOM     36  F   UNL A   1      46.861  37.989  24.885  1.00  0.00    -0.164 F 
ENDBRANCH  19  33
ENDBRANCH  11  16
ENDBRANCH   9  10
ENDBRANCH   7   9
ENDBRANCH   6   7
ENDBRANCH   5   6
ENDBRANCH   4   5
ENDBRANCH   3   4
ENDBRANCH   2   3
ENDBRANCH   1   2
BRANCH   1  37
ATOM     37  O   UNL A   1      37.727  32.503  35.306  1.00  0.00    -0.377 OA
BRANCH  37  38
ATOM     38  C   UNL A   1      37.585  33.523  36.282  1.00  0.00     0.188 C 
BRANCH  38  39
ATOM     39  C   UNL A   1      38.836  34.033  37.017  1.00  0.00     0.188 C 
BRANCH  39  40
ATOM     40  O   UNL A   1      39.318  35.271  36.552  1.00  0.00    -0.376 OA
BRANCH  40  41
ATOM     41  C   UNL A   1      39.713  35.440  35.214  1.00  0.00     0.202 C 
BRANCH  41  42
ATOM     42  C   UNL A   1      41.173  35.478  34.792  1.00  0.00     0.261 C 
BRANCH  42  43
ATOM     43  O   UNL A   1      42.168  34.901  35.642  1.00  0.00    -0.460 OA
BRANCH  43  44
ATOM     44  C   UNL A   1      42.303  33.550  35.472  1.00  0.00     0.338 C 
ATOM     45  O   UNL A   1      41.907  32.699  36.252  1.00  0.00    -0.246 OA
BRANCH  44  46
ATOM     46  C   UNL A   1      43.205  33.280  34.327  1.00  0.00     0.060 A 
ATOM     47  C   UNL A   1      42.704  32.446  33.325  1.00  0.00     0.016 A 
ATOM     48  C   UNL A   1      44.557  33.639  34.331  1.00  0.00     0.016 A 
ATOM     49  C   UNL A   1      43.585  31.835  32.437  1.00  0.00     0.010 A 
ATOM     50  C   UNL A   1      45.443  33.000  33.457  1.00  0.00     0.010 A 
ATOM     51  C   UNL A   1      44.967  32.049  32.548  1.00  0.00    -0.014 A 
BRANCH  51  52
ATOM     52  C   UNL A   1      45.829  31.429  31.538  1.00  0.00     0.031 A 
ATOM     53  C   UNL A   1      46.118  32.312  30.399  1.00  0.00     0.074 A 
ATOM     54  C   UNL A   1      46.391  30.203  31.517  1.00  0.00     0.049 A 
ATOM     55  N   UNL A   1      45.538  32.305  29.247  1.00  0.00    -0.248 NA
ATOM     56  C   UNL A   1      47.078  33.399  30.615  1.00  0.00     0.031 C 
ATOM     57  C   UNL A   1      46.550  29.287  32.628  1.00  0.00     0.029 A 
ATOM     58  N   UNL A   1      47.004  29.534  30.488  1.00  0.00    -0.354 N 
ATOM     59  C   UNL A   1      46.220  33.254  28.508  1.00  0.00     0.074 A 
ATOM     60  C   UNL A   1      46.998  34.030  29.447  1.00  0.00     0.031 C 
ATOM     61  C   UNL A   1      47.300  28.228  32.268  1.00  0.00     0.029 A 
ATOM     62  C   UNL A   1      47.661  28.368  30.875  1.00  0.00     0.049 A 
ATOM     63  H   UNL A   1      46.980  29.851  29.555  1.00  0.00     0.167 HD
ATOM     64  C   UNL A   1      46.336  33.169  27.157  1.00  0.00     0.031 A 
ATOM     65  C   UNL A   1      48.502  27.597  30.141  1.00  0.00     0.031 A 
ATOM     66  C   UNL A   1      45.426  32.224  26.566  1.00  0.00     0.049 A 
ATOM     67  C   UNL A   1      48.222  27.857  28.711  1.00  0.00     0.074 A 
ATOM     68  C   UNL A   1      44.058  32.030  26.607  1.00  0.00     0.029 A 
ATOM     69  N   UNL A   1      45.956  31.065  26.048  1.00  0.00    -0.354 N 
ATOM     70  N   UNL A   1      47.147  27.449  28.095  1.00  0.00    -0.248 NA
ATOM     71  C   UNL A   1      48.979  28.889  28.022  1.00  0.00     0.031 C 
ATOM     72  C   UNL A   1      43.871  30.620  26.524  1.00  0.00     0.029 A 
ATOM     73  C   UNL A   1      45.132  30.030  26.416  1.00  0.00     0.049 A 
ATOM     74  H   UNL A   1      46.778  30.990  25.512  1.00  0.00     0.167 HD
ATOM     75  C   UNL A   1      46.871  28.439  27.165  1.00  0.00     0.074 A 
ATOM     76  C   UNL A   1      48.095  29.228  27.082  1.00  0.00     0.031 C 
ATOM     77  C   UNL A   1      45.592  28.699  26.766  1.00  0.00     0.031 A 
BRANCH  64  78
ATOM     78  C   UNL A   1      47.559  33.675  26.448  1.00  0.00    -0.014 A 
ATOM     79  C   UNL A   1      48.798  33.053  26.668  1.00  0.00     0.010 A 
ATOM     80  C   UNL A   1      47.559  34.902  25.747  1.00  0.00     0.010 A 
ATOM     81  C   UNL A   1      49.984  33.642  26.212  1.00  0.00     0.020 A 
ATOM     82  C   UNL A   1      48.723  35.466  25.239  1.00  0.00     0.020 A 
ATOM     83  C   UNL A   1      49.936  34.846  25.503  1.00  0.00     0.054 A 
BRANCH  83  84
ATOM     84  S   UNL A   1      51.473  35.639  24.980  1.00  0.00     0.124 S 
ATOM     85  O   UNL A   1      52.147  35.845  26.257  1.00  0.00    -0.237 OA
ATOM     86  O   UNL A   1      52.063  34.632  24.103  1.00  0.00    -0.237 OA
ATOM     87  O   UNL A   1      51.016  36.852  24.304  1.00  0.00    -0.744 OA
ENDBRANCH  83  84
ENDBRANCH  64  78
BRANCH  65  88
ATOM     88  C   UNL A   1      49.688  26.830  30.615  1.00  0.00    -0.014 A 
ATOM     89  C   UNL A   1      50.705  27.461  31.357  1.00  0.00     0.010 A 
ATOM     90  C   UNL A   1      49.703  25.419  30.573  1.00  0.00     0.010 A 
ATOM     91  C   UNL A   1      51.633  26.710  32.101  1.00  0.00     0.020 A 
ATOM     92  C   UNL A   1      50.639  24.664  31.287  1.00  0.00     0.020 A 
ATOM     93  C   UNL A   1      51.576  25.314  32.081  1.00  0.00     0.054 A 
BRANCH  93  94
ATOM     94  S   UNL A   1      52.611  24.353  33.222  1.00  0.00     0.124 S 
ATOM     95  O   UNL A   1      53.870  24.255  32.492  1.00  0.00    -0.237 OA
ATOM     96  O   UNL A   1      52.634  25.195  34.414  1.00  0.00    -0.237 OA
ATOM     97  O   UNL A   1      51.880  23.096  33.373  1.00  0.00    -0.744 OA
ENDBRANCH  93  94
ENDBRANCH  65  88
BRANCH  77  98
ATOM     98  C   UNL A   1      44.526  27.647  26.982  1.00  0.00    -0.014 A 
ATOM     99  C   UNL A   1      43.621  27.657  28.060  1.00  0.00     0.010 A 
ATOM    100  C   UNL A   1      44.349  26.681  25.973  1.00  0.00     0.010 A 
ATOM    101  C   UNL A   1      42.585  26.716  28.138  1.00  0.00     0.020 A 
ATOM    102  C   UNL A   1      43.305  25.751  26.034  1.00  0.00     0.020 A 
ATOM    103  C   UNL A   1      42.432  25.769  27.121  1.00  0.00     0.054 A 
BRANCH 103 104
ATOM    104  S   UNL A   1      41.038  24.609  27.190  1.00  0.00     0.124 S 
ATOM    105  O   UNL A   1      39.922  25.425  26.722  1.00  0.00    -0.237 OA
ATOM    106  O   UNL A   1      41.462  23.541  26.286  1.00  0.00    -0.237 OA
ATOM    107  O   UNL A   1      40.976  24.225  28.600  1.00  0.00    -0.744 OA
ENDBRANCH 103 104
ENDBRANCH  77  98
ENDBRANCH  51  52
ENDBRANCH  44  46
ENDBRANCH  43  44
ENDBRANCH  42  43
ENDBRANCH  41  42
ENDBRANCH  40  41
ENDBRANCH  39  40
ENDBRANCH  38  39
ENDBRANCH  37  38
ENDBRANCH   1  37
TORSDOF 29
ENDMDL
