MODEL 1
REMARK VINA RESULT:      -6.5      0.000      0.000
REMARK SMILES CC(C)(C)OC(=O)N1CCC[C@H]1C(=O)N[C@@H](Cc1ccccc1)C(=O)OCCOCCOCCOCCOC(=O)c1ccc(-c2c3nc(c(-c4ccc(S(=O)(=O)[O-])cc4)c4ccc([nH]4)c(-c4ccc(S(=O)(=O)[O-])cc4)c4nc(c(-c5ccc(S(=O)(=O)[O-])cc5)c5ccc2[nH]5)C=C4)C=C3)cc1
REMARK SMILES IDX 31 1 30 2 29 3 28 4 27 5 26 6 24 7 25 8 16 9 15 10 13 11
REMARK SMILES IDX 14 12 12 14 8 15 9 16 10 17 11 18 6 19 7 20 5 21 2 22 1 23
REMARK SMILES IDX 3 24 4 25 17 26 18 27 19 28 23 29 20 30 22 31 21 32 32 33
REMARK SMILES IDX 33 34 34 35 35 36 36 37 37 38 38 39 39 40 40 41 41 42 42 43
REMARK SMILES IDX 100 44 43 45 99 46 44 47 45 48 46 49 93 50 47 51 98 52 92 53
REMARK SMILES IDX 94 54 48 55 97 56 91 57 90 58 49 60 79 61 60 62 78 63 61 64
REMARK SMILES IDX 64 65 77 66 95 67 62 68 63 69 76 71 96 72 65 73 50 74 51 75
REMARK SMILES IDX 59 76 52 77 58 78 53 79 54 80 55 81 56 82 57 83 80 84 81 85
REMARK SMILES IDX 89 86 82 87 88 88 83 89 84 90 85 91 86 92 87 93 66 94 67 95
REMARK SMILES IDX 75 96 68 97 74 98 69 99 70 100 71 101 72 102 73 103
REMARK H PARENT 15 13 94 59 64 70
REMARK Flexibility Score: inf
ROOT
ATOM      1  C   UNL A   1      48.855  19.931  45.727  1.00  0.00     0.188 C 
ENDROOT
BRANCH   1   2
ATOM      2  C   UNL A   1      48.610  18.546  46.356  1.00  0.00     0.188 C 
BRANCH   2   3
ATOM      3  O   UNL A   1      47.706  17.610  45.772  1.00  0.00    -0.376 OA
BRANCH   3   4
ATOM      4  C   UNL A   1      47.646  16.281  46.269  1.00  0.00     0.202 C 
BRANCH   4   5
ATOM      5  C   UNL A   1      46.364  15.467  46.041  1.00  0.00     0.261 C 
BRANCH   5   6
ATOM      6  O   UNL A   1      45.415  16.062  45.137  1.00  0.00    -0.462 OA
BRANCH   6   7
ATOM      7  C   UNL A   1      45.547  15.769  43.821  1.00  0.00     0.329 C 
ATOM      8  O   UNL A   1      46.520  15.208  43.323  1.00  0.00    -0.250 OA
BRANCH   7   9
ATOM      9  C   UNL A   1      44.415  16.356  42.948  1.00  0.00     0.196 C 
BRANCH   9  10
ATOM     10  N   UNL A   1      43.006  16.152  43.338  1.00  0.00    -0.341 N 
ATOM     11  C   UNL A   1      42.073  15.231  42.930  1.00  0.00     0.243 C 
ATOM     12  O   UNL A   1      40.910  15.368  43.317  1.00  0.00    -0.273 OA
ATOM     13  H   UNL A   1      42.676  16.790  44.011  1.00  0.00     0.164 HD
BRANCH  11  14
ATOM     14  C   UNL A   1      42.482  14.102  41.960  1.00  0.00     0.178 C 
ATOM     15  N   UNL A   1      41.929  12.781  42.286  1.00  0.00    -0.296 N 
ATOM     16  C   UNL A   1      40.980  12.334  41.293  1.00  0.00     0.124 C 
ATOM     17  C   UNL A   1      41.435  13.052  40.038  1.00  0.00     0.024 C 
ATOM     18  C   UNL A   1      41.932  14.400  40.558  1.00  0.00     0.037 C 
BRANCH  15  19
ATOM     19  C   UNL A   1      42.415  12.033  43.337  1.00  0.00     0.410 C 
ATOM     20  O   UNL A   1      41.734  11.242  43.950  1.00  0.00    -0.224 OA
BRANCH  19  21
ATOM     21  O   UNL A   1      43.708  12.354  43.638  1.00  0.00    -0.444 OA
BRANCH  21  22
ATOM     22  C   UNL A   1      44.542  11.499  44.472  1.00  0.00     0.106 C 
ATOM     23  C   UNL A   1      45.933  12.157  44.465  1.00  0.00     0.056 C 
ATOM     24  C   UNL A   1      44.641  10.120  43.817  1.00  0.00     0.056 C 
ATOM     25  C   UNL A   1      44.094  11.398  45.936  1.00  0.00     0.056 C 
ENDBRANCH  21  22
ENDBRANCH  19  21
ENDBRANCH  15  19
ENDBRANCH  11  14
ENDBRANCH   9  10
BRANCH   9  26
ATOM     26  C   UNL A   1      44.706  17.869  42.805  1.00  0.00     0.072 C 
BRANCH  26  27
ATOM     27  C   UNL A   1      45.400  18.243  41.507  1.00  0.00    -0.045 A 
ATOM     28  C   UNL A   1      45.522  17.312  40.466  1.00  0.00     0.004 A 
ATOM     29  C   UNL A   1      45.880  19.546  41.307  1.00  0.00     0.004 A 
ATOM     30  C   UNL A   1      46.078  17.685  39.240  1.00  0.00     0.000 A 
ATOM     31  C   UNL A   1      46.449  19.913  40.085  1.00  0.00     0.000 A 
ATOM     32  C   UNL A   1      46.541  18.985  39.051  1.00  0.00     0.000 A 
ENDBRANCH  26  27
ENDBRANCH   9  26
ENDBRANCH   7   9
ENDBRANCH   6   7
ENDBRANCH   5   6
ENDBRANCH   4   5
ENDBRANCH   3   4
ENDBRANCH   2   3
ENDBRANCH   1   2
BRANCH   1  33
ATOM     33  O   UNL A   1      49.678  20.810  46.467  1.00  0.00    -0.377 OA
BRANCH  33  34
ATOM     34  C   UNL A   1      50.181  21.913  45.730  1.00  0.00     0.188 C 
BRANCH  34  35
ATOM     35  C   UNL A   1      50.268  23.237  46.511  1.00  0.00     0.188 C 
BRANCH  35  36
ATOM     36  O   UNL A   1      49.091  24.036  46.435  1.00  0.00    -0.376 OA
BRANCH  36  37
ATOM     37  C   UNL A   1      48.823  24.943  47.499  1.00  0.00     0.202 C 
BRANCH  37  38
ATOM     38  C   UNL A   1      49.560  26.294  47.484  1.00  0.00     0.261 C 
BRANCH  38  39
ATOM     39  O   UNL A   1      49.054  27.275  46.564  1.00  0.00    -0.460 OA
BRANCH  39  40
ATOM     40  C   UNL A   1      49.634  27.367  45.349  1.00  0.00     0.338 C 
ATOM     41  O   UNL A   1      50.680  26.859  44.989  1.00  0.00    -0.246 OA
BRANCH  40  42
ATOM     42  C   UNL A   1      48.661  28.010  44.444  1.00  0.00     0.060 A 
ATOM     43  C   UNL A   1      47.314  27.638  44.539  1.00  0.00     0.016 A 
ATOM     44  C   UNL A   1      49.068  28.977  43.521  1.00  0.00     0.016 A 
ATOM     45  C   UNL A   1      46.373  28.204  43.684  1.00  0.00     0.010 A 
ATOM     46  C   UNL A   1      48.129  29.520  42.642  1.00  0.00     0.010 A 
ATOM     47  C   UNL A   1      46.787  29.107  42.697  1.00  0.00    -0.014 A 
BRANCH  47  48
ATOM     48  C   UNL A   1      45.870  29.421  41.579  1.00  0.00     0.031 A 
ATOM     49  C   UNL A   1      45.830  28.461  40.419  1.00  0.00     0.074 A 
ATOM     50  C   UNL A   1      45.062  30.495  41.611  1.00  0.00     0.049 A 
ATOM     51  N   UNL A   1      45.139  28.528  39.312  1.00  0.00    -0.248 NA
ATOM     52  C   UNL A   1      46.679  27.261  40.529  1.00  0.00     0.031 C 
ATOM     53  C   UNL A   1      44.966  31.455  42.710  1.00  0.00     0.029 A 
ATOM     54  N   UNL A   1      44.163  30.955  40.683  1.00  0.00    -0.354 N 
ATOM     55  C   UNL A   1      45.464  27.379  38.599  1.00  0.00     0.074 A 
ATOM     56  C   UNL A   1      46.440  26.652  39.379  1.00  0.00     0.031 C 
ATOM     57  C   UNL A   1      44.059  32.396  42.387  1.00  0.00     0.029 A 
ATOM     58  C   UNL A   1      43.540  32.125  41.048  1.00  0.00     0.049 A 
ATOM     59  H   UNL A   1      43.980  30.491  39.833  1.00  0.00     0.167 HD
ATOM     60  C   UNL A   1      44.985  26.962  37.406  1.00  0.00     0.031 A 
ATOM     61  C   UNL A   1      42.669  32.894  40.365  1.00  0.00     0.031 A 
ATOM     62  C   UNL A   1      44.034  27.701  36.622  1.00  0.00     0.049 A 
ATOM     63  C   UNL A   1      42.240  32.463  38.983  1.00  0.00     0.074 A 
ATOM     64  C   UNL A   1      43.504  27.381  35.385  1.00  0.00     0.029 A 
ATOM     65  N   UNL A   1      43.470  28.909  37.001  1.00  0.00    -0.354 N 
ATOM     66  N   UNL A   1      42.556  31.376  38.319  1.00  0.00    -0.248 NA
ATOM     67  C   UNL A   1      41.328  33.363  38.260  1.00  0.00     0.031 C 
ATOM     68  C   UNL A   1      42.656  28.421  34.993  1.00  0.00     0.029 A 
ATOM     69  C   UNL A   1      42.610  29.357  36.015  1.00  0.00     0.049 A 
ATOM     70  H   UNL A   1      43.654  29.378  37.847  1.00  0.00     0.167 HD
ATOM     71  C   UNL A   1      41.852  31.444  37.120  1.00  0.00     0.074 A 
ATOM     72  C   UNL A   1      41.085  32.671  37.156  1.00  0.00     0.031 C 
ATOM     73  C   UNL A   1      41.841  30.573  36.081  1.00  0.00     0.031 A 
BRANCH  60  74
ATOM     74  C   UNL A   1      45.495  25.653  36.868  1.00  0.00    -0.014 A 
ATOM     75  C   UNL A   1      44.994  24.430  37.351  1.00  0.00     0.010 A 
ATOM     76  C   UNL A   1      46.447  25.644  35.833  1.00  0.00     0.010 A 
ATOM     77  C   UNL A   1      45.448  23.221  36.820  1.00  0.00     0.020 A 
ATOM     78  C   UNL A   1      46.884  24.437  35.280  1.00  0.00     0.020 A 
ATOM     79  C   UNL A   1      46.388  23.233  35.784  1.00  0.00     0.054 A 
BRANCH  79  80
ATOM     80  S   UNL A   1      46.917  21.649  35.076  1.00  0.00     0.124 S 
ATOM     81  O   UNL A   1      46.098  21.569  33.869  1.00  0.00    -0.237 OA
ATOM     82  O   UNL A   1      48.345  21.861  34.851  1.00  0.00    -0.237 OA
ATOM     83  O   UNL A   1      46.589  20.676  36.115  1.00  0.00    -0.744 OA
ENDBRANCH  79  80
ENDBRANCH  60  74
BRANCH  61  84
ATOM     84  C   UNL A   1      42.163  34.171  40.945  1.00  0.00    -0.014 A 
ATOM     85  C   UNL A   1      41.007  34.190  41.746  1.00  0.00     0.010 A 
ATOM     86  C   UNL A   1      42.804  35.387  40.646  1.00  0.00     0.010 A 
ATOM     87  C   UNL A   1      40.477  35.404  42.199  1.00  0.00     0.020 A 
ATOM     88  C   UNL A   1      42.297  36.599  41.123  1.00  0.00     0.020 A 
ATOM     89  C   UNL A   1      41.123  36.601  41.878  1.00  0.00     0.054 A 
BRANCH  89  90
ATOM     90  S   UNL A   1      40.419  38.163  42.474  1.00  0.00     0.124 S 
ATOM     91  O   UNL A   1      41.593  39.030  42.511  1.00  0.00    -0.237 OA
ATOM     92  O   UNL A   1      39.431  38.478  41.445  1.00  0.00    -0.237 OA
ATOM     93  O   UNL A   1      39.859  37.810  43.777  1.00  0.00    -0.744 OA
ENDBRANCH  89  90
ENDBRANCH  61  84
BRANCH  73  94
ATOM     94  C   UNL A   1      40.929  30.881  34.922  1.00  0.00    -0.014 A 
ATOM     95  C   UNL A   1      41.322  31.752  33.892  1.00  0.00     0.010 A 
ATOM     96  C   UNL A   1      39.681  30.236  34.837  1.00  0.00     0.010 A 
ATOM     97  C   UNL A   1      40.468  32.000  32.814  1.00  0.00     0.020 A 
ATOM     98  C   UNL A   1      38.837  30.457  33.746  1.00  0.00     0.020 A 
ATOM     99  C   UNL A   1      39.231  31.350  32.747  1.00  0.00     0.054 A 
BRANCH  99 100
ATOM    100  S   UNL A   1      38.161  31.654  31.316  1.00  0.00     0.124 S 
ATOM    101  O   UNL A   1      37.450  30.384  31.192  1.00  0.00    -0.237 OA
ATOM    102  O   UNL A   1      37.349  32.787  31.757  1.00  0.00    -0.237 OA
ATOM    103  O   UNL A   1      39.098  31.951  30.237  1.00  0.00    -0.744 OA
ENDBRANCH  99 100
ENDBRANCH  73  94
ENDBRANCH  47  48
ENDBRANCH  40  42
ENDBRANCH  39  40
ENDBRANCH  38  39
ENDBRANCH  37  38
ENDBRANCH  36  37
ENDBRANCH  35  36
ENDBRANCH  34  35
ENDBRANCH  33  34
ENDBRANCH   1  33
TORSDOF 30
ENDMDL
MODEL 2
REMARK VINA RESULT:      -6.4      9.907     17.254
REMARK SMILES CC(C)(C)OC(=O)N1CCC[C@H]1C(=O)N[C@@H](Cc1ccccc1)C(=O)OCCOCCOCCOCCOC(=O)c1ccc(-c2c3nc(c(-c4ccc(S(=O)(=O)[O-])cc4)c4ccc([nH]4)c(-c4ccc(S(=O)(=O)[O-])cc4)c4nc(c(-c5ccc(S(=O)(=O)[O-])cc5)c5ccc2[nH]5)C=C4)C=C3)cc1
REMARK SMILES IDX 31 1 30 2 29 3 28 4 27 5 26 6 24 7 25 8 16 9 15 10 13 11
REMARK SMILES IDX 14 12 12 14 8 15 9 16 10 17 11 18 6 19 7 20 5 21 2 22 1 23
REMARK SMILES IDX 3 24 4 25 17 26 18 27 19 28 23 29 20 30 22 31 21 32 32 33
REMARK SMILES IDX 33 34 34 35 35 36 36 37 37 38 38 39 39 40 40 41 41 42 42 43
REMARK SMILES IDX 100 44 43 45 99 46 44 47 45 48 46 49 93 50 47 51 98 52 92 53
REMARK SMILES IDX 94 54 48 55 97 56 91 57 90 58 49 60 79 61 60 62 78 63 61 64
REMARK SMILES IDX 64 65 77 66 95 67 62 68 63 69 76 71 96 72 65 73 50 74 51 75
REMARK SMILES IDX 59 76 52 77 58 78 53 79 54 80 55 81 56 82 57 83 80 84 81 85
REMARK SMILES IDX 89 86 82 87 88 88 83 89 84 90 85 91 86 92 87 93 66 94 67 95
REMARK SMILES IDX 75 96 68 97 74 98 69 99 70 100 71 101 72 102 73 103
REMARK H PARENT 15 13 94 59 64 70
REMARK Flexibility Score: inf
ROOT
ATOM      1  C   UNL A   1      46.854  28.026  25.961  1.00  0.00     0.188 C 
ENDROOT
BRANCH   1   2
ATOM      2  C   UNL A   1      48.361  28.065  26.282  1.00  0.00     0.188 C 
BRANCH   2   3
ATOM      3  O   UNL A   1      49.337  28.262  25.261  1.00  0.00    -0.376 OA
BRANCH   3   4
ATOM      4  C   UNL A   1      50.616  28.780  25.596  1.00  0.00     0.202 C 
BRANCH   4   5
ATOM      5  C   UNL A   1      50.696  30.015  26.503  1.00  0.00     0.261 C 
BRANCH   5   6
ATOM      6  O   UNL A   1      51.276  29.784  27.800  1.00  0.00    -0.462 OA
BRANCH   6   7
ATOM      7  C   UNL A   1      52.166  30.701  28.252  1.00  0.00     0.329 C 
ATOM      8  O   UNL A   1      52.924  30.532  29.202  1.00  0.00    -0.250 OA
BRANCH   7   9
ATOM      9  C   UNL A   1      52.033  32.075  27.554  1.00  0.00     0.196 C 
BRANCH   9  10
ATOM     10  N   UNL A   1      51.423  33.209  28.277  1.00  0.00    -0.341 N 
ATOM     11  C   UNL A   1      50.335  33.994  27.986  1.00  0.00     0.243 C 
ATOM     12  O   UNL A   1      50.118  34.977  28.698  1.00  0.00    -0.273 OA
ATOM     13  H   UNL A   1      51.877  33.443  29.118  1.00  0.00     0.164 HD
BRANCH  11  14
ATOM     14  C   UNL A   1      49.463  33.671  26.754  1.00  0.00     0.178 C 
ATOM     15  N   UNL A   1      48.024  33.561  27.031  1.00  0.00    -0.296 N 
ATOM     16  C   UNL A   1      47.272  34.625  26.408  1.00  0.00     0.124 C 
ATOM     17  C   UNL A   1      48.134  35.000  25.218  1.00  0.00     0.024 C 
ATOM     18  C   UNL A   1      49.559  34.817  25.736  1.00  0.00     0.037 C 
BRANCH  15  19
ATOM     19  C   UNL A   1      47.495  32.464  27.675  1.00  0.00     0.410 C 
ATOM     20  O   UNL A   1      47.642  31.332  27.272  1.00  0.00    -0.224 OA
BRANCH  19  21
ATOM     21  O   UNL A   1      46.736  32.820  28.753  1.00  0.00    -0.444 OA
BRANCH  21  22
ATOM     22  C   UNL A   1      47.064  32.389  30.105  1.00  0.00     0.106 C 
ATOM     23  C   UNL A   1      46.276  31.084  30.319  1.00  0.00     0.056 C 
ATOM     24  C   UNL A   1      46.560  33.441  31.093  1.00  0.00     0.056 C 
ATOM     25  C   UNL A   1      48.548  32.065  30.333  1.00  0.00     0.056 C 
ENDBRANCH  21  22
ENDBRANCH  19  21
ENDBRANCH  15  19
ENDBRANCH  11  14
ENDBRANCH   9  10
BRANCH   9  26
ATOM     26  C   UNL A   1      53.449  32.463  27.068  1.00  0.00     0.072 C 
BRANCH  26  27
ATOM     27  C   UNL A   1      53.529  32.766  25.583  1.00  0.00    -0.045 A 
ATOM     28  C   UNL A   1      52.378  32.745  24.784  1.00  0.00     0.004 A 
ATOM     29  C   UNL A   1      54.751  33.131  24.996  1.00  0.00     0.004 A 
ATOM     30  C   UNL A   1      52.439  33.113  23.438  1.00  0.00     0.000 A 
ATOM     31  C   UNL A   1      54.812  33.486  23.646  1.00  0.00     0.000 A 
ATOM     32  C   UNL A   1      53.655  33.484  22.871  1.00  0.00     0.000 A 
ENDBRANCH  26  27
ENDBRANCH   9  26
ENDBRANCH   7   9
ENDBRANCH   6   7
ENDBRANCH   5   6
ENDBRANCH   4   5
ENDBRANCH   3   4
ENDBRANCH   2   3
ENDBRANCH   1   2
BRANCH   1  33
ATOM     33  O   UNL A   1      46.177  26.836  26.311  1.00  0.00    -0.377 OA
BRANCH  33  34
ATOM     34  C   UNL A   1      46.593  25.684  25.594  1.00  0.00     0.188 C 
BRANCH  34  35
ATOM     35  C   UNL A   1      45.466  24.917  24.879  1.00  0.00     0.188 C 
BRANCH  35  36
ATOM     36  O   UNL A   1      45.921  23.843  24.060  1.00  0.00    -0.376 OA
BRANCH  36  37
ATOM     37  C   UNL A   1      45.074  22.711  23.902  1.00  0.00     0.202 C 
BRANCH  37  38
ATOM     38  C   UNL A   1      44.037  22.440  25.007  1.00  0.00     0.261 C 
BRANCH  38  39
ATOM     39  O   UNL A   1      42.796  23.155  24.893  1.00  0.00    -0.460 OA
BRANCH  39  40
ATOM     40  C   UNL A   1      41.821  22.885  25.786  1.00  0.00     0.338 C 
ATOM     41  O   UNL A   1      41.309  21.806  26.018  1.00  0.00    -0.246 OA
BRANCH  40  42
ATOM     42  C   UNL A   1      41.634  24.095  26.611  1.00  0.00     0.060 A 
ATOM     43  C   UNL A   1      42.288  25.273  26.227  1.00  0.00     0.016 A 
ATOM     44  C   UNL A   1      40.814  24.073  27.743  1.00  0.00     0.016 A 
ATOM     45  C   UNL A   1      42.155  26.426  26.996  1.00  0.00     0.010 A 
ATOM     46  C   UNL A   1      40.707  25.221  28.531  1.00  0.00     0.010 A 
ATOM     47  C   UNL A   1      41.408  26.387  28.180  1.00  0.00    -0.014 A 
BRANCH  47  48
ATOM     48  C   UNL A   1      41.563  27.481  29.164  1.00  0.00     0.031 A 
ATOM     49  C   UNL A   1      42.768  27.441  30.067  1.00  0.00     0.074 A 
ATOM     50  C   UNL A   1      40.693  28.504  29.225  1.00  0.00     0.049 A 
ATOM     51  N   UNL A   1      43.112  28.258  31.026  1.00  0.00    -0.248 NA
ATOM     52  C   UNL A   1      43.716  26.332  29.850  1.00  0.00     0.031 C 
ATOM     53  C   UNL A   1      39.530  28.683  28.357  1.00  0.00     0.029 A 
ATOM     54  N   UNL A   1      40.660  29.591  30.061  1.00  0.00    -0.354 N 
ATOM     55  C   UNL A   1      44.315  27.767  31.522  1.00  0.00     0.074 A 
ATOM     56  C   UNL A   1      44.625  26.564  30.784  1.00  0.00     0.031 C 
ATOM     57  C   UNL A   1      38.892  29.814  28.713  1.00  0.00     0.029 A 
ATOM     58  C   UNL A   1      39.580  30.416  29.853  1.00  0.00     0.049 A 
ATOM     59  H   UNL A   1      41.345  29.764  30.747  1.00  0.00     0.167 HD
ATOM     60  C   UNL A   1      45.099  28.280  32.497  1.00  0.00     0.031 A 
ATOM     61  C   UNL A   1      39.188  31.517  30.525  1.00  0.00     0.031 A 
ATOM     62  C   UNL A   1      44.776  29.463  33.245  1.00  0.00     0.049 A 
ATOM     63  C   UNL A   1      40.021  32.001  31.688  1.00  0.00     0.074 A 
ATOM     64  C   UNL A   1      45.487  30.052  34.275  1.00  0.00     0.029 A 
ATOM     65  N   UNL A   1      43.645  30.239  33.043  1.00  0.00    -0.354 N 
ATOM     66  N   UNL A   1      41.155  31.527  32.147  1.00  0.00    -0.248 NA
ATOM     67  C   UNL A   1      39.522  33.175  32.419  1.00  0.00     0.031 C 
ATOM     68  C   UNL A   1      44.761  31.157  34.729  1.00  0.00     0.029 A 
ATOM     69  C   UNL A   1      43.630  31.292  33.939  1.00  0.00     0.049 A 
ATOM     70  H   UNL A   1      42.955  30.065  32.362  1.00  0.00     0.167 HD
ATOM     71  C   UNL A   1      41.523  32.368  33.194  1.00  0.00     0.074 A 
ATOM     72  C   UNL A   1      40.499  33.386  33.290  1.00  0.00     0.031 C 
ATOM     73  C   UNL A   1      42.609  32.305  34.004  1.00  0.00     0.031 A 
BRANCH  60  74
ATOM     74  C   UNL A   1      46.375  27.552  32.821  1.00  0.00    -0.014 A 
ATOM     75  C   UNL A   1      47.599  27.954  32.254  1.00  0.00     0.010 A 
ATOM     76  C   UNL A   1      46.362  26.490  33.742  1.00  0.00     0.010 A 
ATOM     77  C   UNL A   1      48.783  27.294  32.590  1.00  0.00     0.020 A 
ATOM     78  C   UNL A   1      47.549  25.845  34.101  1.00  0.00     0.020 A 
ATOM     79  C   UNL A   1      48.751  26.246  33.515  1.00  0.00     0.054 A 
BRANCH  79  80
ATOM     80  S   UNL A   1      50.313  25.446  33.973  1.00  0.00     0.124 S 
ATOM     81  O   UNL A   1      50.084  25.121  35.378  1.00  0.00    -0.237 OA
ATOM     82  O   UNL A   1      50.364  24.303  33.065  1.00  0.00    -0.237 OA
ATOM     83  O   UNL A   1      51.317  26.478  33.729  1.00  0.00    -0.744 OA
ENDBRANCH  79  80
ENDBRANCH  60  74
BRANCH  61  84
ATOM     84  C   UNL A   1      37.931  32.228  30.154  1.00  0.00    -0.014 A 
ATOM     85  C   UNL A   1      36.708  31.891  30.760  1.00  0.00     0.010 A 
ATOM     86  C   UNL A   1      37.943  33.206  29.143  1.00  0.00     0.010 A 
ATOM     87  C   UNL A   1      35.515  32.487  30.332  1.00  0.00     0.020 A 
ATOM     88  C   UNL A   1      36.759  33.827  28.735  1.00  0.00     0.020 A 
ATOM     89  C   UNL A   1      35.550  33.446  29.317  1.00  0.00     0.054 A 
BRANCH  89  90
ATOM     90  S   UNL A   1      33.993  34.205  28.775  1.00  0.00     0.124 S 
ATOM     91  O   UNL A   1      34.466  35.357  28.015  1.00  0.00    -0.237 OA
ATOM     92  O   UNL A   1      33.376  33.138  27.992  1.00  0.00    -0.237 OA
ATOM     93  O   UNL A   1      33.313  34.519  30.030  1.00  0.00    -0.744 OA
ENDBRANCH  89  90
ENDBRANCH  61  84
BRANCH  73  94
ATOM     94  C   UNL A   1      42.779  33.398  35.028  1.00  0.00    -0.014 A 
ATOM     95  C   UNL A   1      43.494  34.571  34.734  1.00  0.00     0.010 A 
ATOM     96  C   UNL A   1      42.158  33.268  36.284  1.00  0.00     0.010 A 
ATOM     97  C   UNL A   1      43.614  35.582  35.693  1.00  0.00     0.020 A 
ATOM     98  C   UNL A   1      42.248  34.289  37.233  1.00  0.00     0.020 A 
ATOM     99  C   UNL A   1      42.989  35.434  36.936  1.00  0.00     0.054 A 
BRANCH  99 100
ATOM    100  S   UNL A   1      43.122  36.779  38.145  1.00  0.00     0.124 S 
ATOM    101  O   UNL A   1      43.473  37.916  37.298  1.00  0.00    -0.237 OA
ATOM    102  O   UNL A   1      41.782  36.820  38.728  1.00  0.00    -0.237 OA
ATOM    103  O   UNL A   1      44.175  36.330  39.051  1.00  0.00    -0.744 OA
ENDBRANCH  99 100
ENDBRANCH  73  94
ENDBRANCH  47  48
ENDBRANCH  40  42
ENDBRANCH  39  40
ENDBRANCH  38  39
ENDBRANCH  37  38
ENDBRANCH  36  37
ENDBRANCH  35  36
ENDBRANCH  34  35
ENDBRANCH  33  34
ENDBRANCH   1  33
TORSDOF 30
ENDMDL
MODEL 3
REMARK VINA RESULT:      -6.4     12.462     18.146
REMARK SMILES CC(C)(C)OC(=O)N1CCC[C@H]1C(=O)N[C@@H](Cc1ccccc1)C(=O)OCCOCCOCCOCCOC(=O)c1ccc(-c2c3nc(c(-c4ccc(S(=O)(=O)[O-])cc4)c4ccc([nH]4)c(-c4ccc(S(=O)(=O)[O-])cc4)c4nc(c(-c5ccc(S(=O)(=O)[O-])cc5)c5ccc2[nH]5)C=C4)C=C3)cc1
REMARK SMILES IDX 31 1 30 2 29 3 28 4 27 5 26 6 24 7 25 8 16 9 15 10 13 11
REMARK SMILES IDX 14 12 12 14 8 15 9 16 10 17 11 18 6 19 7 20 5 21 2 22 1 23
REMARK SMILES IDX 3 24 4 25 17 26 18 27 19 28 23 29 20 30 22 31 21 32 32 33
REMARK SMILES IDX 33 34 34 35 35 36 36 37 37 38 38 39 39 40 40 41 41 42 42 43
REMARK SMILES IDX 100 44 43 45 99 46 44 47 45 48 46 49 93 50 47 51 98 52 92 53
REMARK SMILES IDX 94 54 48 55 97 56 91 57 90 58 49 60 79 61 60 62 78 63 61 64
REMARK SMILES IDX 64 65 77 66 95 67 62 68 63 69 76 71 96 72 65 73 50 74 51 75
REMARK SMILES IDX 59 76 52 77 58 78 53 79 54 80 55 81 56 82 57 83 80 84 81 85
REMARK SMILES IDX 89 86 82 87 88 88 83 89 84 90 85 91 86 92 87 93 66 94 67 95
REMARK SMILES IDX 75 96 68 97 74 98 69 99 70 100 71 101 72 102 73 103
REMARK H PARENT 15 13 94 59 64 70
REMARK Flexibility Score: inf
ROOT
ATOM      1  C   UNL A   1      40.435  27.371  27.206  1.00  0.00     0.188 C 
ENDROOT
BRANCH   1   2
ATOM      2  C   UNL A   1      41.797  27.470  27.920  1.00  0.00     0.188 C 
BRANCH   2   3
ATOM      3  O   UNL A   1      42.615  28.633  27.810  1.00  0.00    -0.376 OA
BRANCH   3   4
ATOM      4  C   UNL A   1      42.852  29.441  28.954  1.00  0.00     0.202 C 
BRANCH   4   5
ATOM      5  C   UNL A   1      42.273  28.995  30.304  1.00  0.00     0.261 C 
BRANCH   5   6
ATOM      6  O   UNL A   1      40.949  29.482  30.592  1.00  0.00    -0.462 OA
BRANCH   6   7
ATOM      7  C   UNL A   1      40.682  29.824  31.875  1.00  0.00     0.329 C 
ATOM      8  O   UNL A   1      40.831  29.083  32.843  1.00  0.00    -0.250 OA
BRANCH   7   9
ATOM      9  C   UNL A   1      40.004  31.207  32.010  1.00  0.00     0.196 C 
BRANCH   9  10
ATOM     10  N   UNL A   1      39.136  31.489  33.170  1.00  0.00    -0.341 N 
ATOM     11  C   UNL A   1      37.913  32.106  33.264  1.00  0.00     0.243 C 
ATOM     12  O   UNL A   1      37.462  32.340  34.387  1.00  0.00    -0.273 OA
ATOM     13  H   UNL A   1      39.499  31.179  34.031  1.00  0.00     0.164 HD
BRANCH  11  14
ATOM     14  C   UNL A   1      37.175  32.544  31.981  1.00  0.00     0.178 C 
ATOM     15  N   UNL A   1      36.065  31.669  31.581  1.00  0.00    -0.296 N 
ATOM     16  C   UNL A   1      34.787  32.330  31.701  1.00  0.00     0.124 C 
ATOM     17  C   UNL A   1      35.143  33.794  31.535  1.00  0.00     0.024 C 
ATOM     18  C   UNL A   1      36.509  33.909  32.208  1.00  0.00     0.037 C 
BRANCH  15  19
ATOM     19  C   UNL A   1      36.289  30.434  31.012  1.00  0.00     0.410 C 
ATOM     20  O   UNL A   1      37.017  29.605  31.509  1.00  0.00    -0.224 OA
BRANCH  19  21
ATOM     21  O   UNL A   1      35.661  30.305  29.807  1.00  0.00    -0.444 OA
BRANCH  21  22
ATOM     22  C   UNL A   1      36.332  30.610  28.550  1.00  0.00     0.106 C 
ATOM     23  C   UNL A   1      35.346  30.182  27.448  1.00  0.00     0.056 C 
ATOM     24  C   UNL A   1      37.595  29.754  28.446  1.00  0.00     0.056 C 
ATOM     25  C   UNL A   1      36.638  32.098  28.332  1.00  0.00     0.056 C 
ENDBRANCH  21  22
ENDBRANCH  19  21
ENDBRANCH  15  19
ENDBRANCH  11  14
ENDBRANCH   9  10
BRANCH   9  26
ATOM     26  C   UNL A   1      41.133  32.262  31.929  1.00  0.00     0.072 C 
BRANCH  26  27
ATOM     27  C   UNL A   1      41.448  32.930  33.255  1.00  0.00    -0.045 A 
ATOM     28  C   UNL A   1      40.932  34.199  33.559  1.00  0.00     0.004 A 
ATOM     29  C   UNL A   1      42.213  32.263  34.224  1.00  0.00     0.004 A 
ATOM     30  C   UNL A   1      41.148  34.771  34.814  1.00  0.00     0.000 A 
ATOM     31  C   UNL A   1      42.438  32.845  35.474  1.00  0.00     0.000 A 
ATOM     32  C   UNL A   1      41.900  34.094  35.770  1.00  0.00     0.000 A 
ENDBRANCH  26  27
ENDBRANCH   9  26
ENDBRANCH   7   9
ENDBRANCH   6   7
ENDBRANCH   5   6
ENDBRANCH   4   5
ENDBRANCH   3   4
ENDBRANCH   2   3
ENDBRANCH   1   2
BRANCH   1  33
ATOM     33  O   UNL A   1      39.566  26.356  27.667  1.00  0.00    -0.377 OA
BRANCH  33  34
ATOM     34  C   UNL A   1      39.502  25.208  26.835  1.00  0.00     0.188 C 
BRANCH  34  35
ATOM     35  C   UNL A   1      40.084  23.922  27.450  1.00  0.00     0.188 C 
BRANCH  35  36
ATOM     36  O   UNL A   1      41.499  23.945  27.617  1.00  0.00    -0.376 OA
BRANCH  36  37
ATOM     37  C   UNL A   1      42.297  23.196  26.706  1.00  0.00     0.202 C 
BRANCH  37  38
ATOM     38  C   UNL A   1      43.480  22.401  27.286  1.00  0.00     0.261 C 
BRANCH  38  39
ATOM     39  O   UNL A   1      44.745  23.080  27.306  1.00  0.00    -0.460 OA
BRANCH  39  40
ATOM     40  C   UNL A   1      45.619  22.828  26.309  1.00  0.00     0.338 C 
ATOM     41  O   UNL A   1      45.583  21.911  25.509  1.00  0.00    -0.246 OA
BRANCH  40  42
ATOM     42  C   UNL A   1      46.517  23.996  26.204  1.00  0.00     0.060 A 
ATOM     43  C   UNL A   1      47.112  24.487  27.374  1.00  0.00     0.016 A 
ATOM     44  C   UNL A   1      46.778  24.592  24.968  1.00  0.00     0.016 A 
ATOM     45  C   UNL A   1      47.942  25.602  27.317  1.00  0.00     0.010 A 
ATOM     46  C   UNL A   1      47.585  25.730  24.916  1.00  0.00     0.010 A 
ATOM     47  C   UNL A   1      48.137  26.259  26.095  1.00  0.00    -0.014 A 
BRANCH  47  48
ATOM     48  C   UNL A   1      48.709  27.625  26.096  1.00  0.00     0.031 A 
ATOM     49  C   UNL A   1      50.141  27.781  25.659  1.00  0.00     0.074 A 
ATOM     50  C   UNL A   1      47.969  28.698  26.425  1.00  0.00     0.049 A 
ATOM     51  N   UNL A   1      50.877  28.859  25.603  1.00  0.00    -0.248 NA
ATOM     52  C   UNL A   1      50.833  26.555  25.220  1.00  0.00     0.031 C 
ATOM     53  C   UNL A   1      46.555  28.675  26.797  1.00  0.00     0.029 A 
ATOM     54  N   UNL A   1      48.315  30.024  26.495  1.00  0.00    -0.354 N 
ATOM     55  C   UNL A   1      52.112  28.443  25.117  1.00  0.00     0.074 A 
ATOM     56  C   UNL A   1      52.040  27.012  24.929  1.00  0.00     0.031 C 
ATOM     57  C   UNL A   1      46.156  29.932  27.064  1.00  0.00     0.029 A 
ATOM     58  C   UNL A   1      47.292  30.840  26.916  1.00  0.00     0.049 A 
ATOM     59  H   UNL A   1      49.211  30.360  26.266  1.00  0.00     0.167 HD
ATOM     60  C   UNL A   1      53.206  29.189  24.841  1.00  0.00     0.031 A 
ATOM     61  C   UNL A   1      47.287  32.164  27.171  1.00  0.00     0.031 A 
ATOM     62  C   UNL A   1      53.282  30.608  25.053  1.00  0.00     0.049 A 
ATOM     63  C   UNL A   1      48.558  32.953  26.966  1.00  0.00     0.074 A 
ATOM     64  C   UNL A   1      54.353  31.456  24.834  1.00  0.00     0.029 A 
ATOM     65  N   UNL A   1      52.242  31.390  25.534  1.00  0.00    -0.354 N 
ATOM     66  N   UNL A   1      49.719  32.548  26.509  1.00  0.00    -0.248 NA
ATOM     67  C   UNL A   1      48.514  34.383  27.307  1.00  0.00     0.031 C 
ATOM     68  C   UNL A   1      53.977  32.743  25.229  1.00  0.00     0.029 A 
ATOM     69  C   UNL A   1      52.651  32.707  25.634  1.00  0.00     0.049 A 
ATOM     70  H   UNL A   1      51.346  31.056  25.769  1.00  0.00     0.167 HD
ATOM     71  C   UNL A   1      50.529  33.680  26.471  1.00  0.00     0.074 A 
ATOM     72  C   UNL A   1      49.721  34.786  26.938  1.00  0.00     0.031 C 
ATOM     73  C   UNL A   1      51.824  33.796  26.085  1.00  0.00     0.031 A 
BRANCH  60  74
ATOM     74  C   UNL A   1      54.415  28.480  24.295  1.00  0.00    -0.014 A 
ATOM     75  C   UNL A   1      55.405  27.974  25.158  1.00  0.00     0.010 A 
ATOM     76  C   UNL A   1      54.538  28.269  22.911  1.00  0.00     0.010 A 
ATOM     77  C   UNL A   1      56.506  27.285  24.643  1.00  0.00     0.020 A 
ATOM     78  C   UNL A   1      55.624  27.558  22.394  1.00  0.00     0.020 A 
ATOM     79  C   UNL A   1      56.606  27.078  23.264  1.00  0.00     0.054 A 
BRANCH  79  80
ATOM     80  S   UNL A   1      58.018  26.131  22.630  1.00  0.00     0.124 S 
ATOM     81  O   UNL A   1      59.123  27.065  22.834  1.00  0.00    -0.237 OA
ATOM     82  O   UNL A   1      58.025  24.953  23.494  1.00  0.00    -0.237 OA
ATOM     83  O   UNL A   1      57.668  25.876  21.235  1.00  0.00    -0.744 OA
ENDBRANCH  79  80
ENDBRANCH  60  74
BRANCH  61  84
ATOM     84  C   UNL A   1      46.059  32.836  27.683  1.00  0.00    -0.014 A 
ATOM     85  C   UNL A   1      45.101  33.359  26.797  1.00  0.00     0.010 A 
ATOM     86  C   UNL A   1      45.873  33.012  29.067  1.00  0.00     0.010 A 
ATOM     87  C   UNL A   1      44.005  34.083  27.282  1.00  0.00     0.020 A 
ATOM     88  C   UNL A   1      44.763  33.705  29.557  1.00  0.00     0.020 A 
ATOM     89  C   UNL A   1      43.848  34.256  28.659  1.00  0.00     0.054 A 
BRANCH  89  90
ATOM     90  S   UNL A   1      42.421  35.197  29.267  1.00  0.00     0.124 S 
ATOM     91  O   UNL A   1      42.494  36.412  28.462  1.00  0.00    -0.237 OA
ATOM     92  O   UNL A   1      41.303  34.305  28.970  1.00  0.00    -0.237 OA
ATOM     93  O   UNL A   1      42.709  35.370  30.690  1.00  0.00    -0.744 OA
ENDBRANCH  89  90
ENDBRANCH  61  84
BRANCH  73  94
ATOM     94  C   UNL A   1      52.434  35.173  26.095  1.00  0.00    -0.014 A 
ATOM     95  C   UNL A   1      52.340  36.024  24.981  1.00  0.00     0.010 A 
ATOM     96  C   UNL A   1      53.058  35.642  27.267  1.00  0.00     0.010 A 
ATOM     97  C   UNL A   1      52.891  37.309  25.027  1.00  0.00     0.020 A 
ATOM     98  C   UNL A   1      53.581  36.935  27.327  1.00  0.00     0.020 A 
ATOM     99  C   UNL A   1      53.507  37.756  26.200  1.00  0.00     0.054 A 
BRANCH  99 100
ATOM    100  S   UNL A   1      54.174  39.442  26.248  1.00  0.00     0.124 S 
ATOM    101  O   UNL A   1      55.581  39.204  26.559  1.00  0.00    -0.237 OA
ATOM    102  O   UNL A   1      53.903  39.932  24.899  1.00  0.00    -0.237 OA
ATOM    103  O   UNL A   1      53.404  40.090  27.306  1.00  0.00    -0.744 OA
ENDBRANCH  99 100
ENDBRANCH  73  94
ENDBRANCH  47  48
ENDBRANCH  40  42
ENDBRANCH  39  40
ENDBRANCH  38  39
ENDBRANCH  37  38
ENDBRANCH  36  37
ENDBRANCH  35  36
ENDBRANCH  34  35
ENDBRANCH  33  34
ENDBRANCH   1  33
TORSDOF 30
ENDMDL
