MODEL 1
REMARK VINA RESULT:     -10.3      0.000      0.000
REMARK SMILES Cc1ccc(-c2nc(C)cc(N3CCCC[C@H]3C(=O)OCCOCCOCCOCCOC(=O)c3ccc(-c4c5nc(c(-c6ccc(S(=O)(=O)[O-])cc6)c6ccc([nH]6)c(-c6ccc(S(=O)(=O)[O-])cc6)c6nc(c(-c7ccc(S(=O)(=O)[O-])cc7)c7ccc4[nH]7)C=C6)C=C5)cc3)n2)cc1
REMARK SMILES IDX 27 1 26 2 25 3 24 4 23 5 22 6 21 7 20 8 18 9 19 10 17 11
REMARK SMILES IDX 12 12 13 13 14 14 16 15 15 16 11 17 6 18 7 19 95 20 8 21
REMARK SMILES IDX 9 22 10 23 5 24 1 25 2 26 3 27 97 28 4 29 96 30 28 31 29 32
REMARK SMILES IDX 30 33 31 34 32 35 33 36 34 37 35 38 36 39 94 40 37 41 93 42
REMARK SMILES IDX 38 43 39 44 40 45 87 46 41 47 92 48 86 49 88 50 42 51 91 52
REMARK SMILES IDX 85 53 84 54 43 56 73 57 54 58 72 59 55 60 58 61 71 62 89 63
REMARK SMILES IDX 56 64 57 65 70 67 90 68 59 69 44 70 45 71 53 72 46 73 52 74
REMARK SMILES IDX 47 75 48 76 49 77 50 78 51 79 74 80 75 81 83 82 76 83 82 84
REMARK SMILES IDX 77 85 78 86 79 87 80 88 81 89 60 90 61 91 69 92 62 93 68 94
REMARK SMILES IDX 63 95 64 96 65 97 66 98 67 99
REMARK H PARENT 88 55 58 66
REMARK Flexibility Score: inf
ROOT
ATOM      1  C   UNL A   1      34.510  19.612  25.212  1.00  0.00     0.188 C 
ENDROOT
BRANCH   1   2
ATOM      2  O   UNL A   1      34.445  18.498  24.312  1.00  0.00    -0.377 OA
BRANCH   2   3
ATOM      3  C   UNL A   1      33.270  18.462  23.531  1.00  0.00     0.188 C 
BRANCH   3   4
ATOM      4  C   UNL A   1      32.133  19.426  23.929  1.00  0.00     0.188 C 
BRANCH   4   5
ATOM      5  O   UNL A   1      32.218  20.835  23.776  1.00  0.00    -0.376 OA
BRANCH   5   6
ATOM      6  C   UNL A   1      32.541  21.319  22.486  1.00  0.00     0.202 C 
BRANCH   6   7
ATOM      7  C   UNL A   1      32.864  22.799  22.339  1.00  0.00     0.261 C 
BRANCH   7   8
ATOM      8  O   UNL A   1      32.078  23.555  23.259  1.00  0.00    -0.462 OA
BRANCH   8   9
ATOM      9  C   UNL A   1      32.685  24.582  23.905  1.00  0.00     0.328 C 
ATOM     10  O   UNL A   1      33.424  25.399  23.399  1.00  0.00    -0.250 OA
BRANCH   9  11
ATOM     11  C   UNL A   1      32.109  24.687  25.337  1.00  0.00     0.193 C 
ATOM     12  N   UNL A   1      30.709  25.163  25.288  1.00  0.00    -0.343 N 
ATOM     13  C   UNL A   1      29.691  24.741  26.250  1.00  0.00     0.119 C 
ATOM     14  C   UNL A   1      29.916  23.405  26.942  1.00  0.00     0.022 C 
ATOM     15  C   UNL A   1      32.327  23.414  26.157  1.00  0.00     0.037 C 
ATOM     16  C   UNL A   1      31.102  22.580  26.489  1.00  0.00     0.005 C 
BRANCH  12  17
ATOM     17  C   UNL A   1      30.634  26.525  24.972  1.00  0.00     0.133 A 
ATOM     18  C   UNL A   1      31.473  28.607  25.392  1.00  0.00     0.161 A 
ATOM     19  N   UNL A   1      30.820  29.221  24.397  1.00  0.00    -0.233 NA
ATOM     20  N   UNL A   1      31.403  27.312  25.698  1.00  0.00    -0.211 NA
ATOM     21  C   UNL A   1      30.043  28.409  23.647  1.00  0.00     0.043 A 
ATOM     22  C   UNL A   1      29.366  29.004  22.444  1.00  0.00     0.067 C 
ATOM     23  C   UNL A   1      29.908  27.057  23.924  1.00  0.00     0.070 A 
BRANCH  18  24
ATOM     24  C   UNL A   1      32.363  29.313  26.294  1.00  0.00     0.019 A 
ATOM     25  C   UNL A   1      35.273  31.791  28.265  1.00  0.00     0.044 C 
ATOM     26  C   UNL A   1      34.248  30.930  27.597  1.00  0.00    -0.051 A 
ATOM     27  C   UNL A   1      34.534  29.585  27.314  1.00  0.00     0.004 A 
ATOM     28  C   UNL A   1      33.012  31.465  27.236  1.00  0.00     0.004 A 
ATOM     29  C   UNL A   1      33.594  28.777  26.672  1.00  0.00     0.012 A 
ATOM     30  C   UNL A   1      32.081  30.661  26.596  1.00  0.00     0.012 A 
ENDBRANCH  18  24
ENDBRANCH  12  17
ENDBRANCH   9  11
ENDBRANCH   8   9
ENDBRANCH   7   8
ENDBRANCH   6   7
ENDBRANCH   5   6
ENDBRANCH   4   5
ENDBRANCH   3   4
ENDBRANCH   2   3
ENDBRANCH   1   2
BRANCH   1  31
ATOM     31  C   UNL A   1      35.748  20.452  24.948  1.00  0.00     0.188 C 
BRANCH  31  32
ATOM     32  O   UNL A   1      35.297  21.797  24.812  1.00  0.00    -0.376 OA
BRANCH  32  33
ATOM     33  C   UNL A   1      36.106  22.680  24.084  1.00  0.00     0.202 C 
BRANCH  33  34
ATOM     34  C   UNL A   1      36.349  23.954  24.878  1.00  0.00     0.261 C 
BRANCH  34  35
ATOM     35  O   UNL A   1      36.926  23.611  26.160  1.00  0.00    -0.460 OA
BRANCH  35  36
ATOM     36  C   UNL A   1      38.222  23.178  26.131  1.00  0.00     0.338 C 
ATOM     37  O   UNL A   1      38.571  22.162  25.556  1.00  0.00    -0.246 OA
BRANCH  36  38
ATOM     38  C   UNL A   1      39.145  24.134  26.825  1.00  0.00     0.060 A 
ATOM     39  C   UNL A   1      38.959  24.493  28.172  1.00  0.00     0.016 A 
ATOM     40  C   UNL A   1      40.113  24.798  26.089  1.00  0.00     0.016 A 
ATOM     41  C   UNL A   1      39.644  25.600  28.738  1.00  0.00     0.010 A 
ATOM     42  C   UNL A   1      40.732  25.915  26.629  1.00  0.00     0.010 A 
ATOM     43  C   UNL A   1      40.506  26.361  27.949  1.00  0.00    -0.014 A 
BRANCH  43  44
ATOM     44  C   UNL A   1      41.118  27.685  28.273  1.00  0.00     0.031 A 
ATOM     45  C   UNL A   1      40.202  28.869  28.491  1.00  0.00     0.074 A 
ATOM     46  C   UNL A   1      42.370  27.734  28.809  1.00  0.00     0.049 A 
ATOM     47  N   UNL A   1      40.538  29.997  29.026  1.00  0.00    -0.248 NA
ATOM     48  C   UNL A   1      38.775  28.853  28.160  1.00  0.00     0.031 C 
ATOM     49  C   UNL A   1      42.812  28.637  29.882  1.00  0.00     0.029 A 
ATOM     50  N   UNL A   1      43.483  26.931  28.664  1.00  0.00    -0.354 N 
ATOM     51  C   UNL A   1      39.399  30.679  29.415  1.00  0.00     0.074 A 
ATOM     52  C   UNL A   1      38.325  29.950  28.781  1.00  0.00     0.031 C 
ATOM     53  C   UNL A   1      44.066  28.363  30.267  1.00  0.00     0.029 A 
ATOM     54  C   UNL A   1      44.615  27.498  29.256  1.00  0.00     0.049 A 
ATOM     55  H   UNL A   1      43.479  26.064  28.198  1.00  0.00     0.167 HD
ATOM     56  C   UNL A   1      39.501  31.697  30.328  1.00  0.00     0.031 A 
ATOM     57  C   UNL A   1      45.688  27.882  28.499  1.00  0.00     0.031 A 
ATOM     58  C   UNL A   1      40.915  32.053  30.597  1.00  0.00     0.049 A 
ATOM     59  C   UNL A   1      45.739  29.405  28.364  1.00  0.00     0.074 A 
ATOM     60  C   UNL A   1      41.702  32.203  31.731  1.00  0.00     0.029 A 
ATOM     61  N   UNL A   1      41.804  32.152  29.522  1.00  0.00    -0.354 N 
ATOM     62  N   UNL A   1      44.686  30.164  28.565  1.00  0.00    -0.248 NA
ATOM     63  C   UNL A   1      46.940  30.218  28.162  1.00  0.00     0.031 C 
ATOM     64  C   UNL A   1      43.069  32.220  31.328  1.00  0.00     0.029 A 
ATOM     65  C   UNL A   1      43.116  32.198  29.943  1.00  0.00     0.049 A 
ATOM     66  H   UNL A   1      41.525  32.187  28.578  1.00  0.00     0.167 HD
ATOM     67  C   UNL A   1      45.040  31.476  28.634  1.00  0.00     0.074 A 
ATOM     68  C   UNL A   1      46.458  31.470  28.315  1.00  0.00     0.031 C 
ATOM     69  C   UNL A   1      44.184  32.479  28.993  1.00  0.00     0.031 A 
BRANCH  56  70
ATOM     70  C   UNL A   1      38.334  32.301  31.132  1.00  0.00    -0.014 A 
ATOM     71  C   UNL A   1      38.125  31.906  32.475  1.00  0.00     0.010 A 
ATOM     72  C   UNL A   1      37.382  33.218  30.639  1.00  0.00     0.010 A 
ATOM     73  C   UNL A   1      37.051  32.372  33.260  1.00  0.00     0.020 A 
ATOM     74  C   UNL A   1      36.312  33.716  31.418  1.00  0.00     0.020 A 
ATOM     75  C   UNL A   1      36.152  33.286  32.729  1.00  0.00     0.054 A 
BRANCH  75  76
ATOM     76  S   UNL A   1      34.813  33.923  33.779  1.00  0.00     0.124 S 
ATOM     77  O   UNL A   1      35.264  33.560  35.119  1.00  0.00    -0.237 OA
ATOM     78  O   UNL A   1      34.826  35.352  33.477  1.00  0.00    -0.237 OA
ATOM     79  O   UNL A   1      33.629  33.204  33.310  1.00  0.00    -0.744 OA
ENDBRANCH  75  76
ENDBRANCH  56  70
BRANCH  57  80
ATOM     80  C   UNL A   1      46.166  26.742  27.643  1.00  0.00    -0.014 A 
ATOM     81  C   UNL A   1      46.242  25.514  28.351  1.00  0.00     0.010 A 
ATOM     82  C   UNL A   1      45.766  26.693  26.290  1.00  0.00     0.010 A 
ATOM     83  C   UNL A   1      45.630  24.358  27.848  1.00  0.00     0.020 A 
ATOM     84  C   UNL A   1      45.152  25.527  25.783  1.00  0.00     0.020 A 
ATOM     85  C   UNL A   1      45.020  24.394  26.595  1.00  0.00     0.054 A 
BRANCH  85  86
ATOM     86  S   UNL A   1      43.800  23.095  26.186  1.00  0.00     0.124 S 
ATOM     87  O   UNL A   1      43.134  23.649  25.013  1.00  0.00    -0.237 OA
ATOM     88  O   UNL A   1      44.641  21.923  25.942  1.00  0.00    -0.237 OA
ATOM     89  O   UNL A   1      42.993  23.011  27.397  1.00  0.00    -0.744 OA
ENDBRANCH  85  86
ENDBRANCH  57  80
BRANCH  69  90
ATOM     90  C   UNL A   1      44.286  33.896  28.487  1.00  0.00    -0.014 A 
ATOM     91  C   UNL A   1      43.855  34.277  27.211  1.00  0.00     0.010 A 
ATOM     92  C   UNL A   1      44.612  34.937  29.397  1.00  0.00     0.010 A 
ATOM     93  C   UNL A   1      43.798  35.623  26.842  1.00  0.00     0.020 A 
ATOM     94  C   UNL A   1      44.506  36.284  29.057  1.00  0.00     0.020 A 
ATOM     95  C   UNL A   1      44.121  36.616  27.766  1.00  0.00     0.054 A 
BRANCH  95  96
ATOM     96  S   UNL A   1      43.981  38.345  27.269  1.00  0.00     0.124 S 
ATOM     97  O   UNL A   1      42.738  38.333  26.503  1.00  0.00    -0.237 OA
ATOM     98  O   UNL A   1      43.920  39.042  28.553  1.00  0.00    -0.237 OA
ATOM     99  O   UNL A   1      45.195  38.587  26.493  1.00  0.00    -0.744 OA
ENDBRANCH  95  96
ENDBRANCH  69  90
ENDBRANCH  43  44
ENDBRANCH  36  38
ENDBRANCH  35  36
ENDBRANCH  34  35
ENDBRANCH  33  34
ENDBRANCH  32  33
ENDBRANCH  31  32
ENDBRANCH   1  31
TORSDOF 25
ENDMDL
MODEL 2
REMARK VINA RESULT:     -10.2      1.726      2.261
REMARK SMILES Cc1ccc(-c2nc(C)cc(N3CCCC[C@H]3C(=O)OCCOCCOCCOCCOC(=O)c3ccc(-c4c5nc(c(-c6ccc(S(=O)(=O)[O-])cc6)c6ccc([nH]6)c(-c6ccc(S(=O)(=O)[O-])cc6)c6nc(c(-c7ccc(S(=O)(=O)[O-])cc7)c7ccc4[nH]7)C=C6)C=C5)cc3)n2)cc1
REMARK SMILES IDX 27 1 26 2 25 3 24 4 23 5 22 6 21 7 20 8 18 9 19 10 17 11
REMARK SMILES IDX 12 12 13 13 14 14 16 15 15 16 11 17 6 18 7 19 95 20 8 21
REMARK SMILES IDX 9 22 10 23 5 24 1 25 2 26 3 27 97 28 4 29 96 30 28 31 29 32
REMARK SMILES IDX 30 33 31 34 32 35 33 36 34 37 35 38 36 39 94 40 37 41 93 42
REMARK SMILES IDX 38 43 39 44 40 45 87 46 41 47 92 48 86 49 88 50 42 51 91 52
REMARK SMILES IDX 85 53 84 54 43 56 73 57 54 58 72 59 55 60 58 61 71 62 89 63
REMARK SMILES IDX 56 64 57 65 70 67 90 68 59 69 44 70 45 71 53 72 46 73 52 74
REMARK SMILES IDX 47 75 48 76 49 77 50 78 51 79 74 80 75 81 83 82 76 83 82 84
REMARK SMILES IDX 77 85 78 86 79 87 80 88 81 89 60 90 61 91 69 92 62 93 68 94
REMARK SMILES IDX 63 95 64 96 65 97 66 98 67 99
REMARK H PARENT 88 55 58 66
REMARK Flexibility Score: inf
ROOT
ATOM      1  C   UNL A   1      33.121  20.817  25.112  1.00  0.00     0.188 C 
ENDROOT
BRANCH   1   2
ATOM      2  O   UNL A   1      32.553  20.105  24.005  1.00  0.00    -0.377 OA
BRANCH   2   3
ATOM      3  C   UNL A   1      32.162  20.934  22.932  1.00  0.00     0.188 C 
BRANCH   3   4
ATOM      4  C   UNL A   1      31.465  22.263  23.290  1.00  0.00     0.188 C 
BRANCH   4   5
ATOM      5  O   UNL A   1      32.099  23.529  23.180  1.00  0.00    -0.376 OA
BRANCH   5   6
ATOM      6  C   UNL A   1      33.071  23.669  22.161  1.00  0.00     0.202 C 
BRANCH   6   7
ATOM      7  C   UNL A   1      33.559  25.071  21.828  1.00  0.00     0.261 C 
BRANCH   7   8
ATOM      8  O   UNL A   1      32.856  26.025  22.623  1.00  0.00    -0.462 OA
BRANCH   8   9
ATOM      9  C   UNL A   1      33.590  26.959  23.277  1.00  0.00     0.328 C 
ATOM     10  O   UNL A   1      34.198  27.871  22.759  1.00  0.00    -0.250 OA
BRANCH   9  11
ATOM     11  C   UNL A   1      33.347  26.817  24.798  1.00  0.00     0.193 C 
ATOM     12  N   UNL A   1      31.895  26.803  25.081  1.00  0.00    -0.343 N 
ATOM     13  C   UNL A   1      31.305  26.035  26.177  1.00  0.00     0.119 C 
ATOM     14  C   UNL A   1      32.089  24.824  26.663  1.00  0.00     0.022 C 
ATOM     15  C   UNL A   1      34.134  25.660  25.418  1.00  0.00     0.037 C 
ATOM     16  C   UNL A   1      33.342  24.456  25.897  1.00  0.00     0.005 C 
BRANCH  12  17
ATOM     17  C   UNL A   1      31.325  28.074  24.934  1.00  0.00     0.133 A 
ATOM     18  C   UNL A   1      31.399  30.261  25.588  1.00  0.00     0.161 A 
ATOM     19  N   UNL A   1      30.512  30.703  24.687  1.00  0.00    -0.233 NA
ATOM     20  N   UNL A   1      31.809  29.002  25.736  1.00  0.00    -0.211 NA
ATOM     21  C   UNL A   1      30.029  29.752  23.858  1.00  0.00     0.043 A 
ATOM     22  C   UNL A   1      29.115  30.190  22.748  1.00  0.00     0.067 C 
ATOM     23  C   UNL A   1      30.396  28.420  23.971  1.00  0.00     0.070 A 
BRANCH  18  24
ATOM     24  C   UNL A   1      32.035  31.137  26.552  1.00  0.00     0.019 A 
ATOM     25  C   UNL A   1      34.263  34.102  28.730  1.00  0.00     0.044 C 
ATOM     26  C   UNL A   1      33.472  33.072  27.988  1.00  0.00    -0.051 A 
ATOM     27  C   UNL A   1      33.953  31.757  27.880  1.00  0.00     0.004 A 
ATOM     28  C   UNL A   1      32.264  33.417  27.384  1.00  0.00     0.004 A 
ATOM     29  C   UNL A   1      33.235  30.792  27.173  1.00  0.00     0.012 A 
ATOM     30  C   UNL A   1      31.554  32.458  26.678  1.00  0.00     0.012 A 
ENDBRANCH  18  24
ENDBRANCH  12  17
ENDBRANCH   9  11
ENDBRANCH   8   9
ENDBRANCH   7   8
ENDBRANCH   6   7
ENDBRANCH   5   6
ENDBRANCH   4   5
ENDBRANCH   3   4
ENDBRANCH   2   3
ENDBRANCH   1   2
BRANCH   1  31
ATOM     31  C   UNL A   1      34.637  20.726  25.097  1.00  0.00     0.188 C 
BRANCH  31  32
ATOM     32  O   UNL A   1      35.113  22.022  24.750  1.00  0.00    -0.376 OA
BRANCH  32  33
ATOM     33  C   UNL A   1      36.374  22.109  24.143  1.00  0.00     0.202 C 
BRANCH  33  34
ATOM     34  C   UNL A   1      36.929  23.519  24.271  1.00  0.00     0.261 C 
BRANCH  34  35
ATOM     35  O   UNL A   1      37.277  23.768  25.653  1.00  0.00    -0.460 OA
BRANCH  35  36
ATOM     36  C   UNL A   1      38.440  23.191  26.085  1.00  0.00     0.338 C 
ATOM     37  O   UNL A   1      38.735  22.033  25.849  1.00  0.00    -0.246 OA
BRANCH  36  38
ATOM     38  C   UNL A   1      39.311  24.171  26.811  1.00  0.00     0.060 A 
ATOM     39  C   UNL A   1      39.036  24.568  28.132  1.00  0.00     0.016 A 
ATOM     40  C   UNL A   1      40.325  24.817  26.121  1.00  0.00     0.016 A 
ATOM     41  C   UNL A   1      39.679  25.694  28.709  1.00  0.00     0.010 A 
ATOM     42  C   UNL A   1      40.903  25.953  26.669  1.00  0.00     0.010 A 
ATOM     43  C   UNL A   1      40.590  26.436  27.957  1.00  0.00    -0.014 A 
BRANCH  43  44
ATOM     44  C   UNL A   1      41.175  27.771  28.282  1.00  0.00     0.031 A 
ATOM     45  C   UNL A   1      40.234  28.920  28.571  1.00  0.00     0.074 A 
ATOM     46  C   UNL A   1      42.449  27.849  28.759  1.00  0.00     0.049 A 
ATOM     47  N   UNL A   1      40.560  30.047  29.115  1.00  0.00    -0.248 NA
ATOM     48  C   UNL A   1      38.794  28.866  28.308  1.00  0.00     0.031 C 
ATOM     49  C   UNL A   1      42.915  28.742  29.830  1.00  0.00     0.029 A 
ATOM     50  N   UNL A   1      43.578  27.085  28.542  1.00  0.00    -0.354 N 
ATOM     51  C   UNL A   1      39.421  30.683  29.573  1.00  0.00     0.074 A 
ATOM     52  C   UNL A   1      38.341  29.935  28.975  1.00  0.00     0.031 C 
ATOM     53  C   UNL A   1      44.193  28.500  30.149  1.00  0.00     0.029 A 
ATOM     54  C   UNL A   1      44.719  27.675  29.093  1.00  0.00     0.049 A 
ATOM     55  H   UNL A   1      43.578  26.229  28.057  1.00  0.00     0.167 HD
ATOM     56  C   UNL A   1      39.536  31.684  30.505  1.00  0.00     0.031 A 
ATOM     57  C   UNL A   1      45.742  28.110  28.294  1.00  0.00     0.031 A 
ATOM     58  C   UNL A   1      40.950  32.079  30.714  1.00  0.00     0.049 A 
ATOM     59  C   UNL A   1      45.740  29.636  28.192  1.00  0.00     0.074 A 
ATOM     60  C   UNL A   1      41.785  32.230  31.813  1.00  0.00     0.029 A 
ATOM     61  N   UNL A   1      41.782  32.230  29.600  1.00  0.00    -0.354 N 
ATOM     62  N   UNL A   1      44.674  30.357  28.461  1.00  0.00    -0.248 NA
ATOM     63  C   UNL A   1      46.903  30.491  27.953  1.00  0.00     0.031 C 
ATOM     64  C   UNL A   1      43.131  32.299  31.345  1.00  0.00     0.029 A 
ATOM     65  C   UNL A   1      43.111  32.308  29.959  1.00  0.00     0.049 A 
ATOM     66  H   UNL A   1      41.457  32.277  28.672  1.00  0.00     0.167 HD
ATOM     67  C   UNL A   1      44.991  31.678  28.543  1.00  0.00     0.074 A 
ATOM     68  C   UNL A   1      46.390  31.724  28.157  1.00  0.00     0.031 C 
ATOM     69  C   UNL A   1      44.122  32.645  28.966  1.00  0.00     0.031 A 
BRANCH  56  70
ATOM     70  C   UNL A   1      38.390  32.233  31.377  1.00  0.00    -0.014 A 
ATOM     71  C   UNL A   1      37.402  33.063  30.798  1.00  0.00     0.010 A 
ATOM     72  C   UNL A   1      38.235  32.018  32.763  1.00  0.00     0.010 A 
ATOM     73  C   UNL A   1      36.352  33.646  31.537  1.00  0.00     0.020 A 
ATOM     74  C   UNL A   1      37.176  32.574  33.516  1.00  0.00     0.020 A 
ATOM     75  C   UNL A   1      36.238  33.390  32.896  1.00  0.00     0.054 A 
BRANCH  75  76
ATOM     76  S   UNL A   1      34.841  34.098  33.816  1.00  0.00     0.124 S 
ATOM     77  O   UNL A   1      33.717  33.289  33.355  1.00  0.00    -0.237 OA
ATOM     78  O   UNL A   1      35.237  33.888  35.207  1.00  0.00    -0.237 OA
ATOM     79  O   UNL A   1      34.813  35.495  33.388  1.00  0.00    -0.744 OA
ENDBRANCH  75  76
ENDBRANCH  56  70
BRANCH  57  80
ATOM     80  C   UNL A   1      46.213  27.005  27.391  1.00  0.00    -0.014 A 
ATOM     81  C   UNL A   1      45.445  26.898  26.201  1.00  0.00     0.010 A 
ATOM     82  C   UNL A   1      47.598  26.744  27.300  1.00  0.00     0.010 A 
ATOM     83  C   UNL A   1      46.068  26.874  24.945  1.00  0.00     0.020 A 
ATOM     84  C   UNL A   1      48.225  26.717  26.035  1.00  0.00     0.020 A 
ATOM     85  C   UNL A   1      47.461  26.860  24.871  1.00  0.00     0.054 A 
BRANCH  85  86
ATOM     86  S   UNL A   1      48.249  27.355  23.297  1.00  0.00     0.124 S 
ATOM     87  O   UNL A   1      48.362  26.085  22.590  1.00  0.00    -0.237 OA
ATOM     88  O   UNL A   1      47.290  28.309  22.738  1.00  0.00    -0.237 OA
ATOM     89  O   UNL A   1      49.504  27.956  23.734  1.00  0.00    -0.744 OA
ENDBRANCH  85  86
ENDBRANCH  57  80
BRANCH  69  90
ATOM     90  C   UNL A   1      44.156  34.075  28.488  1.00  0.00    -0.014 A 
ATOM     91  C   UNL A   1      43.744  34.454  27.206  1.00  0.00     0.010 A 
ATOM     92  C   UNL A   1      44.390  35.115  29.427  1.00  0.00     0.010 A 
ATOM     93  C   UNL A   1      43.618  35.802  26.859  1.00  0.00     0.020 A 
ATOM     94  C   UNL A   1      44.215  36.460  29.108  1.00  0.00     0.020 A 
ATOM     95  C   UNL A   1      43.852  36.794  27.811  1.00  0.00     0.054 A 
BRANCH  95  96
ATOM     96  S   UNL A   1      43.625  38.521  27.340  1.00  0.00     0.124 S 
ATOM     97  O   UNL A   1      43.487  39.167  28.642  1.00  0.00    -0.237 OA
ATOM     98  O   UNL A   1      44.863  38.820  26.621  1.00  0.00    -0.237 OA
ATOM     99  O   UNL A   1      42.420  38.505  26.515  1.00  0.00    -0.744 OA
ENDBRANCH  95  96
ENDBRANCH  69  90
ENDBRANCH  43  44
ENDBRANCH  36  38
ENDBRANCH  35  36
ENDBRANCH  34  35
ENDBRANCH  33  34
ENDBRANCH  32  33
ENDBRANCH  31  32
ENDBRANCH   1  31
TORSDOF 25
ENDMDL
MODEL 3
REMARK VINA RESULT:     -10.1      1.455      3.403
REMARK SMILES Cc1ccc(-c2nc(C)cc(N3CCCC[C@H]3C(=O)OCCOCCOCCOCCOC(=O)c3ccc(-c4c5nc(c(-c6ccc(S(=O)(=O)[O-])cc6)c6ccc([nH]6)c(-c6ccc(S(=O)(=O)[O-])cc6)c6nc(c(-c7ccc(S(=O)(=O)[O-])cc7)c7ccc4[nH]7)C=C6)C=C5)cc3)n2)cc1
REMARK SMILES IDX 27 1 26 2 25 3 24 4 23 5 22 6 21 7 20 8 18 9 19 10 17 11
REMARK SMILES IDX 12 12 13 13 14 14 16 15 15 16 11 17 6 18 7 19 95 20 8 21
REMARK SMILES IDX 9 22 10 23 5 24 1 25 2 26 3 27 97 28 4 29 96 30 28 31 29 32
REMARK SMILES IDX 30 33 31 34 32 35 33 36 34 37 35 38 36 39 94 40 37 41 93 42
REMARK SMILES IDX 38 43 39 44 40 45 87 46 41 47 92 48 86 49 88 50 42 51 91 52
REMARK SMILES IDX 85 53 84 54 43 56 73 57 54 58 72 59 55 60 58 61 71 62 89 63
REMARK SMILES IDX 56 64 57 65 70 67 90 68 59 69 44 70 45 71 53 72 46 73 52 74
REMARK SMILES IDX 47 75 48 76 49 77 50 78 51 79 74 80 75 81 83 82 76 83 82 84
REMARK SMILES IDX 77 85 78 86 79 87 80 88 81 89 60 90 61 91 69 92 62 93 68 94
REMARK SMILES IDX 63 95 64 96 65 97 66 98 67 99
REMARK H PARENT 88 55 58 66
REMARK Flexibility Score: inf
ROOT
ATOM      1  C   UNL A   1      33.677  21.570  26.933  1.00  0.00     0.188 C 
ENDROOT
BRANCH   1   2
ATOM      2  O   UNL A   1      32.293  21.572  26.559  1.00  0.00    -0.377 OA
BRANCH   2   3
ATOM      3  C   UNL A   1      31.947  22.596  25.652  1.00  0.00     0.188 C 
BRANCH   3   4
ATOM      4  C   UNL A   1      31.362  23.893  26.248  1.00  0.00     0.188 C 
BRANCH   4   5
ATOM      5  O   UNL A   1      31.765  25.191  25.835  1.00  0.00    -0.376 OA
BRANCH   5   6
ATOM      6  C   UNL A   1      33.008  25.659  26.325  1.00  0.00     0.202 C 
BRANCH   6   7
ATOM      7  C   UNL A   1      33.477  27.036  25.879  1.00  0.00     0.261 C 
BRANCH   7   8
ATOM      8  O   UNL A   1      33.479  27.926  26.994  1.00  0.00    -0.462 OA
BRANCH   8   9
ATOM      9  C   UNL A   1      32.461  28.819  27.085  1.00  0.00     0.328 C 
ATOM     10  O   UNL A   1      31.394  28.622  27.623  1.00  0.00    -0.250 OA
BRANCH   9  11
ATOM     11  C   UNL A   1      32.958  30.202  26.599  1.00  0.00     0.193 C 
ATOM     12  N   UNL A   1      31.814  31.125  26.440  1.00  0.00    -0.343 N 
ATOM     13  C   UNL A   1      31.912  32.565  26.684  1.00  0.00     0.119 C 
ATOM     14  C   UNL A   1      33.011  33.023  27.632  1.00  0.00     0.022 C 
ATOM     15  C   UNL A   1      34.111  30.746  27.445  1.00  0.00     0.037 C 
ATOM     16  C   UNL A   1      33.822  31.950  28.325  1.00  0.00     0.005 C 
BRANCH  12  17
ATOM     17  C   UNL A   1      31.046  30.812  25.311  1.00  0.00     0.133 A 
ATOM     18  C   UNL A   1      30.702  29.313  23.622  1.00  0.00     0.161 A 
ATOM     19  N   UNL A   1      29.569  29.870  23.175  1.00  0.00    -0.233 NA
ATOM     20  N   UNL A   1      31.439  29.744  24.646  1.00  0.00    -0.211 NA
ATOM     21  C   UNL A   1      29.162  30.956  23.868  1.00  0.00     0.043 A 
ATOM     22  C   UNL A   1      27.840  31.569  23.497  1.00  0.00     0.067 C 
ATOM     23  C   UNL A   1      29.893  31.470  24.929  1.00  0.00     0.070 A 
BRANCH  18  24
ATOM     24  C   UNL A   1      31.285  28.134  23.014  1.00  0.00     0.019 A 
ATOM     25  C   UNL A   1      33.102  24.368  22.007  1.00  0.00     0.044 C 
ATOM     26  C   UNL A   1      32.458  25.677  22.339  1.00  0.00    -0.051 A 
ATOM     27  C   UNL A   1      33.222  26.856  22.348  1.00  0.00     0.004 A 
ATOM     28  C   UNL A   1      31.102  25.730  22.659  1.00  0.00     0.004 A 
ATOM     29  C   UNL A   1      32.637  28.079  22.675  1.00  0.00     0.012 A 
ATOM     30  C   UNL A   1      30.524  26.946  22.988  1.00  0.00     0.012 A 
ENDBRANCH  18  24
ENDBRANCH  12  17
ENDBRANCH   9  11
ENDBRANCH   8   9
ENDBRANCH   7   8
ENDBRANCH   6   7
ENDBRANCH   5   6
ENDBRANCH   4   5
ENDBRANCH   3   4
ENDBRANCH   2   3
ENDBRANCH   1   2
BRANCH   1  31
ATOM     31  C   UNL A   1      34.538  20.995  25.821  1.00  0.00     0.188 C 
BRANCH  31  32
ATOM     32  O   UNL A   1      35.601  21.922  25.619  1.00  0.00    -0.376 OA
BRANCH  32  33
ATOM     33  C   UNL A   1      35.830  22.369  24.310  1.00  0.00     0.202 C 
BRANCH  33  34
ATOM     34  C   UNL A   1      36.995  23.347  24.280  1.00  0.00     0.261 C 
BRANCH  34  35
ATOM     35  O   UNL A   1      37.345  23.710  25.637  1.00  0.00    -0.460 OA
BRANCH  35  36
ATOM     36  C   UNL A   1      38.528  23.205  26.100  1.00  0.00     0.338 C 
ATOM     37  O   UNL A   1      38.891  22.061  25.888  1.00  0.00    -0.246 OA
BRANCH  36  38
ATOM     38  C   UNL A   1      39.331  24.243  26.825  1.00  0.00     0.060 A 
ATOM     39  C   UNL A   1      39.034  24.615  28.148  1.00  0.00     0.016 A 
ATOM     40  C   UNL A   1      40.291  24.963  26.132  1.00  0.00     0.016 A 
ATOM     41  C   UNL A   1      39.597  25.782  28.726  1.00  0.00     0.010 A 
ATOM     42  C   UNL A   1      40.789  26.136  26.681  1.00  0.00     0.010 A 
ATOM     43  C   UNL A   1      40.448  26.590  27.972  1.00  0.00    -0.014 A 
BRANCH  43  44
ATOM     44  C   UNL A   1      40.938  27.963  28.300  1.00  0.00     0.031 A 
ATOM     45  C   UNL A   1      39.923  29.078  28.431  1.00  0.00     0.074 A 
ATOM     46  C   UNL A   1      42.146  28.119  28.911  1.00  0.00     0.049 A 
ATOM     47  N   UNL A   1      40.139  30.240  28.956  1.00  0.00    -0.248 NA
ATOM     48  C   UNL A   1      38.525  28.947  28.013  1.00  0.00     0.031 C 
ATOM     49  C   UNL A   1      42.450  29.075  29.985  1.00  0.00     0.029 A 
ATOM     50  N   UNL A   1      43.322  27.400  28.854  1.00  0.00    -0.354 N 
ATOM     51  C   UNL A   1      38.930  30.840  29.257  1.00  0.00     0.074 A 
ATOM     52  C   UNL A   1      37.957  30.019  28.577  1.00  0.00     0.031 C 
ATOM     53  C   UNL A   1      43.694  28.906  30.453  1.00  0.00     0.029 A 
ATOM     54  C   UNL A   1      44.369  28.064  29.501  1.00  0.00     0.049 A 
ATOM     55  H   UNL A   1      43.413  26.526  28.412  1.00  0.00     0.167 HD
ATOM     56  C   UNL A   1      38.898  31.883  30.149  1.00  0.00     0.031 A 
ATOM     57  C   UNL A   1      45.456  28.513  28.801  1.00  0.00     0.031 A 
ATOM     58  C   UNL A   1      40.262  32.350  30.495  1.00  0.00     0.049 A 
ATOM     59  C   UNL A   1      45.402  30.032  28.631  1.00  0.00     0.074 A 
ATOM     60  C   UNL A   1      40.962  32.584  31.671  1.00  0.00     0.029 A 
ATOM     61  N   UNL A   1      41.207  32.495  29.474  1.00  0.00    -0.354 N 
ATOM     62  N   UNL A   1      44.284  30.713  28.747  1.00  0.00    -0.248 NA
ATOM     63  C   UNL A   1      46.548  30.930  28.483  1.00  0.00     0.031 C 
ATOM     64  C   UNL A   1      42.347  32.697  31.352  1.00  0.00     0.029 A 
ATOM     65  C   UNL A   1      42.483  32.649  29.974  1.00  0.00     0.049 A 
ATOM     66  H   UNL A   1      40.987  32.489  28.514  1.00  0.00     0.167 HD
ATOM     67  C   UNL A   1      44.534  32.049  28.804  1.00  0.00     0.074 A 
ATOM     68  C   UNL A   1      45.966  32.144  28.573  1.00  0.00     0.031 C 
ATOM     69  C   UNL A   1      43.585  32.991  29.084  1.00  0.00     0.031 A 
BRANCH  56  70
ATOM     70  C   UNL A   1      37.640  32.412  30.863  1.00  0.00    -0.014 A 
ATOM     71  C   UNL A   1      36.837  33.394  30.237  1.00  0.00     0.010 A 
ATOM     72  C   UNL A   1      37.204  32.035  32.151  1.00  0.00     0.010 A 
ATOM     73  C   UNL A   1      35.700  33.967  30.845  1.00  0.00     0.020 A 
ATOM     74  C   UNL A   1      36.054  32.580  32.767  1.00  0.00     0.020 A 
ATOM     75  C   UNL A   1      35.307  33.548  32.108  1.00  0.00     0.054 A 
BRANCH  75  76
ATOM     76  S   UNL A   1      33.804  34.251  32.846  1.00  0.00     0.124 S 
ATOM     77  O   UNL A   1      34.336  35.049  33.946  1.00  0.00    -0.237 OA
ATOM     78  O   UNL A   1      33.231  35.010  31.738  1.00  0.00    -0.237 OA
ATOM     79  O   UNL A   1      33.032  33.077  33.252  1.00  0.00    -0.744 OA
ENDBRANCH  75  76
ENDBRANCH  56  70
BRANCH  57  80
ATOM     80  C   UNL A   1      46.071  27.395  28.006  1.00  0.00    -0.014 A 
ATOM     81  C   UNL A   1      46.180  26.187  28.743  1.00  0.00     0.010 A 
ATOM     82  C   UNL A   1      45.775  27.296  26.629  1.00  0.00     0.010 A 
ATOM     83  C   UNL A   1      45.685  24.983  28.223  1.00  0.00     0.020 A 
ATOM     84  C   UNL A   1      45.279  26.083  26.104  1.00  0.00     0.020 A 
ATOM     85  C   UNL A   1      45.167  24.957  26.928  1.00  0.00     0.054 A 
BRANCH  85  86
ATOM     86  S   UNL A   1      44.070  23.570  26.461  1.00  0.00     0.124 S 
ATOM     87  O   UNL A   1      43.141  23.514  27.583  1.00  0.00    -0.237 OA
ATOM     88  O   UNL A   1      43.502  24.018  25.189  1.00  0.00    -0.237 OA
ATOM     89  O   UNL A   1      44.994  22.448  26.341  1.00  0.00    -0.744 OA
ENDBRANCH  85  86
ENDBRANCH  57  80
BRANCH  69  90
ATOM     90  C   UNL A   1      43.612  34.401  28.549  1.00  0.00    -0.014 A 
ATOM     91  C   UNL A   1      43.097  34.744  27.294  1.00  0.00     0.010 A 
ATOM     92  C   UNL A   1      43.956  35.468  29.421  1.00  0.00     0.010 A 
ATOM     93  C   UNL A   1      42.976  36.081  26.906  1.00  0.00     0.020 A 
ATOM     94  C   UNL A   1      43.788  36.805  29.065  1.00  0.00     0.020 A 
ATOM     95  C   UNL A   1      43.319  37.101  27.793  1.00  0.00     0.054 A 
BRANCH  95  96
ATOM     96  S   UNL A   1      43.096  38.815  27.276  1.00  0.00     0.124 S 
ATOM     97  O   UNL A   1      41.858  38.733  26.507  1.00  0.00    -0.237 OA
ATOM     98  O   UNL A   1      42.996  39.523  28.552  1.00  0.00    -0.237 OA
ATOM     99  O   UNL A   1      44.299  39.107  26.501  1.00  0.00    -0.744 OA
ENDBRANCH  95  96
ENDBRANCH  69  90
ENDBRANCH  43  44
ENDBRANCH  36  38
ENDBRANCH  35  36
ENDBRANCH  34  35
ENDBRANCH  33  34
ENDBRANCH  32  33
ENDBRANCH  31  32
ENDBRANCH   1  31
TORSDOF 25
ENDMDL
