MODEL 1
REMARK VINA RESULT:      -9.3      0.000      0.000
REMARK SMILES O=C(OCCOCCOCCOCCOC(=O)c1ccccc1C(=O)Nc1ccc(N2C(=O)[C@H]3[C@@H]4CC[C@@H](C4)[C@@H]3C2=O)cc1)c1ccc(-c2c3nc(c(-c4ccc(S(=O)(=O)[O-])cc4)c4ccc([nH]4)c(-c4ccc(S(=O)(=O)[O-])cc4)c4nc(c(-c5ccc(S(=O)(=O)[O-])cc5)c5ccc2[nH]5)C=C4)C=C3)cc1
REMARK SMILES IDX 9 1 8 2 7 3 6 4 5 5 4 6 3 7 2 8 1 9 45 10 46 11 104 12 47 13
REMARK SMILES IDX 103 14 48 15 49 16 50 17 97 18 51 19 102 20 96 21 98 22
REMARK SMILES IDX 52 23 101 24 95 25 94 26 53 28 83 29 64 30 82 31 65 32 68 33
REMARK SMILES IDX 81 34 99 35 66 36 67 37 80 39 100 40 69 41 54 42 55 43 63 44
REMARK SMILES IDX 56 45 62 46 57 47 58 48 59 49 60 50 61 51 84 52 85 53 93 54
REMARK SMILES IDX 86 55 92 56 87 57 88 58 89 59 90 60 91 61 70 62 71 63 79 64
REMARK SMILES IDX 72 65 78 66 73 67 74 68 75 69 76 70 77 71 10 72 11 73 12 74
REMARK SMILES IDX 13 75 14 76 15 77 16 78 17 79 18 80 19 81 23 82 20 83 22 84
REMARK SMILES IDX 21 85 24 86 25 87 26 88 27 90 28 91 44 92 29 93 43 94 30 95
REMARK SMILES IDX 31 96 32 97 41 98 33 99 34 100 40 101 42 102 35 103 38 104
REMARK SMILES IDX 36 105 39 106 37 107
REMARK H PARENT 98 27 68 38 26 89
REMARK Flexibility Score: inf
ROOT
ATOM      1  O   UNL A   1      38.375  23.077  26.477  1.00  0.00    -0.377 OA
ENDROOT
BRANCH   1   2
ATOM      2  C   UNL A   1      39.693  23.153  26.988  1.00  0.00     0.188 C 
BRANCH   2   3
ATOM      3  C   UNL A   1      40.326  21.842  27.430  1.00  0.00     0.188 C 
BRANCH   3   4
ATOM      4  O   UNL A   1      41.706  21.687  27.144  1.00  0.00    -0.376 OA
BRANCH   4   5
ATOM      5  C   UNL A   1      42.108  21.693  25.783  1.00  0.00     0.202 C 
BRANCH   5   6
ATOM      6  C   UNL A   1      42.828  22.967  25.355  1.00  0.00     0.261 C 
BRANCH   6   7
ATOM      7  O   UNL A   1      44.007  23.265  26.123  1.00  0.00    -0.460 OA
BRANCH   7   8
ATOM      8  C   UNL A   1      44.976  24.030  25.549  1.00  0.00     0.338 C 
ATOM      9  O   UNL A   1      45.237  24.069  24.359  1.00  0.00    -0.246 OA
BRANCH   8  10
ATOM     10  C   UNL A   1      45.629  24.849  26.611  1.00  0.00     0.060 A 
ATOM     11  C   UNL A   1      46.237  24.189  27.681  1.00  0.00     0.016 A 
ATOM     12  C   UNL A   1      45.627  26.249  26.580  1.00  0.00     0.016 A 
ATOM     13  C   UNL A   1      46.772  24.896  28.730  1.00  0.00     0.010 A 
ATOM     14  C   UNL A   1      46.113  26.975  27.686  1.00  0.00     0.010 A 
ATOM     15  C   UNL A   1      46.640  26.286  28.786  1.00  0.00    -0.014 A 
BRANCH  15  16
ATOM     16  C   UNL A   1      46.716  26.810  30.173  1.00  0.00     0.031 A 
ATOM     17  C   UNL A   1      45.388  27.218  30.763  1.00  0.00     0.074 A 
ATOM     18  C   UNL A   1      47.790  26.598  30.956  1.00  0.00     0.049 A 
ATOM     19  N   UNL A   1      45.013  27.268  32.012  1.00  0.00    -0.248 NA
ATOM     20  C   UNL A   1      44.311  27.505  29.795  1.00  0.00     0.031 C 
ATOM     21  C   UNL A   1      49.068  26.049  30.507  1.00  0.00     0.029 A 
ATOM     22  N   UNL A   1      47.921  26.686  32.323  1.00  0.00    -0.354 N 
ATOM     23  C   UNL A   1      43.664  27.603  31.974  1.00  0.00     0.074 A 
ATOM     24  C   UNL A   1      43.265  27.659  30.588  1.00  0.00     0.031 C 
ATOM     25  C   UNL A   1      49.811  25.744  31.587  1.00  0.00     0.029 A 
ATOM     26  C   UNL A   1      49.078  26.105  32.800  1.00  0.00     0.049 A 
ATOM     27  H   UNL A   1      47.256  27.123  32.903  1.00  0.00     0.167 HD
ATOM     28  C   UNL A   1      42.841  27.916  33.000  1.00  0.00     0.031 A 
ATOM     29  C   UNL A   1      49.462  25.849  34.071  1.00  0.00     0.031 A 
ATOM     30  C   UNL A   1      43.276  27.994  34.362  1.00  0.00     0.049 A 
ATOM     31  C   UNL A   1      48.557  26.299  35.198  1.00  0.00     0.074 A 
ATOM     32  C   UNL A   1      42.603  28.507  35.454  1.00  0.00     0.029 A 
ATOM     33  N   UNL A   1      44.522  27.581  34.809  1.00  0.00    -0.354 N 
ATOM     34  N   UNL A   1      47.309  26.704  35.154  1.00  0.00    -0.248 NA
ATOM     35  C   UNL A   1      49.134  26.286  36.552  1.00  0.00     0.031 C 
ATOM     36  C   UNL A   1      43.473  28.477  36.547  1.00  0.00     0.029 A 
ATOM     37  C   UNL A   1      44.652  27.861  36.154  1.00  0.00     0.049 A 
ATOM     38  H   UNL A   1      45.210  27.152  34.250  1.00  0.00     0.167 HD
ATOM     39  C   UNL A   1      46.959  27.007  36.468  1.00  0.00     0.074 A 
ATOM     40  C   UNL A   1      48.103  26.676  37.290  1.00  0.00     0.031 C 
ATOM     41  C   UNL A   1      45.808  27.539  36.952  1.00  0.00     0.031 A 
BRANCH  28  42
ATOM     42  C   UNL A   1      41.475  28.416  32.631  1.00  0.00    -0.014 A 
ATOM     43  C   UNL A   1      40.328  27.609  32.722  1.00  0.00     0.010 A 
ATOM     44  C   UNL A   1      41.366  29.719  32.113  1.00  0.00     0.010 A 
ATOM     45  C   UNL A   1      39.097  28.094  32.265  1.00  0.00     0.020 A 
ATOM     46  C   UNL A   1      40.138  30.212  31.678  1.00  0.00     0.020 A 
ATOM     47  C   UNL A   1      39.012  29.389  31.742  1.00  0.00     0.054 A 
BRANCH  47  48
ATOM     48  S   UNL A   1      37.410  29.994  31.150  1.00  0.00     0.124 S 
ATOM     49  O   UNL A   1      37.688  31.410  30.920  1.00  0.00    -0.237 OA
ATOM     50  O   UNL A   1      37.191  29.194  29.948  1.00  0.00    -0.237 OA
ATOM     51  O   UNL A   1      36.501  29.711  32.258  1.00  0.00    -0.744 OA
ENDBRANCH  47  48
ENDBRANCH  28  42
BRANCH  29  52
ATOM     52  C   UNL A   1      50.747  25.145  34.384  1.00  0.00    -0.014 A 
ATOM     53  C   UNL A   1      51.955  25.864  34.493  1.00  0.00     0.010 A 
ATOM     54  C   UNL A   1      50.795  23.744  34.499  1.00  0.00     0.010 A 
ATOM     55  C   UNL A   1      53.177  25.200  34.665  1.00  0.00     0.020 A 
ATOM     56  C   UNL A   1      52.007  23.077  34.712  1.00  0.00     0.020 A 
ATOM     57  C   UNL A   1      53.195  23.808  34.766  1.00  0.00     0.054 A 
BRANCH  57  58
ATOM     58  S   UNL A   1      54.783  22.952  34.979  1.00  0.00     0.124 S 
ATOM     59  O   UNL A   1      55.641  24.026  35.468  1.00  0.00    -0.237 OA
ATOM     60  O   UNL A   1      54.457  21.910  35.948  1.00  0.00    -0.237 OA
ATOM     61  O   UNL A   1      55.089  22.469  33.634  1.00  0.00    -0.744 OA
ENDBRANCH  57  58
ENDBRANCH  29  52
BRANCH  41  62
ATOM     62  C   UNL A   1      45.725  27.823  38.430  1.00  0.00    -0.014 A 
ATOM     63  C   UNL A   1      45.937  29.119  38.934  1.00  0.00     0.010 A 
ATOM     64  C   UNL A   1      45.338  26.800  39.316  1.00  0.00     0.010 A 
ATOM     65  C   UNL A   1      45.801  29.377  40.300  1.00  0.00     0.020 A 
ATOM     66  C   UNL A   1      45.169  27.063  40.677  1.00  0.00     0.020 A 
ATOM     67  C   UNL A   1      45.417  28.347  41.163  1.00  0.00     0.054 A 
BRANCH  67  68
ATOM     68  S   UNL A   1      45.206  28.720  42.926  1.00  0.00     0.124 S 
ATOM     69  O   UNL A   1      43.799  28.388  43.139  1.00  0.00    -0.237 OA
ATOM     70  O   UNL A   1      46.167  27.821  43.561  1.00  0.00    -0.237 OA
ATOM     71  O   UNL A   1      45.532  30.141  43.023  1.00  0.00    -0.744 OA
ENDBRANCH  67  68
ENDBRANCH  41  62
ENDBRANCH  15  16
ENDBRANCH   8  10
ENDBRANCH   7   8
ENDBRANCH   6   7
ENDBRANCH   5   6
ENDBRANCH   4   5
ENDBRANCH   3   4
ENDBRANCH   2   3
ENDBRANCH   1   2
BRANCH   1  72
ATOM     72  C   UNL A   1      38.059  22.041  25.545  1.00  0.00     0.188 C 
BRANCH  72  73
ATOM     73  C   UNL A   1      36.602  21.663  25.209  1.00  0.00     0.188 C 
BRANCH  73  74
ATOM     74  O   UNL A   1      35.647  22.418  25.923  1.00  0.00    -0.376 OA
BRANCH  74  75
ATOM     75  C   UNL A   1      35.835  23.819  25.898  1.00  0.00     0.202 C 
BRANCH  75  76
ATOM     76  C   UNL A   1      35.259  24.586  24.710  1.00  0.00     0.261 C 
BRANCH  76  77
ATOM     77  O   UNL A   1      34.400  25.742  24.877  1.00  0.00    -0.460 OA
BRANCH  77  78
ATOM     78  C   UNL A   1      33.940  26.567  23.926  1.00  0.00     0.339 C 
ATOM     79  O   UNL A   1      34.221  26.658  22.739  1.00  0.00    -0.246 OA
BRANCH  78  80
ATOM     80  C   UNL A   1      32.825  27.319  24.469  1.00  0.00     0.072 A 
ATOM     81  C   UNL A   1      33.072  28.055  25.650  1.00  0.00     0.016 A 
ATOM     82  C   UNL A   1      31.630  27.421  23.770  1.00  0.00     0.054 A 
ATOM     83  C   UNL A   1      32.182  29.036  26.062  1.00  0.00     0.001 A 
ATOM     84  C   UNL A   1      30.763  28.456  24.182  1.00  0.00     0.015 A 
ATOM     85  C   UNL A   1      31.043  29.265  25.301  1.00  0.00     0.001 A 
BRANCH  82  86
ATOM     86  C   UNL A   1      31.299  26.656  22.522  1.00  0.00     0.256 C 
ATOM     87  O   UNL A   1      30.721  27.299  21.636  1.00  0.00    -0.269 OA
ATOM     88  N   UNL A   1      31.672  25.356  22.201  1.00  0.00    -0.322 N 
ATOM     89  H   UNL A   1      31.570  25.171  21.239  1.00  0.00     0.170 HD
BRANCH  88  90
ATOM     90  C   UNL A   1      32.162  24.230  22.905  1.00  0.00     0.041 A 
ATOM     91  C   UNL A   1      31.452  23.819  24.046  1.00  0.00     0.028 A 
ATOM     92  C   UNL A   1      33.236  23.449  22.497  1.00  0.00     0.028 A 
ATOM     93  C   UNL A   1      31.620  22.519  24.582  1.00  0.00     0.029 A 
ATOM     94  C   UNL A   1      33.450  22.178  23.086  1.00  0.00     0.029 A 
ATOM     95  C   UNL A   1      32.561  21.642  24.041  1.00  0.00     0.052 A 
BRANCH  95  96
ATOM     96  N   UNL A   1      32.522  20.223  24.242  1.00  0.00    -0.250 N 
ATOM     97  C   UNL A   1      32.942  19.612  25.433  1.00  0.00     0.237 C 
ATOM     98  C   UNL A   1      32.304  19.260  23.233  1.00  0.00     0.237 C 
ATOM     99  O   UNL A   1      33.033  20.071  26.557  1.00  0.00    -0.274 OA
ATOM    100  C   UNL A   1      33.507  18.310  24.982  1.00  0.00     0.095 C 
ATOM    101  C   UNL A   1      32.526  17.929  23.905  1.00  0.00     0.095 C 
ATOM    102  O   UNL A   1      31.874  19.388  22.099  1.00  0.00    -0.274 OA
ATOM    103  C   UNL A   1      33.794  16.956  25.651  1.00  0.00     0.002 C 
ATOM    104  C   UNL A   1      33.068  16.539  23.558  1.00  0.00     0.002 C 
ATOM    105  C   UNL A   1      35.087  16.470  24.969  1.00  0.00     0.005 C 
ATOM    106  C   UNL A   1      32.836  15.947  24.967  1.00  0.00     0.009 C 
ATOM    107  C   UNL A   1      34.622  16.366  23.489  1.00  0.00     0.005 C 
ENDBRANCH  95  96
ENDBRANCH  88  90
ENDBRANCH  82  86
ENDBRANCH  78  80
ENDBRANCH  77  78
ENDBRANCH  76  77
ENDBRANCH  75  76
ENDBRANCH  74  75
ENDBRANCH  73  74
ENDBRANCH  72  73
ENDBRANCH   1  72
TORSDOF 26
ENDMDL
MODEL 2
REMARK VINA RESULT:      -8.9      7.192     14.653
REMARK SMILES O=C(OCCOCCOCCOCCOC(=O)c1ccccc1C(=O)Nc1ccc(N2C(=O)[C@H]3[C@@H]4CC[C@@H](C4)[C@@H]3C2=O)cc1)c1ccc(-c2c3nc(c(-c4ccc(S(=O)(=O)[O-])cc4)c4ccc([nH]4)c(-c4ccc(S(=O)(=O)[O-])cc4)c4nc(c(-c5ccc(S(=O)(=O)[O-])cc5)c5ccc2[nH]5)C=C4)C=C3)cc1
REMARK SMILES IDX 9 1 8 2 7 3 6 4 5 5 4 6 3 7 2 8 1 9 45 10 46 11 104 12 47 13
REMARK SMILES IDX 103 14 48 15 49 16 50 17 97 18 51 19 102 20 96 21 98 22
REMARK SMILES IDX 52 23 101 24 95 25 94 26 53 28 83 29 64 30 82 31 65 32 68 33
REMARK SMILES IDX 81 34 99 35 66 36 67 37 80 39 100 40 69 41 54 42 55 43 63 44
REMARK SMILES IDX 56 45 62 46 57 47 58 48 59 49 60 50 61 51 84 52 85 53 93 54
REMARK SMILES IDX 86 55 92 56 87 57 88 58 89 59 90 60 91 61 70 62 71 63 79 64
REMARK SMILES IDX 72 65 78 66 73 67 74 68 75 69 76 70 77 71 10 72 11 73 12 74
REMARK SMILES IDX 13 75 14 76 15 77 16 78 17 79 18 80 19 81 23 82 20 83 22 84
REMARK SMILES IDX 21 85 24 86 25 87 26 88 27 90 28 91 44 92 29 93 43 94 30 95
REMARK SMILES IDX 31 96 32 97 41 98 33 99 34 100 40 101 42 102 35 103 38 104
REMARK SMILES IDX 36 105 39 106 37 107
REMARK H PARENT 98 27 68 38 26 89
REMARK Flexibility Score: inf
ROOT
ATOM      1  O   UNL A   1      50.754  25.536  33.631  1.00  0.00    -0.377 OA
ENDROOT
BRANCH   1   2
ATOM      2  C   UNL A   1      51.810  25.481  34.571  1.00  0.00     0.188 C 
BRANCH   2   3
ATOM      3  C   UNL A   1      51.863  24.250  35.462  1.00  0.00     0.188 C 
BRANCH   3   4
ATOM      4  O   UNL A   1      50.979  24.243  36.570  1.00  0.00    -0.376 OA
BRANCH   4   5
ATOM      5  C   UNL A   1      50.522  25.492  37.065  1.00  0.00     0.202 C 
BRANCH   5   6
ATOM      6  C   UNL A   1      49.005  25.648  37.049  1.00  0.00     0.261 C 
BRANCH   6   7
ATOM      7  O   UNL A   1      48.478  26.172  35.818  1.00  0.00    -0.460 OA
BRANCH   7   8
ATOM      8  C   UNL A   1      47.197  25.861  35.480  1.00  0.00     0.338 C 
ATOM      9  O   UNL A   1      46.799  24.760  35.139  1.00  0.00    -0.246 OA
BRANCH   8  10
ATOM     10  C   UNL A   1      46.351  27.079  35.646  1.00  0.00     0.060 A 
ATOM     11  C   UNL A   1      44.973  26.916  35.804  1.00  0.00     0.016 A 
ATOM     12  C   UNL A   1      46.892  28.371  35.622  1.00  0.00     0.016 A 
ATOM     13  C   UNL A   1      44.140  28.007  35.870  1.00  0.00     0.010 A 
ATOM     14  C   UNL A   1      46.034  29.489  35.619  1.00  0.00     0.010 A 
ATOM     15  C   UNL A   1      44.649  29.296  35.692  1.00  0.00    -0.014 A 
BRANCH  15  16
ATOM     16  C   UNL A   1      43.621  30.252  35.208  1.00  0.00     0.031 A 
ATOM     17  C   UNL A   1      43.083  29.950  33.830  1.00  0.00     0.074 A 
ATOM     18  C   UNL A   1      42.965  31.077  36.046  1.00  0.00     0.049 A 
ATOM     19  N   UNL A   1      41.928  30.251  33.303  1.00  0.00    -0.248 NA
ATOM     20  C   UNL A   1      43.937  29.101  32.974  1.00  0.00     0.031 C 
ATOM     21  C   UNL A   1      43.311  31.307  37.446  1.00  0.00     0.029 A 
ATOM     22  N   UNL A   1      41.784  31.760  35.871  1.00  0.00    -0.354 N 
ATOM     23  C   UNL A   1      41.926  29.637  32.055  1.00  0.00     0.074 A 
ATOM     24  C   UNL A   1      43.149  28.880  31.937  1.00  0.00     0.031 C 
ATOM     25  C   UNL A   1      42.306  31.983  38.034  1.00  0.00     0.029 A 
ATOM     26  C   UNL A   1      41.263  32.262  37.046  1.00  0.00     0.049 A 
ATOM     27  H   UNL A   1      41.353  31.880  34.994  1.00  0.00     0.167 HD
ATOM     28  C   UNL A   1      41.021  29.753  31.058  1.00  0.00     0.031 A 
ATOM     29  C   UNL A   1      40.060  32.828  37.293  1.00  0.00     0.031 A 
ATOM     30  C   UNL A   1      39.879  30.615  31.127  1.00  0.00     0.049 A 
ATOM     31  C   UNL A   1      39.110  33.028  36.131  1.00  0.00     0.074 A 
ATOM     32  C   UNL A   1      39.016  30.986  30.114  1.00  0.00     0.029 A 
ATOM     33  N   UNL A   1      39.467  31.274  32.275  1.00  0.00    -0.354 N 
ATOM     34  N   UNL A   1      39.156  32.521  34.921  1.00  0.00    -0.248 NA
ATOM     35  C   UNL A   1      37.956  33.910  36.368  1.00  0.00     0.031 C 
ATOM     36  C   UNL A   1      38.129  31.933  30.632  1.00  0.00     0.029 A 
ATOM     37  C   UNL A   1      38.384  32.080  31.987  1.00  0.00     0.049 A 
ATOM     38  H   UNL A   1      39.885  31.182  33.162  1.00  0.00     0.167 HD
ATOM     39  C   UNL A   1      38.048  33.036  34.250  1.00  0.00     0.074 A 
ATOM     40  C   UNL A   1      37.317  33.838  35.208  1.00  0.00     0.031 C 
ATOM     41  C   UNL A   1      37.680  32.886  32.953  1.00  0.00     0.031 A 
BRANCH  28  42
ATOM     42  C   UNL A   1      41.383  29.110  29.751  1.00  0.00    -0.014 A 
ATOM     43  C   UNL A   1      42.073  29.798  28.738  1.00  0.00     0.010 A 
ATOM     44  C   UNL A   1      40.947  27.793  29.520  1.00  0.00     0.010 A 
ATOM     45  C   UNL A   1      42.291  29.182  27.500  1.00  0.00     0.020 A 
ATOM     46  C   UNL A   1      41.182  27.169  28.297  1.00  0.00     0.020 A 
ATOM     47  C   UNL A   1      41.838  27.874  27.287  1.00  0.00     0.054 A 
BRANCH  47  48
ATOM     48  S   UNL A   1      42.125  27.098  25.675  1.00  0.00     0.124 S 
ATOM     49  O   UNL A   1      42.261  28.261  24.801  1.00  0.00    -0.237 OA
ATOM     50  O   UNL A   1      43.350  26.335  25.901  1.00  0.00    -0.237 OA
ATOM     51  O   UNL A   1      40.925  26.294  25.458  1.00  0.00    -0.744 OA
ENDBRANCH  47  48
ENDBRANCH  28  42
BRANCH  29  52
ATOM     52  C   UNL A   1      39.655  33.260  38.669  1.00  0.00    -0.014 A 
ATOM     53  C   UNL A   1      38.692  32.533  39.398  1.00  0.00     0.010 A 
ATOM     54  C   UNL A   1      40.164  34.442  39.236  1.00  0.00     0.010 A 
ATOM     55  C   UNL A   1      38.219  32.999  40.633  1.00  0.00     0.020 A 
ATOM     56  C   UNL A   1      39.727  34.891  40.488  1.00  0.00     0.020 A 
ATOM     57  C   UNL A   1      38.737  34.180  41.166  1.00  0.00     0.054 A 
BRANCH  57  58
ATOM     58  S   UNL A   1      38.113  34.783  42.762  1.00  0.00     0.124 S 
ATOM     59  O   UNL A   1      38.785  33.893  43.704  1.00  0.00    -0.237 OA
ATOM     60  O   UNL A   1      38.559  36.173  42.775  1.00  0.00    -0.237 OA
ATOM     61  O   UNL A   1      36.667  34.601  42.651  1.00  0.00    -0.744 OA
ENDBRANCH  57  58
ENDBRANCH  29  52
BRANCH  41  62
ATOM     62  C   UNL A   1      36.451  33.616  32.475  1.00  0.00    -0.014 A 
ATOM     63  C   UNL A   1      35.406  32.931  31.828  1.00  0.00     0.010 A 
ATOM     64  C   UNL A   1      36.298  34.985  32.759  1.00  0.00     0.010 A 
ATOM     65  C   UNL A   1      34.248  33.611  31.441  1.00  0.00     0.020 A 
ATOM     66  C   UNL A   1      35.129  35.661  32.403  1.00  0.00     0.020 A 
ATOM     67  C   UNL A   1      34.117  34.972  31.732  1.00  0.00     0.054 A 
BRANCH  67  68
ATOM     68  S   UNL A   1      32.586  35.821  31.257  1.00  0.00     0.124 S 
ATOM     69  O   UNL A   1      32.995  37.223  31.289  1.00  0.00    -0.237 OA
ATOM     70  O   UNL A   1      32.315  35.275  29.929  1.00  0.00    -0.237 OA
ATOM     71  O   UNL A   1      31.634  35.427  32.293  1.00  0.00    -0.744 OA
ENDBRANCH  67  68
ENDBRANCH  41  62
ENDBRANCH  15  16
ENDBRANCH   8  10
ENDBRANCH   7   8
ENDBRANCH   6   7
ENDBRANCH   5   6
ENDBRANCH   4   5
ENDBRANCH   3   4
ENDBRANCH   2   3
ENDBRANCH   1   2
BRANCH   1  72
ATOM     72  C   UNL A   1      50.895  24.828  32.397  1.00  0.00     0.188 C 
BRANCH  72  73
ATOM     73  C   UNL A   1      49.861  24.957  31.260  1.00  0.00     0.188 C 
BRANCH  73  74
ATOM     74  O   UNL A   1      49.222  26.215  31.223  1.00  0.00    -0.376 OA
BRANCH  74  75
ATOM     75  C   UNL A   1      49.551  27.033  30.119  1.00  0.00     0.202 C 
BRANCH  75  76
ATOM     76  C   UNL A   1      48.623  26.988  28.907  1.00  0.00     0.261 C 
BRANCH  76  77
ATOM     77  O   UNL A   1      47.931  25.779  28.504  1.00  0.00    -0.460 OA
BRANCH  77  78
ATOM     78  C   UNL A   1      48.119  25.057  27.391  1.00  0.00     0.339 C 
ATOM     79  O   UNL A   1      47.629  23.996  27.032  1.00  0.00    -0.246 OA
BRANCH  78  80
ATOM     80  C   UNL A   1      48.931  25.831  26.472  1.00  0.00     0.072 A 
ATOM     81  C   UNL A   1      50.329  25.795  26.677  1.00  0.00     0.016 A 
ATOM     82  C   UNL A   1      48.361  26.446  25.366  1.00  0.00     0.054 A 
ATOM     83  C   UNL A   1      51.193  26.234  25.684  1.00  0.00     0.001 A 
ATOM     84  C   UNL A   1      49.260  26.843  24.352  1.00  0.00     0.015 A 
ATOM     85  C   UNL A   1      50.655  26.723  24.500  1.00  0.00     0.001 A 
BRANCH  82  86
ATOM     86  C   UNL A   1      46.887  26.535  25.099  1.00  0.00     0.256 C 
ATOM     87  O   UNL A   1      46.434  25.703  24.302  1.00  0.00    -0.269 OA
ATOM     88  N   UNL A   1      45.959  27.355  25.731  1.00  0.00    -0.322 N 
ATOM     89  H   UNL A   1      45.036  27.050  25.579  1.00  0.00     0.170 HD
BRANCH  88  90
ATOM     90  C   UNL A   1      46.005  28.517  26.539  1.00  0.00     0.041 A 
ATOM     91  C   UNL A   1      45.543  28.406  27.862  1.00  0.00     0.028 A 
ATOM     92  C   UNL A   1      46.557  29.730  26.148  1.00  0.00     0.028 A 
ATOM     93  C   UNL A   1      45.892  29.367  28.840  1.00  0.00     0.029 A 
ATOM     94  C   UNL A   1      46.839  30.724  27.118  1.00  0.00     0.029 A 
ATOM     95  C   UNL A   1      46.634  30.498  28.495  1.00  0.00     0.052 A 
BRANCH  95  96
ATOM     96  N   UNL A   1      47.358  31.287  29.448  1.00  0.00    -0.250 N 
ATOM     97  C   UNL A   1      48.666  30.983  29.851  1.00  0.00     0.237 C 
ATOM     98  C   UNL A   1      46.801  32.291  30.269  1.00  0.00     0.237 C 
ATOM     99  O   UNL A   1      49.527  30.334  29.285  1.00  0.00    -0.274 OA
ATOM    100  C   UNL A   1      48.710  31.423  31.273  1.00  0.00     0.095 C 
ATOM    101  C   UNL A   1      47.912  32.698  31.203  1.00  0.00     0.095 C 
ATOM    102  O   UNL A   1      45.728  32.866  30.196  1.00  0.00    -0.274 OA
ATOM    103  C   UNL A   1      49.824  31.793  32.266  1.00  0.00     0.002 C 
ATOM    104  C   UNL A   1      48.087  33.178  32.647  1.00  0.00     0.002 C 
ATOM    105  C   UNL A   1      49.306  31.270  33.619  1.00  0.00     0.005 C 
ATOM    106  C   UNL A   1      49.625  33.302  32.564  1.00  0.00     0.009 C 
ATOM    107  C   UNL A   1      48.003  32.103  33.781  1.00  0.00     0.005 C 
ENDBRANCH  95  96
ENDBRANCH  88  90
ENDBRANCH  82  86
ENDBRANCH  78  80
ENDBRANCH  77  78
ENDBRANCH  76  77
ENDBRANCH  75  76
ENDBRANCH  74  75
ENDBRANCH  73  74
ENDBRANCH  72  73
ENDBRANCH   1  72
TORSDOF 26
ENDMDL
MODEL 3
REMARK VINA RESULT:      -8.4     11.397     16.902
REMARK SMILES O=C(OCCOCCOCCOCCOC(=O)c1ccccc1C(=O)Nc1ccc(N2C(=O)[C@H]3[C@@H]4CC[C@@H](C4)[C@@H]3C2=O)cc1)c1ccc(-c2c3nc(c(-c4ccc(S(=O)(=O)[O-])cc4)c4ccc([nH]4)c(-c4ccc(S(=O)(=O)[O-])cc4)c4nc(c(-c5ccc(S(=O)(=O)[O-])cc5)c5ccc2[nH]5)C=C4)C=C3)cc1
REMARK SMILES IDX 9 1 8 2 7 3 6 4 5 5 4 6 3 7 2 8 1 9 45 10 46 11 104 12 47 13
REMARK SMILES IDX 103 14 48 15 49 16 50 17 97 18 51 19 102 20 96 21 98 22
REMARK SMILES IDX 52 23 101 24 95 25 94 26 53 28 83 29 64 30 82 31 65 32 68 33
REMARK SMILES IDX 81 34 99 35 66 36 67 37 80 39 100 40 69 41 54 42 55 43 63 44
REMARK SMILES IDX 56 45 62 46 57 47 58 48 59 49 60 50 61 51 84 52 85 53 93 54
REMARK SMILES IDX 86 55 92 56 87 57 88 58 89 59 90 60 91 61 70 62 71 63 79 64
REMARK SMILES IDX 72 65 78 66 73 67 74 68 75 69 76 70 77 71 10 72 11 73 12 74
REMARK SMILES IDX 13 75 14 76 15 77 16 78 17 79 18 80 19 81 23 82 20 83 22 84
REMARK SMILES IDX 21 85 24 86 25 87 26 88 27 90 28 91 44 92 29 93 43 94 30 95
REMARK SMILES IDX 31 96 32 97 41 98 33 99 34 100 40 101 42 102 35 103 38 104
REMARK SMILES IDX 36 105 39 106 37 107
REMARK H PARENT 98 27 68 38 26 89
REMARK Flexibility Score: inf
ROOT
ATOM      1  O   UNL A   1      43.546  44.204  22.657  1.00  0.00    -0.377 OA
ENDROOT
BRANCH   1   2
ATOM      2  C   UNL A   1      42.729  43.157  23.148  1.00  0.00     0.188 C 
BRANCH   2   3
ATOM      3  C   UNL A   1      43.199  42.470  24.421  1.00  0.00     0.188 C 
BRANCH   3   4
ATOM      4  O   UNL A   1      42.743  41.143  24.619  1.00  0.00    -0.376 OA
BRANCH   4   5
ATOM      5  C   UNL A   1      41.630  40.943  25.477  1.00  0.00     0.202 C 
BRANCH   5   6
ATOM      6  C   UNL A   1      42.006  40.707  26.936  1.00  0.00     0.261 C 
BRANCH   6   7
ATOM      7  O   UNL A   1      43.375  40.311  27.137  1.00  0.00    -0.460 OA
BRANCH   7   8
ATOM      8  C   UNL A   1      44.113  40.984  28.060  1.00  0.00     0.338 C 
ATOM      9  O   UNL A   1      44.442  42.156  27.990  1.00  0.00    -0.246 OA
BRANCH   8  10
ATOM     10  C   UNL A   1      44.408  40.063  29.197  1.00  0.00     0.060 A 
ATOM     11  C   UNL A   1      43.346  39.618  29.986  1.00  0.00     0.016 A 
ATOM     12  C   UNL A   1      45.712  39.658  29.508  1.00  0.00     0.016 A 
ATOM     13  C   UNL A   1      43.573  38.842  31.097  1.00  0.00     0.010 A 
ATOM     14  C   UNL A   1      45.954  38.922  30.685  1.00  0.00     0.010 A 
ATOM     15  C   UNL A   1      44.878  38.560  31.506  1.00  0.00    -0.014 A 
BRANCH  15  16
ATOM     16  C   UNL A   1      44.967  38.258  32.958  1.00  0.00     0.031 A 
ATOM     17  C   UNL A   1      45.466  39.402  33.807  1.00  0.00     0.074 A 
ATOM     18  C   UNL A   1      44.323  37.212  33.508  1.00  0.00     0.049 A 
ATOM     19  N   UNL A   1      45.246  39.662  35.067  1.00  0.00    -0.248 NA
ATOM     20  C   UNL A   1      46.233  40.447  33.098  1.00  0.00     0.031 C 
ATOM     21  C   UNL A   1      43.664  36.141  32.765  1.00  0.00     0.029 A 
ATOM     22  N   UNL A   1      43.998  36.965  34.822  1.00  0.00    -0.354 N 
ATOM     23  C   UNL A   1      45.855  40.890  35.297  1.00  0.00     0.074 A 
ATOM     24  C   UNL A   1      46.378  41.364  34.038  1.00  0.00     0.031 C 
ATOM     25  C   UNL A   1      42.919  35.416  33.621  1.00  0.00     0.029 A 
ATOM     26  C   UNL A   1      43.075  35.950  34.975  1.00  0.00     0.049 A 
ATOM     27  H   UNL A   1      44.386  37.461  35.578  1.00  0.00     0.167 HD
ATOM     28  C   UNL A   1      46.037  41.536  36.471  1.00  0.00     0.031 A 
ATOM     29  C   UNL A   1      42.401  35.547  36.075  1.00  0.00     0.031 A 
ATOM     30  C   UNL A   1      45.639  40.996  37.736  1.00  0.00     0.049 A 
ATOM     31  C   UNL A   1      42.701  36.231  37.391  1.00  0.00     0.074 A 
ATOM     32  C   UNL A   1      45.958  41.445  39.003  1.00  0.00     0.029 A 
ATOM     33  N   UNL A   1      44.864  39.858  37.890  1.00  0.00    -0.354 N 
ATOM     34  N   UNL A   1      43.356  37.346  37.620  1.00  0.00    -0.248 NA
ATOM     35  C   UNL A   1      42.189  35.578  38.607  1.00  0.00     0.031 C 
ATOM     36  C   UNL A   1      45.442  40.529  39.925  1.00  0.00     0.029 A 
ATOM     37  C   UNL A   1      44.725  39.565  39.232  1.00  0.00     0.049 A 
ATOM     38  H   UNL A   1      44.472  39.335  37.153  1.00  0.00     0.167 HD
ATOM     39  C   UNL A   1      43.349  37.515  39.004  1.00  0.00     0.074 A 
ATOM     40  C   UNL A   1      42.567  36.427  39.552  1.00  0.00     0.031 C 
ATOM     41  C   UNL A   1      43.956  38.465  39.758  1.00  0.00     0.031 A 
BRANCH  28  42
ATOM     42  C   UNL A   1      46.897  42.765  36.430  1.00  0.00    -0.014 A 
ATOM     43  C   UNL A   1      46.359  44.058  36.319  1.00  0.00     0.010 A 
ATOM     44  C   UNL A   1      48.294  42.595  36.434  1.00  0.00     0.010 A 
ATOM     45  C   UNL A   1      47.211  45.159  36.179  1.00  0.00     0.020 A 
ATOM     46  C   UNL A   1      49.146  43.691  36.317  1.00  0.00     0.020 A 
ATOM     47  C   UNL A   1      48.598  44.966  36.173  1.00  0.00     0.054 A 
BRANCH  47  48
ATOM     48  S   UNL A   1      49.684  46.405  35.985  1.00  0.00     0.124 S 
ATOM     49  O   UNL A   1      50.347  46.455  37.285  1.00  0.00    -0.237 OA
ATOM     50  O   UNL A   1      50.532  46.019  34.861  1.00  0.00    -0.237 OA
ATOM     51  O   UNL A   1      48.760  47.505  35.715  1.00  0.00    -0.744 OA
ENDBRANCH  47  48
ENDBRANCH  28  42
BRANCH  29  52
ATOM     52  C   UNL A   1      41.382  34.449  36.022  1.00  0.00    -0.014 A 
ATOM     53  C   UNL A   1      40.004  34.741  36.078  1.00  0.00     0.010 A 
ATOM     54  C   UNL A   1      41.774  33.098  35.994  1.00  0.00     0.010 A 
ATOM     55  C   UNL A   1      39.052  33.715  36.152  1.00  0.00     0.020 A 
ATOM     56  C   UNL A   1      40.826  32.070  36.026  1.00  0.00     0.020 A 
ATOM     57  C   UNL A   1      39.471  32.385  36.132  1.00  0.00     0.054 A 
BRANCH  57  58
ATOM     58  S   UNL A   1      38.233  31.060  36.238  1.00  0.00     0.124 S 
ATOM     59  O   UNL A   1      37.549  31.386  37.485  1.00  0.00    -0.237 OA
ATOM     60  O   UNL A   1      37.453  31.253  35.019  1.00  0.00    -0.237 OA
ATOM     61  O   UNL A   1      39.041  29.843  36.266  1.00  0.00    -0.744 OA
ENDBRANCH  57  58
ENDBRANCH  29  52
BRANCH  41  62
ATOM     62  C   UNL A   1      43.828  38.369  41.257  1.00  0.00    -0.014 A 
ATOM     63  C   UNL A   1      44.777  37.668  42.023  1.00  0.00     0.010 A 
ATOM     64  C   UNL A   1      42.799  39.067  41.915  1.00  0.00     0.010 A 
ATOM     65  C   UNL A   1      44.676  37.636  43.417  1.00  0.00     0.020 A 
ATOM     66  C   UNL A   1      42.714  39.064  43.309  1.00  0.00     0.020 A 
ATOM     67  C   UNL A   1      43.645  38.335  44.051  1.00  0.00     0.054 A 
BRANCH  67  68
ATOM     68  S   UNL A   1      43.562  38.312  45.862  1.00  0.00     0.124 S 
ATOM     69  O   UNL A   1      42.896  39.580  46.151  1.00  0.00    -0.237 OA
ATOM     70  O   UNL A   1      42.773  37.112  46.132  1.00  0.00    -0.237 OA
ATOM     71  O   UNL A   1      44.962  38.236  46.274  1.00  0.00    -0.744 OA
ENDBRANCH  67  68
ENDBRANCH  41  62
ENDBRANCH  15  16
ENDBRANCH   8  10
ENDBRANCH   7   8
ENDBRANCH   6   7
ENDBRANCH   5   6
ENDBRANCH   4   5
ENDBRANCH   3   4
ENDBRANCH   2   3
ENDBRANCH   1   2
BRANCH   1  72
ATOM     72  C   UNL A   1      44.180  44.041  21.386  1.00  0.00     0.188 C 
BRANCH  72  73
ATOM     73  C   UNL A   1      45.148  42.874  21.102  1.00  0.00     0.188 C 
BRANCH  73  74
ATOM     74  O   UNL A   1      46.501  43.197  21.341  1.00  0.00    -0.376 OA
BRANCH  74  75
ATOM     75  C   UNL A   1      46.927  43.084  22.684  1.00  0.00     0.202 C 
BRANCH  75  76
ATOM     76  C   UNL A   1      46.793  41.718  23.354  1.00  0.00     0.261 C 
BRANCH  76  77
ATOM     77  O   UNL A   1      46.823  41.554  24.795  1.00  0.00    -0.460 OA
BRANCH  77  78
ATOM     78  C   UNL A   1      46.623  40.431  25.497  1.00  0.00     0.339 C 
ATOM     79  O   UNL A   1      45.842  39.506  25.324  1.00  0.00    -0.246 OA
BRANCH  78  80
ATOM     80  C   UNL A   1      47.657  40.330  26.508  1.00  0.00     0.072 A 
ATOM     81  C   UNL A   1      47.932  41.499  27.253  1.00  0.00     0.016 A 
ATOM     82  C   UNL A   1      48.230  39.104  26.817  1.00  0.00     0.054 A 
ATOM     83  C   UNL A   1      48.664  41.423  28.429  1.00  0.00     0.001 A 
ATOM     84  C   UNL A   1      48.931  39.043  28.041  1.00  0.00     0.015 A 
ATOM     85  C   UNL A   1      49.131  40.182  28.846  1.00  0.00     0.001 A 
BRANCH  82  86
ATOM     86  C   UNL A   1      47.994  37.832  26.057  1.00  0.00     0.256 C 
ATOM     87  O   UNL A   1      48.707  37.662  25.059  1.00  0.00    -0.269 OA
ATOM     88  N   UNL A   1      47.163  36.775  26.411  1.00  0.00    -0.322 N 
ATOM     89  H   UNL A   1      47.374  35.956  25.907  1.00  0.00     0.170 HD
BRANCH  88  90
ATOM     90  C   UNL A   1      46.090  36.576  27.313  1.00  0.00     0.041 A 
ATOM     91  C   UNL A   1      44.813  37.002  26.905  1.00  0.00     0.028 A 
ATOM     92  C   UNL A   1      46.190  35.909  28.527  1.00  0.00     0.028 A 
ATOM     93  C   UNL A   1      43.645  36.517  27.541  1.00  0.00     0.029 A 
ATOM     94  C   UNL A   1      45.018  35.488  29.202  1.00  0.00     0.029 A 
ATOM     95  C   UNL A   1      43.735  35.670  28.646  1.00  0.00     0.052 A 
BRANCH  95  96
ATOM     96  N   UNL A   1      42.657  34.833  29.087  1.00  0.00    -0.250 N 
ATOM     97  C   UNL A   1      41.312  35.227  29.021  1.00  0.00     0.237 C 
ATOM     98  C   UNL A   1      42.797  33.652  29.846  1.00  0.00     0.237 C 
ATOM     99  O   UNL A   1      40.775  36.057  28.310  1.00  0.00    -0.274 OA
ATOM    100  C   UNL A   1      40.694  34.577  30.208  1.00  0.00     0.095 C 
ATOM    101  C   UNL A   1      41.389  33.241  30.198  1.00  0.00     0.095 C 
ATOM    102  O   UNL A   1      43.782  32.969  30.072  1.00  0.00    -0.274 OA
ATOM    103  C   UNL A   1      39.263  34.192  30.619  1.00  0.00     0.002 C 
ATOM    104  C   UNL A   1      40.639  32.564  31.350  1.00  0.00     0.002 C 
ATOM    105  C   UNL A   1      39.236  34.428  32.141  1.00  0.00     0.005 C 
ATOM    106  C   UNL A   1      39.252  32.643  30.674  1.00  0.00     0.009 C 
ATOM    107  C   UNL A   1      40.328  33.428  32.617  1.00  0.00     0.005 C 
ENDBRANCH  95  96
ENDBRANCH  88  90
ENDBRANCH  82  86
ENDBRANCH  78  80
ENDBRANCH  77  78
ENDBRANCH  76  77
ENDBRANCH  75  76
ENDBRANCH  74  75
ENDBRANCH  73  74
ENDBRANCH  72  73
ENDBRANCH   1  72
TORSDOF 26
ENDMDL
