MODEL 1
REMARK VINA RESULT:      -8.2      0.000      0.000
REMARK SMILES O=C(OCCOCCOCCOCCOC(=O)[C@@H](Cc1ccc(O)cc1)Nc1c2ccccc2nc2ccccc12)c1ccc(-c2c3nc(c(-c4ccc(S(=O)(=O)[O-])cc4)c4ccc([nH]4)c(-c4ccc(S(=O)(=O)[O-])cc4)c4nc(c(-c5ccc(S(=O)(=O)[O-])cc5)c5ccc2[nH]5)C=C4)C=C3)cc1
REMARK SMILES IDX 9 1 8 2 7 3 6 4 5 5 4 6 3 7 2 8 1 9 42 10 43 11 101 12 44 13
REMARK SMILES IDX 100 14 45 15 46 16 47 17 94 18 48 19 99 20 93 21 95 22 49 23
REMARK SMILES IDX 98 24 92 25 91 26 50 28 80 29 61 30 79 31 62 32 65 33 78 34
REMARK SMILES IDX 96 35 63 36 64 37 77 39 97 40 66 41 51 42 52 43 60 44 53 45
REMARK SMILES IDX 59 46 54 47 55 48 56 49 57 50 58 51 81 52 82 53 90 54 83 55
REMARK SMILES IDX 89 56 84 57 85 58 86 59 87 60 88 61 67 62 68 63 76 64 69 65
REMARK SMILES IDX 75 66 70 67 71 68 72 69 73 70 74 71 10 72 11 73 12 74 13 75
REMARK SMILES IDX 14 76 15 77 16 78 17 79 18 80 19 81 20 82 21 83 26 84 22 85
REMARK SMILES IDX 25 86 23 87 24 88 27 90 28 92 29 93 41 94 30 95 34 96 36 97
REMARK SMILES IDX 40 98 31 99 33 100 35 101 37 102 39 103 32 104 38 105
REMARK H PARENT 95 27 65 38 24 89 27 91
REMARK Flexibility Score: inf
ROOT
ATOM      1  O   UNL A   1      35.235  33.102  33.911  1.00  0.00    -0.377 OA
ENDROOT
BRANCH   1   2
ATOM      2  C   UNL A   1      36.611  33.225  34.260  1.00  0.00     0.188 C 
BRANCH   2   3
ATOM      3  C   UNL A   1      37.369  31.926  34.139  1.00  0.00     0.188 C 
BRANCH   3   4
ATOM      4  O   UNL A   1      38.584  31.992  34.873  1.00  0.00    -0.376 OA
BRANCH   4   5
ATOM      5  C   UNL A   1      38.591  32.924  35.951  1.00  0.00     0.202 C 
BRANCH   5   6
ATOM      6  C   UNL A   1      38.791  32.286  37.325  1.00  0.00     0.261 C 
BRANCH   6   7
ATOM      7  O   UNL A   1      38.044  32.913  38.382  1.00  0.00    -0.460 OA
BRANCH   7   8
ATOM      8  C   UNL A   1      38.487  33.545  39.498  1.00  0.00     0.338 C 
ATOM      9  O   UNL A   1      38.072  33.137  40.583  1.00  0.00    -0.246 OA
BRANCH   8  10
ATOM     10  C   UNL A   1      39.388  34.744  39.513  1.00  0.00     0.060 A 
ATOM     11  C   UNL A   1      40.327  35.034  40.500  1.00  0.00     0.016 A 
ATOM     12  C   UNL A   1      39.345  35.602  38.398  1.00  0.00     0.016 A 
ATOM     13  C   UNL A   1      41.229  36.072  40.388  1.00  0.00     0.010 A 
ATOM     14  C   UNL A   1      40.202  36.705  38.300  1.00  0.00     0.010 A 
ATOM     15  C   UNL A   1      41.140  36.937  39.310  1.00  0.00    -0.014 A 
BRANCH  15  16
ATOM     16  C   UNL A   1      41.849  38.210  39.477  1.00  0.00     0.031 A 
ATOM     17  C   UNL A   1      43.167  38.335  38.773  1.00  0.00     0.074 A 
ATOM     18  C   UNL A   1      41.212  39.265  40.009  1.00  0.00     0.049 A 
ATOM     19  N   UNL A   1      44.003  39.332  38.757  1.00  0.00    -0.248 NA
ATOM     20  C   UNL A   1      43.583  37.185  37.946  1.00  0.00     0.031 C 
ATOM     21  C   UNL A   1      39.826  39.263  40.492  1.00  0.00     0.029 A 
ATOM     22  N   UNL A   1      41.624  40.555  40.187  1.00  0.00    -0.354 N 
ATOM     23  C   UNL A   1      45.060  38.914  37.957  1.00  0.00     0.074 A 
ATOM     24  C   UNL A   1      44.759  37.583  37.492  1.00  0.00     0.031 C 
ATOM     25  C   UNL A   1      39.507  40.497  40.913  1.00  0.00     0.029 A 
ATOM     26  C   UNL A   1      40.684  41.350  40.799  1.00  0.00     0.049 A 
ATOM     27  H   UNL A   1      42.508  40.885  39.904  1.00  0.00     0.167 HD
ATOM     28  C   UNL A   1      46.192  39.589  37.664  1.00  0.00     0.031 A 
ATOM     29  C   UNL A   1      40.802  42.610  41.256  1.00  0.00     0.031 A 
ATOM     30  C   UNL A   1      46.450  40.905  38.174  1.00  0.00     0.049 A 
ATOM     31  C   UNL A   1      42.134  43.285  41.061  1.00  0.00     0.074 A 
ATOM     32  C   UNL A   1      47.589  41.673  38.059  1.00  0.00     0.029 A 
ATOM     33  N   UNL A   1      45.528  41.644  38.908  1.00  0.00    -0.354 N 
ATOM     34  N   UNL A   1      43.190  42.846  40.411  1.00  0.00    -0.248 NA
ATOM     35  C   UNL A   1      42.303  44.608  41.669  1.00  0.00     0.031 C 
ATOM     36  C   UNL A   1      47.378  42.854  38.779  1.00  0.00     0.029 A 
ATOM     37  C   UNL A   1      46.081  42.852  39.277  1.00  0.00     0.049 A 
ATOM     38  H   UNL A   1      44.616  41.349  39.132  1.00  0.00     0.167 HD
ATOM     39  C   UNL A   1      44.144  43.848  40.513  1.00  0.00     0.074 A 
ATOM     40  C   UNL A   1      43.529  44.923  41.273  1.00  0.00     0.031 C 
ATOM     41  C   UNL A   1      45.412  43.886  40.032  1.00  0.00     0.031 A 
BRANCH  28  42
ATOM     42  C   UNL A   1      47.244  38.856  36.878  1.00  0.00    -0.014 A 
ATOM     43  C   UNL A   1      48.222  38.060  37.501  1.00  0.00     0.010 A 
ATOM     44  C   UNL A   1      47.282  39.017  35.481  1.00  0.00     0.010 A 
ATOM     45  C   UNL A   1      49.241  37.473  36.745  1.00  0.00     0.020 A 
ATOM     46  C   UNL A   1      48.282  38.409  34.719  1.00  0.00     0.020 A 
ATOM     47  C   UNL A   1      49.265  37.653  35.358  1.00  0.00     0.054 A 
BRANCH  47  48
ATOM     48  S   UNL A   1      50.595  36.872  34.402  1.00  0.00     0.124 S 
ATOM     49  O   UNL A   1      50.028  36.847  33.057  1.00  0.00    -0.237 OA
ATOM     50  O   UNL A   1      51.711  37.789  34.598  1.00  0.00    -0.237 OA
ATOM     51  O   UNL A   1      50.750  35.560  35.035  1.00  0.00    -0.744 OA
ENDBRANCH  47  48
ENDBRANCH  28  42
BRANCH  29  52
ATOM     52  C   UNL A   1      39.688  43.253  42.010  1.00  0.00    -0.014 A 
ATOM     53  C   UNL A   1      39.407  42.905  43.341  1.00  0.00     0.010 A 
ATOM     54  C   UNL A   1      38.884  44.227  41.382  1.00  0.00     0.010 A 
ATOM     55  C   UNL A   1      38.335  43.497  44.021  1.00  0.00     0.020 A 
ATOM     56  C   UNL A   1      37.833  44.845  42.067  1.00  0.00     0.020 A 
ATOM     57  C   UNL A   1      37.555  44.464  43.379  1.00  0.00     0.054 A 
BRANCH  57  58
ATOM     58  S   UNL A   1      36.185  45.234  44.286  1.00  0.00     0.124 S 
ATOM     59  O   UNL A   1      35.295  44.101  44.513  1.00  0.00    -0.237 OA
ATOM     60  O   UNL A   1      36.852  45.765  45.471  1.00  0.00    -0.237 OA
ATOM     61  O   UNL A   1      35.684  46.246  43.357  1.00  0.00    -0.744 OA
ENDBRANCH  57  58
ENDBRANCH  29  52
BRANCH  41  62
ATOM     62  C   UNL A   1      46.190  45.146  40.275  1.00  0.00    -0.014 A 
ATOM     63  C   UNL A   1      47.012  45.288  41.404  1.00  0.00     0.010 A 
ATOM     64  C   UNL A   1      46.152  46.167  39.307  1.00  0.00     0.010 A 
ATOM     65  C   UNL A   1      47.768  46.447  41.576  1.00  0.00     0.020 A 
ATOM     66  C   UNL A   1      46.933  47.311  39.459  1.00  0.00     0.020 A 
ATOM     67  C   UNL A   1      47.727  47.448  40.599  1.00  0.00     0.054 A 
BRANCH  67  68
ATOM     68  S   UNL A   1      48.765  48.916  40.816  1.00  0.00     0.124 S 
ATOM     69  O   UNL A   1      48.241  49.477  42.058  1.00  0.00    -0.237 OA
ATOM     70  O   UNL A   1      50.108  48.347  40.899  1.00  0.00    -0.237 OA
ATOM     71  O   UNL A   1      48.502  49.706  39.615  1.00  0.00    -0.744 OA
ENDBRANCH  67  68
ENDBRANCH  41  62
ENDBRANCH  15  16
ENDBRANCH   8  10
ENDBRANCH   7   8
ENDBRANCH   6   7
ENDBRANCH   5   6
ENDBRANCH   4   5
ENDBRANCH   3   4
ENDBRANCH   2   3
ENDBRANCH   1   2
BRANCH   1  72
ATOM     72  C   UNL A   1      34.856  32.626  32.626  1.00  0.00     0.188 C 
BRANCH  72  73
ATOM     73  C   UNL A   1      34.921  33.562  31.421  1.00  0.00     0.188 C 
BRANCH  73  74
ATOM     74  O   UNL A   1      34.235  33.062  30.298  1.00  0.00    -0.376 OA
BRANCH  74  75
ATOM     75  C   UNL A   1      34.936  32.113  29.511  1.00  0.00     0.202 C 
BRANCH  75  76
ATOM     76  C   UNL A   1      34.641  31.936  27.995  1.00  0.00     0.261 C 
BRANCH  76  77
ATOM     77  O   UNL A   1      33.499  31.156  27.577  1.00  0.00    -0.462 OA
BRANCH  77  78
ATOM     78  C   UNL A   1      33.746  29.991  26.937  1.00  0.00     0.328 C 
ATOM     79  O   UNL A   1      34.553  29.169  27.372  1.00  0.00    -0.250 OA
BRANCH  78  80
ATOM     80  C   UNL A   1      32.920  29.704  25.639  1.00  0.00     0.194 C 
BRANCH  80  81
ATOM     81  C   UNL A   1      33.415  28.969  24.366  1.00  0.00     0.072 C 
BRANCH  81  82
ATOM     82  C   UNL A   1      33.733  27.497  24.322  1.00  0.00    -0.045 A 
ATOM     83  C   UNL A   1      33.515  26.811  23.109  1.00  0.00     0.007 A 
ATOM     84  C   UNL A   1      34.204  26.780  25.422  1.00  0.00     0.007 A 
ATOM     85  C   UNL A   1      33.861  25.469  22.966  1.00  0.00     0.046 A 
ATOM     86  C   UNL A   1      34.534  25.431  25.286  1.00  0.00     0.046 A 
ATOM     87  C   UNL A   1      34.388  24.795  24.058  1.00  0.00     0.115 A 
BRANCH  87  88
ATOM     88  O   UNL A   1      34.792  23.497  23.955  1.00  0.00    -0.508 OA
ATOM     89  H   UNL A   1      34.509  22.867  24.587  1.00  0.00     0.293 HD
ENDBRANCH  87  88
ENDBRANCH  81  82
ENDBRANCH  80  81
BRANCH  80  90
ATOM     90  N   UNL A   1      31.609  29.127  25.969  1.00  0.00    -0.371 N 
ATOM     91  H   UNL A   1      31.315  29.113  26.908  1.00  0.00     0.161 HD
BRANCH  90  92
ATOM     92  C   UNL A   1      30.766  28.597  24.982  1.00  0.00     0.054 A 
ATOM     93  C   UNL A   1      30.055  29.416  24.049  1.00  0.00     0.024 A 
ATOM     94  C   UNL A   1      30.629  27.188  24.921  1.00  0.00     0.024 A 
ATOM     95  C   UNL A   1      29.989  30.840  24.060  1.00  0.00     0.012 A 
ATOM     96  C   UNL A   1      29.381  28.746  23.011  1.00  0.00     0.073 A 
ATOM     97  C   UNL A   1      29.956  26.649  23.817  1.00  0.00     0.073 A 
ATOM     98  C   UNL A   1      31.117  26.307  25.923  1.00  0.00     0.012 A 
ATOM     99  C   UNL A   1      29.252  31.562  23.121  1.00  0.00     0.001 A 
ATOM    100  C   UNL A   1      28.691  29.488  22.058  1.00  0.00     0.029 A 
ATOM    101  N   UNL A   1      29.376  27.411  22.876  1.00  0.00    -0.248 NA
ATOM    102  C   UNL A   1      29.884  25.266  23.697  1.00  0.00     0.029 A 
ATOM    103  C   UNL A   1      30.993  24.929  25.806  1.00  0.00     0.001 A 
ATOM    104  C   UNL A   1      28.607  30.880  22.106  1.00  0.00     0.002 A 
ATOM    105  C   UNL A   1      30.398  24.404  24.671  1.00  0.00     0.002 A 
ENDBRANCH  90  92
ENDBRANCH  80  90
ENDBRANCH  78  80
ENDBRANCH  77  78
ENDBRANCH  76  77
ENDBRANCH  75  76
ENDBRANCH  74  75
ENDBRANCH  73  74
ENDBRANCH  72  73
ENDBRANCH   1  72
TORSDOF 28
ENDMDL
MODEL 2
REMARK VINA RESULT:      -8.2      6.750     12.970
REMARK SMILES O=C(OCCOCCOCCOCCOC(=O)[C@@H](Cc1ccc(O)cc1)Nc1c2ccccc2nc2ccccc12)c1ccc(-c2c3nc(c(-c4ccc(S(=O)(=O)[O-])cc4)c4ccc([nH]4)c(-c4ccc(S(=O)(=O)[O-])cc4)c4nc(c(-c5ccc(S(=O)(=O)[O-])cc5)c5ccc2[nH]5)C=C4)C=C3)cc1
REMARK SMILES IDX 9 1 8 2 7 3 6 4 5 5 4 6 3 7 2 8 1 9 42 10 43 11 101 12 44 13
REMARK SMILES IDX 100 14 45 15 46 16 47 17 94 18 48 19 99 20 93 21 95 22 49 23
REMARK SMILES IDX 98 24 92 25 91 26 50 28 80 29 61 30 79 31 62 32 65 33 78 34
REMARK SMILES IDX 96 35 63 36 64 37 77 39 97 40 66 41 51 42 52 43 60 44 53 45
REMARK SMILES IDX 59 46 54 47 55 48 56 49 57 50 58 51 81 52 82 53 90 54 83 55
REMARK SMILES IDX 89 56 84 57 85 58 86 59 87 60 88 61 67 62 68 63 76 64 69 65
REMARK SMILES IDX 75 66 70 67 71 68 72 69 73 70 74 71 10 72 11 73 12 74 13 75
REMARK SMILES IDX 14 76 15 77 16 78 17 79 18 80 19 81 20 82 21 83 26 84 22 85
REMARK SMILES IDX 25 86 23 87 24 88 27 90 28 92 29 93 41 94 30 95 34 96 36 97
REMARK SMILES IDX 40 98 31 99 33 100 35 101 37 102 39 103 32 104 38 105
REMARK H PARENT 95 27 65 38 24 89 27 91
REMARK Flexibility Score: inf
ROOT
ATOM      1  O   UNL A   1      32.917  34.644  28.775  1.00  0.00    -0.377 OA
ENDROOT
BRANCH   1   2
ATOM      2  C   UNL A   1      33.643  35.390  29.747  1.00  0.00     0.188 C 
BRANCH   2   3
ATOM      3  C   UNL A   1      32.759  35.994  30.810  1.00  0.00     0.188 C 
BRANCH   3   4
ATOM      4  O   UNL A   1      33.083  35.458  32.085  1.00  0.00    -0.376 OA
BRANCH   4   5
ATOM      5  C   UNL A   1      33.167  34.037  32.143  1.00  0.00     0.202 C 
BRANCH   5   6
ATOM      6  C   UNL A   1      33.917  33.505  33.364  1.00  0.00     0.261 C 
BRANCH   6   7
ATOM      7  O   UNL A   1      34.855  34.436  33.932  1.00  0.00    -0.460 OA
BRANCH   7   8
ATOM      8  C   UNL A   1      36.152  34.666  33.606  1.00  0.00     0.338 C 
ATOM      9  O   UNL A   1      36.371  35.362  32.613  1.00  0.00    -0.246 OA
BRANCH   8  10
ATOM     10  C   UNL A   1      37.339  34.086  34.315  1.00  0.00     0.060 A 
ATOM     11  C   UNL A   1      37.282  33.199  35.387  1.00  0.00     0.016 A 
ATOM     12  C   UNL A   1      38.613  34.393  33.804  1.00  0.00     0.016 A 
ATOM     13  C   UNL A   1      38.403  32.583  35.905  1.00  0.00     0.010 A 
ATOM     14  C   UNL A   1      39.770  33.836  34.364  1.00  0.00     0.010 A 
ATOM     15  C   UNL A   1      39.654  32.934  35.425  1.00  0.00    -0.014 A 
BRANCH  15  16
ATOM     16  C   UNL A   1      40.778  32.550  36.285  1.00  0.00     0.031 A 
ATOM     17  C   UNL A   1      41.037  33.425  37.474  1.00  0.00     0.074 A 
ATOM     18  C   UNL A   1      41.348  31.342  36.140  1.00  0.00     0.049 A 
ATOM     19  N   UNL A   1      41.962  33.329  38.385  1.00  0.00    -0.248 NA
ATOM     20  C   UNL A   1      40.100  34.548  37.681  1.00  0.00     0.031 C 
ATOM     21  C   UNL A   1      40.963  30.339  35.140  1.00  0.00     0.029 A 
ATOM     22  N   UNL A   1      42.335  30.733  36.861  1.00  0.00    -0.354 N 
ATOM     23  C   UNL A   1      41.744  34.399  39.245  1.00  0.00     0.074 A 
ATOM     24  C   UNL A   1      40.596  35.125  38.762  1.00  0.00     0.031 C 
ATOM     25  C   UNL A   1      41.711  29.238  35.315  1.00  0.00     0.029 A 
ATOM     26  C   UNL A   1      42.672  29.489  36.383  1.00  0.00     0.049 A 
ATOM     27  H   UNL A   1      42.763  31.144  37.647  1.00  0.00     0.167 HD
ATOM     28  C   UNL A   1      42.469  34.747  40.330  1.00  0.00     0.031 A 
ATOM     29  C   UNL A   1      43.685  28.682  36.749  1.00  0.00     0.031 A 
ATOM     30  C   UNL A   1      43.618  33.999  40.752  1.00  0.00     0.049 A 
ATOM     31  C   UNL A   1      44.580  29.170  37.857  1.00  0.00     0.074 A 
ATOM     32  C   UNL A   1      44.516  34.282  41.760  1.00  0.00     0.029 A 
ATOM     33  N   UNL A   1      44.021  32.804  40.167  1.00  0.00    -0.354 N 
ATOM     34  N   UNL A   1      44.455  30.250  38.598  1.00  0.00    -0.248 NA
ATOM     35  C   UNL A   1      45.756  28.353  38.170  1.00  0.00     0.031 C 
ATOM     36  C   UNL A   1      45.501  33.288  41.742  1.00  0.00     0.029 A 
ATOM     37  C   UNL A   1      45.172  32.347  40.773  1.00  0.00     0.049 A 
ATOM     38  H   UNL A   1      43.555  32.351  39.428  1.00  0.00     0.167 HD
ATOM     39  C   UNL A   1      45.526  30.232  39.481  1.00  0.00     0.074 A 
ATOM     40  C   UNL A   1      46.275  29.022  39.191  1.00  0.00     0.031 C 
ATOM     41  C   UNL A   1      45.869  31.127  40.442  1.00  0.00     0.031 A 
BRANCH  28  42
ATOM     42  C   UNL A   1      42.100  36.032  41.017  1.00  0.00    -0.014 A 
ATOM     43  C   UNL A   1      41.239  36.064  42.128  1.00  0.00     0.010 A 
ATOM     44  C   UNL A   1      42.588  37.245  40.496  1.00  0.00     0.010 A 
ATOM     45  C   UNL A   1      40.842  37.287  42.680  1.00  0.00     0.020 A 
ATOM     46  C   UNL A   1      42.216  38.467  41.061  1.00  0.00     0.020 A 
ATOM     47  C   UNL A   1      41.332  38.481  42.140  1.00  0.00     0.054 A 
BRANCH  47  48
ATOM     48  S   UNL A   1      40.807  40.052  42.881  1.00  0.00     0.124 S 
ATOM     49  O   UNL A   1      39.402  39.792  43.179  1.00  0.00    -0.237 OA
ATOM     50  O   UNL A   1      41.685  40.168  44.039  1.00  0.00    -0.237 OA
ATOM     51  O   UNL A   1      41.046  41.032  41.819  1.00  0.00    -0.744 OA
ENDBRANCH  47  48
ENDBRANCH  28  42
BRANCH  29  52
ATOM     52  C   UNL A   1      43.954  27.415  36.011  1.00  0.00    -0.014 A 
ATOM     53  C   UNL A   1      44.856  27.372  34.935  1.00  0.00     0.010 A 
ATOM     54  C   UNL A   1      43.287  26.229  36.381  1.00  0.00     0.010 A 
ATOM     55  C   UNL A   1      45.070  26.178  34.233  1.00  0.00     0.020 A 
ATOM     56  C   UNL A   1      43.521  25.029  35.705  1.00  0.00     0.020 A 
ATOM     57  C   UNL A   1      44.401  25.014  34.623  1.00  0.00     0.054 A 
BRANCH  57  58
ATOM     58  S   UNL A   1      44.710  23.475  33.714  1.00  0.00     0.124 S 
ATOM     59  O   UNL A   1      43.709  22.579  34.283  1.00  0.00    -0.237 OA
ATOM     60  O   UNL A   1      44.486  23.878  32.328  1.00  0.00    -0.237 OA
ATOM     61  O   UNL A   1      46.097  23.153  34.045  1.00  0.00    -0.744 OA
ENDBRANCH  57  58
ENDBRANCH  29  52
BRANCH  41  62
ATOM     62  C   UNL A   1      47.075  30.798  41.272  1.00  0.00    -0.014 A 
ATOM     63  C   UNL A   1      48.358  31.229  40.895  1.00  0.00     0.010 A 
ATOM     64  C   UNL A   1      46.899  30.116  42.489  1.00  0.00     0.010 A 
ATOM     65  C   UNL A   1      49.453  30.958  41.714  1.00  0.00     0.020 A 
ATOM     66  C   UNL A   1      47.986  29.874  43.326  1.00  0.00     0.020 A 
ATOM     67  C   UNL A   1      49.258  30.287  42.927  1.00  0.00     0.054 A 
BRANCH  67  68
ATOM     68  S   UNL A   1      50.688  30.004  44.002  1.00  0.00     0.124 S 
ATOM     69  O   UNL A   1      51.799  30.107  43.059  1.00  0.00    -0.237 OA
ATOM     70  O   UNL A   1      50.580  31.091  44.970  1.00  0.00    -0.237 OA
ATOM     71  O   UNL A   1      50.453  28.667  44.544  1.00  0.00    -0.744 OA
ENDBRANCH  67  68
ENDBRANCH  41  62
ENDBRANCH  15  16
ENDBRANCH   8  10
ENDBRANCH   7   8
ENDBRANCH   6   7
ENDBRANCH   5   6
ENDBRANCH   4   5
ENDBRANCH   3   4
ENDBRANCH   2   3
ENDBRANCH   1   2
BRANCH   1  72
ATOM     72  C   UNL A   1      33.536  33.566  28.083  1.00  0.00     0.188 C 
BRANCH  72  73
ATOM     73  C   UNL A   1      34.417  32.581  28.848  1.00  0.00     0.188 C 
BRANCH  73  74
ATOM     74  O   UNL A   1      35.315  31.886  28.015  1.00  0.00    -0.376 OA
BRANCH  74  75
ATOM     75  C   UNL A   1      36.594  31.617  28.565  1.00  0.00     0.202 C 
BRANCH  75  76
ATOM     76  C   UNL A   1      37.375  30.319  28.214  1.00  0.00     0.261 C 
BRANCH  76  77
ATOM     77  O   UNL A   1      37.217  29.146  29.041  1.00  0.00    -0.462 OA
BRANCH  77  78
ATOM     78  C   UNL A   1      37.518  29.269  30.354  1.00  0.00     0.328 C 
ATOM     79  O   UNL A   1      36.672  29.101  31.234  1.00  0.00    -0.250 OA
BRANCH  78  80
ATOM     80  C   UNL A   1      39.008  29.587  30.716  1.00  0.00     0.194 C 
BRANCH  80  81
ATOM     81  C   UNL A   1      39.514  30.680  31.692  1.00  0.00     0.072 C 
BRANCH  81  82
ATOM     82  C   UNL A   1      40.262  31.911  31.253  1.00  0.00    -0.045 A 
ATOM     83  C   UNL A   1      39.602  32.813  30.393  1.00  0.00     0.007 A 
ATOM     84  C   UNL A   1      41.576  32.186  31.632  1.00  0.00     0.007 A 
ATOM     85  C   UNL A   1      40.198  34.012  30.010  1.00  0.00     0.046 A 
ATOM     86  C   UNL A   1      42.182  33.379  31.234  1.00  0.00     0.046 A 
ATOM     87  C   UNL A   1      41.481  34.292  30.453  1.00  0.00     0.115 A 
BRANCH  87  88
ATOM     88  O   UNL A   1      42.088  35.475  30.150  1.00  0.00    -0.508 OA
ATOM     89  H   UNL A   1      42.917  35.478  29.715  1.00  0.00     0.293 HD
ENDBRANCH  87  88
ENDBRANCH  81  82
ENDBRANCH  80  81
BRANCH  80  90
ATOM     90  N   UNL A   1      39.738  28.357  31.052  1.00  0.00    -0.371 N 
ATOM     91  H   UNL A   1      39.473  27.845  31.851  1.00  0.00     0.161 HD
BRANCH  90  92
ATOM     92  C   UNL A   1      40.801  27.891  30.265  1.00  0.00     0.054 A 
ATOM     93  C   UNL A   1      40.610  27.060  29.118  1.00  0.00     0.024 A 
ATOM     94  C   UNL A   1      42.114  28.276  30.639  1.00  0.00     0.024 A 
ATOM     95  C   UNL A   1      39.375  26.489  28.689  1.00  0.00     0.012 A 
ATOM     96  C   UNL A   1      41.747  26.808  28.327  1.00  0.00     0.073 A 
ATOM     97  C   UNL A   1      43.153  27.986  29.745  1.00  0.00     0.073 A 
ATOM     98  C   UNL A   1      42.424  28.914  31.869  1.00  0.00     0.012 A 
ATOM     99  C   UNL A   1      39.281  25.669  27.565  1.00  0.00     0.001 A 
ATOM    100  C   UNL A   1      41.620  26.025  27.183  1.00  0.00     0.029 A 
ATOM    101  N   UNL A   1      42.964  27.297  28.609  1.00  0.00    -0.248 NA
ATOM    102  C   UNL A   1      44.433  28.429  30.055  1.00  0.00     0.029 A 
ATOM    103  C   UNL A   1      43.720  29.307  32.179  1.00  0.00     0.001 A 
ATOM    104  C   UNL A   1      40.411  25.444  26.800  1.00  0.00     0.002 A 
ATOM    105  C   UNL A   1      44.726  29.088  31.253  1.00  0.00     0.002 A 
ENDBRANCH  90  92
ENDBRANCH  80  90
ENDBRANCH  78  80
ENDBRANCH  77  78
ENDBRANCH  76  77
ENDBRANCH  75  76
ENDBRANCH  74  75
ENDBRANCH  73  74
ENDBRANCH  72  73
ENDBRANCH   1  72
TORSDOF 28
ENDMDL
MODEL 3
REMARK VINA RESULT:      -8.0     10.843     14.240
REMARK SMILES O=C(OCCOCCOCCOCCOC(=O)[C@@H](Cc1ccc(O)cc1)Nc1c2ccccc2nc2ccccc12)c1ccc(-c2c3nc(c(-c4ccc(S(=O)(=O)[O-])cc4)c4ccc([nH]4)c(-c4ccc(S(=O)(=O)[O-])cc4)c4nc(c(-c5ccc(S(=O)(=O)[O-])cc5)c5ccc2[nH]5)C=C4)C=C3)cc1
REMARK SMILES IDX 9 1 8 2 7 3 6 4 5 5 4 6 3 7 2 8 1 9 42 10 43 11 101 12 44 13
REMARK SMILES IDX 100 14 45 15 46 16 47 17 94 18 48 19 99 20 93 21 95 22 49 23
REMARK SMILES IDX 98 24 92 25 91 26 50 28 80 29 61 30 79 31 62 32 65 33 78 34
REMARK SMILES IDX 96 35 63 36 64 37 77 39 97 40 66 41 51 42 52 43 60 44 53 45
REMARK SMILES IDX 59 46 54 47 55 48 56 49 57 50 58 51 81 52 82 53 90 54 83 55
REMARK SMILES IDX 89 56 84 57 85 58 86 59 87 60 88 61 67 62 68 63 76 64 69 65
REMARK SMILES IDX 75 66 70 67 71 68 72 69 73 70 74 71 10 72 11 73 12 74 13 75
REMARK SMILES IDX 14 76 15 77 16 78 17 79 18 80 19 81 20 82 21 83 26 84 22 85
REMARK SMILES IDX 25 86 23 87 24 88 27 90 28 92 29 93 41 94 30 95 34 96 36 97
REMARK SMILES IDX 40 98 31 99 33 100 35 101 37 102 39 103 32 104 38 105
REMARK H PARENT 95 27 65 38 24 89 27 91
REMARK Flexibility Score: inf
ROOT
ATOM      1  O   UNL A   1      33.403  34.039  28.534  1.00  0.00    -0.377 OA
ENDROOT
BRANCH   1   2
ATOM      2  C   UNL A   1      34.729  34.150  29.041  1.00  0.00     0.188 C 
BRANCH   2   3
ATOM      3  C   UNL A   1      34.791  34.112  30.547  1.00  0.00     0.188 C 
BRANCH   3   4
ATOM      4  O   UNL A   1      35.859  33.278  30.978  1.00  0.00    -0.376 OA
BRANCH   4   5
ATOM      5  C   UNL A   1      36.286  32.302  30.032  1.00  0.00     0.202 C 
BRANCH   5   6
ATOM      6  C   UNL A   1      37.802  32.132  29.953  1.00  0.00     0.261 C 
BRANCH   6   7
ATOM      7  O   UNL A   1      38.525  32.769  31.020  1.00  0.00    -0.460 OA
BRANCH   7   8
ATOM      8  C   UNL A   1      39.826  33.150  31.079  1.00  0.00     0.338 C 
ATOM      9  O   UNL A   1      40.074  34.348  30.935  1.00  0.00    -0.246 OA
BRANCH   8  10
ATOM     10  C   UNL A   1      40.993  32.220  31.234  1.00  0.00     0.060 A 
ATOM     11  C   UNL A   1      40.923  30.830  31.216  1.00  0.00     0.016 A 
ATOM     12  C   UNL A   1      42.274  32.797  31.321  1.00  0.00     0.016 A 
ATOM     13  C   UNL A   1      42.046  30.027  31.216  1.00  0.00     0.010 A 
ATOM     14  C   UNL A   1      43.422  31.999  31.397  1.00  0.00     0.010 A 
ATOM     15  C   UNL A   1      43.296  30.607  31.353  1.00  0.00    -0.014 A 
BRANCH  15  16
ATOM     16  C   UNL A   1      44.367  29.686  31.745  1.00  0.00     0.031 A 
ATOM     17  C   UNL A   1      45.260  29.195  30.645  1.00  0.00     0.074 A 
ATOM     18  C   UNL A   1      44.666  29.523  33.044  1.00  0.00     0.049 A 
ATOM     19  N   UNL A   1      46.267  28.373  30.704  1.00  0.00    -0.248 NA
ATOM     20  C   UNL A   1      44.998  29.734  29.295  1.00  0.00     0.031 C 
ATOM     21  C   UNL A   1      43.976  30.179  34.161  1.00  0.00     0.029 A 
ATOM     22  N   UNL A   1      45.657  28.799  33.644  1.00  0.00    -0.354 N 
ATOM     23  C   UNL A   1      46.729  28.264  29.398  1.00  0.00     0.074 A 
ATOM     24  C   UNL A   1      45.908  29.110  28.568  1.00  0.00     0.031 C 
ATOM     25  C   UNL A   1      44.568  29.822  35.312  1.00  0.00     0.029 A 
ATOM     26  C   UNL A   1      45.624  28.860  35.017  1.00  0.00     0.049 A 
ATOM     27  H   UNL A   1      46.330  28.284  33.143  1.00  0.00     0.167 HD
ATOM     28  C   UNL A   1      47.742  27.496  28.941  1.00  0.00     0.031 A 
ATOM     29  C   UNL A   1      46.342  28.165  35.918  1.00  0.00     0.031 A 
ATOM     30  C   UNL A   1      48.513  26.654  29.810  1.00  0.00     0.049 A 
ATOM     31  C   UNL A   1      47.355  27.192  35.378  1.00  0.00     0.074 A 
ATOM     32  C   UNL A   1      49.494  25.740  29.488  1.00  0.00     0.029 A 
ATOM     33  N   UNL A   1      48.371  26.634  31.194  1.00  0.00    -0.354 N 
ATOM     34  N   UNL A   1      47.714  26.988  34.128  1.00  0.00    -0.248 NA
ATOM     35  C   UNL A   1      48.048  26.344  36.353  1.00  0.00     0.031 C 
ATOM     36  C   UNL A   1      49.902  25.120  30.675  1.00  0.00     0.029 A 
ATOM     37  C   UNL A   1      49.229  25.703  31.741  1.00  0.00     0.049 A 
ATOM     38  H   UNL A   1      47.750  27.199  31.707  1.00  0.00     0.167 HD
ATOM     39  C   UNL A   1      48.690  26.002  34.168  1.00  0.00     0.074 A 
ATOM     40  C   UNL A   1      48.877  25.667  35.569  1.00  0.00     0.031 C 
ATOM     41  C   UNL A   1      49.372  25.420  33.150  1.00  0.00     0.031 A 
BRANCH  28  42
ATOM     42  C   UNL A   1      47.957  27.457  27.454  1.00  0.00    -0.014 A 
ATOM     43  C   UNL A   1      48.904  28.276  26.815  1.00  0.00     0.010 A 
ATOM     44  C   UNL A   1      47.144  26.615  26.672  1.00  0.00     0.010 A 
ATOM     45  C   UNL A   1      49.007  28.283  25.419  1.00  0.00     0.020 A 
ATOM     46  C   UNL A   1      47.262  26.598  25.281  1.00  0.00     0.020 A 
ATOM     47  C   UNL A   1      48.182  27.444  24.662  1.00  0.00     0.054 A 
BRANCH  47  48
ATOM     48  S   UNL A   1      48.344  27.467  22.855  1.00  0.00     0.124 S 
ATOM     49  O   UNL A   1      47.162  28.223  22.454  1.00  0.00    -0.237 OA
ATOM     50  O   UNL A   1      49.621  28.143  22.657  1.00  0.00    -0.237 OA
ATOM     51  O   UNL A   1      48.329  26.048  22.489  1.00  0.00    -0.744 OA
ENDBRANCH  47  48
ENDBRANCH  28  42
BRANCH  29  52
ATOM     52  C   UNL A   1      46.060  28.291  37.377  1.00  0.00    -0.014 A 
ATOM     53  C   UNL A   1      45.060  27.525  37.999  1.00  0.00     0.010 A 
ATOM     54  C   UNL A   1      46.798  29.203  38.160  1.00  0.00     0.010 A 
ATOM     55  C   UNL A   1      44.789  27.683  39.364  1.00  0.00     0.020 A 
ATOM     56  C   UNL A   1      46.553  29.340  39.529  1.00  0.00     0.020 A 
ATOM     57  C   UNL A   1      45.538  28.589  40.120  1.00  0.00     0.054 A 
BRANCH  57  58
ATOM     58  S   UNL A   1      45.184  28.761  41.891  1.00  0.00     0.124 S 
ATOM     59  O   UNL A   1      46.474  29.192  42.419  1.00  0.00    -0.237 OA
ATOM     60  O   UNL A   1      44.125  29.766  41.905  1.00  0.00    -0.237 OA
ATOM     61  O   UNL A   1      44.764  27.418  42.290  1.00  0.00    -0.744 OA
ENDBRANCH  57  58
ENDBRANCH  29  52
BRANCH  41  62
ATOM     62  C   UNL A   1      50.409  24.402  33.525  1.00  0.00    -0.014 A 
ATOM     63  C   UNL A   1      50.067  23.055  33.730  1.00  0.00     0.010 A 
ATOM     64  C   UNL A   1      51.758  24.797  33.592  1.00  0.00     0.010 A 
ATOM     65  C   UNL A   1      51.059  22.121  34.023  1.00  0.00     0.020 A 
ATOM     66  C   UNL A   1      52.755  23.859  33.850  1.00  0.00     0.020 A 
ATOM     67  C   UNL A   1      52.397  22.528  34.075  1.00  0.00     0.054 A 
BRANCH  67  68
ATOM     68  S   UNL A   1      53.672  21.283  34.395  1.00  0.00     0.124 S 
ATOM     69  O   UNL A   1      53.501  21.035  35.824  1.00  0.00    -0.237 OA
ATOM     70  O   UNL A   1      53.276  20.188  33.514  1.00  0.00    -0.237 OA
ATOM     71  O   UNL A   1      54.915  21.957  34.023  1.00  0.00    -0.744 OA
ENDBRANCH  67  68
ENDBRANCH  41  62
ENDBRANCH  15  16
ENDBRANCH   8  10
ENDBRANCH   7   8
ENDBRANCH   6   7
ENDBRANCH   5   6
ENDBRANCH   4   5
ENDBRANCH   3   4
ENDBRANCH   2   3
ENDBRANCH   1   2
BRANCH   1  72
ATOM     72  C   UNL A   1      33.061  32.996  27.630  1.00  0.00     0.188 C 
BRANCH  72  73
ATOM     73  C   UNL A   1      33.638  31.597  27.835  1.00  0.00     0.188 C 
BRANCH  73  74
ATOM     74  O   UNL A   1      33.426  30.747  26.731  1.00  0.00    -0.376 OA
BRANCH  74  75
ATOM     75  C   UNL A   1      34.206  29.564  26.698  1.00  0.00     0.202 C 
BRANCH  75  76
ATOM     76  C   UNL A   1      33.730  28.297  25.933  1.00  0.00     0.261 C 
BRANCH  76  77
ATOM     77  O   UNL A   1      32.317  28.010  25.838  1.00  0.00    -0.462 OA
BRANCH  77  78
ATOM     78  C   UNL A   1      31.887  26.841  26.364  1.00  0.00     0.328 C 
ATOM     79  O   UNL A   1      30.960  26.793  27.173  1.00  0.00    -0.250 OA
BRANCH  78  80
ATOM     80  C   UNL A   1      32.586  25.534  25.859  1.00  0.00     0.194 C 
BRANCH  80  81
ATOM     81  C   UNL A   1      33.538  24.617  26.671  1.00  0.00     0.072 C 
BRANCH  81  82
ATOM     82  C   UNL A   1      34.611  23.765  26.046  1.00  0.00    -0.045 A 
ATOM     83  C   UNL A   1      34.798  22.462  26.555  1.00  0.00     0.007 A 
ATOM     84  C   UNL A   1      35.439  24.207  25.015  1.00  0.00     0.007 A 
ATOM     85  C   UNL A   1      35.714  21.586  25.976  1.00  0.00     0.046 A 
ATOM     86  C   UNL A   1      36.371  23.337  24.446  1.00  0.00     0.046 A 
ATOM     87  C   UNL A   1      36.481  22.030  24.910  1.00  0.00     0.115 A 
BRANCH  87  88
ATOM     88  O   UNL A   1      37.353  21.196  24.275  1.00  0.00    -0.508 OA
ATOM     89  H   UNL A   1      38.269  21.391  24.270  1.00  0.00     0.293 HD
ENDBRANCH  87  88
ENDBRANCH  81  82
ENDBRANCH  80  81
BRANCH  80  90
ATOM     90  N   UNL A   1      31.622  24.648  25.193  1.00  0.00    -0.371 N 
ATOM     91  H   UNL A   1      30.714  24.562  25.564  1.00  0.00     0.161 HD
BRANCH  90  92
ATOM     92  C   UNL A   1      31.959  23.922  24.042  1.00  0.00     0.054 A 
ATOM     93  C   UNL A   1      32.169  24.540  22.769  1.00  0.00     0.024 A 
ATOM     94  C   UNL A   1      32.097  22.517  24.167  1.00  0.00     0.024 A 
ATOM     95  C   UNL A   1      31.947  25.913  22.455  1.00  0.00     0.012 A 
ATOM     96  C   UNL A   1      32.666  23.714  21.743  1.00  0.00     0.073 A 
ATOM     97  C   UNL A   1      32.631  21.818  23.077  1.00  0.00     0.073 A 
ATOM     98  C   UNL A   1      31.707  21.790  25.323  1.00  0.00     0.012 A 
ATOM     99  C   UNL A   1      32.158  26.431  21.177  1.00  0.00     0.001 A 
ATOM    100  C   UNL A   1      32.914  24.263  20.489  1.00  0.00     0.029 A 
ATOM    101  N   UNL A   1      32.932  22.410  21.911  1.00  0.00    -0.248 NA
ATOM    102  C   UNL A   1      32.851  20.452  23.211  1.00  0.00     0.029 A 
ATOM    103  C   UNL A   1      31.893  20.416  25.419  1.00  0.00     0.001 A 
ATOM    104  C   UNL A   1      32.655  25.601  20.189  1.00  0.00     0.002 A 
ATOM    105  C   UNL A   1      32.496  19.748  24.367  1.00  0.00     0.002 A 
ENDBRANCH  90  92
ENDBRANCH  80  90
ENDBRANCH  78  80
ENDBRANCH  77  78
ENDBRANCH  76  77
ENDBRANCH  75  76
ENDBRANCH  74  75
ENDBRANCH  73  74
ENDBRANCH  72  73
ENDBRANCH   1  72
TORSDOF 28
ENDMDL
