MODEL 1
REMARK VINA RESULT:      -9.9      0.000      0.000
REMARK SMILES O=C(OCCOCCOCCOCCOC(=O)[C@]12CCC[NH2+][C@@H]1CCN(C(=O)Cc1c(F)cccc1Cl)C2)c1ccc(-c2c3nc(c(-c4ccc(S(=O)(=O)[O-])cc4)c4ccc([nH]4)c(-c4ccc(S(=O)(=O)[O-])cc4)c4nc(c(-c5ccc(S(=O)(=O)[O-])cc5)c5ccc2[nH]5)C=C4)C=C3)cc1
REMARK SMILES IDX 9 1 8 2 7 3 6 4 5 5 4 6 3 7 2 8 1 9 39 10 40 11 98 12 41 13
REMARK SMILES IDX 97 14 42 15 43 16 44 17 91 18 45 19 96 20 90 21 92 22 46 23
REMARK SMILES IDX 95 24 89 25 88 26 47 28 77 29 58 30 76 31 59 32 62 33 75 34
REMARK SMILES IDX 93 35 60 36 61 37 74 39 94 40 63 41 48 42 49 43 57 44 50 45
REMARK SMILES IDX 56 46 51 47 52 48 53 49 54 50 55 51 78 52 79 53 87 54 80 55
REMARK SMILES IDX 86 56 81 57 82 58 83 59 84 60 85 61 64 62 65 63 73 64 66 65
REMARK SMILES IDX 72 66 67 67 68 68 69 69 70 70 71 71 10 72 11 73 12 74 13 75
REMARK SMILES IDX 14 76 15 77 16 78 17 79 18 80 19 81 23 82 38 83 20 84 22 85
REMARK SMILES IDX 24 86 26 87 21 88 25 91 27 92 28 93 29 94 30 95 31 96 36 97
REMARK SMILES IDX 32 98 33 99 35 100 37 101 34 102
REMARK H PARENT 92 27 62 38 22 89 22 90
REMARK Flexibility Score: inf
ROOT
ATOM      1  O   UNL A   1      34.768  33.558  28.127  1.00  0.00    -0.377 OA
ENDROOT
BRANCH   1   2
ATOM      2  C   UNL A   1      35.466  33.997  29.287  1.00  0.00     0.188 C 
BRANCH   2   3
ATOM      3  C   UNL A   1      34.972  33.390  30.591  1.00  0.00     0.188 C 
BRANCH   3   4
ATOM      4  O   UNL A   1      36.027  32.667  31.191  1.00  0.00    -0.376 OA
BRANCH   4   5
ATOM      5  C   UNL A   1      37.078  32.152  30.385  1.00  0.00     0.202 C 
BRANCH   5   6
ATOM      6  C   UNL A   1      38.062  31.290  31.160  1.00  0.00     0.261 C 
BRANCH   6   7
ATOM      7  O   UNL A   1      37.608  29.929  31.105  1.00  0.00    -0.460 OA
BRANCH   7   8
ATOM      8  C   UNL A   1      37.255  29.462  29.878  1.00  0.00     0.338 C 
ATOM      9  O   UNL A   1      36.137  29.357  29.421  1.00  0.00    -0.246 OA
BRANCH   8  10
ATOM     10  C   UNL A   1      38.510  29.030  29.226  1.00  0.00     0.060 A 
ATOM     11  C   UNL A   1      39.440  28.317  29.985  1.00  0.00     0.016 A 
ATOM     12  C   UNL A   1      38.806  29.366  27.909  1.00  0.00     0.016 A 
ATOM     13  C   UNL A   1      40.671  27.984  29.504  1.00  0.00     0.010 A 
ATOM     14  C   UNL A   1      40.073  29.049  27.407  1.00  0.00     0.010 A 
ATOM     15  C   UNL A   1      41.002  28.379  28.223  1.00  0.00    -0.014 A 
BRANCH  15  16
ATOM     16  C   UNL A   1      42.423  28.239  27.917  1.00  0.00     0.031 A 
ATOM     17  C   UNL A   1      43.317  29.366  28.320  1.00  0.00     0.074 A 
ATOM     18  C   UNL A   1      42.887  27.031  27.553  1.00  0.00     0.049 A 
ATOM     19  N   UNL A   1      44.583  29.530  28.078  1.00  0.00    -0.248 NA
ATOM     20  C   UNL A   1      42.711  30.446  29.129  1.00  0.00     0.031 C 
ATOM     21  C   UNL A   1      42.074  25.812  27.428  1.00  0.00     0.029 A 
ATOM     22  N   UNL A   1      44.152  26.613  27.265  1.00  0.00    -0.354 N 
ATOM     23  C   UNL A   1      44.905  30.763  28.629  1.00  0.00     0.074 A 
ATOM     24  C   UNL A   1      43.725  31.285  29.270  1.00  0.00     0.031 C 
ATOM     25  C   UNL A   1      42.866  24.790  27.068  1.00  0.00     0.029 A 
ATOM     26  C   UNL A   1      44.207  25.307  26.841  1.00  0.00     0.049 A 
ATOM     27  H   UNL A   1      44.946  27.189  27.352  1.00  0.00     0.167 HD
ATOM     28  C   UNL A   1      46.090  31.402  28.543  1.00  0.00     0.031 A 
ATOM     29  C   UNL A   1      45.219  24.651  26.250  1.00  0.00     0.031 A 
ATOM     30  C   UNL A   1      47.219  30.816  27.879  1.00  0.00     0.049 A 
ATOM     31  C   UNL A   1      46.483  25.439  26.028  1.00  0.00     0.074 A 
ATOM     32  C   UNL A   1      48.458  31.367  27.623  1.00  0.00     0.029 A 
ATOM     33  N   UNL A   1      47.227  29.527  27.357  1.00  0.00    -0.354 N 
ATOM     34  N   UNL A   1      46.776  26.653  26.442  1.00  0.00    -0.248 NA
ATOM     35  C   UNL A   1      47.535  24.799  25.236  1.00  0.00     0.031 C 
ATOM     36  C   UNL A   1      49.189  30.432  26.882  1.00  0.00     0.029 A 
ATOM     37  C   UNL A   1      48.432  29.276  26.739  1.00  0.00     0.049 A 
ATOM     38  H   UNL A   1      46.481  28.888  27.422  1.00  0.00     0.167 HD
ATOM     39  C   UNL A   1      48.048  26.923  25.962  1.00  0.00     0.074 A 
ATOM     40  C   UNL A   1      48.481  25.728  25.259  1.00  0.00     0.031 C 
ATOM     41  C   UNL A   1      48.793  28.050  26.069  1.00  0.00     0.031 A 
BRANCH  28  42
ATOM     42  C   UNL A   1      46.155  32.819  29.032  1.00  0.00    -0.014 A 
ATOM     43  C   UNL A   1      45.553  33.883  28.340  1.00  0.00     0.010 A 
ATOM     44  C   UNL A   1      46.848  33.084  30.228  1.00  0.00     0.010 A 
ATOM     45  C   UNL A   1      45.648  35.188  28.835  1.00  0.00     0.020 A 
ATOM     46  C   UNL A   1      46.928  34.381  30.737  1.00  0.00     0.020 A 
ATOM     47  C   UNL A   1      46.328  35.427  30.035  1.00  0.00     0.054 A 
BRANCH  47  48
ATOM     48  S   UNL A   1      46.377  37.118  30.691  1.00  0.00     0.124 S 
ATOM     49  O   UNL A   1      46.376  37.919  29.470  1.00  0.00    -0.237 OA
ATOM     50  O   UNL A   1      45.154  37.185  31.487  1.00  0.00    -0.237 OA
ATOM     51  O   UNL A   1      47.620  37.157  31.459  1.00  0.00    -0.744 OA
ENDBRANCH  47  48
ENDBRANCH  28  42
BRANCH  29  52
ATOM     52  C   UNL A   1      45.028  23.282  25.692  1.00  0.00    -0.014 A 
ATOM     53  C   UNL A   1      45.025  22.147  26.520  1.00  0.00     0.010 A 
ATOM     54  C   UNL A   1      44.896  23.100  24.299  1.00  0.00     0.010 A 
ATOM     55  C   UNL A   1      44.940  20.863  25.967  1.00  0.00     0.020 A 
ATOM     56  C   UNL A   1      44.773  21.823  23.745  1.00  0.00     0.020 A 
ATOM     57  C   UNL A   1      44.823  20.711  24.582  1.00  0.00     0.054 A 
BRANCH  57  58
ATOM     58  S   UNL A   1      44.736  19.038  23.883  1.00  0.00     0.124 S 
ATOM     59  O   UNL A   1      43.608  18.465  24.610  1.00  0.00    -0.237 OA
ATOM     60  O   UNL A   1      44.509  19.302  22.464  1.00  0.00    -0.237 OA
ATOM     61  O   UNL A   1      46.043  18.465  24.200  1.00  0.00    -0.744 OA
ENDBRANCH  57  58
ENDBRANCH  29  52
BRANCH  41  62
ATOM     62  C   UNL A   1      50.148  28.019  25.429  1.00  0.00    -0.014 A 
ATOM     63  C   UNL A   1      51.307  27.871  26.209  1.00  0.00     0.010 A 
ATOM     64  C   UNL A   1      50.243  28.038  24.027  1.00  0.00     0.010 A 
ATOM     65  C   UNL A   1      52.549  27.757  25.592  1.00  0.00     0.020 A 
ATOM     66  C   UNL A   1      51.481  27.889  23.407  1.00  0.00     0.020 A 
ATOM     67  C   UNL A   1      52.627  27.758  24.195  1.00  0.00     0.054 A 
BRANCH  67  68
ATOM     68  S   UNL A   1      54.246  27.524  23.418  1.00  0.00     0.124 S 
ATOM     69  O   UNL A   1      54.515  28.853  22.875  1.00  0.00    -0.237 OA
ATOM     70  O   UNL A   1      55.084  27.122  24.544  1.00  0.00    -0.237 OA
ATOM     71  O   UNL A   1      54.005  26.481  22.423  1.00  0.00    -0.744 OA
ENDBRANCH  67  68
ENDBRANCH  41  62
ENDBRANCH  15  16
ENDBRANCH   8  10
ENDBRANCH   7   8
ENDBRANCH   6   7
ENDBRANCH   5   6
ENDBRANCH   4   5
ENDBRANCH   3   4
ENDBRANCH   2   3
ENDBRANCH   1   2
BRANCH   1  72
ATOM     72  C   UNL A   1      35.030  32.228  27.682  1.00  0.00     0.188 C 
BRANCH  72  73
ATOM     73  C   UNL A   1      33.892  31.201  27.776  1.00  0.00     0.188 C 
BRANCH  73  74
ATOM     74  O   UNL A   1      33.612  30.531  26.570  1.00  0.00    -0.376 OA
BRANCH  74  75
ATOM     75  C   UNL A   1      32.522  29.628  26.495  1.00  0.00     0.202 C 
BRANCH  75  76
ATOM     76  C   UNL A   1      32.016  28.912  25.221  1.00  0.00     0.261 C 
BRANCH  76  77
ATOM     77  O   UNL A   1      32.708  27.775  24.675  1.00  0.00    -0.463 OA
BRANCH  77  78
ATOM     78  C   UNL A   1      32.050  26.591  24.782  1.00  0.00     0.320 C 
ATOM     79  O   UNL A   1      31.667  26.158  25.868  1.00  0.00    -0.251 OA
BRANCH  78  80
ATOM     80  C   UNL A   1      31.907  25.768  23.476  1.00  0.00     0.137 C 
ATOM     81  C   UNL A   1      31.580  26.807  22.364  1.00  0.00     0.033 C 
ATOM     82  C   UNL A   1      30.698  24.832  23.544  1.00  0.00     0.203 C 
ATOM     83  C   UNL A   1      33.148  24.972  22.981  1.00  0.00     0.144 C 
ATOM     84  C   UNL A   1      30.246  27.526  22.576  1.00  0.00     0.063 C 
ATOM     85  N   UNL A   1      29.457  25.482  23.980  1.00  0.00    -0.343 N 
ATOM     86  C   UNL A   1      31.019  23.563  24.352  1.00  0.00     0.088 C 
ATOM     87  N   UNL A   1      33.403  23.661  23.594  1.00  0.00    -0.341 N 
ATOM     88  C   UNL A   1      29.296  26.896  23.606  1.00  0.00     0.260 C 
ATOM     89  H   UNL A   1      28.676  24.962  23.576  1.00  0.00     0.346 HD
ATOM     90  H   UNL A   1      29.487  25.470  24.999  1.00  0.00     0.346 HD
ATOM     91  C   UNL A   1      32.226  22.819  23.771  1.00  0.00     0.125 C 
BRANCH  87  92
ATOM     92  C   UNL A   1      34.736  23.211  23.634  1.00  0.00     0.227 C 
ATOM     93  O   UNL A   1      35.543  23.529  22.749  1.00  0.00    -0.275 OA
BRANCH  92  94
ATOM     94  C   UNL A   1      35.207  22.233  24.724  1.00  0.00     0.140 C 
BRANCH  94  95
ATOM     95  C   UNL A   1      36.593  22.494  25.288  1.00  0.00     0.016 A 
ATOM     96  C   UNL A   1      36.898  23.752  25.836  1.00  0.00     0.128 A 
ATOM     97  C   UNL A   1      37.615  21.532  25.313  1.00  0.00     0.047 A 
ATOM     98  F   UNL A   1      35.987  24.735  25.803  1.00  0.00    -0.207 F 
ATOM     99  C   UNL A   1      38.129  24.027  26.438  1.00  0.00     0.039 A 
ATOM    100  C   UNL A   1      38.850  21.796  25.931  1.00  0.00     0.021 A 
ATOM    101  Cl  UNL A   1      37.422  19.958  24.632  1.00  0.00    -0.084 Cl
ATOM    102  C   UNL A   1      39.102  23.037  26.509  1.00  0.00     0.005 A 
ENDBRANCH  94  95
ENDBRANCH  92  94
ENDBRANCH  87  92
ENDBRANCH  78  80
ENDBRANCH  77  78
ENDBRANCH  76  77
ENDBRANCH  75  76
ENDBRANCH  74  75
ENDBRANCH  73  74
ENDBRANCH  72  73
ENDBRANCH   1  72
TORSDOF 26
ENDMDL
MODEL 2
REMARK VINA RESULT:      -9.5      1.230      7.852
REMARK SMILES O=C(OCCOCCOCCOCCOC(=O)[C@]12CCC[NH2+][C@@H]1CCN(C(=O)Cc1c(F)cccc1Cl)C2)c1ccc(-c2c3nc(c(-c4ccc(S(=O)(=O)[O-])cc4)c4ccc([nH]4)c(-c4ccc(S(=O)(=O)[O-])cc4)c4nc(c(-c5ccc(S(=O)(=O)[O-])cc5)c5ccc2[nH]5)C=C4)C=C3)cc1
REMARK SMILES IDX 9 1 8 2 7 3 6 4 5 5 4 6 3 7 2 8 1 9 39 10 40 11 98 12 41 13
REMARK SMILES IDX 97 14 42 15 43 16 44 17 91 18 45 19 96 20 90 21 92 22 46 23
REMARK SMILES IDX 95 24 89 25 88 26 47 28 77 29 58 30 76 31 59 32 62 33 75 34
REMARK SMILES IDX 93 35 60 36 61 37 74 39 94 40 63 41 48 42 49 43 57 44 50 45
REMARK SMILES IDX 56 46 51 47 52 48 53 49 54 50 55 51 78 52 79 53 87 54 80 55
REMARK SMILES IDX 86 56 81 57 82 58 83 59 84 60 85 61 64 62 65 63 73 64 66 65
REMARK SMILES IDX 72 66 67 67 68 68 69 69 70 70 71 71 10 72 11 73 12 74 13 75
REMARK SMILES IDX 14 76 15 77 16 78 17 79 18 80 19 81 23 82 38 83 20 84 22 85
REMARK SMILES IDX 24 86 26 87 21 88 25 91 27 92 28 93 29 94 30 95 31 96 36 97
REMARK SMILES IDX 32 98 33 99 35 100 37 101 34 102
REMARK H PARENT 92 27 62 38 22 89 22 90
REMARK Flexibility Score: inf
ROOT
ATOM      1  O   UNL A   1      35.015  33.779  28.136  1.00  0.00    -0.377 OA
ENDROOT
BRANCH   1   2
ATOM      2  C   UNL A   1      35.773  34.150  29.282  1.00  0.00     0.188 C 
BRANCH   2   3
ATOM      3  C   UNL A   1      35.225  33.627  30.601  1.00  0.00     0.188 C 
BRANCH   3   4
ATOM      4  O   UNL A   1      36.217  32.848  31.234  1.00  0.00    -0.376 OA
BRANCH   4   5
ATOM      5  C   UNL A   1      37.167  32.139  30.451  1.00  0.00     0.202 C 
BRANCH   5   6
ATOM      6  C   UNL A   1      38.292  31.532  31.273  1.00  0.00     0.261 C 
BRANCH   6   7
ATOM      7  O   UNL A   1      38.022  30.131  31.440  1.00  0.00    -0.460 OA
BRANCH   7   8
ATOM      8  C   UNL A   1      37.633  29.457  30.325  1.00  0.00     0.338 C 
ATOM      9  O   UNL A   1      36.505  29.153  30.002  1.00  0.00    -0.246 OA
BRANCH   8  10
ATOM     10  C   UNL A   1      38.875  29.094  29.609  1.00  0.00     0.060 A 
ATOM     11  C   UNL A   1      39.947  28.595  30.352  1.00  0.00     0.016 A 
ATOM     12  C   UNL A   1      39.018  29.294  28.240  1.00  0.00     0.016 A 
ATOM     13  C   UNL A   1      41.166  28.349  29.796  1.00  0.00     0.010 A 
ATOM     14  C   UNL A   1      40.269  29.065  27.659  1.00  0.00     0.010 A 
ATOM     15  C   UNL A   1      41.338  28.615  28.453  1.00  0.00    -0.014 A 
BRANCH  15  16
ATOM     16  C   UNL A   1      42.736  28.603  28.029  1.00  0.00     0.031 A 
ATOM     17  C   UNL A   1      43.228  27.363  27.356  1.00  0.00     0.074 A 
ATOM     18  C   UNL A   1      43.415  29.763  28.013  1.00  0.00     0.049 A 
ATOM     19  N   UNL A   1      44.435  27.064  26.980  1.00  0.00    -0.248 NA
ATOM     20  C   UNL A   1      42.222  26.327  27.040  1.00  0.00     0.031 C 
ATOM     21  C   UNL A   1      42.865  31.073  28.396  1.00  0.00     0.029 A 
ATOM     22  N   UNL A   1      44.690  30.043  27.622  1.00  0.00    -0.354 N 
ATOM     23  C   UNL A   1      44.350  25.779  26.460  1.00  0.00     0.074 A 
ATOM     24  C   UNL A   1      42.969  25.370  26.511  1.00  0.00     0.031 C 
ATOM     25  C   UNL A   1      43.813  32.009  28.237  1.00  0.00     0.029 A 
ATOM     26  C   UNL A   1      45.049  31.351  27.844  1.00  0.00     0.049 A 
ATOM     27  H   UNL A   1      45.293  29.375  27.222  1.00  0.00     0.167 HD
ATOM     28  C   UNL A   1      45.372  25.011  26.030  1.00  0.00     0.031 A 
ATOM     29  C   UNL A   1      46.271  31.910  27.817  1.00  0.00     0.031 A 
ATOM     30  C   UNL A   1      46.725  25.489  26.017  1.00  0.00     0.049 A 
ATOM     31  C   UNL A   1      47.415  30.990  27.481  1.00  0.00     0.074 A 
ATOM     32  C   UNL A   1      47.883  24.810  25.702  1.00  0.00     0.029 A 
ATOM     33  N   UNL A   1      47.088  26.790  26.349  1.00  0.00    -0.354 N 
ATOM     34  N   UNL A   1      47.372  29.734  27.094  1.00  0.00    -0.248 NA
ATOM     35  C   UNL A   1      48.767  31.537  27.613  1.00  0.00     0.031 C 
ATOM     36  C   UNL A   1      48.955  25.684  25.914  1.00  0.00     0.029 A 
ATOM     37  C   UNL A   1      48.458  26.926  26.291  1.00  0.00     0.049 A 
ATOM     38  H   UNL A   1      46.459  27.508  26.588  1.00  0.00     0.167 HD
ATOM     39  C   UNL A   1      48.691  29.339  26.932  1.00  0.00     0.074 A 
ATOM     40  C   UNL A   1      49.505  30.505  27.228  1.00  0.00     0.031 C 
ATOM     41  C   UNL A   1      49.197  28.129  26.589  1.00  0.00     0.031 A 
BRANCH  28  42
ATOM     42  C   UNL A   1      45.077  23.576  25.705  1.00  0.00    -0.014 A 
ATOM     43  C   UNL A   1      44.112  22.829  26.400  1.00  0.00     0.010 A 
ATOM     44  C   UNL A   1      45.800  22.963  24.665  1.00  0.00     0.010 A 
ATOM     45  C   UNL A   1      43.879  21.491  26.061  1.00  0.00     0.020 A 
ATOM     46  C   UNL A   1      45.557  21.635  24.309  1.00  0.00     0.020 A 
ATOM     47  C   UNL A   1      44.598  20.906  25.012  1.00  0.00     0.054 A 
BRANCH  47  48
ATOM     48  S   UNL A   1      44.228  19.192  24.549  1.00  0.00     0.124 S 
ATOM     49  O   UNL A   1      42.834  19.057  24.964  1.00  0.00    -0.237 OA
ATOM     50  O   UNL A   1      44.455  19.198  23.106  1.00  0.00    -0.237 OA
ATOM     51  O   UNL A   1      45.186  18.407  25.324  1.00  0.00    -0.744 OA
ENDBRANCH  47  48
ENDBRANCH  28  42
BRANCH  29  52
ATOM     52  C   UNL A   1      46.485  33.315  28.267  1.00  0.00    -0.014 A 
ATOM     53  C   UNL A   1      46.257  33.699  29.598  1.00  0.00     0.010 A 
ATOM     54  C   UNL A   1      46.878  34.301  27.338  1.00  0.00     0.010 A 
ATOM     55  C   UNL A   1      46.372  35.042  29.980  1.00  0.00     0.020 A 
ATOM     56  C   UNL A   1      47.030  35.635  27.722  1.00  0.00     0.020 A 
ATOM     57  C   UNL A   1      46.750  36.002  29.036  1.00  0.00     0.054 A 
BRANCH  57  58
ATOM     58  S   UNL A   1      46.872  37.739  29.545  1.00  0.00     0.124 S 
ATOM     59  O   UNL A   1      45.587  37.952  30.202  1.00  0.00    -0.237 OA
ATOM     60  O   UNL A   1      48.040  37.729  30.424  1.00  0.00    -0.237 OA
ATOM     61  O   UNL A   1      47.057  38.454  28.285  1.00  0.00    -0.744 OA
ENDBRANCH  57  58
ENDBRANCH  29  52
BRANCH  41  62
ATOM     62  C   UNL A   1      50.689  28.030  26.499  1.00  0.00    -0.014 A 
ATOM     63  C   UNL A   1      51.360  28.365  25.312  1.00  0.00     0.010 A 
ATOM     64  C   UNL A   1      51.423  27.693  27.650  1.00  0.00     0.010 A 
ATOM     65  C   UNL A   1      52.752  28.350  25.273  1.00  0.00     0.020 A 
ATOM     66  C   UNL A   1      52.815  27.713  27.623  1.00  0.00     0.020 A 
ATOM     67  C   UNL A   1      53.470  28.033  26.432  1.00  0.00     0.054 A 
BRANCH  67  68
ATOM     68  S   UNL A   1      55.278  28.103  26.375  1.00  0.00     0.124 S 
ATOM     69  O   UNL A   1      55.606  28.562  27.722  1.00  0.00    -0.237 OA
ATOM     70  O   UNL A   1      55.641  26.720  26.075  1.00  0.00    -0.237 OA
ATOM     71  O   UNL A   1      55.554  29.061  25.305  1.00  0.00    -0.744 OA
ENDBRANCH  67  68
ENDBRANCH  41  62
ENDBRANCH  15  16
ENDBRANCH   8  10
ENDBRANCH   7   8
ENDBRANCH   6   7
ENDBRANCH   5   6
ENDBRANCH   4   5
ENDBRANCH   3   4
ENDBRANCH   2   3
ENDBRANCH   1   2
BRANCH   1  72
ATOM     72  C   UNL A   1      35.108  32.418  27.715  1.00  0.00     0.188 C 
BRANCH  72  73
ATOM     73  C   UNL A   1      33.931  31.485  28.034  1.00  0.00     0.188 C 
BRANCH  73  74
ATOM     74  O   UNL A   1      33.426  30.785  26.923  1.00  0.00    -0.376 OA
BRANCH  74  75
ATOM     75  C   UNL A   1      32.238  30.019  27.045  1.00  0.00     0.202 C 
BRANCH  75  76
ATOM     76  C   UNL A   1      31.839  28.809  26.169  1.00  0.00     0.261 C 
BRANCH  76  77
ATOM     77  O   UNL A   1      32.636  27.612  26.135  1.00  0.00    -0.463 OA
BRANCH  77  78
ATOM     78  C   UNL A   1      31.945  26.461  25.932  1.00  0.00     0.320 C 
ATOM     79  O   UNL A   1      31.076  26.078  26.715  1.00  0.00    -0.251 OA
BRANCH  78  80
ATOM     80  C   UNL A   1      32.386  25.604  24.717  1.00  0.00     0.137 C 
ATOM     81  C   UNL A   1      32.399  26.579  23.504  1.00  0.00     0.033 C 
ATOM     82  C   UNL A   1      31.339  24.538  24.385  1.00  0.00     0.203 C 
ATOM     83  C   UNL A   1      33.794  24.946  24.766  1.00  0.00     0.144 C 
ATOM     84  C   UNL A   1      31.019  27.145  23.162  1.00  0.00     0.063 C 
ATOM     85  N   UNL A   1      29.967  25.049  24.290  1.00  0.00    -0.343 N 
ATOM     86  C   UNL A   1      31.456  23.327  25.328  1.00  0.00     0.088 C 
ATOM     87  N   UNL A   1      33.929  23.684  25.507  1.00  0.00    -0.341 N 
ATOM     88  C   UNL A   1      29.819  26.428  23.800  1.00  0.00     0.260 C 
ATOM     89  H   UNL A   1      29.451  24.437  23.656  1.00  0.00     0.346 HD
ATOM     90  H   UNL A   1      29.612  25.059  25.246  1.00  0.00     0.346 HD
ATOM     91  C   UNL A   1      32.861  22.717  25.283  1.00  0.00     0.125 C 
BRANCH  87  92
ATOM     92  C   UNL A   1      35.186  23.389  26.066  1.00  0.00     0.227 C 
ATOM     93  O   UNL A   1      35.283  22.688  27.083  1.00  0.00    -0.275 OA
BRANCH  92  94
ATOM     94  C   UNL A   1      36.471  24.007  25.489  1.00  0.00     0.140 C 
BRANCH  94  95
ATOM     95  C   UNL A   1      37.769  23.343  25.915  1.00  0.00     0.016 A 
ATOM     96  C   UNL A   1      38.665  24.034  26.749  1.00  0.00     0.128 A 
ATOM     97  C   UNL A   1      38.139  22.043  25.534  1.00  0.00     0.047 A 
ATOM     98  F   UNL A   1      38.401  25.297  27.114  1.00  0.00    -0.207 F 
ATOM     99  C   UNL A   1      39.838  23.448  27.236  1.00  0.00     0.039 A 
ATOM    100  C   UNL A   1      39.308  21.442  26.033  1.00  0.00     0.021 A 
ATOM    101  Cl  UNL A   1      37.178  21.081  24.471  1.00  0.00    -0.084 Cl
ATOM    102  C   UNL A   1      40.149  22.136  26.897  1.00  0.00     0.005 A 
ENDBRANCH  94  95
ENDBRANCH  92  94
ENDBRANCH  87  92
ENDBRANCH  78  80
ENDBRANCH  77  78
ENDBRANCH  76  77
ENDBRANCH  75  76
ENDBRANCH  74  75
ENDBRANCH  73  74
ENDBRANCH  72  73
ENDBRANCH   1  72
TORSDOF 26
ENDMDL
MODEL 3
REMARK VINA RESULT:      -9.4      1.841      7.966
REMARK SMILES O=C(OCCOCCOCCOCCOC(=O)[C@]12CCC[NH2+][C@@H]1CCN(C(=O)Cc1c(F)cccc1Cl)C2)c1ccc(-c2c3nc(c(-c4ccc(S(=O)(=O)[O-])cc4)c4ccc([nH]4)c(-c4ccc(S(=O)(=O)[O-])cc4)c4nc(c(-c5ccc(S(=O)(=O)[O-])cc5)c5ccc2[nH]5)C=C4)C=C3)cc1
REMARK SMILES IDX 9 1 8 2 7 3 6 4 5 5 4 6 3 7 2 8 1 9 39 10 40 11 98 12 41 13
REMARK SMILES IDX 97 14 42 15 43 16 44 17 91 18 45 19 96 20 90 21 92 22 46 23
REMARK SMILES IDX 95 24 89 25 88 26 47 28 77 29 58 30 76 31 59 32 62 33 75 34
REMARK SMILES IDX 93 35 60 36 61 37 74 39 94 40 63 41 48 42 49 43 57 44 50 45
REMARK SMILES IDX 56 46 51 47 52 48 53 49 54 50 55 51 78 52 79 53 87 54 80 55
REMARK SMILES IDX 86 56 81 57 82 58 83 59 84 60 85 61 64 62 65 63 73 64 66 65
REMARK SMILES IDX 72 66 67 67 68 68 69 69 70 70 71 71 10 72 11 73 12 74 13 75
REMARK SMILES IDX 14 76 15 77 16 78 17 79 18 80 19 81 23 82 38 83 20 84 22 85
REMARK SMILES IDX 24 86 26 87 21 88 25 91 27 92 28 93 29 94 30 95 31 96 36 97
REMARK SMILES IDX 32 98 33 99 35 100 37 101 34 102
REMARK H PARENT 92 27 62 38 22 89 22 90
REMARK Flexibility Score: inf
ROOT
ATOM      1  O   UNL A   1      34.828  33.706  27.795  1.00  0.00    -0.377 OA
ENDROOT
BRANCH   1   2
ATOM      2  C   UNL A   1      35.491  34.300  28.905  1.00  0.00     0.188 C 
BRANCH   2   3
ATOM      3  C   UNL A   1      34.868  33.988  30.257  1.00  0.00     0.188 C 
BRANCH   3   4
ATOM      4  O   UNL A   1      35.864  33.473  31.114  1.00  0.00    -0.376 OA
BRANCH   4   5
ATOM      5  C   UNL A   1      36.988  32.797  30.567  1.00  0.00     0.202 C 
BRANCH   5   6
ATOM      6  C   UNL A   1      38.165  32.715  31.525  1.00  0.00     0.261 C 
BRANCH   6   7
ATOM      7  O   UNL A   1      38.153  31.418  32.143  1.00  0.00    -0.460 OA
BRANCH   7   8
ATOM      8  C   UNL A   1      37.607  30.409  31.412  1.00  0.00     0.338 C 
ATOM      9  O   UNL A   1      36.458  30.024  31.428  1.00  0.00    -0.246 OA
BRANCH   8  10
ATOM     10  C   UNL A   1      38.718  29.814  30.639  1.00  0.00     0.060 A 
ATOM     11  C   UNL A   1      39.841  29.361  31.334  1.00  0.00     0.016 A 
ATOM     12  C   UNL A   1      38.695  29.751  29.250  1.00  0.00     0.016 A 
ATOM     13  C   UNL A   1      40.958  28.910  30.698  1.00  0.00     0.010 A 
ATOM     14  C   UNL A   1      39.841  29.310  28.581  1.00  0.00     0.010 A 
ATOM     15  C   UNL A   1      40.972  28.915  29.317  1.00  0.00    -0.014 A 
BRANCH  15  16
ATOM     16  C   UNL A   1      42.299  28.700  28.745  1.00  0.00     0.031 A 
ATOM     17  C   UNL A   1      42.561  27.367  28.125  1.00  0.00     0.074 A 
ATOM     18  C   UNL A   1      43.101  29.764  28.561  1.00  0.00     0.049 A 
ATOM     19  N   UNL A   1      43.672  26.896  27.643  1.00  0.00    -0.248 NA
ATOM     20  C   UNL A   1      41.411  26.446  28.004  1.00  0.00     0.031 C 
ATOM     21  C   UNL A   1      42.756  31.154  28.895  1.00  0.00     0.029 A 
ATOM     22  N   UNL A   1      44.345  29.856  28.011  1.00  0.00    -0.354 N 
ATOM     23  C   UNL A   1      43.378  25.600  27.241  1.00  0.00     0.074 A 
ATOM     24  C   UNL A   1      41.974  25.370  27.476  1.00  0.00     0.031 C 
ATOM     25  C   UNL A   1      43.780  31.953  28.558  1.00  0.00     0.029 A 
ATOM     26  C   UNL A   1      44.876  31.122  28.087  1.00  0.00     0.049 A 
ATOM     27  H   UNL A   1      44.814  29.094  27.603  1.00  0.00     0.167 HD
ATOM     28  C   UNL A   1      44.245  24.684  26.765  1.00  0.00     0.031 A 
ATOM     29  C   UNL A   1      46.142  31.521  27.881  1.00  0.00     0.031 A 
ATOM     30  C   UNL A   1      45.633  24.989  26.564  1.00  0.00     0.049 A 
ATOM     31  C   UNL A   1      47.124  30.446  27.497  1.00  0.00     0.074 A 
ATOM     32  C   UNL A   1      46.659  24.151  26.180  1.00  0.00     0.029 A 
ATOM     33  N   UNL A   1      46.182  26.254  26.748  1.00  0.00    -0.354 N 
ATOM     34  N   UNL A   1      46.890  29.182  27.219  1.00  0.00    -0.248 NA
ATOM     35  C   UNL A   1      48.536  30.829  27.434  1.00  0.00     0.031 C 
ATOM     36  C   UNL A   1      47.843  24.898  26.201  1.00  0.00     0.029 A 
ATOM     37  C   UNL A   1      47.541  26.214  26.530  1.00  0.00     0.049 A 
ATOM     38  H   UNL A   1      45.673  27.058  26.997  1.00  0.00     0.167 HD
ATOM     39  C   UNL A   1      48.126  28.617  26.945  1.00  0.00     0.074 A 
ATOM     40  C   UNL A   1      49.099  29.689  27.055  1.00  0.00     0.031 C 
ATOM     41  C   UNL A   1      48.444  27.333  26.648  1.00  0.00     0.031 A 
BRANCH  28  42
ATOM     42  C   UNL A   1      43.750  23.279  26.590  1.00  0.00    -0.014 A 
ATOM     43  C   UNL A   1      43.864  22.585  25.374  1.00  0.00     0.010 A 
ATOM     44  C   UNL A   1      43.148  22.639  27.690  1.00  0.00     0.010 A 
ATOM     45  C   UNL A   1      43.381  21.276  25.262  1.00  0.00     0.020 A 
ATOM     46  C   UNL A   1      42.683  21.326  27.589  1.00  0.00     0.020 A 
ATOM     47  C   UNL A   1      42.801  20.653  26.373  1.00  0.00     0.054 A 
BRANCH  47  48
ATOM     48  S   UNL A   1      42.245  18.933  26.220  1.00  0.00     0.124 S 
ATOM     49  O   UNL A   1      43.127  18.419  25.177  1.00  0.00    -0.237 OA
ATOM     50  O   UNL A   1      42.482  18.403  27.560  1.00  0.00    -0.237 OA
ATOM     51  O   UNL A   1      40.839  19.054  25.840  1.00  0.00    -0.744 OA
ENDBRANCH  47  48
ENDBRANCH  28  42
BRANCH  29  52
ATOM     52  C   UNL A   1      46.570  32.915  28.190  1.00  0.00    -0.014 A 
ATOM     53  C   UNL A   1      46.951  33.293  29.488  1.00  0.00     0.010 A 
ATOM     54  C   UNL A   1      46.549  33.900  27.180  1.00  0.00     0.010 A 
ATOM     55  C   UNL A   1      47.257  34.628  29.779  1.00  0.00     0.020 A 
ATOM     56  C   UNL A   1      46.890  35.226  27.457  1.00  0.00     0.020 A 
ATOM     57  C   UNL A   1      47.217  35.587  28.762  1.00  0.00     0.054 A 
BRANCH  57  58
ATOM     58  S   UNL A   1      47.595  37.316  29.164  1.00  0.00     0.124 S 
ATOM     59  O   UNL A   1      48.590  37.169  30.221  1.00  0.00    -0.237 OA
ATOM     60  O   UNL A   1      48.093  37.832  27.891  1.00  0.00    -0.237 OA
ATOM     61  O   UNL A   1      46.307  37.860  29.587  1.00  0.00    -0.744 OA
ENDBRANCH  57  58
ENDBRANCH  29  52
BRANCH  41  62
ATOM     62  C   UNL A   1      49.893  27.044  26.403  1.00  0.00    -0.014 A 
ATOM     63  C   UNL A   1      50.446  27.178  25.118  1.00  0.00     0.010 A 
ATOM     64  C   UNL A   1      50.724  26.732  27.494  1.00  0.00     0.010 A 
ATOM     65  C   UNL A   1      51.811  26.989  24.926  1.00  0.00     0.020 A 
ATOM     66  C   UNL A   1      52.095  26.578  27.309  1.00  0.00     0.020 A 
ATOM     67  C   UNL A   1      52.628  26.699  26.024  1.00  0.00     0.054 A 
BRANCH  67  68
ATOM     68  S   UNL A   1      54.412  26.541  25.758  1.00  0.00     0.124 S 
ATOM     69  O   UNL A   1      54.469  25.617  24.629  1.00  0.00    -0.237 OA
ATOM     70  O   UNL A   1      54.814  27.915  25.468  1.00  0.00    -0.237 OA
ATOM     71  O   UNL A   1      54.905  26.007  27.026  1.00  0.00    -0.744 OA
ENDBRANCH  67  68
ENDBRANCH  41  62
ENDBRANCH  15  16
ENDBRANCH   8  10
ENDBRANCH   7   8
ENDBRANCH   6   7
ENDBRANCH   5   6
ENDBRANCH   4   5
ENDBRANCH   3   4
ENDBRANCH   2   3
ENDBRANCH   1   2
BRANCH   1  72
ATOM     72  C   UNL A   1      34.809  32.280  27.743  1.00  0.00     0.188 C 
BRANCH  72  73
ATOM     73  C   UNL A   1      33.443  31.580  27.706  1.00  0.00     0.188 C 
BRANCH  73  74
ATOM     74  O   UNL A   1      33.162  30.916  26.499  1.00  0.00    -0.376 OA
BRANCH  74  75
ATOM     75  C   UNL A   1      31.830  30.544  26.184  1.00  0.00     0.202 C 
BRANCH  75  76
ATOM     76  C   UNL A   1      31.397  29.532  25.097  1.00  0.00     0.261 C 
BRANCH  76  77
ATOM     77  O   UNL A   1      31.452  28.114  25.329  1.00  0.00    -0.463 OA
BRANCH  77  78
ATOM     78  C   UNL A   1      31.571  27.349  24.213  1.00  0.00     0.320 C 
ATOM     79  O   UNL A   1      30.699  27.329  23.344  1.00  0.00    -0.251 OA
BRANCH  78  80
ATOM     80  C   UNL A   1      32.812  26.422  24.147  1.00  0.00     0.137 C 
ATOM     81  C   UNL A   1      34.023  27.324  24.527  1.00  0.00     0.033 C 
ATOM     82  C   UNL A   1      33.073  25.951  22.715  1.00  0.00     0.203 C 
ATOM     83  C   UNL A   1      32.857  25.201  25.108  1.00  0.00     0.144 C 
ATOM     84  C   UNL A   1      34.272  28.460  23.531  1.00  0.00     0.063 C 
ATOM     85  N   UNL A   1      33.077  27.027  21.717  1.00  0.00    -0.343 N 
ATOM     86  C   UNL A   1      32.141  24.790  22.330  1.00  0.00     0.088 C 
ATOM     87  N   UNL A   1      32.128  23.991  24.704  1.00  0.00    -0.341 N 
ATOM     88  C   UNL A   1      33.555  28.340  22.178  1.00  0.00     0.260 C 
ATOM     89  H   UNL A   1      33.675  26.732  20.944  1.00  0.00     0.346 HD
ATOM     90  H   UNL A   1      32.099  27.166  21.463  1.00  0.00     0.346 HD
ATOM     91  C   UNL A   1      32.280  23.614  23.303  1.00  0.00     0.125 C 
BRANCH  87  92
ATOM     92  C   UNL A   1      31.654  23.145  25.724  1.00  0.00     0.227 C 
ATOM     93  O   UNL A   1      30.439  22.979  25.901  1.00  0.00    -0.275 OA
BRANCH  92  94
ATOM     94  C   UNL A   1      32.627  22.478  26.711  1.00  0.00     0.140 C 
BRANCH  94  95
ATOM     95  C   UNL A   1      33.746  21.666  26.084  1.00  0.00     0.016 A 
ATOM     96  C   UNL A   1      33.468  20.400  25.538  1.00  0.00     0.128 A 
ATOM     97  C   UNL A   1      35.075  22.111  25.995  1.00  0.00     0.047 A 
ATOM     98  F   UNL A   1      32.232  19.889  25.629  1.00  0.00    -0.207 F 
ATOM     99  C   UNL A   1      34.439  19.639  24.880  1.00  0.00     0.039 A 
ATOM    100  C   UNL A   1      36.052  21.359  25.322  1.00  0.00     0.021 A 
ATOM    101  Cl  UNL A   1      35.593  23.615  26.663  1.00  0.00    -0.084 Cl
ATOM    102  C   UNL A   1      35.732  20.132  24.748  1.00  0.00     0.005 A 
ENDBRANCH  94  95
ENDBRANCH  92  94
ENDBRANCH  87  92
ENDBRANCH  78  80
ENDBRANCH  77  78
ENDBRANCH  76  77
ENDBRANCH  75  76
ENDBRANCH  74  75
ENDBRANCH  73  74
ENDBRANCH  72  73
ENDBRANCH   1  72
TORSDOF 26
ENDMDL
