MODEL 1
REMARK VINA RESULT:      -8.9      0.000      0.000
REMARK SMILES O=C(OCCOCCOCCOCCOC(=O)[C@H]1CC[C@H](CNC(=O)c2ccccc2O)O1)c1ccc(-c2c3nc(c(-c4ccc(S(=O)(=O)[O-])cc4)c4ccc([nH]4)c(-c4ccc(S(=O)(=O)[O-])cc4)c4nc(c(-c5ccc(S(=O)(=O)[O-])cc5)c5ccc2[nH]5)C=C4)C=C3)cc1
REMARK SMILES IDX 10 1 9 2 8 3 7 4 6 5 5 6 4 7 3 8 2 9 1 10 34 11 35 12 93 13
REMARK SMILES IDX 36 14 92 15 37 16 38 17 39 18 86 19 40 20 91 21 85 22 87 23
REMARK SMILES IDX 41 24 90 25 84 26 83 27 42 29 72 30 53 31 71 32 54 33 57 34
REMARK SMILES IDX 70 35 88 36 55 37 56 38 69 40 89 41 58 42 43 43 44 44 52 45
REMARK SMILES IDX 45 46 51 47 46 48 47 49 48 50 49 51 50 52 73 53 74 54 82 55
REMARK SMILES IDX 75 56 81 57 76 58 77 59 78 60 79 61 80 62 59 63 60 64 68 65
REMARK SMILES IDX 61 66 67 67 62 68 63 69 64 70 65 71 66 72 11 73 12 74 13 75
REMARK SMILES IDX 14 76 15 77 16 78 17 79 18 80 19 81 33 82 20 83 21 84 22 85
REMARK SMILES IDX 23 86 24 87 25 89 26 90 27 91 31 92 28 93 30 94 29 95 32 96
REMARK H PARENT 87 28 57 39 23 88 32 97
REMARK Flexibility Score: inf
ROOT
ATOM      1  C   UNL A   1      34.788  22.479  26.041  1.00  0.00     0.188 C 
ENDROOT
BRANCH   1   2
ATOM      2  O   UNL A   1      36.134  22.942  26.053  1.00  0.00    -0.377 OA
BRANCH   2   3
ATOM      3  C   UNL A   1      36.973  22.476  25.007  1.00  0.00     0.188 C 
BRANCH   3   4
ATOM      4  C   UNL A   1      38.182  21.655  25.449  1.00  0.00     0.188 C 
BRANCH   4   5
ATOM      5  O   UNL A   1      39.082  22.410  26.260  1.00  0.00    -0.376 OA
BRANCH   5   6
ATOM      6  C   UNL A   1      40.204  21.715  26.804  1.00  0.00     0.202 C 
BRANCH   6   7
ATOM      7  C   UNL A   1      41.476  22.548  26.972  1.00  0.00     0.261 C 
BRANCH   7   8
ATOM      8  O   UNL A   1      41.353  23.888  26.479  1.00  0.00    -0.460 OA
BRANCH   8   9
ATOM      9  C   UNL A   1      42.162  24.950  26.717  1.00  0.00     0.338 C 
ATOM     10  O   UNL A   1      43.224  25.009  26.097  1.00  0.00    -0.246 OA
BRANCH   9  11
ATOM     11  C   UNL A   1      41.874  26.040  27.705  1.00  0.00     0.060 A 
ATOM     12  C   UNL A   1      42.634  27.195  27.898  1.00  0.00     0.016 A 
ATOM     13  C   UNL A   1      40.696  25.905  28.460  1.00  0.00     0.016 A 
ATOM     14  C   UNL A   1      42.292  28.155  28.833  1.00  0.00     0.010 A 
ATOM     15  C   UNL A   1      40.340  26.862  29.415  1.00  0.00     0.010 A 
ATOM     16  C   UNL A   1      41.171  27.967  29.627  1.00  0.00    -0.014 A 
BRANCH  16  17
ATOM     17  C   UNL A   1      41.083  28.792  30.839  1.00  0.00     0.031 A 
ATOM     18  C   UNL A   1      39.967  29.791  30.895  1.00  0.00     0.074 A 
ATOM     19  C   UNL A   1      41.846  28.505  31.906  1.00  0.00     0.049 A 
ATOM     20  N   UNL A   1      39.672  30.656  31.823  1.00  0.00    -0.248 NA
ATOM     21  C   UNL A   1      39.038  29.803  29.746  1.00  0.00     0.031 C 
ATOM     22  C   UNL A   1      42.814  27.408  31.983  1.00  0.00     0.029 A 
ATOM     23  N   UNL A   1      41.891  29.081  33.144  1.00  0.00    -0.354 N 
ATOM     24  C   UNL A   1      38.561  31.345  31.349  1.00  0.00     0.074 A 
ATOM     25  C   UNL A   1      38.231  30.802  30.055  1.00  0.00     0.031 C 
ATOM     26  C   UNL A   1      43.345  27.382  33.217  1.00  0.00     0.029 A 
ATOM     27  C   UNL A   1      42.811  28.501  33.984  1.00  0.00     0.049 A 
ATOM     28  H   UNL A   1      41.320  29.838  33.410  1.00  0.00     0.167 HD
ATOM     29  C   UNL A   1      37.895  32.358  31.946  1.00  0.00     0.031 A 
ATOM     30  C   UNL A   1      43.194  28.871  35.219  1.00  0.00     0.031 A 
ATOM     31  C   UNL A   1      38.273  32.873  33.232  1.00  0.00     0.049 A 
ATOM     32  C   UNL A   1      42.528  30.084  35.812  1.00  0.00     0.074 A 
ATOM     33  C   UNL A   1      37.747  33.941  33.928  1.00  0.00     0.029 A 
ATOM     34  N   UNL A   1      39.293  32.339  34.013  1.00  0.00    -0.354 N 
ATOM     35  N   UNL A   1      41.546  30.807  35.319  1.00  0.00    -0.248 NA
ATOM     36  C   UNL A   1      43.023  30.540  37.114  1.00  0.00     0.031 C 
ATOM     37  C   UNL A   1      38.493  34.092  35.103  1.00  0.00     0.029 A 
ATOM     38  C   UNL A   1      39.431  33.069  35.175  1.00  0.00     0.049 A 
ATOM     39  H   UNL A   1      39.836  31.554  33.772  1.00  0.00     0.167 HD
ATOM     40  C   UNL A   1      41.287  31.790  36.263  1.00  0.00     0.074 A 
ATOM     41  C   UNL A   1      42.209  31.558  37.361  1.00  0.00     0.031 C 
ATOM     42  C   UNL A   1      40.371  32.792  36.236  1.00  0.00     0.031 A 
BRANCH  29  43
ATOM     43  C   UNL A   1      36.802  33.019  31.147  1.00  0.00    -0.014 A 
ATOM     44  C   UNL A   1      35.445  32.921  31.511  1.00  0.00     0.010 A 
ATOM     45  C   UNL A   1      37.141  33.685  29.957  1.00  0.00     0.010 A 
ATOM     46  C   UNL A   1      34.448  33.420  30.666  1.00  0.00     0.020 A 
ATOM     47  C   UNL A   1      36.151  34.213  29.124  1.00  0.00     0.020 A 
ATOM     48  C   UNL A   1      34.808  34.053  29.471  1.00  0.00     0.054 A 
BRANCH  48  49
ATOM     49  S   UNL A   1      33.497  34.663  28.376  1.00  0.00     0.124 S 
ATOM     50  O   UNL A   1      33.153  33.461  27.619  1.00  0.00    -0.237 OA
ATOM     51  O   UNL A   1      32.480  35.123  29.318  1.00  0.00    -0.237 OA
ATOM     52  O   UNL A   1      34.151  35.718  27.605  1.00  0.00    -0.744 OA
ENDBRANCH  48  49
ENDBRANCH  29  43
BRANCH  30  53
ATOM     53  C   UNL A   1      44.275  28.129  35.926  1.00  0.00    -0.014 A 
ATOM     54  C   UNL A   1      45.623  28.505  35.789  1.00  0.00     0.010 A 
ATOM     55  C   UNL A   1      43.955  27.050  36.774  1.00  0.00     0.010 A 
ATOM     56  C   UNL A   1      46.625  27.814  36.480  1.00  0.00     0.020 A 
ATOM     57  C   UNL A   1      44.951  26.377  37.488  1.00  0.00     0.020 A 
ATOM     58  C   UNL A   1      46.282  26.758  37.330  1.00  0.00     0.054 A 
BRANCH  58  59
ATOM     59  S   UNL A   1      47.595  25.916  38.259  1.00  0.00     0.124 S 
ATOM     60  O   UNL A   1      48.801  26.511  37.689  1.00  0.00    -0.237 OA
ATOM     61  O   UNL A   1      47.294  26.291  39.637  1.00  0.00    -0.237 OA
ATOM     62  O   UNL A   1      47.387  24.505  37.944  1.00  0.00    -0.744 OA
ENDBRANCH  58  59
ENDBRANCH  30  53
BRANCH  42  63
ATOM     63  C   UNL A   1      40.293  33.672  37.451  1.00  0.00    -0.014 A 
ATOM     64  C   UNL A   1      41.071  34.836  37.563  1.00  0.00     0.010 A 
ATOM     65  C   UNL A   1      39.367  33.355  38.462  1.00  0.00     0.010 A 
ATOM     66  C   UNL A   1      40.946  35.655  38.686  1.00  0.00     0.020 A 
ATOM     67  C   UNL A   1      39.214  34.189  39.568  1.00  0.00     0.020 A 
ATOM     68  C   UNL A   1      40.016  35.327  39.680  1.00  0.00     0.054 A 
BRANCH  68  69
ATOM     69  S   UNL A   1      39.834  36.435  41.101  1.00  0.00     0.124 S 
ATOM     70  O   UNL A   1      38.512  36.068  41.603  1.00  0.00    -0.237 OA
ATOM     71  O   UNL A   1      40.959  36.051  41.950  1.00  0.00    -0.237 OA
ATOM     72  O   UNL A   1      39.931  37.770  40.514  1.00  0.00    -0.744 OA
ENDBRANCH  68  69
ENDBRANCH  42  63
ENDBRANCH  16  17
ENDBRANCH   9  11
ENDBRANCH   8   9
ENDBRANCH   7   8
ENDBRANCH   6   7
ENDBRANCH   5   6
ENDBRANCH   4   5
ENDBRANCH   3   4
ENDBRANCH   2   3
ENDBRANCH   1   2
BRANCH   1  73
ATOM     73  C   UNL A   1      34.392  21.250  26.904  1.00  0.00     0.188 C 
BRANCH  73  74
ATOM     74  O   UNL A   1      33.313  20.480  26.391  1.00  0.00    -0.376 OA
BRANCH  74  75
ATOM     75  C   UNL A   1      33.340  20.248  24.984  1.00  0.00     0.202 C 
BRANCH  75  76
ATOM     76  C   UNL A   1      32.169  20.849  24.192  1.00  0.00     0.261 C 
BRANCH  76  77
ATOM     77  O   UNL A   1      32.150  22.292  24.155  1.00  0.00    -0.461 OA
BRANCH  77  78
ATOM     78  C   UNL A   1      31.348  22.948  25.034  1.00  0.00     0.335 C 
ATOM     79  O   UNL A   1      30.576  22.397  25.811  1.00  0.00    -0.249 OA
BRANCH  78  80
ATOM     80  C   UNL A   1      31.611  24.477  24.962  1.00  0.00     0.228 C 
ATOM     81  C   UNL A   1      32.329  24.877  23.693  1.00  0.00     0.047 C 
ATOM     82  O   UNL A   1      30.428  25.296  24.977  1.00  0.00    -0.361 OA
ATOM     83  C   UNL A   1      31.176  25.153  22.755  1.00  0.00     0.037 C 
ATOM     84  C   UNL A   1      30.137  25.797  23.657  1.00  0.00     0.138 C 
BRANCH  84  85
ATOM     85  C   UNL A   1      30.144  27.339  23.716  1.00  0.00     0.148 C 
BRANCH  85  86
ATOM     86  N   UNL A   1      31.171  27.956  22.893  1.00  0.00    -0.349 N 
ATOM     87  C   UNL A   1      32.320  28.616  23.240  1.00  0.00     0.255 C 
ATOM     88  H   UNL A   1      31.015  27.886  21.923  1.00  0.00     0.163 HD
ATOM     89  O   UNL A   1      33.040  29.056  22.343  1.00  0.00    -0.269 OA
BRANCH  87  90
ATOM     90  C   UNL A   1      32.694  28.882  24.645  1.00  0.00     0.081 A 
ATOM     91  C   UNL A   1      33.673  28.041  25.200  1.00  0.00     0.018 A 
ATOM     92  C   UNL A   1      32.053  29.817  25.464  1.00  0.00     0.128 A 
ATOM     93  C   UNL A   1      34.035  28.162  26.542  1.00  0.00     0.001 A 
ATOM     94  C   UNL A   1      32.421  29.942  26.809  1.00  0.00     0.047 A 
ATOM     95  C   UNL A   1      33.413  29.116  27.343  1.00  0.00     0.004 A 
BRANCH  92  96
ATOM     96  O   UNL A   1      31.039  30.594  24.979  1.00  0.00    -0.507 OA
ATOM     97  H   UNL A   1      30.360  30.891  25.553  1.00  0.00     0.293 HD
ENDBRANCH  92  96
ENDBRANCH  87  90
ENDBRANCH  85  86
ENDBRANCH  84  85
ENDBRANCH  78  80
ENDBRANCH  77  78
ENDBRANCH  76  77
ENDBRANCH  75  76
ENDBRANCH  74  75
ENDBRANCH  73  74
ENDBRANCH   1  73
TORSDOF 27
ENDMDL
MODEL 2
REMARK VINA RESULT:      -8.3      4.755     12.650
REMARK SMILES O=C(OCCOCCOCCOCCOC(=O)[C@H]1CC[C@H](CNC(=O)c2ccccc2O)O1)c1ccc(-c2c3nc(c(-c4ccc(S(=O)(=O)[O-])cc4)c4ccc([nH]4)c(-c4ccc(S(=O)(=O)[O-])cc4)c4nc(c(-c5ccc(S(=O)(=O)[O-])cc5)c5ccc2[nH]5)C=C4)C=C3)cc1
REMARK SMILES IDX 10 1 9 2 8 3 7 4 6 5 5 6 4 7 3 8 2 9 1 10 34 11 35 12 93 13
REMARK SMILES IDX 36 14 92 15 37 16 38 17 39 18 86 19 40 20 91 21 85 22 87 23
REMARK SMILES IDX 41 24 90 25 84 26 83 27 42 29 72 30 53 31 71 32 54 33 57 34
REMARK SMILES IDX 70 35 88 36 55 37 56 38 69 40 89 41 58 42 43 43 44 44 52 45
REMARK SMILES IDX 45 46 51 47 46 48 47 49 48 50 49 51 50 52 73 53 74 54 82 55
REMARK SMILES IDX 75 56 81 57 76 58 77 59 78 60 79 61 80 62 59 63 60 64 68 65
REMARK SMILES IDX 61 66 67 67 62 68 63 69 64 70 65 71 66 72 11 73 12 74 13 75
REMARK SMILES IDX 14 76 15 77 16 78 17 79 18 80 19 81 33 82 20 83 21 84 22 85
REMARK SMILES IDX 23 86 24 87 25 89 26 90 27 91 31 92 28 93 30 94 29 95 32 96
REMARK H PARENT 87 28 57 39 23 88 32 97
REMARK Flexibility Score: inf
ROOT
ATOM      1  C   UNL A   1      38.575  32.624  34.216  1.00  0.00     0.188 C 
ENDROOT
BRANCH   1   2
ATOM      2  O   UNL A   1      37.384  32.259  33.527  1.00  0.00    -0.377 OA
BRANCH   2   3
ATOM      3  C   UNL A   1      37.267  32.708  32.185  1.00  0.00     0.188 C 
BRANCH   3   4
ATOM      4  C   UNL A   1      35.886  33.216  31.780  1.00  0.00     0.188 C 
BRANCH   4   5
ATOM      5  O   UNL A   1      35.846  33.653  30.422  1.00  0.00    -0.376 OA
BRANCH   5   6
ATOM      6  C   UNL A   1      34.662  34.324  29.990  1.00  0.00     0.202 C 
BRANCH   6   7
ATOM      7  C   UNL A   1      33.715  33.496  29.120  1.00  0.00     0.261 C 
BRANCH   7   8
ATOM      8  O   UNL A   1      34.391  32.698  28.139  1.00  0.00    -0.460 OA
BRANCH   8   9
ATOM      9  C   UNL A   1      34.545  31.351  28.111  1.00  0.00     0.338 C 
ATOM     10  O   UNL A   1      33.544  30.665  27.907  1.00  0.00    -0.246 OA
BRANCH   9  11
ATOM     11  C   UNL A   1      35.841  30.634  28.345  1.00  0.00     0.060 A 
ATOM     12  C   UNL A   1      36.264  30.075  29.553  1.00  0.00     0.016 A 
ATOM     13  C   UNL A   1      36.674  30.464  27.226  1.00  0.00     0.016 A 
ATOM     14  C   UNL A   1      37.479  29.426  29.680  1.00  0.00     0.010 A 
ATOM     15  C   UNL A   1      37.908  29.818  27.338  1.00  0.00     0.010 A 
ATOM     16  C   UNL A   1      38.324  29.339  28.584  1.00  0.00    -0.014 A 
BRANCH  16  17
ATOM     17  C   UNL A   1      39.727  29.005  28.867  1.00  0.00     0.031 A 
ATOM     18  C   UNL A   1      40.505  29.998  29.678  1.00  0.00     0.074 A 
ATOM     19  C   UNL A   1      40.200  27.782  28.581  1.00  0.00     0.049 A 
ATOM     20  N   UNL A   1      41.753  29.970  30.050  1.00  0.00    -0.248 NA
ATOM     21  C   UNL A   1      39.762  31.182  30.154  1.00  0.00     0.031 C 
ATOM     22  C   UNL A   1      39.426  26.697  27.971  1.00  0.00     0.029 A 
ATOM     23  N   UNL A   1      41.430  27.231  28.807  1.00  0.00    -0.354 N 
ATOM     24  C   UNL A   1      41.956  31.151  30.754  1.00  0.00     0.074 A 
ATOM     25  C   UNL A   1      40.709  31.874  30.763  1.00  0.00     0.031 C 
ATOM     26  C   UNL A   1      40.199  25.602  27.891  1.00  0.00     0.029 A 
ATOM     27  C   UNL A   1      41.536  25.933  28.371  1.00  0.00     0.049 A 
ATOM     28  H   UNL A   1      42.168  27.717  29.242  1.00  0.00     0.167 HD
ATOM     29  C   UNL A   1      43.100  31.591  31.325  1.00  0.00     0.031 A 
ATOM     30  C   UNL A   1      42.614  25.129  28.334  1.00  0.00     0.031 A 
ATOM     31  C   UNL A   1      44.321  30.839  31.277  1.00  0.00     0.049 A 
ATOM     32  C   UNL A   1      43.910  25.689  28.857  1.00  0.00     0.074 A 
ATOM     33  C   UNL A   1      45.574  31.186  31.738  1.00  0.00     0.029 A 
ATOM     34  N   UNL A   1      44.429  29.569  30.718  1.00  0.00    -0.354 N 
ATOM     35  N   UNL A   1      44.130  26.852  29.430  1.00  0.00    -0.248 NA
ATOM     36  C   UNL A   1      45.099  24.844  28.721  1.00  0.00     0.031 C 
ATOM     37  C   UNL A   1      46.454  30.151  31.400  1.00  0.00     0.029 A 
ATOM     38  C   UNL A   1      45.733  29.125  30.800  1.00  0.00     0.049 A 
ATOM     39  H   UNL A   1      43.684  29.060  30.324  1.00  0.00     0.167 HD
ATOM     40  C   UNL A   1      45.481  26.869  29.747  1.00  0.00     0.074 A 
ATOM     41  C   UNL A   1      46.021  25.593  29.311  1.00  0.00     0.031 C 
ATOM     42  C   UNL A   1      46.215  27.842  30.347  1.00  0.00     0.031 A 
BRANCH  29  43
ATOM     43  C   UNL A   1      43.076  32.977  31.915  1.00  0.00    -0.014 A 
ATOM     44  C   UNL A   1      43.669  34.078  31.266  1.00  0.00     0.010 A 
ATOM     45  C   UNL A   1      42.516  33.161  33.192  1.00  0.00     0.010 A 
ATOM     46  C   UNL A   1      43.759  35.316  31.911  1.00  0.00     0.020 A 
ATOM     47  C   UNL A   1      42.575  34.404  33.827  1.00  0.00     0.020 A 
ATOM     48  C   UNL A   1      43.220  35.467  33.194  1.00  0.00     0.054 A 
BRANCH  48  49
ATOM     49  S   UNL A   1      43.377  37.073  34.023  1.00  0.00     0.124 S 
ATOM     50  O   UNL A   1      42.122  37.151  34.768  1.00  0.00    -0.237 OA
ATOM     51  O   UNL A   1      44.577  36.898  34.836  1.00  0.00    -0.237 OA
ATOM     52  O   UNL A   1      43.507  38.022  32.920  1.00  0.00    -0.744 OA
ENDBRANCH  48  49
ENDBRANCH  29  43
BRANCH  30  53
ATOM     53  C   UNL A   1      42.515  23.764  27.744  1.00  0.00    -0.014 A 
ATOM     54  C   UNL A   1      42.790  23.540  26.384  1.00  0.00     0.010 A 
ATOM     55  C   UNL A   1      42.173  22.665  28.557  1.00  0.00     0.010 A 
ATOM     56  C   UNL A   1      42.719  22.249  25.849  1.00  0.00     0.020 A 
ATOM     57  C   UNL A   1      42.130  21.369  28.033  1.00  0.00     0.020 A 
ATOM     58  C   UNL A   1      42.395  21.170  26.678  1.00  0.00     0.054 A 
BRANCH  58  59
ATOM     59  S   UNL A   1      42.365  19.498  25.973  1.00  0.00     0.124 S 
ATOM     60  O   UNL A   1      42.701  18.673  27.130  1.00  0.00    -0.237 OA
ATOM     61  O   UNL A   1      40.991  19.385  25.492  1.00  0.00    -0.237 OA
ATOM     62  O   UNL A   1      43.382  19.548  24.926  1.00  0.00    -0.744 OA
ENDBRANCH  58  59
ENDBRANCH  30  53
BRANCH  42  63
ATOM     63  C   UNL A   1      47.662  27.534  30.609  1.00  0.00    -0.014 A 
ATOM     64  C   UNL A   1      48.669  27.936  29.716  1.00  0.00     0.010 A 
ATOM     65  C   UNL A   1      48.014  26.894  31.811  1.00  0.00     0.010 A 
ATOM     66  C   UNL A   1      50.008  27.673  30.008  1.00  0.00     0.020 A 
ATOM     67  C   UNL A   1      49.352  26.661  32.122  1.00  0.00     0.020 A 
ATOM     68  C   UNL A   1      50.340  27.039  31.211  1.00  0.00     0.054 A 
BRANCH  68  69
ATOM     69  S   UNL A   1      52.088  26.756  31.591  1.00  0.00     0.124 S 
ATOM     70  O   UNL A   1      52.527  25.977  30.436  1.00  0.00    -0.237 OA
ATOM     71  O   UNL A   1      52.620  28.114  31.673  1.00  0.00    -0.237 OA
ATOM     72  O   UNL A   1      52.054  26.029  32.858  1.00  0.00    -0.744 OA
ENDBRANCH  68  69
ENDBRANCH  42  63
ENDBRANCH  16  17
ENDBRANCH   9  11
ENDBRANCH   8   9
ENDBRANCH   7   8
ENDBRANCH   6   7
ENDBRANCH   5   6
ENDBRANCH   4   5
ENDBRANCH   3   4
ENDBRANCH   2   3
ENDBRANCH   1   2
BRANCH   1  73
ATOM     73  C   UNL A   1      38.511  33.680  35.354  1.00  0.00     0.188 C 
BRANCH  73  74
ATOM     74  O   UNL A   1      39.772  34.078  35.873  1.00  0.00    -0.376 OA
BRANCH  74  75
ATOM     75  C   UNL A   1      39.856  34.142  37.295  1.00  0.00     0.202 C 
BRANCH  75  76
ATOM     76  C   UNL A   1      41.242  33.844  37.890  1.00  0.00     0.261 C 
BRANCH  76  77
ATOM     77  O   UNL A   1      42.029  32.902  37.130  1.00  0.00    -0.461 OA
BRANCH  77  78
ATOM     78  C   UNL A   1      42.380  31.731  37.723  1.00  0.00     0.335 C 
ATOM     79  O   UNL A   1      42.522  31.581  38.932  1.00  0.00    -0.249 OA
BRANCH  78  80
ATOM     80  C   UNL A   1      42.499  30.606  36.659  1.00  0.00     0.228 C 
ATOM     81  C   UNL A   1      43.239  31.061  35.422  1.00  0.00     0.047 C 
ATOM     82  O   UNL A   1      43.214  29.435  37.093  1.00  0.00    -0.361 OA
ATOM     83  C   UNL A   1      44.670  30.718  35.769  1.00  0.00     0.037 C 
ATOM     84  C   UNL A   1      44.541  29.410  36.531  1.00  0.00     0.138 C 
BRANCH  84  85
ATOM     85  C   UNL A   1      44.685  28.118  35.700  1.00  0.00     0.148 C 
BRANCH  85  86
ATOM     86  N   UNL A   1      44.131  28.213  34.359  1.00  0.00    -0.349 N 
ATOM     87  C   UNL A   1      43.507  27.276  33.579  1.00  0.00     0.255 C 
ATOM     88  H   UNL A   1      44.218  29.101  33.942  1.00  0.00     0.163 HD
ATOM     89  O   UNL A   1      43.119  27.607  32.459  1.00  0.00    -0.269 OA
BRANCH  87  90
ATOM     90  C   UNL A   1      43.343  25.869  34.000  1.00  0.00     0.081 A 
ATOM     91  C   UNL A   1      42.373  25.622  34.986  1.00  0.00     0.018 A 
ATOM     92  C   UNL A   1      44.165  24.821  33.574  1.00  0.00     0.128 A 
ATOM     93  C   UNL A   1      42.199  24.339  35.506  1.00  0.00     0.001 A 
ATOM     94  C   UNL A   1      43.986  23.533  34.091  1.00  0.00     0.047 A 
ATOM     95  C   UNL A   1      43.002  23.295  35.054  1.00  0.00     0.004 A 
BRANCH  92  96
ATOM     96  O   UNL A   1      45.173  25.042  32.678  1.00  0.00    -0.507 OA
ATOM     97  H   UNL A   1      45.032  24.883  31.766  1.00  0.00     0.293 HD
ENDBRANCH  92  96
ENDBRANCH  87  90
ENDBRANCH  85  86
ENDBRANCH  84  85
ENDBRANCH  78  80
ENDBRANCH  77  78
ENDBRANCH  76  77
ENDBRANCH  75  76
ENDBRANCH  74  75
ENDBRANCH  73  74
ENDBRANCH   1  73
TORSDOF 27
ENDMDL
MODEL 3
REMARK VINA RESULT:      -7.7      4.951     13.420
REMARK SMILES O=C(OCCOCCOCCOCCOC(=O)[C@H]1CC[C@H](CNC(=O)c2ccccc2O)O1)c1ccc(-c2c3nc(c(-c4ccc(S(=O)(=O)[O-])cc4)c4ccc([nH]4)c(-c4ccc(S(=O)(=O)[O-])cc4)c4nc(c(-c5ccc(S(=O)(=O)[O-])cc5)c5ccc2[nH]5)C=C4)C=C3)cc1
REMARK SMILES IDX 10 1 9 2 8 3 7 4 6 5 5 6 4 7 3 8 2 9 1 10 34 11 35 12 93 13
REMARK SMILES IDX 36 14 92 15 37 16 38 17 39 18 86 19 40 20 91 21 85 22 87 23
REMARK SMILES IDX 41 24 90 25 84 26 83 27 42 29 72 30 53 31 71 32 54 33 57 34
REMARK SMILES IDX 70 35 88 36 55 37 56 38 69 40 89 41 58 42 43 43 44 44 52 45
REMARK SMILES IDX 45 46 51 47 46 48 47 49 48 50 49 51 50 52 73 53 74 54 82 55
REMARK SMILES IDX 75 56 81 57 76 58 77 59 78 60 79 61 80 62 59 63 60 64 68 65
REMARK SMILES IDX 61 66 67 67 62 68 63 69 64 70 65 71 66 72 11 73 12 74 13 75
REMARK SMILES IDX 14 76 15 77 16 78 17 79 18 80 19 81 33 82 20 83 21 84 22 85
REMARK SMILES IDX 23 86 24 87 25 89 26 90 27 91 31 92 28 93 30 94 29 95 32 96
REMARK H PARENT 87 28 57 39 23 88 32 97
REMARK Flexibility Score: inf
ROOT
ATOM      1  C   UNL A   1      38.573  32.621  34.239  1.00  0.00     0.188 C 
ENDROOT
BRANCH   1   2
ATOM      2  O   UNL A   1      37.432  32.201  33.498  1.00  0.00    -0.377 OA
BRANCH   2   3
ATOM      3  C   UNL A   1      37.372  32.614  32.141  1.00  0.00     0.188 C 
BRANCH   3   4
ATOM      4  C   UNL A   1      36.021  33.147  31.674  1.00  0.00     0.188 C 
BRANCH   4   5
ATOM      5  O   UNL A   1      36.043  33.559  30.308  1.00  0.00    -0.376 OA
BRANCH   5   6
ATOM      6  C   UNL A   1      34.892  34.248  29.819  1.00  0.00     0.202 C 
BRANCH   6   7
ATOM      7  C   UNL A   1      33.968  33.429  28.917  1.00  0.00     0.261 C 
BRANCH   7   8
ATOM      8  O   UNL A   1      34.669  32.623  27.961  1.00  0.00    -0.460 OA
BRANCH   8   9
ATOM      9  C   UNL A   1      34.780  31.272  27.921  1.00  0.00     0.338 C 
ATOM     10  O   UNL A   1      33.767  30.623  27.656  1.00  0.00    -0.246 OA
BRANCH   9  11
ATOM     11  C   UNL A   1      36.038  30.508  28.207  1.00  0.00     0.060 A 
ATOM     12  C   UNL A   1      36.387  29.929  29.428  1.00  0.00     0.016 A 
ATOM     13  C   UNL A   1      36.913  30.313  27.124  1.00  0.00     0.016 A 
ATOM     14  C   UNL A   1      37.571  29.236  29.605  1.00  0.00     0.010 A 
ATOM     15  C   UNL A   1      38.117  29.622  27.287  1.00  0.00     0.010 A 
ATOM     16  C   UNL A   1      38.460  29.123  28.547  1.00  0.00    -0.014 A 
BRANCH  16  17
ATOM     17  C   UNL A   1      39.836  28.739  28.889  1.00  0.00     0.031 A 
ATOM     18  C   UNL A   1      40.606  29.690  29.755  1.00  0.00     0.074 A 
ATOM     19  C   UNL A   1      40.282  27.505  28.602  1.00  0.00     0.049 A 
ATOM     20  N   UNL A   1      41.833  29.614  30.184  1.00  0.00    -0.248 NA
ATOM     21  C   UNL A   1      39.880  30.890  30.218  1.00  0.00     0.031 C 
ATOM     22  C   UNL A   1      39.503  26.457  27.936  1.00  0.00     0.029 A 
ATOM     23  N   UNL A   1      41.481  26.910  28.876  1.00  0.00    -0.354 N 
ATOM     24  C   UNL A   1      42.041  30.775  30.920  1.00  0.00     0.074 A 
ATOM     25  C   UNL A   1      40.818  31.539  30.885  1.00  0.00     0.031 C 
ATOM     26  C   UNL A   1      40.244  25.339  27.871  1.00  0.00     0.029 A 
ATOM     27  C   UNL A   1      41.566  25.617  28.419  1.00  0.00     0.049 A 
ATOM     28  H   UNL A   1      42.213  27.363  29.353  1.00  0.00     0.167 HD
ATOM     29  C   UNL A   1      43.169  31.167  31.553  1.00  0.00     0.031 A 
ATOM     30  C   UNL A   1      42.618  24.779  28.418  1.00  0.00     0.031 A 
ATOM     31  C   UNL A   1      44.367  30.376  31.547  1.00  0.00     0.049 A 
ATOM     32  C   UNL A   1      43.905  25.286  29.012  1.00  0.00     0.074 A 
ATOM     33  C   UNL A   1      45.607  30.673  32.074  1.00  0.00     0.029 A 
ATOM     34  N   UNL A   1      44.460  29.113  30.970  1.00  0.00    -0.354 N 
ATOM     35  N   UNL A   1      44.136  26.430  29.618  1.00  0.00    -0.248 NA
ATOM     36  C   UNL A   1      45.071  24.405  28.916  1.00  0.00     0.031 C 
ATOM     37  C   UNL A   1      46.468  29.615  31.758  1.00  0.00     0.029 A 
ATOM     38  C   UNL A   1      45.744  28.625  31.105  1.00  0.00     0.049 A 
ATOM     39  H   UNL A   1      43.719  28.637  30.531  1.00  0.00     0.167 HD
ATOM     40  C   UNL A   1      45.470  26.397  29.998  1.00  0.00     0.074 A 
ATOM     41  C   UNL A   1      45.988  25.112  29.563  1.00  0.00     0.031 C 
ATOM     42  C   UNL A   1      46.205  27.334  30.650  1.00  0.00     0.031 A 
BRANCH  29  43
ATOM     43  C   UNL A   1      43.163  32.543  32.168  1.00  0.00    -0.014 A 
ATOM     44  C   UNL A   1      43.574  33.684  31.453  1.00  0.00     0.010 A 
ATOM     45  C   UNL A   1      42.811  32.678  33.523  1.00  0.00     0.010 A 
ATOM     46  C   UNL A   1      43.697  34.918  32.101  1.00  0.00     0.020 A 
ATOM     47  C   UNL A   1      42.901  33.915  34.166  1.00  0.00     0.020 A 
ATOM     48  C   UNL A   1      43.370  35.022  33.457  1.00  0.00     0.054 A 
BRANCH  48  49
ATOM     49  S   UNL A   1      43.567  36.625  34.283  1.00  0.00     0.124 S 
ATOM     50  O   UNL A   1      42.224  37.190  34.169  1.00  0.00    -0.237 OA
ATOM     51  O   UNL A   1      43.973  36.243  35.633  1.00  0.00    -0.237 OA
ATOM     52  O   UNL A   1      44.594  37.299  33.493  1.00  0.00    -0.744 OA
ENDBRANCH  48  49
ENDBRANCH  29  43
BRANCH  30  53
ATOM     53  C   UNL A   1      42.504  23.429  27.798  1.00  0.00    -0.014 A 
ATOM     54  C   UNL A   1      42.824  23.222  26.445  1.00  0.00     0.010 A 
ATOM     55  C   UNL A   1      42.100  22.324  28.575  1.00  0.00     0.010 A 
ATOM     56  C   UNL A   1      42.737  21.944  25.883  1.00  0.00     0.020 A 
ATOM     57  C   UNL A   1      42.040  21.041  28.024  1.00  0.00     0.020 A 
ATOM     58  C   UNL A   1      42.352  20.859  26.677  1.00  0.00     0.054 A 
BRANCH  58  59
ATOM     59  S   UNL A   1      42.302  19.202  25.938  1.00  0.00     0.124 S 
ATOM     60  O   UNL A   1      42.810  18.369  27.024  1.00  0.00    -0.237 OA
ATOM     61  O   UNL A   1      40.884  19.041  25.627  1.00  0.00    -0.237 OA
ATOM     62  O   UNL A   1      43.179  19.317  24.776  1.00  0.00    -0.744 OA
ENDBRANCH  58  59
ENDBRANCH  30  53
BRANCH  42  63
ATOM     63  C   UNL A   1      47.627  26.975  30.974  1.00  0.00    -0.014 A 
ATOM     64  C   UNL A   1      48.706  27.619  30.346  1.00  0.00     0.010 A 
ATOM     65  C   UNL A   1      47.875  26.023  31.980  1.00  0.00     0.010 A 
ATOM     66  C   UNL A   1      50.016  27.292  30.699  1.00  0.00     0.020 A 
ATOM     67  C   UNL A   1      49.182  25.720  32.359  1.00  0.00     0.020 A 
ATOM     68  C   UNL A   1      50.245  26.346  31.706  1.00  0.00     0.054 A 
BRANCH  68  69
ATOM     69  S   UNL A   1      51.952  25.978  32.182  1.00  0.00     0.124 S 
ATOM     70  O   UNL A   1      52.711  26.849  31.288  1.00  0.00    -0.237 OA
ATOM     71  O   UNL A   1      51.977  26.352  33.594  1.00  0.00    -0.237 OA
ATOM     72  O   UNL A   1      52.085  24.546  31.920  1.00  0.00    -0.744 OA
ENDBRANCH  68  69
ENDBRANCH  42  63
ENDBRANCH  16  17
ENDBRANCH   9  11
ENDBRANCH   8   9
ENDBRANCH   7   8
ENDBRANCH   6   7
ENDBRANCH   5   6
ENDBRANCH   4   5
ENDBRANCH   3   4
ENDBRANCH   2   3
ENDBRANCH   1   2
BRANCH   1  73
ATOM     73  C   UNL A   1      38.409  33.673  35.371  1.00  0.00     0.188 C 
BRANCH  73  74
ATOM     74  O   UNL A   1      39.626  34.195  35.884  1.00  0.00    -0.376 OA
BRANCH  74  75
ATOM     75  C   UNL A   1      39.751  35.615  35.839  1.00  0.00     0.202 C 
BRANCH  75  76
ATOM     76  C   UNL A   1      40.579  36.243  36.970  1.00  0.00     0.261 C 
BRANCH  76  77
ATOM     77  O   UNL A   1      40.378  35.639  38.266  1.00  0.00    -0.461 OA
BRANCH  77  78
ATOM     78  C   UNL A   1      39.321  36.053  39.012  1.00  0.00     0.335 C 
ATOM     79  O   UNL A   1      38.882  37.199  39.017  1.00  0.00    -0.249 OA
BRANCH  78  80
ATOM     80  C   UNL A   1      38.711  34.856  39.790  1.00  0.00     0.228 C 
ATOM     81  C   UNL A   1      39.153  33.522  39.231  1.00  0.00     0.047 C 
ATOM     82  O   UNL A   1      39.067  34.794  41.184  1.00  0.00    -0.361 OA
ATOM     83  C   UNL A   1      40.406  33.248  40.030  1.00  0.00     0.037 C 
ATOM     84  C   UNL A   1      40.065  33.780  41.411  1.00  0.00     0.138 C 
BRANCH  84  85
ATOM     85  C   UNL A   1      39.491  32.758  42.414  1.00  0.00     0.148 C 
BRANCH  85  86
ATOM     86  N   UNL A   1      39.130  31.483  41.816  1.00  0.00    -0.349 N 
ATOM     87  C   UNL A   1      37.904  30.940  41.537  1.00  0.00     0.255 C 
ATOM     88  H   UNL A   1      39.896  30.915  41.570  1.00  0.00     0.163 HD
ATOM     89  O   UNL A   1      37.858  29.824  41.019  1.00  0.00    -0.269 OA
BRANCH  87  90
ATOM     90  C   UNL A   1      36.635  31.609  41.895  1.00  0.00     0.081 A 
ATOM     91  C   UNL A   1      36.014  32.355  40.879  1.00  0.00     0.018 A 
ATOM     92  C   UNL A   1      36.102  31.640  43.187  1.00  0.00     0.128 A 
ATOM     93  C   UNL A   1      34.856  33.086  41.141  1.00  0.00     0.001 A 
ATOM     94  C   UNL A   1      34.936  32.370  43.449  1.00  0.00     0.047 A 
ATOM     95  C   UNL A   1      34.315  33.089  42.424  1.00  0.00     0.004 A 
BRANCH  92  96
ATOM     96  O   UNL A   1      36.725  30.994  44.218  1.00  0.00    -0.507 OA
ATOM     97  H   UNL A   1      37.618  31.190  44.422  1.00  0.00     0.293 HD
ENDBRANCH  92  96
ENDBRANCH  87  90
ENDBRANCH  85  86
ENDBRANCH  84  85
ENDBRANCH  78  80
ENDBRANCH  77  78
ENDBRANCH  76  77
ENDBRANCH  75  76
ENDBRANCH  74  75
ENDBRANCH  73  74
ENDBRANCH   1  73
TORSDOF 27
ENDMDL
