MODEL 1
REMARK VINA RESULT:      -9.2      0.000      0.000
REMARK SMILES O=C(OCCOCCOCCOCCOC(=O)c1cncc(Nc2cccnc2)n1)c1ccc(-c2c3nc(c(-c4ccc(S(=O)(=O)[O-])cc4)c4ccc([nH]4)c(-c4ccc(S(=O)(=O)[O-])cc4)c4nc(c(-c5ccc(S(=O)(=O)[O-])cc5)c5ccc2[nH]5)C=C4)C=C3)cc1
REMARK SMILES IDX 8 1 7 2 6 3 5 4 4 5 3 6 2 7 1 8 31 9 32 10 90 11 33 12 89 13
REMARK SMILES IDX 34 14 35 15 36 16 83 17 37 18 88 19 82 20 84 21 38 22 87 23
REMARK SMILES IDX 81 24 80 25 39 27 69 28 50 29 68 30 51 31 54 32 67 33 85 34
REMARK SMILES IDX 52 35 53 36 66 38 86 39 55 40 40 41 41 42 49 43 42 44 48 45
REMARK SMILES IDX 43 46 44 47 45 48 46 49 47 50 70 51 71 52 79 53 72 54 78 55
REMARK SMILES IDX 73 56 74 57 75 58 76 59 77 60 56 61 57 62 65 63 58 64 64 65
REMARK SMILES IDX 59 66 60 67 61 68 62 69 63 70 9 71 10 72 11 73 12 74 13 75
REMARK SMILES IDX 14 76 15 77 16 78 17 79 18 80 19 81 30 82 20 83 22 84 21 85
REMARK SMILES IDX 23 86 24 88 25 89 29 90 26 91 28 92 27 93
REMARK H PARENT 84 26 54 37 23 87
REMARK Flexibility Score: inf
ROOT
ATOM      1  C   UNL A   1      38.056  21.348  25.425  1.00  0.00     0.188 C 
ENDROOT
BRANCH   1   2
ATOM      2  C   UNL A   1      39.435  21.385  26.085  1.00  0.00     0.188 C 
BRANCH   2   3
ATOM      3  O   UNL A   1      40.135  20.163  25.835  1.00  0.00    -0.376 OA
BRANCH   3   4
ATOM      4  C   UNL A   1      41.213  19.883  26.728  1.00  0.00     0.202 C 
BRANCH   4   5
ATOM      5  C   UNL A   1      42.188  18.821  26.215  1.00  0.00     0.261 C 
BRANCH   5   6
ATOM      6  O   UNL A   1      42.836  19.236  25.005  1.00  0.00    -0.460 OA
BRANCH   6   7
ATOM      7  C   UNL A   1      43.992  19.938  24.886  1.00  0.00     0.338 C 
ATOM      8  O   UNL A   1      44.983  19.351  24.451  1.00  0.00    -0.246 OA
BRANCH   7   9
ATOM      9  C   UNL A   1      44.132  21.390  25.224  1.00  0.00     0.060 A 
ATOM     10  C   UNL A   1      44.029  22.451  24.322  1.00  0.00     0.016 A 
ATOM     11  C   UNL A   1      44.330  21.704  26.580  1.00  0.00     0.016 A 
ATOM     12  C   UNL A   1      44.221  23.768  24.718  1.00  0.00     0.010 A 
ATOM     13  C   UNL A   1      44.488  23.029  26.998  1.00  0.00     0.010 A 
ATOM     14  C   UNL A   1      44.476  24.061  26.055  1.00  0.00    -0.014 A 
BRANCH  14  15
ATOM     15  C   UNL A   1      44.910  25.428  26.393  1.00  0.00     0.031 A 
ATOM     16  C   UNL A   1      43.891  26.353  26.990  1.00  0.00     0.074 A 
ATOM     17  C   UNL A   1      46.206  25.772  26.297  1.00  0.00     0.049 A 
ATOM     18  N   UNL A   1      44.010  27.606  27.335  1.00  0.00    -0.248 NA
ATOM     19  C   UNL A   1      42.556  25.782  27.250  1.00  0.00     0.031 C 
ATOM     20  C   UNL A   1      47.286  24.883  25.860  1.00  0.00     0.029 A 
ATOM     21  N   UNL A   1      46.840  26.948  26.591  1.00  0.00    -0.354 N 
ATOM     22  C   UNL A   1      42.762  27.980  27.819  1.00  0.00     0.074 A 
ATOM     23  C   UNL A   1      41.898  26.826  27.725  1.00  0.00     0.031 C 
ATOM     24  C   UNL A   1      48.453  25.545  25.933  1.00  0.00     0.029 A 
ATOM     25  C   UNL A   1      48.194  26.916  26.358  1.00  0.00     0.049 A 
ATOM     26  H   UNL A   1      46.371  27.742  26.937  1.00  0.00     0.167 HD
ATOM     27  C   UNL A   1      42.374  29.188  28.287  1.00  0.00     0.031 A 
ATOM     28  C   UNL A   1      49.109  27.902  26.447  1.00  0.00     0.031 A 
ATOM     29  C   UNL A   1      43.255  30.320  28.351  1.00  0.00     0.049 A 
ATOM     30  C   UNL A   1      48.632  29.265  26.875  1.00  0.00     0.074 A 
ATOM     31  C   UNL A   1      42.972  31.618  28.727  1.00  0.00     0.029 A 
ATOM     32  N   UNL A   1      44.605  30.275  28.028  1.00  0.00    -0.354 N 
ATOM     33  N   UNL A   1      47.429  29.635  27.250  1.00  0.00    -0.248 NA
ATOM     34  C   UNL A   1      49.625  30.346  26.874  1.00  0.00     0.031 C 
ATOM     35  C   UNL A   1      44.144  32.370  28.588  1.00  0.00     0.029 A 
ATOM     36  C   UNL A   1      45.169  31.526  28.179  1.00  0.00     0.049 A 
ATOM     37  H   UNL A   1      45.089  29.470  27.734  1.00  0.00     0.167 HD
ATOM     38  C   UNL A   1      47.521  30.990  27.540  1.00  0.00     0.074 A 
ATOM     39  C   UNL A   1      48.904  31.368  27.319  1.00  0.00     0.031 C 
ATOM     40  C   UNL A   1      46.554  31.852  27.947  1.00  0.00     0.031 A 
BRANCH  27  41
ATOM     41  C   UNL A   1      40.927  29.341  28.668  1.00  0.00    -0.014 A 
ATOM     42  C   UNL A   1      39.912  29.408  27.697  1.00  0.00     0.010 A 
ATOM     43  C   UNL A   1      40.585  29.465  30.027  1.00  0.00     0.010 A 
ATOM     44  C   UNL A   1      38.587  29.648  28.076  1.00  0.00     0.020 A 
ATOM     45  C   UNL A   1      39.259  29.680  30.411  1.00  0.00     0.020 A 
ATOM     46  C   UNL A   1      38.271  29.792  29.431  1.00  0.00     0.054 A 
BRANCH  46  47
ATOM     47  S   UNL A   1      36.549  30.121  29.897  1.00  0.00     0.124 S 
ATOM     48  O   UNL A   1      35.823  29.646  28.721  1.00  0.00    -0.237 OA
ATOM     49  O   UNL A   1      36.383  29.315  31.104  1.00  0.00    -0.237 OA
ATOM     50  O   UNL A   1      36.516  31.566  30.107  1.00  0.00    -0.744 OA
ENDBRANCH  46  47
ENDBRANCH  27  41
BRANCH  28  51
ATOM     51  C   UNL A   1      50.528  27.652  26.067  1.00  0.00    -0.014 A 
ATOM     52  C   UNL A   1      51.470  27.207  27.012  1.00  0.00     0.010 A 
ATOM     53  C   UNL A   1      50.949  27.858  24.739  1.00  0.00     0.010 A 
ATOM     54  C   UNL A   1      52.801  26.987  26.640  1.00  0.00     0.020 A 
ATOM     55  C   UNL A   1      52.270  27.612  24.356  1.00  0.00     0.020 A 
ATOM     56  C   UNL A   1      53.193  27.191  25.314  1.00  0.00     0.054 A 
BRANCH  56  57
ATOM     57  S   UNL A   1      54.914  26.859  24.839  1.00  0.00     0.124 S 
ATOM     58  O   UNL A   1      55.327  25.894  25.852  1.00  0.00    -0.237 OA
ATOM     59  O   UNL A   1      54.773  26.333  23.483  1.00  0.00    -0.237 OA
ATOM     60  O   UNL A   1      55.551  28.170  24.926  1.00  0.00    -0.744 OA
ENDBRANCH  56  57
ENDBRANCH  28  51
BRANCH  40  61
ATOM     61  C   UNL A   1      46.972  33.271  28.201  1.00  0.00    -0.014 A 
ATOM     62  C   UNL A   1      47.520  33.655  29.437  1.00  0.00     0.010 A 
ATOM     63  C   UNL A   1      46.881  34.212  27.160  1.00  0.00     0.010 A 
ATOM     64  C   UNL A   1      47.951  34.967  29.635  1.00  0.00     0.020 A 
ATOM     65  C   UNL A   1      47.335  35.518  27.347  1.00  0.00     0.020 A 
ATOM     66  C   UNL A   1      47.857  35.890  28.588  1.00  0.00     0.054 A 
BRANCH  66  67
ATOM     67  S   UNL A   1      48.479  37.572  28.849  1.00  0.00     0.124 S 
ATOM     68  O   UNL A   1      49.798  37.321  29.424  1.00  0.00    -0.237 OA
ATOM     69  O   UNL A   1      48.476  38.131  27.500  1.00  0.00    -0.237 OA
ATOM     70  O   UNL A   1      47.503  38.163  29.764  1.00  0.00    -0.744 OA
ENDBRANCH  66  67
ENDBRANCH  40  61
ENDBRANCH  14  15
ENDBRANCH   7   9
ENDBRANCH   6   7
ENDBRANCH   5   6
ENDBRANCH   4   5
ENDBRANCH   3   4
ENDBRANCH   2   3
ENDBRANCH   1   2
BRANCH   1  71
ATOM     71  O   UNL A   1      37.163  22.374  25.856  1.00  0.00    -0.377 OA
BRANCH  71  72
ATOM     72  C   UNL A   1      36.986  23.473  24.969  1.00  0.00     0.188 C 
BRANCH  72  73
ATOM     73  C   UNL A   1      36.020  23.323  23.775  1.00  0.00     0.188 C 
BRANCH  73  74
ATOM     74  O   UNL A   1      34.646  23.499  24.095  1.00  0.00    -0.376 OA
BRANCH  74  75
ATOM     75  C   UNL A   1      34.254  24.838  24.387  1.00  0.00     0.202 C 
BRANCH  75  76
ATOM     76  C   UNL A   1      32.750  24.996  24.635  1.00  0.00     0.261 C 
BRANCH  76  77
ATOM     77  O   UNL A   1      32.371  25.052  26.023  1.00  0.00    -0.458 OA
BRANCH  77  78
ATOM     78  C   UNL A   1      31.513  24.114  26.493  1.00  0.00     0.358 C 
ATOM     79  O   UNL A   1      30.321  24.244  26.703  1.00  0.00    -0.244 OA
BRANCH  78  80
ATOM     80  C   UNL A   1      32.271  22.844  26.549  1.00  0.00     0.169 A 
ATOM     81  C   UNL A   1      33.385  22.754  27.369  1.00  0.00     0.147 A 
ATOM     82  N   UNL A   1      31.943  21.880  25.634  1.00  0.00    -0.220 NA
ATOM     83  N   UNL A   1      34.218  21.689  27.334  1.00  0.00    -0.258 NA
ATOM     84  C   UNL A   1      32.794  20.836  25.546  1.00  0.00     0.149 A 
ATOM     85  C   UNL A   1      33.904  20.755  26.398  1.00  0.00     0.158 A 
BRANCH  84  86
ATOM     86  N   UNL A   1      32.569  19.900  24.531  1.00  0.00    -0.338 N 
ATOM     87  H   UNL A   1      32.165  20.245  23.702  1.00  0.00     0.168 HD
BRANCH  86  88
ATOM     88  C   UNL A   1      32.854  18.531  24.557  1.00  0.00     0.058 A 
ATOM     89  C   UNL A   1      33.546  17.922  23.509  1.00  0.00     0.029 A 
ATOM     90  C   UNL A   1      32.530  17.728  25.647  1.00  0.00     0.137 A 
ATOM     91  C   UNL A   1      33.825  16.559  23.554  1.00  0.00     0.022 A 
ATOM     92  N   UNL A   1      32.778  16.397  25.719  1.00  0.00    -0.263 NA
ATOM     93  C   UNL A   1      33.414  15.843  24.664  1.00  0.00     0.111 A 
ENDBRANCH  86  88
ENDBRANCH  84  86
ENDBRANCH  78  80
ENDBRANCH  77  78
ENDBRANCH  76  77
ENDBRANCH  75  76
ENDBRANCH  74  75
ENDBRANCH  73  74
ENDBRANCH  72  73
ENDBRANCH  71  72
ENDBRANCH   1  71
TORSDOF 25
ENDMDL
MODEL 2
REMARK VINA RESULT:      -8.8      2.813      9.243
REMARK SMILES O=C(OCCOCCOCCOCCOC(=O)c1cncc(Nc2cccnc2)n1)c1ccc(-c2c3nc(c(-c4ccc(S(=O)(=O)[O-])cc4)c4ccc([nH]4)c(-c4ccc(S(=O)(=O)[O-])cc4)c4nc(c(-c5ccc(S(=O)(=O)[O-])cc5)c5ccc2[nH]5)C=C4)C=C3)cc1
REMARK SMILES IDX 8 1 7 2 6 3 5 4 4 5 3 6 2 7 1 8 31 9 32 10 90 11 33 12 89 13
REMARK SMILES IDX 34 14 35 15 36 16 83 17 37 18 88 19 82 20 84 21 38 22 87 23
REMARK SMILES IDX 81 24 80 25 39 27 69 28 50 29 68 30 51 31 54 32 67 33 85 34
REMARK SMILES IDX 52 35 53 36 66 38 86 39 55 40 40 41 41 42 49 43 42 44 48 45
REMARK SMILES IDX 43 46 44 47 45 48 46 49 47 50 70 51 71 52 79 53 72 54 78 55
REMARK SMILES IDX 73 56 74 57 75 58 76 59 77 60 56 61 57 62 65 63 58 64 64 65
REMARK SMILES IDX 59 66 60 67 61 68 62 69 63 70 9 71 10 72 11 73 12 74 13 75
REMARK SMILES IDX 14 76 15 77 16 78 17 79 18 80 19 81 30 82 20 83 22 84 21 85
REMARK SMILES IDX 23 86 24 88 25 89 29 90 26 91 28 92 27 93
REMARK H PARENT 84 26 54 37 23 87
REMARK Flexibility Score: inf
ROOT
ATOM      1  C   UNL A   1      38.672  21.669  25.754  1.00  0.00     0.188 C 
ENDROOT
BRANCH   1   2
ATOM      2  C   UNL A   1      40.103  21.388  26.215  1.00  0.00     0.188 C 
BRANCH   2   3
ATOM      3  O   UNL A   1      40.379  19.986  26.146  1.00  0.00    -0.376 OA
BRANCH   3   4
ATOM      4  C   UNL A   1      41.442  19.531  26.981  1.00  0.00     0.202 C 
BRANCH   4   5
ATOM      5  C   UNL A   1      42.469  18.653  26.262  1.00  0.00     0.261 C 
BRANCH   5   6
ATOM      6  O   UNL A   1      42.932  19.263  25.050  1.00  0.00    -0.460 OA
BRANCH   6   7
ATOM      7  C   UNL A   1      44.004  20.082  24.896  1.00  0.00     0.338 C 
ATOM      8  O   UNL A   1      45.008  19.626  24.349  1.00  0.00    -0.246 OA
BRANCH   7   9
ATOM      9  C   UNL A   1      44.032  21.518  25.322  1.00  0.00     0.060 A 
ATOM     10  C   UNL A   1      43.707  22.614  24.520  1.00  0.00     0.016 A 
ATOM     11  C   UNL A   1      44.364  21.768  26.665  1.00  0.00     0.016 A 
ATOM     12  C   UNL A   1      43.808  23.918  24.989  1.00  0.00     0.010 A 
ATOM     13  C   UNL A   1      44.435  23.074  27.160  1.00  0.00     0.010 A 
ATOM     14  C   UNL A   1      44.196  24.154  26.304  1.00  0.00    -0.014 A 
BRANCH  14  15
ATOM     15  C   UNL A   1      44.524  25.538  26.690  1.00  0.00     0.031 A 
ATOM     16  C   UNL A   1      45.910  26.032  26.399  1.00  0.00     0.074 A 
ATOM     17  C   UNL A   1      43.564  26.358  27.154  1.00  0.00     0.049 A 
ATOM     18  N   UNL A   1      46.454  27.186  26.675  1.00  0.00    -0.248 NA
ATOM     19  C   UNL A   1      46.803  25.101  25.684  1.00  0.00     0.031 C 
ATOM     20  C   UNL A   1      42.156  25.995  27.332  1.00  0.00     0.029 A 
ATOM     21  N   UNL A   1      43.621  27.672  27.530  1.00  0.00    -0.354 N 
ATOM     22  C   UNL A   1      47.757  27.107  26.198  1.00  0.00     0.074 A 
ATOM     23  C   UNL A   1      47.926  25.796  25.616  1.00  0.00     0.031 C 
ATOM     24  C   UNL A   1      41.479  27.071  27.766  1.00  0.00     0.029 A 
ATOM     25  C   UNL A   1      42.415  28.175  27.957  1.00  0.00     0.049 A 
ATOM     26  H   UNL A   1      44.446  28.208  27.498  1.00  0.00     0.167 HD
ATOM     27  C   UNL A   1      48.726  28.047  26.257  1.00  0.00     0.031 A 
ATOM     28  C   UNL A   1      42.117  29.382  28.477  1.00  0.00     0.031 A 
ATOM     29  C   UNL A   1      48.530  29.336  26.858  1.00  0.00     0.049 A 
ATOM     30  C   UNL A   1      43.238  30.377  28.625  1.00  0.00     0.074 A 
ATOM     31  C   UNL A   1      49.446  30.350  27.056  1.00  0.00     0.029 A 
ATOM     32  N   UNL A   1      47.314  29.784  27.358  1.00  0.00    -0.354 N 
ATOM     33  N   UNL A   1      44.492  30.266  28.250  1.00  0.00    -0.248 NA
ATOM     34  C   UNL A   1      42.914  31.650  29.280  1.00  0.00     0.031 C 
ATOM     35  C   UNL A   1      48.793  31.396  27.717  1.00  0.00     0.029 A 
ATOM     36  C   UNL A   1      47.457  31.054  27.880  1.00  0.00     0.049 A 
ATOM     37  H   UNL A   1      46.473  29.272  27.343  1.00  0.00     0.167 HD
ATOM     38  C   UNL A   1      45.106  31.457  28.614  1.00  0.00     0.074 A 
ATOM     39  C   UNL A   1      44.078  32.283  29.218  1.00  0.00     0.031 C 
ATOM     40  C   UNL A   1      46.400  31.838  28.471  1.00  0.00     0.031 A 
BRANCH  27  41
ATOM     41  C   UNL A   1      50.085  27.662  25.736  1.00  0.00    -0.014 A 
ATOM     42  C   UNL A   1      50.420  27.800  24.377  1.00  0.00     0.010 A 
ATOM     43  C   UNL A   1      51.027  27.108  26.622  1.00  0.00     0.010 A 
ATOM     44  C   UNL A   1      51.654  27.343  23.904  1.00  0.00     0.020 A 
ATOM     45  C   UNL A   1      52.271  26.673  26.157  1.00  0.00     0.020 A 
ATOM     46  C   UNL A   1      52.569  26.774  24.797  1.00  0.00     0.054 A 
BRANCH  46  47
ATOM     47  S   UNL A   1      54.156  26.173  24.157  1.00  0.00     0.124 S 
ATOM     48  O   UNL A   1      55.103  27.079  24.802  1.00  0.00    -0.237 OA
ATOM     49  O   UNL A   1      54.190  24.791  24.629  1.00  0.00    -0.237 OA
ATOM     50  O   UNL A   1      54.030  26.330  22.710  1.00  0.00    -0.744 OA
ENDBRANCH  46  47
ENDBRANCH  27  41
BRANCH  28  51
ATOM     51  C   UNL A   1      40.736  29.682  28.948  1.00  0.00    -0.014 A 
ATOM     52  C   UNL A   1      40.463  29.917  30.307  1.00  0.00     0.010 A 
ATOM     53  C   UNL A   1      39.673  29.737  28.025  1.00  0.00     0.010 A 
ATOM     54  C   UNL A   1      39.157  30.188  30.734  1.00  0.00     0.020 A 
ATOM     55  C   UNL A   1      38.373  30.036  28.442  1.00  0.00     0.020 A 
ATOM     56  C   UNL A   1      38.120  30.246  29.798  1.00  0.00     0.054 A 
BRANCH  56  57
ATOM     57  S   UNL A   1      36.440  30.641  30.363  1.00  0.00     0.124 S 
ATOM     58  O   UNL A   1      36.219  29.628  31.389  1.00  0.00    -0.237 OA
ATOM     59  O   UNL A   1      36.583  32.012  30.847  1.00  0.00    -0.237 OA
ATOM     60  O   UNL A   1      35.631  30.498  29.156  1.00  0.00    -0.744 OA
ENDBRANCH  56  57
ENDBRANCH  28  51
BRANCH  40  61
ATOM     61  C   UNL A   1      46.761  33.213  28.952  1.00  0.00    -0.014 A 
ATOM     62  C   UNL A   1      46.641  34.331  28.109  1.00  0.00     0.010 A 
ATOM     63  C   UNL A   1      47.154  33.394  30.290  1.00  0.00     0.010 A 
ATOM     64  C   UNL A   1      46.930  35.608  28.591  1.00  0.00     0.020 A 
ATOM     65  C   UNL A   1      47.419  34.672  30.783  1.00  0.00     0.020 A 
ATOM     66  C   UNL A   1      47.316  35.770  29.926  1.00  0.00     0.054 A 
BRANCH  66  67
ATOM     67  S   UNL A   1      47.629  37.444  30.546  1.00  0.00     0.124 S 
ATOM     68  O   UNL A   1      46.409  38.145  30.153  1.00  0.00    -0.237 OA
ATOM     69  O   UNL A   1      47.796  37.231  31.981  1.00  0.00    -0.237 OA
ATOM     70  O   UNL A   1      48.840  37.854  29.838  1.00  0.00    -0.744 OA
ENDBRANCH  66  67
ENDBRANCH  40  61
ENDBRANCH  14  15
ENDBRANCH   7   9
ENDBRANCH   6   7
ENDBRANCH   5   6
ENDBRANCH   4   5
ENDBRANCH   3   4
ENDBRANCH   2   3
ENDBRANCH   1   2
BRANCH   1  71
ATOM     71  O   UNL A   1      38.268  23.032  25.866  1.00  0.00    -0.377 OA
BRANCH  71  72
ATOM     72  C   UNL A   1      37.107  23.411  25.135  1.00  0.00     0.188 C 
BRANCH  72  73
ATOM     73  C   UNL A   1      36.042  22.340  24.814  1.00  0.00     0.188 C 
BRANCH  73  74
ATOM     74  O   UNL A   1      34.795  22.525  25.472  1.00  0.00    -0.376 OA
BRANCH  74  75
ATOM     75  C   UNL A   1      34.605  23.806  26.068  1.00  0.00     0.202 C 
BRANCH  75  76
ATOM     76  C   UNL A   1      33.131  24.166  26.286  1.00  0.00     0.261 C 
BRANCH  76  77
ATOM     77  O   UNL A   1      32.755  25.476  25.820  1.00  0.00    -0.458 OA
BRANCH  77  78
ATOM     78  C   UNL A   1      31.436  25.753  25.680  1.00  0.00     0.358 C 
ATOM     79  O   UNL A   1      30.534  25.451  26.439  1.00  0.00    -0.244 OA
BRANCH  78  80
ATOM     80  C   UNL A   1      31.317  26.641  24.500  1.00  0.00     0.169 A 
ATOM     81  C   UNL A   1      32.466  27.051  23.842  1.00  0.00     0.147 A 
ATOM     82  N   UNL A   1      30.082  27.168  24.238  1.00  0.00    -0.220 NA
ATOM     83  N   UNL A   1      32.439  27.995  22.873  1.00  0.00    -0.258 NA
ATOM     84  C   UNL A   1      30.044  28.150  23.312  1.00  0.00     0.149 A 
ATOM     85  C   UNL A   1      31.215  28.538  22.645  1.00  0.00     0.158 A 
BRANCH  84  86
ATOM     86  N   UNL A   1      28.826  28.808  23.114  1.00  0.00    -0.338 N 
ATOM     87  H   UNL A   1      28.014  28.295  23.330  1.00  0.00     0.168 HD
BRANCH  86  88
ATOM     88  C   UNL A   1      28.629  30.111  22.646  1.00  0.00     0.058 A 
ATOM     89  C   UNL A   1      28.252  30.347  21.322  1.00  0.00     0.029 A 
ATOM     90  C   UNL A   1      28.726  31.221  23.480  1.00  0.00     0.137 A 
ATOM     91  C   UNL A   1      28.056  31.650  20.874  1.00  0.00     0.022 A 
ATOM     92  N   UNL A   1      28.551  32.502  23.073  1.00  0.00    -0.263 NA
ATOM     93  C   UNL A   1      28.227  32.686  21.775  1.00  0.00     0.111 A 
ENDBRANCH  86  88
ENDBRANCH  84  86
ENDBRANCH  78  80
ENDBRANCH  77  78
ENDBRANCH  76  77
ENDBRANCH  75  76
ENDBRANCH  74  75
ENDBRANCH  73  74
ENDBRANCH  72  73
ENDBRANCH  71  72
ENDBRANCH   1  71
TORSDOF 25
ENDMDL
MODEL 3
REMARK VINA RESULT:      -8.7      6.278      8.985
REMARK SMILES O=C(OCCOCCOCCOCCOC(=O)c1cncc(Nc2cccnc2)n1)c1ccc(-c2c3nc(c(-c4ccc(S(=O)(=O)[O-])cc4)c4ccc([nH]4)c(-c4ccc(S(=O)(=O)[O-])cc4)c4nc(c(-c5ccc(S(=O)(=O)[O-])cc5)c5ccc2[nH]5)C=C4)C=C3)cc1
REMARK SMILES IDX 8 1 7 2 6 3 5 4 4 5 3 6 2 7 1 8 31 9 32 10 90 11 33 12 89 13
REMARK SMILES IDX 34 14 35 15 36 16 83 17 37 18 88 19 82 20 84 21 38 22 87 23
REMARK SMILES IDX 81 24 80 25 39 27 69 28 50 29 68 30 51 31 54 32 67 33 85 34
REMARK SMILES IDX 52 35 53 36 66 38 86 39 55 40 40 41 41 42 49 43 42 44 48 45
REMARK SMILES IDX 43 46 44 47 45 48 46 49 47 50 70 51 71 52 79 53 72 54 78 55
REMARK SMILES IDX 73 56 74 57 75 58 76 59 77 60 56 61 57 62 65 63 58 64 64 65
REMARK SMILES IDX 59 66 60 67 61 68 62 69 63 70 9 71 10 72 11 73 12 74 13 75
REMARK SMILES IDX 14 76 15 77 16 78 17 79 18 80 19 81 30 82 20 83 22 84 21 85
REMARK SMILES IDX 23 86 24 88 25 89 29 90 26 91 28 92 27 93
REMARK H PARENT 84 26 54 37 23 87
REMARK Flexibility Score: inf
ROOT
ATOM      1  C   UNL A   1      40.793  19.935  26.913  1.00  0.00     0.188 C 
ENDROOT
BRANCH   1   2
ATOM      2  C   UNL A   1      42.199  19.909  26.313  1.00  0.00     0.188 C 
BRANCH   2   3
ATOM      3  O   UNL A   1      42.396  21.044  25.466  1.00  0.00    -0.376 OA
BRANCH   3   4
ATOM      4  C   UNL A   1      43.489  21.890  25.823  1.00  0.00     0.202 C 
BRANCH   4   5
ATOM      5  C   UNL A   1      43.434  23.282  25.188  1.00  0.00     0.261 C 
BRANCH   5   6
ATOM      6  O   UNL A   1      42.615  24.179  25.950  1.00  0.00    -0.460 OA
BRANCH   6   7
ATOM      7  C   UNL A   1      42.518  25.526  25.812  1.00  0.00     0.338 C 
ATOM      8  O   UNL A   1      42.700  26.008  24.695  1.00  0.00    -0.246 OA
BRANCH   7   9
ATOM      9  C   UNL A   1      42.174  26.462  26.930  1.00  0.00     0.060 A 
ATOM     10  C   UNL A   1      42.662  27.761  27.086  1.00  0.00     0.016 A 
ATOM     11  C   UNL A   1      41.234  26.001  27.869  1.00  0.00     0.016 A 
ATOM     12  C   UNL A   1      42.324  28.542  28.184  1.00  0.00     0.010 A 
ATOM     13  C   UNL A   1      40.857  26.791  28.959  1.00  0.00     0.010 A 
ATOM     14  C   UNL A   1      41.438  28.051  29.138  1.00  0.00    -0.014 A 
BRANCH  14  15
ATOM     15  C   UNL A   1      41.292  28.801  30.398  1.00  0.00     0.031 A 
ATOM     16  C   UNL A   1      40.152  29.771  30.502  1.00  0.00     0.074 A 
ATOM     17  C   UNL A   1      42.073  28.513  31.454  1.00  0.00     0.049 A 
ATOM     18  N   UNL A   1      39.834  30.574  31.480  1.00  0.00    -0.248 NA
ATOM     19  C   UNL A   1      39.234  29.832  29.349  1.00  0.00     0.031 C 
ATOM     20  C   UNL A   1      43.113  27.481  31.479  1.00  0.00     0.029 A 
ATOM     21  N   UNL A   1      42.092  29.038  32.718  1.00  0.00    -0.354 N 
ATOM     22  C   UNL A   1      38.702  31.257  31.048  1.00  0.00     0.074 A 
ATOM     23  C   UNL A   1      38.387  30.777  29.722  1.00  0.00     0.031 C 
ATOM     24  C   UNL A   1      43.656  27.438  32.707  1.00  0.00     0.029 A 
ATOM     25  C   UNL A   1      43.049  28.478  33.531  1.00  0.00     0.049 A 
ATOM     26  H   UNL A   1      41.479  29.748  33.016  1.00  0.00     0.167 HD
ATOM     27  C   UNL A   1      38.001  32.209  31.702  1.00  0.00     0.031 A 
ATOM     28  C   UNL A   1      43.410  28.802  34.788  1.00  0.00     0.031 A 
ATOM     29  C   UNL A   1      38.351  32.676  33.014  1.00  0.00     0.049 A 
ATOM     30  C   UNL A   1      42.678  29.935  35.458  1.00  0.00     0.074 A 
ATOM     31  C   UNL A   1      37.777  33.688  33.756  1.00  0.00     0.029 A 
ATOM     32  N   UNL A   1      39.381  32.144  33.779  1.00  0.00    -0.354 N 
ATOM     33  N   UNL A   1      41.662  30.637  35.010  1.00  0.00    -0.248 NA
ATOM     34  C   UNL A   1      43.150  30.335  36.789  1.00  0.00     0.031 C 
ATOM     35  C   UNL A   1      38.490  33.798  34.955  1.00  0.00     0.029 A 
ATOM     36  C   UNL A   1      39.471  32.816  34.982  1.00  0.00     0.049 A 
ATOM     37  H   UNL A   1      39.961  31.397  33.506  1.00  0.00     0.167 HD
ATOM     38  C   UNL A   1      41.364  31.556  36.009  1.00  0.00     0.074 A 
ATOM     39  C   UNL A   1      42.295  31.303  37.093  1.00  0.00     0.031 C 
ATOM     40  C   UNL A   1      40.416  32.526  36.032  1.00  0.00     0.031 A 
BRANCH  27  41
ATOM     41  C   UNL A   1      36.860  32.849  30.958  1.00  0.00    -0.014 A 
ATOM     42  C   UNL A   1      37.070  33.900  30.047  1.00  0.00     0.010 A 
ATOM     43  C   UNL A   1      35.545  32.418  31.215  1.00  0.00     0.010 A 
ATOM     44  C   UNL A   1      35.983  34.540  29.444  1.00  0.00     0.020 A 
ATOM     45  C   UNL A   1      34.458  33.039  30.596  1.00  0.00     0.020 A 
ATOM     46  C   UNL A   1      34.683  34.111  29.730  1.00  0.00     0.054 A 
BRANCH  46  47
ATOM     47  S   UNL A   1      33.288  34.970  28.950  1.00  0.00     0.124 S 
ATOM     48  O   UNL A   1      32.756  33.936  28.065  1.00  0.00    -0.237 OA
ATOM     49  O   UNL A   1      32.443  35.313  30.093  1.00  0.00    -0.237 OA
ATOM     50  O   UNL A   1      33.911  36.106  28.277  1.00  0.00    -0.744 OA
ENDBRANCH  46  47
ENDBRANCH  27  41
BRANCH  28  51
ATOM     51  C   UNL A   1      44.541  28.098  35.454  1.00  0.00    -0.014 A 
ATOM     52  C   UNL A   1      44.327  26.951  36.239  1.00  0.00     0.010 A 
ATOM     53  C   UNL A   1      45.857  28.577  35.301  1.00  0.00     0.010 A 
ATOM     54  C   UNL A   1      45.401  26.308  36.866  1.00  0.00     0.020 A 
ATOM     55  C   UNL A   1      46.936  27.921  35.901  1.00  0.00     0.020 A 
ATOM     56  C   UNL A   1      46.699  26.797  36.693  1.00  0.00     0.054 A 
BRANCH  56  57
ATOM     57  S   UNL A   1      48.085  25.925  37.478  1.00  0.00     0.124 S 
ATOM     58  O   UNL A   1      47.487  25.470  38.729  1.00  0.00    -0.237 OA
ATOM     59  O   UNL A   1      48.392  24.878  36.506  1.00  0.00    -0.237 OA
ATOM     60  O   UNL A   1      49.108  26.959  37.612  1.00  0.00    -0.744 OA
ENDBRANCH  56  57
ENDBRANCH  28  51
BRANCH  40  61
ATOM     61  C   UNL A   1      40.326  33.359  37.277  1.00  0.00    -0.014 A 
ATOM     62  C   UNL A   1      41.130  34.499  37.445  1.00  0.00     0.010 A 
ATOM     63  C   UNL A   1      39.370  33.035  38.256  1.00  0.00     0.010 A 
ATOM     64  C   UNL A   1      40.995  35.292  38.585  1.00  0.00     0.020 A 
ATOM     65  C   UNL A   1      39.214  33.839  39.385  1.00  0.00     0.020 A 
ATOM     66  C   UNL A   1      40.036  34.957  39.548  1.00  0.00     0.054 A 
BRANCH  66  67
ATOM     67  S   UNL A   1      39.836  36.034  40.992  1.00  0.00     0.124 S 
ATOM     68  O   UNL A   1      38.494  36.571  40.786  1.00  0.00    -0.237 OA
ATOM     69  O   UNL A   1      39.978  35.105  42.110  1.00  0.00    -0.237 OA
ATOM     70  O   UNL A   1      40.923  37.002  40.853  1.00  0.00    -0.744 OA
ENDBRANCH  66  67
ENDBRANCH  40  61
ENDBRANCH  14  15
ENDBRANCH   7   9
ENDBRANCH   6   7
ENDBRANCH   5   6
ENDBRANCH   4   5
ENDBRANCH   3   4
ENDBRANCH   2   3
ENDBRANCH   1   2
BRANCH   1  71
ATOM     71  O   UNL A   1      39.828  20.643  26.137  1.00  0.00    -0.377 OA
BRANCH  71  72
ATOM     72  C   UNL A   1      39.023  19.862  25.261  1.00  0.00     0.188 C 
BRANCH  72  73
ATOM     73  C   UNL A   1      37.632  20.391  24.853  1.00  0.00     0.188 C 
BRANCH  73  74
ATOM     74  O   UNL A   1      37.084  21.366  25.732  1.00  0.00    -0.376 OA
BRANCH  74  75
ATOM     75  C   UNL A   1      35.675  21.557  25.627  1.00  0.00     0.202 C 
BRANCH  75  76
ATOM     76  C   UNL A   1      35.257  22.356  24.387  1.00  0.00     0.261 C 
BRANCH  76  77
ATOM     77  O   UNL A   1      33.901  22.132  23.955  1.00  0.00    -0.458 OA
BRANCH  77  78
ATOM     78  C   UNL A   1      32.918  22.875  24.516  1.00  0.00     0.358 C 
ATOM     79  O   UNL A   1      32.446  22.754  25.631  1.00  0.00    -0.244 OA
BRANCH  78  80
ATOM     80  C   UNL A   1      32.633  23.977  23.568  1.00  0.00     0.169 A 
ATOM     81  C   UNL A   1      33.222  23.962  22.314  1.00  0.00     0.147 A 
ATOM     82  N   UNL A   1      31.950  25.058  24.055  1.00  0.00    -0.220 NA
ATOM     83  N   UNL A   1      33.144  25.017  21.472  1.00  0.00    -0.258 NA
ATOM     84  C   UNL A   1      31.908  26.141  23.250  1.00  0.00     0.149 A 
ATOM     85  C   UNL A   1      32.496  26.099  21.978  1.00  0.00     0.158 A 
BRANCH  84  86
ATOM     86  N   UNL A   1      31.339  27.310  23.765  1.00  0.00    -0.338 N 
ATOM     87  H   UNL A   1      30.575  27.679  23.266  1.00  0.00     0.168 HD
BRANCH  86  88
ATOM     88  C   UNL A   1      31.732  28.016  24.906  1.00  0.00     0.058 A 
ATOM     89  C   UNL A   1      31.319  27.610  26.177  1.00  0.00     0.029 A 
ATOM     90  C   UNL A   1      32.601  29.101  24.844  1.00  0.00     0.137 A 
ATOM     91  C   UNL A   1      31.723  28.322  27.303  1.00  0.00     0.022 A 
ATOM     92  N   UNL A   1      33.006  29.821  25.920  1.00  0.00    -0.263 NA
ATOM     93  C   UNL A   1      32.549  29.417  27.125  1.00  0.00     0.111 A 
ENDBRANCH  86  88
ENDBRANCH  84  86
ENDBRANCH  78  80
ENDBRANCH  77  78
ENDBRANCH  76  77
ENDBRANCH  75  76
ENDBRANCH  74  75
ENDBRANCH  73  74
ENDBRANCH  72  73
ENDBRANCH  71  72
ENDBRANCH   1  71
TORSDOF 25
ENDMDL
