MODEL 1
REMARK VINA RESULT:      -9.6      0.000      0.000
REMARK SMILES Cc1ccccc1/C=C1\SC(=O)N(CC(=O)Nc2ccccc2C(=O)OCCOCCOCCOCCOC(=O)c2ccc(-c3c4nc(c(-c5ccc(S(=O)(=O)[O-])cc5)c5ccc([nH]5)c(-c5ccc(S(=O)(=O)[O-])cc5)c5nc(c(-c6ccc(S(=O)(=O)[O-])cc6)c6ccc3[nH]6)C=C5)C=C4)cc2)C1=O
REMARK SMILES IDX 31 1 30 2 29 3 28 4 27 5 26 6 24 7 25 8 23 9 18 10 19 11
REMARK SMILES IDX 20 12 22 13 21 14 17 15 15 16 16 17 14 19 13 20 8 21 9 22
REMARK SMILES IDX 10 23 101 24 11 25 102 26 12 27 7 28 1 29 2 30 3 31 4 32
REMARK SMILES IDX 6 33 5 34 32 35 33 36 34 37 35 38 36 39 37 40 38 41 39 42
REMARK SMILES IDX 40 43 41 44 42 45 100 46 43 47 99 48 44 49 45 50 46 51 93 52
REMARK SMILES IDX 47 53 98 54 92 55 94 56 48 57 97 58 91 59 90 60 49 62 79 63
REMARK SMILES IDX 60 64 78 65 61 66 64 67 77 68 95 69 62 70 63 71 76 73 96 74
REMARK SMILES IDX 65 75 50 76 51 77 59 78 52 79 58 80 53 81 54 82 55 83 56 84
REMARK SMILES IDX 57 85 80 86 81 87 89 88 82 89 88 90 83 91 84 92 85 93 86 94
REMARK SMILES IDX 87 95 66 96 67 97 75 98 68 99 74 100 69 101 70 102 71 103
REMARK SMILES IDX 72 104 73 105
REMARK H PARENT 17 18 94 61 64 72
REMARK Flexibility Score: inf
ROOT
ATOM      1  C   UNL A   1      36.065  31.713  31.104  1.00  0.00     0.188 C 
ENDROOT
BRANCH   1   2
ATOM      2  C   UNL A   1      36.733  30.271  30.417  1.00  0.00     0.188 C 
BRANCH   2   3
ATOM      3  O   UNL A   1      36.347  29.107  28.959  1.00  0.00    -0.376 OA
BRANCH   3   4
ATOM      4  C   UNL A   1      35.288  29.451  27.443  1.00  0.00     0.202 C 
BRANCH   4   5
ATOM      5  C   UNL A   1      33.636  28.659  26.721  1.00  0.00     0.261 C 
BRANCH   5   6
ATOM      6  O   UNL A   1      32.741  27.129  26.138  1.00  0.00    -0.460 OA
BRANCH   6   7
ATOM      7  C   UNL A   1      32.204  25.669  25.976  1.00  0.00     0.340 C 
ATOM      8  O   UNL A   1      31.589  25.131  26.911  1.00  0.00    -0.246 OA
BRANCH   7   9
ATOM      9  C   UNL A   1      32.364  24.511  24.774  1.00  0.00     0.083 A 
ATOM     10  C   UNL A   1      33.465  23.784  24.101  1.00  0.00     0.055 A 
ATOM     11  C   UNL A   1      33.158  22.745  23.171  1.00  0.00     0.027 A 
ATOM     12  C   UNL A   1      31.854  22.439  22.813  1.00  0.00     0.002 A 
ATOM     13  C   UNL A   1      31.089  24.245  24.235  1.00  0.00     0.018 A 
ATOM     14  C   UNL A   1      30.826  23.213  23.318  1.00  0.00     0.001 A 
BRANCH  10  15
ATOM     15  N   UNL A   1      34.910  23.980  24.236  1.00  0.00    -0.324 N 
ATOM     16  C   UNL A   1      35.889  22.992  23.883  1.00  0.00     0.244 C 
ATOM     17  O   UNL A   1      36.421  22.952  22.773  1.00  0.00    -0.273 OA
ATOM     18  H   UNL A   1      35.229  24.841  24.590  1.00  0.00     0.170 HD
BRANCH  16  19
ATOM     19  C   UNL A   1      36.273  21.951  24.967  1.00  0.00     0.230 C 
BRANCH  19  20
ATOM     20  N   UNL A   1      37.632  22.250  25.266  1.00  0.00    -0.259 N 
ATOM     21  C   UNL A   1      41.108  24.151  27.062  1.00  0.00     0.029 C 
ATOM     22  C   UNL A   1      39.751  23.251  26.741  1.00  0.00     0.083 C 
ATOM     23  S   UNL A   1      39.658  21.571  26.101  1.00  0.00    -0.022 SA
ATOM     24  C   UNL A   1      38.049  23.335  26.098  1.00  0.00     0.268 C 
ATOM     25  C   UNL A   1      38.324  21.131  25.290  1.00  0.00     0.294 C 
ATOM     26  O   UNL A   1      37.140  24.129  26.311  1.00  0.00    -0.268 OA
ATOM     27  O   UNL A   1      38.024  19.988  25.001  1.00  0.00    -0.261 OA
BRANCH  21  28
ATOM     28  C   UNL A   1      42.894  24.649  27.387  1.00  0.00    -0.021 A 
ATOM     29  C   UNL A   1      44.862  24.267  25.487  1.00  0.00     0.045 C 
ATOM     30  C   UNL A   1      44.241  24.223  26.884  1.00  0.00    -0.044 A 
ATOM     31  C   UNL A   1      45.366  23.969  27.750  1.00  0.00     0.004 A 
ATOM     32  C   UNL A   1      45.411  24.475  29.008  1.00  0.00     0.000 A 
ATOM     33  C   UNL A   1      43.181  25.430  28.518  1.00  0.00     0.008 A 
ATOM     34  C   UNL A   1      44.391  25.345  29.300  1.00  0.00     0.001 A 
ENDBRANCH  21  28
ENDBRANCH  19  20
ENDBRANCH  16  19
ENDBRANCH  10  15
ENDBRANCH   7   9
ENDBRANCH   6   7
ENDBRANCH   5   6
ENDBRANCH   4   5
ENDBRANCH   3   4
ENDBRANCH   2   3
ENDBRANCH   1   2
BRANCH   1  35
ATOM     35  O   UNL A   1      35.864  32.313  32.392  1.00  0.00    -0.377 OA
BRANCH  35  36
ATOM     36  C   UNL A   1      34.858  33.267  32.751  1.00  0.00     0.188 C 
BRANCH  36  37
ATOM     37  C   UNL A   1      35.277  34.679  32.564  1.00  0.00     0.188 C 
BRANCH  37  38
ATOM     38  O   UNL A   1      36.106  34.950  33.676  1.00  0.00    -0.376 OA
BRANCH  38  39
ATOM     39  C   UNL A   1      37.449  34.581  33.551  1.00  0.00     0.202 C 
BRANCH  39  40
ATOM     40  C   UNL A   1      37.945  34.372  34.955  1.00  0.00     0.261 C 
BRANCH  40  41
ATOM     41  O   UNL A   1      38.994  35.354  35.250  1.00  0.00    -0.460 OA
BRANCH  41  42
ATOM     42  C   UNL A   1      40.205  34.925  35.769  1.00  0.00     0.338 C 
ATOM     43  O   UNL A   1      40.276  34.098  36.663  1.00  0.00    -0.246 OA
BRANCH  42  44
ATOM     44  C   UNL A   1      41.406  35.495  35.061  1.00  0.00     0.060 A 
ATOM     45  C   UNL A   1      41.625  35.489  33.666  1.00  0.00     0.016 A 
ATOM     46  C   UNL A   1      42.468  35.881  35.798  1.00  0.00     0.016 A 
ATOM     47  C   UNL A   1      42.941  35.247  33.067  1.00  0.00     0.010 A 
ATOM     48  C   UNL A   1      43.691  35.797  35.146  1.00  0.00     0.010 A 
ATOM     49  C   UNL A   1      44.040  35.050  33.875  1.00  0.00    -0.014 A 
BRANCH  49  50
ATOM     50  C   UNL A   1      45.691  34.112  33.552  1.00  0.00     0.031 A 
ATOM     51  C   UNL A   1      46.773  34.645  31.877  1.00  0.00     0.074 A 
ATOM     52  C   UNL A   1      45.752  33.008  34.610  1.00  0.00     0.049 A 
ATOM     53  N   UNL A   1      46.850  34.079  30.579  1.00  0.00    -0.248 NA
ATOM     54  C   UNL A   1      47.073  36.128  31.035  1.00  0.00     0.031 C 
ATOM     55  C   UNL A   1      46.895  32.306  35.342  1.00  0.00     0.029 A 
ATOM     56  N   UNL A   1      44.786  31.909  34.857  1.00  0.00    -0.354 N 
ATOM     57  C   UNL A   1      47.696  34.561  29.496  1.00  0.00     0.074 A 
ATOM     58  C   UNL A   1      47.531  35.952  29.777  1.00  0.00     0.031 C 
ATOM     59  C   UNL A   1      46.778  30.960  35.387  1.00  0.00     0.029 A 
ATOM     60  C   UNL A   1      45.521  30.578  34.851  1.00  0.00     0.049 A 
ATOM     61  H   UNL A   1      43.819  32.024  35.001  1.00  0.00     0.167 HD
ATOM     62  C   UNL A   1      48.598  33.845  28.585  1.00  0.00     0.031 A 
ATOM     63  C   UNL A   1      45.172  29.365  34.245  1.00  0.00     0.031 A 
ATOM     64  C   UNL A   1      49.077  32.289  28.835  1.00  0.00     0.049 A 
ATOM     65  C   UNL A   1      45.961  28.571  32.889  1.00  0.00     0.074 A 
ATOM     66  C   UNL A   1      50.253  31.726  29.384  1.00  0.00     0.029 A 
ATOM     67  N   UNL A   1      48.393  31.075  28.557  1.00  0.00    -0.354 N 
ATOM     68  N   UNL A   1      46.719  29.116  31.941  1.00  0.00    -0.248 NA
ATOM     69  C   UNL A   1      45.879  27.140  32.527  1.00  0.00     0.031 C 
ATOM     70  C   UNL A   1      50.018  30.393  29.850  1.00  0.00     0.029 A 
ATOM     71  C   UNL A   1      48.712  30.030  29.549  1.00  0.00     0.049 A 
ATOM     72  H   UNL A   1      47.781  30.947  27.797  1.00  0.00     0.167 HD
ATOM     73  C   UNL A   1      47.224  28.301  30.923  1.00  0.00     0.074 A 
ATOM     74  C   UNL A   1      46.642  27.031  31.397  1.00  0.00     0.031 C 
ATOM     75  C   UNL A   1      47.954  28.689  29.744  1.00  0.00     0.031 A 
BRANCH  62  76
ATOM     76  C   UNL A   1      49.655  34.635  27.694  1.00  0.00    -0.014 A 
ATOM     77  C   UNL A   1      50.868  35.047  28.310  1.00  0.00     0.010 A 
ATOM     78  C   UNL A   1      49.518  35.071  26.364  1.00  0.00     0.010 A 
ATOM     79  C   UNL A   1      51.788  35.935  27.743  1.00  0.00     0.020 A 
ATOM     80  C   UNL A   1      50.465  35.939  25.749  1.00  0.00     0.020 A 
ATOM     81  C   UNL A   1      51.581  36.388  26.457  1.00  0.00     0.054 A 
BRANCH  81  82
ATOM     82  S   UNL A   1      52.837  37.480  25.738  1.00  0.00     0.124 S 
ATOM     83  O   UNL A   1      52.412  38.801  26.193  1.00  0.00    -0.237 OA
ATOM     84  O   UNL A   1      54.073  36.981  26.337  1.00  0.00    -0.237 OA
ATOM     85  O   UNL A   1      52.712  37.251  24.300  1.00  0.00    -0.744 OA
ENDBRANCH  81  82
ENDBRANCH  62  76
BRANCH  63  86
ATOM     86  C   UNL A   1      43.767  29.126  34.842  1.00  0.00    -0.014 A 
ATOM     87  C   UNL A   1      42.907  28.334  34.007  1.00  0.00     0.010 A 
ATOM     88  C   UNL A   1      43.705  28.843  36.218  1.00  0.00     0.010 A 
ATOM     89  C   UNL A   1      42.349  27.120  34.474  1.00  0.00     0.020 A 
ATOM     90  C   UNL A   1      43.123  27.647  36.698  1.00  0.00     0.020 A 
ATOM     91  C   UNL A   1      42.514  26.757  35.810  1.00  0.00     0.054 A 
BRANCH  91  92
ATOM     92  S   UNL A   1      42.254  25.010  36.285  1.00  0.00     0.124 S 
ATOM     93  O   UNL A   1      42.325  24.310  35.010  1.00  0.00    -0.237 OA
ATOM     94  O   UNL A   1      43.364  24.776  37.210  1.00  0.00    -0.237 OA
ATOM     95  O   UNL A   1      40.935  25.031  36.900  1.00  0.00    -0.744 OA
ENDBRANCH  91  92
ENDBRANCH  63  86
BRANCH  75  96
ATOM     96  C   UNL A   1      47.949  27.875  28.408  1.00  0.00    -0.014 A 
ATOM     97  C   UNL A   1      46.849  27.758  27.553  1.00  0.00     0.010 A 
ATOM     98  C   UNL A   1      49.197  27.463  27.842  1.00  0.00     0.010 A 
ATOM     99  C   UNL A   1      46.989  27.336  26.217  1.00  0.00     0.020 A 
ATOM    100  C   UNL A   1      49.365  27.108  26.500  1.00  0.00     0.020 A 
ATOM    101  C   UNL A   1      48.246  27.029  25.695  1.00  0.00     0.054 A 
BRANCH 101 102
ATOM    102  S   UNL A   1      48.380  26.472  23.982  1.00  0.00     0.124 S 
ATOM    103  O   UNL A   1      47.639  25.214  24.026  1.00  0.00    -0.237 OA
ATOM    104  O   UNL A   1      47.736  27.555  23.245  1.00  0.00    -0.237 OA
ATOM    105  O   UNL A   1      49.818  26.342  23.763  1.00  0.00    -0.744 OA
ENDBRANCH 101 102
ENDBRANCH  75  96
ENDBRANCH  49  50
ENDBRANCH  42  44
ENDBRANCH  41  42
ENDBRANCH  40  41
ENDBRANCH  39  40
ENDBRANCH  38  39
ENDBRANCH  37  38
ENDBRANCH  36  37
ENDBRANCH  35  36
ENDBRANCH   1  35
TORSDOF 27
ENDMDL
MODEL 2
REMARK VINA RESULT:      -9.4      5.783     12.842
REMARK SMILES Cc1ccccc1/C=C1\SC(=O)N(CC(=O)Nc2ccccc2C(=O)OCCOCCOCCOCCOC(=O)c2ccc(-c3c4nc(c(-c5ccc(S(=O)(=O)[O-])cc5)c5ccc([nH]5)c(-c5ccc(S(=O)(=O)[O-])cc5)c5nc(c(-c6ccc(S(=O)(=O)[O-])cc6)c6ccc3[nH]6)C=C5)C=C4)cc2)C1=O
REMARK SMILES IDX 31 1 30 2 29 3 28 4 27 5 26 6 24 7 25 8 23 9 18 10 19 11
REMARK SMILES IDX 20 12 22 13 21 14 17 15 15 16 16 17 14 19 13 20 8 21 9 22
REMARK SMILES IDX 10 23 101 24 11 25 102 26 12 27 7 28 1 29 2 30 3 31 4 32
REMARK SMILES IDX 6 33 5 34 32 35 33 36 34 37 35 38 36 39 37 40 38 41 39 42
REMARK SMILES IDX 40 43 41 44 42 45 100 46 43 47 99 48 44 49 45 50 46 51 93 52
REMARK SMILES IDX 47 53 98 54 92 55 94 56 48 57 97 58 91 59 90 60 49 62 79 63
REMARK SMILES IDX 60 64 78 65 61 66 64 67 77 68 95 69 62 70 63 71 76 73 96 74
REMARK SMILES IDX 65 75 50 76 51 77 59 78 52 79 58 80 53 81 54 82 55 83 56 84
REMARK SMILES IDX 57 85 80 86 81 87 89 88 82 89 88 90 83 91 84 92 85 93 86 94
REMARK SMILES IDX 87 95 66 96 67 97 75 98 68 99 74 100 69 101 70 102 71 103
REMARK SMILES IDX 72 104 73 105
REMARK H PARENT 17 18 94 61 64 72
REMARK Flexibility Score: inf
ROOT
ATOM      1  C   UNL A   1      39.438  27.503  29.464  1.00  0.00     0.188 C 
ENDROOT
BRANCH   1   2
ATOM      2  C   UNL A   1      39.647  29.049  30.213  1.00  0.00     0.188 C 
BRANCH   2   3
ATOM      3  O   UNL A   1      40.264  29.721  31.887  1.00  0.00    -0.376 OA
BRANCH   3   4
ATOM      4  C   UNL A   1      40.324  28.837  33.546  1.00  0.00     0.202 C 
BRANCH   4   5
ATOM      5  C   UNL A   1      41.613  28.808  35.034  1.00  0.00     0.261 C 
BRANCH   5   6
ATOM      6  O   UNL A   1      43.195  28.115  35.741  1.00  0.00    -0.460 OA
BRANCH   6   7
ATOM      7  C   UNL A   1      44.545  27.353  35.945  1.00  0.00     0.340 C 
ATOM      8  O   UNL A   1      45.589  27.803  35.443  1.00  0.00    -0.246 OA
BRANCH   7   9
ATOM      9  C   UNL A   1      44.943  25.887  36.653  1.00  0.00     0.083 A 
ATOM     10  C   UNL A   1      45.551  24.603  36.233  1.00  0.00     0.055 A 
ATOM     11  C   UNL A   1      45.838  23.605  37.213  1.00  0.00     0.027 A 
ATOM     12  C   UNL A   1      45.496  23.764  38.548  1.00  0.00     0.002 A 
ATOM     13  C   UNL A   1      44.488  25.895  37.988  1.00  0.00     0.018 A 
ATOM     14  C   UNL A   1      44.790  24.891  38.924  1.00  0.00     0.001 A 
BRANCH  10  15
ATOM     15  N   UNL A   1      45.918  24.160  34.887  1.00  0.00    -0.324 N 
ATOM     16  C   UNL A   1      47.024  24.689  34.142  1.00  0.00     0.244 C 
ATOM     17  O   UNL A   1      48.144  24.177  34.163  1.00  0.00    -0.273 OA
ATOM     18  H   UNL A   1      45.373  23.456  34.467  1.00  0.00     0.170 HD
BRANCH  16  19
ATOM     19  C   UNL A   1      46.765  25.956  33.285  1.00  0.00     0.230 C 
BRANCH  19  20
ATOM     20  N   UNL A   1      46.704  25.463  31.952  1.00  0.00    -0.259 N 
ATOM     21  C   UNL A   1      45.068  23.994  28.199  1.00  0.00     0.029 C 
ATOM     22  C   UNL A   1      45.554  24.910  29.494  1.00  0.00     0.083 C 
ATOM     23  S   UNL A   1      47.115  25.779  29.716  1.00  0.00    -0.022 SA
ATOM     24  C   UNL A   1      45.501  25.033  31.311  1.00  0.00     0.268 C 
ATOM     25  C   UNL A   1      47.628  26.059  31.229  1.00  0.00     0.294 C 
ATOM     26  O   UNL A   1      44.581  24.888  32.106  1.00  0.00    -0.268 OA
ATOM     27  O   UNL A   1      48.529  26.817  31.535  1.00  0.00    -0.261 OA
BRANCH  21  28
ATOM     28  C   UNL A   1      44.963  23.229  26.482  1.00  0.00    -0.021 A 
ATOM     29  C   UNL A   1      43.136  21.240  25.901  1.00  0.00     0.045 C 
ATOM     30  C   UNL A   1      44.506  21.920  25.910  1.00  0.00    -0.044 A 
ATOM     31  C   UNL A   1      45.264  21.173  24.935  1.00  0.00     0.004 A 
ATOM     32  C   UNL A   1      46.218  21.773  24.179  1.00  0.00     0.000 A 
ATOM     33  C   UNL A   1      45.667  23.837  25.429  1.00  0.00     0.008 A 
ATOM     34  C   UNL A   1      46.272  23.136  24.322  1.00  0.00     0.001 A 
ENDBRANCH  21  28
ENDBRANCH  19  20
ENDBRANCH  16  19
ENDBRANCH  10  15
ENDBRANCH   7   9
ENDBRANCH   6   7
ENDBRANCH   5   6
ENDBRANCH   4   5
ENDBRANCH   3   4
ENDBRANCH   2   3
ENDBRANCH   1   2
BRANCH   1  35
ATOM     35  O   UNL A   1      40.160  26.598  28.616  1.00  0.00    -0.377 OA
BRANCH  35  36
ATOM     36  C   UNL A   1      40.978  26.941  27.490  1.00  0.00     0.188 C 
BRANCH  36  37
ATOM     37  C   UNL A   1      42.178  26.080  27.337  1.00  0.00     0.188 C 
BRANCH  37  38
ATOM     38  O   UNL A   1      42.288  25.876  25.944  1.00  0.00    -0.376 OA
BRANCH  38  39
ATOM     39  C   UNL A   1      43.133  26.753  25.255  1.00  0.00     0.202 C 
BRANCH  39  40
ATOM     40  C   UNL A   1      44.292  27.010  26.179  1.00  0.00     0.261 C 
BRANCH  40  41
ATOM     41  O   UNL A   1      44.636  28.435  26.141  1.00  0.00    -0.460 OA
BRANCH  41  42
ATOM     42  C   UNL A   1      43.915  29.333  26.913  1.00  0.00     0.338 C 
ATOM     43  O   UNL A   1      42.973  29.967  26.468  1.00  0.00    -0.246 OA
BRANCH  42  44
ATOM     44  C   UNL A   1      44.339  29.368  28.358  1.00  0.00     0.060 A 
ATOM     45  C   UNL A   1      43.623  28.821  29.444  1.00  0.00     0.016 A 
ATOM     46  C   UNL A   1      45.387  30.144  28.705  1.00  0.00     0.016 A 
ATOM     47  C   UNL A   1      43.525  29.482  30.749  1.00  0.00     0.010 A 
ATOM     48  C   UNL A   1      45.349  30.625  30.007  1.00  0.00     0.010 A 
ATOM     49  C   UNL A   1      44.178  30.675  30.967  1.00  0.00    -0.014 A 
BRANCH  49  50
ATOM     50  C   UNL A   1      43.810  32.108  32.200  1.00  0.00     0.031 A 
ATOM     51  C   UNL A   1      44.478  31.886  34.140  1.00  0.00     0.074 A 
ATOM     52  C   UNL A   1      42.916  33.088  31.438  1.00  0.00     0.049 A 
ATOM     53  N   UNL A   1      43.826  31.453  35.323  1.00  0.00    -0.248 NA
ATOM     54  C   UNL A   1      45.871  31.173  34.881  1.00  0.00     0.031 C 
ATOM     55  C   UNL A   1      42.719  34.603  31.492  1.00  0.00     0.029 A 
ATOM     56  N   UNL A   1      41.594  32.839  30.810  1.00  0.00    -0.354 N 
ATOM     57  C   UNL A   1      44.436  31.376  36.644  1.00  0.00     0.074 A 
ATOM     58  C   UNL A   1      45.715  30.925  36.199  1.00  0.00     0.031 C 
ATOM     59  C   UNL A   1      41.425  34.992  31.509  1.00  0.00     0.029 A 
ATOM     60  C   UNL A   1      40.589  33.860  31.323  1.00  0.00     0.049 A 
ATOM     61  H   UNL A   1      41.398  32.123  30.163  1.00  0.00     0.167 HD
ATOM     62  C   UNL A   1      43.960  31.840  37.954  1.00  0.00     0.031 A 
ATOM     63  C   UNL A   1      39.269  33.679  31.752  1.00  0.00     0.031 A 
ATOM     64  C   UNL A   1      42.689  32.873  38.133  1.00  0.00     0.049 A 
ATOM     65  C   UNL A   1      38.634  33.847  33.382  1.00  0.00     0.074 A 
ATOM     66  C   UNL A   1      42.614  34.269  38.347  1.00  0.00     0.029 A 
ATOM     67  N   UNL A   1      41.294  32.605  38.107  1.00  0.00    -0.354 N 
ATOM     68  N   UNL A   1      39.288  33.752  34.538  1.00  0.00    -0.248 NA
ATOM     69  C   UNL A   1      37.225  34.077  33.768  1.00  0.00     0.031 C 
ATOM     70  C   UNL A   1      41.339  34.784  37.945  1.00  0.00     0.029 A 
ATOM     71  C   UNL A   1      40.533  33.731  37.533  1.00  0.00     0.049 A 
ATOM     72  H   UNL A   1      40.885  31.770  38.432  1.00  0.00     0.167 HD
ATOM     73  C   UNL A   1      38.576  33.884  35.734  1.00  0.00     0.074 A 
ATOM     74  C   UNL A   1      37.247  34.112  35.135  1.00  0.00     0.031 C 
ATOM     75  C   UNL A   1      39.047  33.698  37.081  1.00  0.00     0.031 A 
BRANCH  62  76
ATOM     76  C   UNL A   1      44.950  31.925  39.198  1.00  0.00    -0.014 A 
ATOM     77  C   UNL A   1      44.399  31.766  40.499  1.00  0.00     0.010 A 
ATOM     78  C   UNL A   1      46.323  32.230  39.197  1.00  0.00     0.010 A 
ATOM     79  C   UNL A   1      45.078  32.037  41.691  1.00  0.00     0.020 A 
ATOM     80  C   UNL A   1      47.048  32.464  40.400  1.00  0.00     0.020 A 
ATOM     81  C   UNL A   1      46.410  32.394  41.639  1.00  0.00     0.054 A 
BRANCH  81  82
ATOM     82  S   UNL A   1      47.269  32.664  43.213  1.00  0.00     0.124 S 
ATOM     83  O   UNL A   1      46.780  33.977  43.624  1.00  0.00    -0.237 OA
ATOM     84  O   UNL A   1      46.804  31.542  44.026  1.00  0.00    -0.237 OA
ATOM     85  O   UNL A   1      48.683  32.616  42.848  1.00  0.00    -0.744 OA
ENDBRANCH  81  82
ENDBRANCH  62  76
BRANCH  63  86
ATOM     86  C   UNL A   1      38.649  32.982  30.521  1.00  0.00    -0.014 A 
ATOM     87  C   UNL A   1      37.589  32.067  30.844  1.00  0.00     0.010 A 
ATOM     88  C   UNL A   1      38.435  33.780  29.383  1.00  0.00     0.010 A 
ATOM     89  C   UNL A   1      36.289  32.232  30.308  1.00  0.00     0.020 A 
ATOM     90  C   UNL A   1      37.146  33.928  28.820  1.00  0.00     0.020 A 
ATOM     91  C   UNL A   1      36.066  33.208  29.337  1.00  0.00     0.054 A 
BRANCH  91  92
ATOM     92  S   UNL A   1      34.352  33.760  29.023  1.00  0.00     0.124 S 
ATOM     93  O   UNL A   1      34.537  34.972  28.238  1.00  0.00    -0.237 OA
ATOM     94  O   UNL A   1      33.786  32.613  28.313  1.00  0.00    -0.237 OA
ATOM     95  O   UNL A   1      33.826  33.974  30.364  1.00  0.00    -0.744 OA
ENDBRANCH  91  92
ENDBRANCH  63  86
BRANCH  75  96
ATOM     96  C   UNL A   1      38.132  33.265  38.274  1.00  0.00    -0.014 A 
ATOM     97  C   UNL A   1      37.477  32.033  38.366  1.00  0.00     0.010 A 
ATOM     98  C   UNL A   1      38.181  34.013  39.493  1.00  0.00     0.010 A 
ATOM     99  C   UNL A   1      36.976  31.549  39.589  1.00  0.00     0.020 A 
ATOM    100  C   UNL A   1      37.751  33.519  40.729  1.00  0.00     0.020 A 
ATOM    101  C   UNL A   1      37.128  32.286  40.764  1.00  0.00     0.054 A 
BRANCH 101 102
ATOM    102  S   UNL A   1      36.452  31.639  42.308  1.00  0.00     0.124 S 
ATOM    103  O   UNL A   1      36.682  32.758  43.218  1.00  0.00    -0.237 OA
ATOM    104  O   UNL A   1      35.056  31.387  41.962  1.00  0.00    -0.237 OA
ATOM    105  O   UNL A   1      37.251  30.445  42.572  1.00  0.00    -0.744 OA
ENDBRANCH 101 102
ENDBRANCH  75  96
ENDBRANCH  49  50
ENDBRANCH  42  44
ENDBRANCH  41  42
ENDBRANCH  40  41
ENDBRANCH  39  40
ENDBRANCH  38  39
ENDBRANCH  37  38
ENDBRANCH  36  37
ENDBRANCH  35  36
ENDBRANCH   1  35
TORSDOF 27
ENDMDL
MODEL 3
REMARK VINA RESULT:      -9.3      4.318      9.579
REMARK SMILES Cc1ccccc1/C=C1\SC(=O)N(CC(=O)Nc2ccccc2C(=O)OCCOCCOCCOCCOC(=O)c2ccc(-c3c4nc(c(-c5ccc(S(=O)(=O)[O-])cc5)c5ccc([nH]5)c(-c5ccc(S(=O)(=O)[O-])cc5)c5nc(c(-c6ccc(S(=O)(=O)[O-])cc6)c6ccc3[nH]6)C=C5)C=C4)cc2)C1=O
REMARK SMILES IDX 31 1 30 2 29 3 28 4 27 5 26 6 24 7 25 8 23 9 18 10 19 11
REMARK SMILES IDX 20 12 22 13 21 14 17 15 15 16 16 17 14 19 13 20 8 21 9 22
REMARK SMILES IDX 10 23 101 24 11 25 102 26 12 27 7 28 1 29 2 30 3 31 4 32
REMARK SMILES IDX 6 33 5 34 32 35 33 36 34 37 35 38 36 39 37 40 38 41 39 42
REMARK SMILES IDX 40 43 41 44 42 45 100 46 43 47 99 48 44 49 45 50 46 51 93 52
REMARK SMILES IDX 47 53 98 54 92 55 94 56 48 57 97 58 91 59 90 60 49 62 79 63
REMARK SMILES IDX 60 64 78 65 61 66 64 67 77 68 95 69 62 70 63 71 76 73 96 74
REMARK SMILES IDX 65 75 50 76 51 77 59 78 52 79 58 80 53 81 54 82 55 83 56 84
REMARK SMILES IDX 57 85 80 86 81 87 89 88 82 89 88 90 83 91 84 92 85 93 86 94
REMARK SMILES IDX 87 95 66 96 67 97 75 98 68 99 74 100 69 101 70 102 71 103
REMARK SMILES IDX 72 104 73 105
REMARK H PARENT 17 18 94 61 64 72
REMARK Flexibility Score: inf
ROOT
ATOM      1  C   UNL A   1      35.889  31.590  31.268  1.00  0.00     0.188 C 
ENDROOT
BRANCH   1   2
ATOM      2  C   UNL A   1      36.725  30.412  30.314  1.00  0.00     0.188 C 
BRANCH   2   3
ATOM      3  O   UNL A   1      36.339  29.292  28.821  1.00  0.00    -0.376 OA
BRANCH   3   4
ATOM      4  C   UNL A   1      35.207  29.646  27.360  1.00  0.00     0.202 C 
BRANCH   4   5
ATOM      5  C   UNL A   1      33.603  28.769  26.630  1.00  0.00     0.261 C 
BRANCH   5   6
ATOM      6  O   UNL A   1      32.798  27.198  26.025  1.00  0.00    -0.460 OA
BRANCH   6   7
ATOM      7  C   UNL A   1      32.294  25.725  25.878  1.00  0.00     0.340 C 
ATOM      8  O   UNL A   1      31.708  25.177  26.826  1.00  0.00    -0.246 OA
BRANCH   7   9
ATOM      9  C   UNL A   1      32.461  24.565  24.679  1.00  0.00     0.083 A 
ATOM     10  C   UNL A   1      33.565  23.820  24.030  1.00  0.00     0.055 A 
ATOM     11  C   UNL A   1      33.262  22.787  23.092  1.00  0.00     0.027 A 
ATOM     12  C   UNL A   1      31.961  22.504  22.704  1.00  0.00     0.002 A 
ATOM     13  C   UNL A   1      31.195  24.322  24.110  1.00  0.00     0.018 A 
ATOM     14  C   UNL A   1      30.935  23.295  23.186  1.00  0.00     0.001 A 
BRANCH  10  15
ATOM     15  N   UNL A   1      35.009  23.991  24.199  1.00  0.00    -0.324 N 
ATOM     16  C   UNL A   1      35.979  22.987  23.866  1.00  0.00     0.244 C 
ATOM     17  O   UNL A   1      36.535  22.940  22.768  1.00  0.00    -0.273 OA
ATOM     18  H   UNL A   1      35.335  24.846  24.563  1.00  0.00     0.170 HD
BRANCH  16  19
ATOM     19  C   UNL A   1      36.320  21.937  24.956  1.00  0.00     0.230 C 
BRANCH  19  20
ATOM     20  N   UNL A   1      37.663  22.241  25.318  1.00  0.00    -0.259 N 
ATOM     21  C   UNL A   1      41.042  24.085  27.344  1.00  0.00     0.029 C 
ATOM     22  C   UNL A   1      39.713  23.184  26.923  1.00  0.00     0.083 C 
ATOM     23  S   UNL A   1      39.675  21.546  26.176  1.00  0.00    -0.022 SA
ATOM     24  C   UNL A   1      38.032  23.278  26.230  1.00  0.00     0.268 C 
ATOM     25  C   UNL A   1      38.376  21.135  25.295  1.00  0.00     0.294 C 
ATOM     26  O   UNL A   1      37.101  24.041  26.462  1.00  0.00    -0.268 OA
ATOM     27  O   UNL A   1      38.108  20.008  24.925  1.00  0.00    -0.261 OA
BRANCH  21  28
ATOM     28  C   UNL A   1      42.806  24.593  27.759  1.00  0.00    -0.021 A 
ATOM     29  C   UNL A   1      44.074  26.634  26.396  1.00  0.00     0.045 C 
ATOM     30  C   UNL A   1      43.940  25.248  27.028  1.00  0.00    -0.044 A 
ATOM     31  C   UNL A   1      45.298  24.759  27.071  1.00  0.00     0.004 A 
ATOM     32  C   UNL A   1      45.718  23.942  28.069  1.00  0.00     0.000 A 
ATOM     33  C   UNL A   1      43.399  24.079  28.924  1.00  0.00     0.008 A 
ATOM     34  C   UNL A   1      44.800  23.764  29.073  1.00  0.00     0.001 A 
ENDBRANCH  21  28
ENDBRANCH  19  20
ENDBRANCH  16  19
ENDBRANCH  10  15
ENDBRANCH   7   9
ENDBRANCH   6   7
ENDBRANCH   5   6
ENDBRANCH   4   5
ENDBRANCH   3   4
ENDBRANCH   2   3
ENDBRANCH   1   2
BRANCH   1  35
ATOM     35  O   UNL A   1      35.934  32.149  32.589  1.00  0.00    -0.377 OA
BRANCH  35  36
ATOM     36  C   UNL A   1      35.488  33.451  32.988  1.00  0.00     0.188 C 
BRANCH  36  37
ATOM     37  C   UNL A   1      36.353  34.556  32.503  1.00  0.00     0.188 C 
BRANCH  37  38
ATOM     38  O   UNL A   1      37.093  34.948  33.641  1.00  0.00    -0.376 OA
BRANCH  38  39
ATOM     39  C   UNL A   1      38.201  34.157  33.962  1.00  0.00     0.202 C 
BRANCH  39  40
ATOM     40  C   UNL A   1      39.060  34.143  32.727  1.00  0.00     0.261 C 
BRANCH  40  41
ATOM     41  O   UNL A   1      38.963  32.828  32.084  1.00  0.00    -0.460 OA
BRANCH  41  42
ATOM     42  C   UNL A   1      40.108  32.222  31.591  1.00  0.00     0.338 C 
ATOM     43  O   UNL A   1      40.988  32.851  31.027  1.00  0.00    -0.246 OA
BRANCH  42  44
ATOM     44  C   UNL A   1      40.204  30.753  31.910  1.00  0.00     0.060 A 
ATOM     45  C   UNL A   1      40.443  30.196  33.185  1.00  0.00     0.016 A 
ATOM     46  C   UNL A   1      40.261  29.873  30.889  1.00  0.00     0.016 A 
ATOM     47  C   UNL A   1      41.302  29.027  33.396  1.00  0.00     0.010 A 
ATOM     48  C   UNL A   1      40.944  28.698  31.171  1.00  0.00     0.010 A 
ATOM     49  C   UNL A   1      41.888  28.400  32.318  1.00  0.00    -0.014 A 
BRANCH  49  50
ATOM     50  C   UNL A   1      43.489  27.336  32.195  1.00  0.00     0.031 A 
ATOM     51  C   UNL A   1      43.868  26.012  33.732  1.00  0.00     0.074 A 
ATOM     52  C   UNL A   1      44.238  27.858  30.968  1.00  0.00     0.049 A 
ATOM     53  N   UNL A   1      44.694  26.107  34.882  1.00  0.00    -0.248 NA
ATOM     54  C   UNL A   1      42.894  25.011  34.755  1.00  0.00     0.031 C 
ATOM     55  C   UNL A   1      45.174  27.214  29.945  1.00  0.00     0.029 A 
ATOM     56  N   UNL A   1      44.729  29.233  30.700  1.00  0.00    -0.354 N 
ATOM     57  C   UNL A   1      44.882  25.058  35.876  1.00  0.00     0.074 A 
ATOM     58  C   UNL A   1      43.531  24.594  35.870  1.00  0.00     0.031 C 
ATOM     59  C   UNL A   1      46.290  27.933  29.689  1.00  0.00     0.029 A 
ATOM     60  C   UNL A   1      46.209  29.184  30.354  1.00  0.00     0.049 A 
ATOM     61  H   UNL A   1      44.181  30.050  30.740  1.00  0.00     0.167 HD
ATOM     62  C   UNL A   1      46.103  24.517  36.487  1.00  0.00     0.031 A 
ATOM     63  C   UNL A   1      47.258  30.001  30.791  1.00  0.00     0.031 A 
ATOM     64  C   UNL A   1      47.611  24.816  35.896  1.00  0.00     0.049 A 
ATOM     65  C   UNL A   1      48.600  29.563  31.839  1.00  0.00     0.074 A 
ATOM     66  C   UNL A   1      48.481  24.066  35.070  1.00  0.00     0.029 A 
ATOM     67  N   UNL A   1      48.443  25.954  36.070  1.00  0.00    -0.354 N 
ATOM     68  N   UNL A   1      48.665  28.573  32.727  1.00  0.00    -0.248 NA
ATOM     69  C   UNL A   1      49.899  30.259  31.958  1.00  0.00     0.031 C 
ATOM     70  C   UNL A   1      49.440  24.914  34.427  1.00  0.00     0.029 A 
ATOM     71  C   UNL A   1      49.266  26.217  34.874  1.00  0.00     0.049 A 
ATOM     72  H   UNL A   1      48.467  26.501  36.888  1.00  0.00     0.167 HD
ATOM     73  C   UNL A   1      49.827  28.422  33.490  1.00  0.00     0.074 A 
ATOM     74  C   UNL A   1      50.580  29.550  32.908  1.00  0.00     0.031 C 
ATOM     75  C   UNL A   1      50.070  27.513  34.580  1.00  0.00     0.031 A 
BRANCH  62  76
ATOM     76  C   UNL A   1      46.068  23.155  37.311  1.00  0.00    -0.014 A 
ATOM     77  C   UNL A   1      46.238  23.226  38.720  1.00  0.00     0.010 A 
ATOM     78  C   UNL A   1      45.975  21.842  36.816  1.00  0.00     0.010 A 
ATOM     79  C   UNL A   1      46.460  22.124  39.552  1.00  0.00     0.020 A 
ATOM     80  C   UNL A   1      46.150  20.703  37.652  1.00  0.00     0.020 A 
ATOM     81  C   UNL A   1      46.421  20.855  39.013  1.00  0.00     0.054 A 
BRANCH  81  82
ATOM     82  S   UNL A   1      46.641  19.454  40.142  1.00  0.00     0.124 S 
ATOM     83  O   UNL A   1      46.243  20.015  41.431  1.00  0.00    -0.237 OA
ATOM     84  O   UNL A   1      45.730  18.454  39.590  1.00  0.00    -0.237 OA
ATOM     85  O   UNL A   1      48.060  19.130  40.020  1.00  0.00    -0.744 OA
ENDBRANCH  81  82
ENDBRANCH  62  76
BRANCH  63  86
ATOM     86  C   UNL A   1      46.729  31.399  30.404  1.00  0.00    -0.014 A 
ATOM     87  C   UNL A   1      46.635  32.313  31.510  1.00  0.00     0.010 A 
ATOM     88  C   UNL A   1      47.212  31.949  29.203  1.00  0.00     0.010 A 
ATOM     89  C   UNL A   1      47.335  33.543  31.505  1.00  0.00     0.020 A 
ATOM     90  C   UNL A   1      47.886  33.192  29.182  1.00  0.00     0.020 A 
ATOM     91  C   UNL A   1      48.008  33.945  30.352  1.00  0.00     0.054 A 
BRANCH  91  92
ATOM     92  S   UNL A   1      49.298  35.234  30.491  1.00  0.00     0.124 S 
ATOM     93  O   UNL A   1      48.651  36.259  31.298  1.00  0.00    -0.237 OA
ATOM     94  O   UNL A   1      50.392  34.504  31.133  1.00  0.00    -0.237 OA
ATOM     95  O   UNL A   1      49.538  35.608  29.104  1.00  0.00    -0.744 OA
ENDBRANCH  91  92
ENDBRANCH  63  86
BRANCH  75  96
ATOM     96  C   UNL A   1      51.085  27.790  35.738  1.00  0.00    -0.014 A 
ATOM     97  C   UNL A   1      52.462  27.557  35.659  1.00  0.00     0.010 A 
ATOM     98  C   UNL A   1      50.674  28.603  36.841  1.00  0.00     0.010 A 
ATOM     99  C   UNL A   1      53.367  28.147  36.563  1.00  0.00     0.020 A 
ATOM    100  C   UNL A   1      51.563  29.251  37.705  1.00  0.00     0.020 A 
ATOM    101  C   UNL A   1      52.914  29.001  37.569  1.00  0.00     0.054 A 
BRANCH 101 102
ATOM    102  S   UNL A   1      54.105  29.720  38.720  1.00  0.00     0.124 S 
ATOM    103  O   UNL A   1      54.636  28.527  39.374  1.00  0.00    -0.237 OA
ATOM    104  O   UNL A   1      55.031  30.412  37.827  1.00  0.00    -0.237 OA
ATOM    105  O   UNL A   1      53.296  30.590  39.570  1.00  0.00    -0.744 OA
ENDBRANCH 101 102
ENDBRANCH  75  96
ENDBRANCH  49  50
ENDBRANCH  42  44
ENDBRANCH  41  42
ENDBRANCH  40  41
ENDBRANCH  39  40
ENDBRANCH  38  39
ENDBRANCH  37  38
ENDBRANCH  36  37
ENDBRANCH  35  36
ENDBRANCH   1  35
TORSDOF 27
ENDMDL
