MODEL 1
REMARK VINA RESULT:      -8.3      0.000      0.000
REMARK SMILES CCc1ccc(-c2cc(Cl)cc3c2O[C@@H](C(F)(F)F)C(C(=O)OCCOCCOCCOCCOC(=O)c2ccc(-c4c5nc(c(-c6ccc(S(=O)(=O)[O-])cc6)c6ccc([nH]6)c(-c6ccc(S(=O)(=O)[O-])cc6)c6nc(c(-c7ccc(S(=O)(=O)[O-])cc7)c7ccc4[nH]7)C=C6)C=C5)cc2)=C3)cc1
REMARK SMILES IDX 30 1 29 2 28 3 27 4 26 5 25 6 24 7 23 8 21 9 22 10 20 11
REMARK SMILES IDX 7 12 8 13 13 14 9 15 12 16 14 17 10 18 11 19 98 20 15 21
REMARK SMILES IDX 6 22 3 23 4 24 100 25 5 26 99 27 2 28 1 29 16 30 17 31 18 32
REMARK SMILES IDX 19 33 31 34 32 35 33 36 34 37 35 38 36 39 37 40 38 41 39 42
REMARK SMILES IDX 97 43 40 44 96 45 41 46 42 47 43 48 90 49 44 50 95 51 89 52
REMARK SMILES IDX 91 53 45 54 94 55 88 56 87 57 46 59 76 60 57 61 75 62 58 63
REMARK SMILES IDX 61 64 74 65 92 66 59 67 60 68 73 70 93 71 62 72 47 73 48 74
REMARK SMILES IDX 56 75 49 76 55 77 50 78 51 79 52 80 53 81 54 82 77 83 78 84
REMARK SMILES IDX 86 85 79 86 85 87 80 88 81 89 82 90 83 91 84 92 63 93 64 94
REMARK SMILES IDX 72 95 65 96 71 97 66 98 67 99 68 100 69 101 70 102
REMARK H PARENT 91 58 61 69
REMARK Flexibility Score: inf
ROOT
ATOM      1  C   UNL A   1      33.815  33.588  28.005  1.00  0.00     0.188 C 
ENDROOT
BRANCH   1   2
ATOM      2  O   UNL A   1      34.269  34.926  28.187  1.00  0.00    -0.377 OA
BRANCH   2   3
ATOM      3  C   UNL A   1      33.597  35.721  29.142  1.00  0.00     0.188 C 
BRANCH   3   4
ATOM      4  C   UNL A   1      33.261  34.954  30.428  1.00  0.00     0.188 C 
BRANCH   4   5
ATOM      5  O   UNL A   1      34.153  35.206  31.508  1.00  0.00    -0.376 OA
BRANCH   5   6
ATOM      6  C   UNL A   1      34.194  34.266  32.580  1.00  0.00     0.202 C 
BRANCH   6   7
ATOM      7  C   UNL A   1      34.880  32.914  32.337  1.00  0.00     0.261 C 
BRANCH   7   8
ATOM      8  O   UNL A   1      35.879  32.655  33.349  1.00  0.00    -0.460 OA
BRANCH   8   9
ATOM      9  C   UNL A   1      37.147  32.594  32.915  1.00  0.00     0.338 C 
ATOM     10  O   UNL A   1      37.759  31.558  32.687  1.00  0.00    -0.246 OA
BRANCH   9  11
ATOM     11  C   UNL A   1      37.695  33.928  32.555  1.00  0.00     0.087 C 
ATOM     12  C   UNL A   1      41.650  34.548  33.657  1.00  0.00     0.026 A 
ATOM     13  C   UNL A   1      41.890  33.690  34.755  1.00  0.00     0.033 A 
ATOM     14  C   UNL A   1      40.319  34.579  33.190  1.00  0.00     0.135 A 
ATOM     15  C   UNL A   1      40.839  33.212  35.536  1.00  0.00     0.042 A 
ATOM     16  C   UNL A   1      39.281  34.311  34.096  1.00  0.00     0.019 A 
ATOM     17  O   UNL A   1      40.043  34.542  31.822  1.00  0.00    -0.475 OA
ATOM     18  Cl  UNL A   1      41.171  32.204  36.886  1.00  0.00    -0.084 Cl
ATOM     19  C   UNL A   1      39.537  33.613  35.271  1.00  0.00     0.032 A 
ATOM     20  C   UNL A   1      37.898  34.633  33.683  1.00  0.00     0.027 C 
ATOM     21  C   UNL A   1      38.620  34.307  31.412  1.00  0.00     0.316 C 
BRANCH  12  22
ATOM     22  C   UNL A   1      42.590  35.725  33.597  1.00  0.00    -0.015 A 
ATOM     23  C   UNL A   1      43.651  38.331  32.996  1.00  0.00    -0.048 A 
ATOM     24  C   UNL A   1      43.003  38.076  34.209  1.00  0.00     0.004 A 
ATOM     25  C   UNL A   1      43.837  37.257  32.121  1.00  0.00     0.004 A 
ATOM     26  C   UNL A   1      42.497  36.795  34.510  1.00  0.00     0.009 A 
ATOM     27  C   UNL A   1      43.322  35.980  32.418  1.00  0.00     0.009 A 
BRANCH  23  28
ATOM     28  C   UNL A   1      44.133  39.723  32.649  1.00  0.00     0.032 C 
ATOM     29  C   UNL A   1      45.565  40.023  33.088  1.00  0.00     0.009 C 
ENDBRANCH  23  28
ENDBRANCH  12  22
BRANCH  21  30
ATOM     30  C   UNL A   1      38.419  33.608  30.042  1.00  0.00     0.430 C 
ATOM     31  F   UNL A   1      39.289  32.566  29.938  1.00  0.00    -0.167 F 
ATOM     32  F   UNL A   1      37.176  33.077  29.940  1.00  0.00    -0.167 F 
ATOM     33  F   UNL A   1      38.612  34.366  28.954  1.00  0.00    -0.167 F 
ENDBRANCH  21  30
ENDBRANCH   9  11
ENDBRANCH   8   9
ENDBRANCH   7   8
ENDBRANCH   6   7
ENDBRANCH   5   6
ENDBRANCH   4   5
ENDBRANCH   3   4
ENDBRANCH   2   3
ENDBRANCH   1   2
BRANCH   1  34
ATOM     34  C   UNL A   1      34.790  32.444  27.648  1.00  0.00     0.188 C 
BRANCH  34  35
ATOM     35  O   UNL A   1      34.164  31.199  27.338  1.00  0.00    -0.376 OA
BRANCH  35  36
ATOM     36  C   UNL A   1      34.903  30.017  27.610  1.00  0.00     0.202 C 
BRANCH  36  37
ATOM     37  C   UNL A   1      35.751  30.085  28.888  1.00  0.00     0.261 C 
BRANCH  37  38
ATOM     38  O   UNL A   1      36.703  29.021  29.035  1.00  0.00    -0.460 OA
BRANCH  38  39
ATOM     39  C   UNL A   1      37.482  29.053  30.138  1.00  0.00     0.338 C 
ATOM     40  O   UNL A   1      37.136  28.839  31.287  1.00  0.00    -0.246 OA
BRANCH  39  41
ATOM     41  C   UNL A   1      38.885  29.186  29.701  1.00  0.00     0.060 A 
ATOM     42  C   UNL A   1      39.142  29.416  28.343  1.00  0.00     0.016 A 
ATOM     43  C   UNL A   1      39.935  29.099  30.620  1.00  0.00     0.016 A 
ATOM     44  C   UNL A   1      40.458  29.497  27.892  1.00  0.00     0.010 A 
ATOM     45  C   UNL A   1      41.252  29.166  30.166  1.00  0.00     0.010 A 
ATOM     46  C   UNL A   1      41.516  29.317  28.793  1.00  0.00    -0.014 A 
BRANCH  46  47
ATOM     47  C   UNL A   1      42.868  29.029  28.261  1.00  0.00     0.031 A 
ATOM     48  C   UNL A   1      43.905  30.115  28.357  1.00  0.00     0.074 A 
ATOM     49  C   UNL A   1      43.188  27.828  27.751  1.00  0.00     0.049 A 
ATOM     50  N   UNL A   1      45.169  30.089  28.025  1.00  0.00    -0.248 NA
ATOM     51  C   UNL A   1      43.451  31.405  28.907  1.00  0.00     0.031 C 
ATOM     52  C   UNL A   1      42.284  26.685  27.640  1.00  0.00     0.029 A 
ATOM     53  N   UNL A   1      44.376  27.372  27.240  1.00  0.00    -0.354 N 
ATOM     54  C   UNL A   1      45.661  31.354  28.329  1.00  0.00     0.074 A 
ATOM     55  C   UNL A   1      44.553  32.133  28.832  1.00  0.00     0.031 C 
ATOM     56  C   UNL A   1      42.956  25.652  27.101  1.00  0.00     0.029 A 
ATOM     57  C   UNL A   1      44.328  26.068  26.811  1.00  0.00     0.049 A 
ATOM     58  H   UNL A   1      45.187  27.928  27.185  1.00  0.00     0.167 HD
ATOM     59  C   UNL A   1      46.925  31.825  28.211  1.00  0.00     0.031 A 
ATOM     60  C   UNL A   1      45.285  25.301  26.252  1.00  0.00     0.031 A 
ATOM     61  C   UNL A   1      48.019  31.063  27.674  1.00  0.00     0.049 A 
ATOM     62  C   UNL A   1      46.667  25.868  26.055  1.00  0.00     0.074 A 
ATOM     63  C   UNL A   1      49.338  31.447  27.509  1.00  0.00     0.029 A 
ATOM     64  N   UNL A   1      47.915  29.764  27.199  1.00  0.00    -0.354 N 
ATOM     65  N   UNL A   1      47.128  27.055  26.375  1.00  0.00    -0.248 NA
ATOM     66  C   UNL A   1      47.663  24.984  25.433  1.00  0.00     0.031 C 
ATOM     67  C   UNL A   1      50.020  30.398  26.881  1.00  0.00     0.029 A 
ATOM     68  C   UNL A   1      49.141  29.338  26.716  1.00  0.00     0.049 A 
ATOM     69  H   UNL A   1      47.092  29.225  27.205  1.00  0.00     0.167 HD
ATOM     70  C   UNL A   1      48.475  27.048  26.026  1.00  0.00     0.074 A 
ATOM     71  C   UNL A   1      48.754  25.736  25.476  1.00  0.00     0.031 C 
ATOM     72  C   UNL A   1      49.400  28.032  26.160  1.00  0.00     0.031 A 
BRANCH  59  73
ATOM     73  C   UNL A   1      47.159  33.253  28.631  1.00  0.00    -0.014 A 
ATOM     74  C   UNL A   1      47.041  34.312  27.712  1.00  0.00     0.010 A 
ATOM     75  C   UNL A   1      47.538  33.533  29.956  1.00  0.00     0.010 A 
ATOM     76  C   UNL A   1      47.360  35.618  28.095  1.00  0.00     0.020 A 
ATOM     77  C   UNL A   1      47.828  34.842  30.351  1.00  0.00     0.020 A 
ATOM     78  C   UNL A   1      47.764  35.872  29.409  1.00  0.00     0.054 A 
BRANCH  78  79
ATOM     79  S   UNL A   1      48.201  37.569  29.875  1.00  0.00     0.124 S 
ATOM     80  O   UNL A   1      49.410  37.361  30.668  1.00  0.00    -0.237 OA
ATOM     81  O   UNL A   1      48.403  38.217  28.581  1.00  0.00    -0.237 OA
ATOM     82  O   UNL A   1      47.037  38.033  30.626  1.00  0.00    -0.744 OA
ENDBRANCH  78  79
ENDBRANCH  59  73
BRANCH  60  83
ATOM     83  C   UNL A   1      44.972  23.899  25.860  1.00  0.00    -0.014 A 
ATOM     84  C   UNL A   1      45.774  22.836  26.310  1.00  0.00     0.010 A 
ATOM     85  C   UNL A   1      43.856  23.619  25.050  1.00  0.00     0.010 A 
ATOM     86  C   UNL A   1      45.466  21.518  25.958  1.00  0.00     0.020 A 
ATOM     87  C   UNL A   1      43.532  22.301  24.716  1.00  0.00     0.020 A 
ATOM     88  C   UNL A   1      44.343  21.259  25.168  1.00  0.00     0.054 A 
BRANCH  88  89
ATOM     89  S   UNL A   1      43.919  19.534  24.790  1.00  0.00     0.124 S 
ATOM     90  O   UNL A   1      44.776  18.801  25.716  1.00  0.00    -0.237 OA
ATOM     91  O   UNL A   1      42.489  19.491  25.082  1.00  0.00    -0.237 OA
ATOM     92  O   UNL A   1      44.263  19.399  23.377  1.00  0.00    -0.744 OA
ENDBRANCH  88  89
ENDBRANCH  60  83
BRANCH  72  93
ATOM     93  C   UNL A   1      50.814  27.717  25.741  1.00  0.00    -0.014 A 
ATOM     94  C   UNL A   1      51.327  28.146  24.504  1.00  0.00     0.010 A 
ATOM     95  C   UNL A   1      51.654  27.012  26.623  1.00  0.00     0.010 A 
ATOM     96  C   UNL A   1      52.640  27.835  24.139  1.00  0.00     0.020 A 
ATOM     97  C   UNL A   1      52.976  26.726  26.274  1.00  0.00     0.020 A 
ATOM     98  C   UNL A   1      53.455  27.123  25.025  1.00  0.00     0.054 A 
BRANCH  98  99
ATOM     99  S   UNL A   1      55.163  26.748  24.538  1.00  0.00     0.124 S 
ATOM    100  O   UNL A   1      55.334  25.393  25.054  1.00  0.00    -0.237 OA
ATOM    101  O   UNL A   1      55.116  26.866  23.083  1.00  0.00    -0.237 OA
ATOM    102  O   UNL A   1      55.949  27.777  25.215  1.00  0.00    -0.744 OA
ENDBRANCH  98  99
ENDBRANCH  72  93
ENDBRANCH  46  47
ENDBRANCH  39  41
ENDBRANCH  38  39
ENDBRANCH  37  38
ENDBRANCH  36  37
ENDBRANCH  35  36
ENDBRANCH  34  35
ENDBRANCH   1  34
TORSDOF 26
ENDMDL
MODEL 2
REMARK VINA RESULT:      -7.5      8.503     15.361
REMARK SMILES CCc1ccc(-c2cc(Cl)cc3c2O[C@@H](C(F)(F)F)C(C(=O)OCCOCCOCCOCCOC(=O)c2ccc(-c4c5nc(c(-c6ccc(S(=O)(=O)[O-])cc6)c6ccc([nH]6)c(-c6ccc(S(=O)(=O)[O-])cc6)c6nc(c(-c7ccc(S(=O)(=O)[O-])cc7)c7ccc4[nH]7)C=C6)C=C5)cc2)=C3)cc1
REMARK SMILES IDX 30 1 29 2 28 3 27 4 26 5 25 6 24 7 23 8 21 9 22 10 20 11
REMARK SMILES IDX 7 12 8 13 13 14 9 15 12 16 14 17 10 18 11 19 98 20 15 21
REMARK SMILES IDX 6 22 3 23 4 24 100 25 5 26 99 27 2 28 1 29 16 30 17 31 18 32
REMARK SMILES IDX 19 33 31 34 32 35 33 36 34 37 35 38 36 39 37 40 38 41 39 42
REMARK SMILES IDX 97 43 40 44 96 45 41 46 42 47 43 48 90 49 44 50 95 51 89 52
REMARK SMILES IDX 91 53 45 54 94 55 88 56 87 57 46 59 76 60 57 61 75 62 58 63
REMARK SMILES IDX 61 64 74 65 92 66 59 67 60 68 73 70 93 71 62 72 47 73 48 74
REMARK SMILES IDX 56 75 49 76 55 77 50 78 51 79 52 80 53 81 54 82 77 83 78 84
REMARK SMILES IDX 86 85 79 86 85 87 80 88 81 89 82 90 83 91 84 92 63 93 64 94
REMARK SMILES IDX 72 95 65 96 71 97 66 98 67 99 68 100 69 101 70 102
REMARK H PARENT 91 58 61 69
REMARK Flexibility Score: inf
ROOT
ATOM      1  C   UNL A   1      47.328  27.256  30.588  1.00  0.00     0.188 C 
ENDROOT
BRANCH   1   2
ATOM      2  O   UNL A   1      47.260  26.882  31.962  1.00  0.00    -0.377 OA
BRANCH   2   3
ATOM      3  C   UNL A   1      48.256  26.007  32.452  1.00  0.00     0.188 C 
BRANCH   3   4
ATOM      4  C   UNL A   1      49.501  26.744  32.962  1.00  0.00     0.188 C 
BRANCH   4   5
ATOM      5  O   UNL A   1      50.732  26.186  32.516  1.00  0.00    -0.376 OA
BRANCH   5   6
ATOM      6  C   UNL A   1      50.773  24.790  32.225  1.00  0.00     0.202 C 
BRANCH   6   7
ATOM      7  C   UNL A   1      52.136  24.084  32.232  1.00  0.00     0.261 C 
BRANCH   7   8
ATOM      8  O   UNL A   1      52.411  23.509  33.529  1.00  0.00    -0.460 OA
BRANCH   8   9
ATOM      9  C   UNL A   1      51.667  22.444  33.865  1.00  0.00     0.338 C 
ATOM     10  O   UNL A   1      51.069  21.731  33.069  1.00  0.00    -0.246 OA
BRANCH   9  11
ATOM     11  C   UNL A   1      51.784  22.094  35.305  1.00  0.00     0.087 C 
ATOM     12  C   UNL A   1      48.486  20.140  36.901  1.00  0.00     0.026 A 
ATOM     13  C   UNL A   1      47.380  20.523  36.106  1.00  0.00     0.033 A 
ATOM     14  C   UNL A   1      49.704  20.784  36.597  1.00  0.00     0.135 A 
ATOM     15  C   UNL A   1      47.411  21.694  35.349  1.00  0.00     0.042 A 
ATOM     16  C   UNL A   1      49.666  22.073  36.044  1.00  0.00     0.019 A 
ATOM     17  O   UNL A   1      50.895  20.058  36.527  1.00  0.00    -0.475 OA
ATOM     18  Cl  UNL A   1      46.036  22.147  34.427  1.00  0.00    -0.084 Cl
ATOM     19  C   UNL A   1      48.518  22.529  35.405  1.00  0.00     0.032 A 
ATOM     20  C   UNL A   1      50.923  22.851  36.007  1.00  0.00     0.027 C 
ATOM     21  C   UNL A   1      52.090  20.749  35.941  1.00  0.00     0.316 C 
BRANCH  12  22
ATOM     22  C   UNL A   1      48.100  19.678  38.283  1.00  0.00    -0.015 A 
ATOM     23  C   UNL A   1      47.624  17.963  40.543  1.00  0.00    -0.048 A 
ATOM     24  C   UNL A   1      48.832  18.653  40.401  1.00  0.00     0.004 A 
ATOM     25  C   UNL A   1      46.626  18.197  39.593  1.00  0.00     0.004 A 
ATOM     26  C   UNL A   1      49.059  19.506  39.301  1.00  0.00     0.009 A 
ATOM     27  C   UNL A   1      46.858  19.042  38.489  1.00  0.00     0.009 A 
BRANCH  23  28
ATOM     28  C   UNL A   1      47.410  16.998  41.689  1.00  0.00     0.032 C 
ATOM     29  C   UNL A   1      46.307  15.969  41.452  1.00  0.00     0.009 C 
ENDBRANCH  23  28
ENDBRANCH  12  22
BRANCH  21  30
ATOM     30  C   UNL A   1      53.130  19.829  35.251  1.00  0.00     0.430 C 
ATOM     31  F   UNL A   1      54.362  20.403  35.334  1.00  0.00    -0.167 F 
ATOM     32  F   UNL A   1      53.224  18.634  35.884  1.00  0.00    -0.167 F 
ATOM     33  F   UNL A   1      52.926  19.570  33.953  1.00  0.00    -0.167 F 
ENDBRANCH  21  30
ENDBRANCH   9  11
ENDBRANCH   8   9
ENDBRANCH   7   8
ENDBRANCH   6   7
ENDBRANCH   5   6
ENDBRANCH   4   5
ENDBRANCH   3   4
ENDBRANCH   2   3
ENDBRANCH   1   2
BRANCH   1  34
ATOM     34  C   UNL A   1      46.499  26.524  29.509  1.00  0.00     0.188 C 
BRANCH  34  35
ATOM     35  O   UNL A   1      46.351  25.120  29.717  1.00  0.00    -0.376 OA
BRANCH  35  36
ATOM     36  C   UNL A   1      45.154  24.517  29.247  1.00  0.00     0.202 C 
BRANCH  36  37
ATOM     37  C   UNL A   1      45.002  24.528  27.720  1.00  0.00     0.261 C 
BRANCH  37  38
ATOM     38  O   UNL A   1      43.697  24.170  27.243  1.00  0.00    -0.460 OA
BRANCH  38  39
ATOM     39  C   UNL A   1      43.012  25.125  26.576  1.00  0.00     0.338 C 
ATOM     40  O   UNL A   1      42.722  25.127  25.392  1.00  0.00    -0.246 OA
BRANCH  39  41
ATOM     41  C   UNL A   1      42.484  26.083  27.566  1.00  0.00     0.060 A 
ATOM     42  C   UNL A   1      42.987  27.390  27.562  1.00  0.00     0.016 A 
ATOM     43  C   UNL A   1      41.496  25.702  28.477  1.00  0.00     0.016 A 
ATOM     44  C   UNL A   1      42.544  28.305  28.515  1.00  0.00     0.010 A 
ATOM     45  C   UNL A   1      41.064  26.614  29.442  1.00  0.00     0.010 A 
ATOM     46  C   UNL A   1      41.623  27.902  29.492  1.00  0.00    -0.014 A 
BRANCH  46  47
ATOM     47  C   UNL A   1      41.450  28.740  30.701  1.00  0.00     0.031 A 
ATOM     48  C   UNL A   1      40.306  29.717  30.720  1.00  0.00     0.074 A 
ATOM     49  C   UNL A   1      42.250  28.610  31.774  1.00  0.00     0.049 A 
ATOM     50  N   UNL A   1      39.906  30.511  31.678  1.00  0.00    -0.248 NA
ATOM     51  C   UNL A   1      39.503  29.805  29.488  1.00  0.00     0.031 C 
ATOM     52  C   UNL A   1      43.365  27.673  31.892  1.00  0.00     0.029 A 
ATOM     53  N   UNL A   1      42.230  29.269  32.976  1.00  0.00    -0.354 N 
ATOM     54  C   UNL A   1      38.805  31.189  31.167  1.00  0.00     0.074 A 
ATOM     55  C   UNL A   1      38.625  30.743  29.804  1.00  0.00     0.031 C 
ATOM     56  C   UNL A   1      43.920  27.812  33.109  1.00  0.00     0.029 A 
ATOM     57  C   UNL A   1      43.212  28.860  33.845  1.00  0.00     0.049 A 
ATOM     58  H   UNL A   1      41.574  29.970  33.195  1.00  0.00     0.167 HD
ATOM     59  C   UNL A   1      38.004  32.093  31.778  1.00  0.00     0.031 A 
ATOM     60  C   UNL A   1      43.502  29.284  35.092  1.00  0.00     0.031 A 
ATOM     61  C   UNL A   1      38.206  32.566  33.121  1.00  0.00     0.049 A 
ATOM     62  C   UNL A   1      42.648  30.350  35.727  1.00  0.00     0.074 A 
ATOM     63  C   UNL A   1      37.456  33.483  33.834  1.00  0.00     0.029 A 
ATOM     64  N   UNL A   1      39.246  32.168  33.947  1.00  0.00    -0.354 N 
ATOM     65  N   UNL A   1      41.591  30.960  35.245  1.00  0.00    -0.248 NA
ATOM     66  C   UNL A   1      43.021  30.773  37.084  1.00  0.00     0.031 C 
ATOM     67  C   UNL A   1      38.075  33.681  35.073  1.00  0.00     0.029 A 
ATOM     68  C   UNL A   1      39.174  32.840  35.156  1.00  0.00     0.049 A 
ATOM     69  H   UNL A   1      39.934  31.506  33.710  1.00  0.00     0.167 HD
ATOM     70  C   UNL A   1      41.151  31.814  36.253  1.00  0.00     0.074 A 
ATOM     71  C   UNL A   1      42.055  31.635  37.372  1.00  0.00     0.031 C 
ATOM     72  C   UNL A   1      40.089  32.659  36.257  1.00  0.00     0.031 A 
BRANCH  59  73
ATOM     73  C   UNL A   1      36.871  32.658  30.963  1.00  0.00    -0.014 A 
ATOM     74  C   UNL A   1      35.555  32.185  31.116  1.00  0.00     0.010 A 
ATOM     75  C   UNL A   1      37.134  33.652  30.003  1.00  0.00     0.010 A 
ATOM     76  C   UNL A   1      34.535  32.649  30.281  1.00  0.00     0.020 A 
ATOM     77  C   UNL A   1      36.111  34.141  29.187  1.00  0.00     0.020 A 
ATOM     78  C   UNL A   1      34.823  33.616  29.313  1.00  0.00     0.054 A 
BRANCH  78  79
ATOM     79  S   UNL A   1      33.490  34.181  28.221  1.00  0.00     0.124 S 
ATOM     80  O   UNL A   1      33.080  32.935  27.578  1.00  0.00    -0.237 OA
ATOM     81  O   UNL A   1      32.525  34.751  29.158  1.00  0.00    -0.237 OA
ATOM     82  O   UNL A   1      34.148  35.147  27.343  1.00  0.00    -0.744 OA
ENDBRANCH  78  79
ENDBRANCH  59  73
BRANCH  60  83
ATOM     83  C   UNL A   1      44.643  28.677  35.831  1.00  0.00    -0.014 A 
ATOM     84  C   UNL A   1      44.420  27.668  36.783  1.00  0.00     0.010 A 
ATOM     85  C   UNL A   1      45.962  29.093  35.569  1.00  0.00     0.010 A 
ATOM     86  C   UNL A   1      45.495  27.084  37.461  1.00  0.00     0.020 A 
ATOM     87  C   UNL A   1      47.040  28.495  36.229  1.00  0.00     0.020 A 
ATOM     88  C   UNL A   1      46.799  27.497  37.175  1.00  0.00     0.054 A 
BRANCH  88  89
ATOM     89  S   UNL A   1      48.182  26.670  38.011  1.00  0.00     0.124 S 
ATOM     90  O   UNL A   1      47.992  27.086  39.397  1.00  0.00    -0.237 OA
ATOM     91  O   UNL A   1      47.920  25.261  37.731  1.00  0.00    -0.237 OA
ATOM     92  O   UNL A   1      49.361  27.220  37.348  1.00  0.00    -0.744 OA
ENDBRANCH  88  89
ENDBRANCH  60  83
BRANCH  72  93
ATOM     93  C   UNL A   1      39.819  33.429  37.525  1.00  0.00    -0.014 A 
ATOM     94  C   UNL A   1      38.982  32.918  38.532  1.00  0.00     0.010 A 
ATOM     95  C   UNL A   1      40.451  34.671  37.724  1.00  0.00     0.010 A 
ATOM     96  C   UNL A   1      38.746  33.657  39.695  1.00  0.00     0.020 A 
ATOM     97  C   UNL A   1      40.241  35.398  38.899  1.00  0.00     0.020 A 
ATOM     98  C   UNL A   1      39.374  34.894  39.869  1.00  0.00     0.054 A 
BRANCH  98  99
ATOM     99  S   UNL A   1      39.068  35.827  41.396  1.00  0.00     0.124 S 
ATOM    100  O   UNL A   1      37.765  35.314  41.809  1.00  0.00    -0.237 OA
ATOM    101  O   UNL A   1      40.194  35.436  42.242  1.00  0.00    -0.237 OA
ATOM    102  O   UNL A   1      39.080  37.221  40.959  1.00  0.00    -0.744 OA
ENDBRANCH  98  99
ENDBRANCH  72  93
ENDBRANCH  46  47
ENDBRANCH  39  41
ENDBRANCH  38  39
ENDBRANCH  37  38
ENDBRANCH  36  37
ENDBRANCH  35  36
ENDBRANCH  34  35
ENDBRANCH   1  34
TORSDOF 26
ENDMDL
MODEL 3
REMARK VINA RESULT:      -7.3      5.511     12.141
REMARK SMILES CCc1ccc(-c2cc(Cl)cc3c2O[C@@H](C(F)(F)F)C(C(=O)OCCOCCOCCOCCOC(=O)c2ccc(-c4c5nc(c(-c6ccc(S(=O)(=O)[O-])cc6)c6ccc([nH]6)c(-c6ccc(S(=O)(=O)[O-])cc6)c6nc(c(-c7ccc(S(=O)(=O)[O-])cc7)c7ccc4[nH]7)C=C6)C=C5)cc2)=C3)cc1
REMARK SMILES IDX 30 1 29 2 28 3 27 4 26 5 25 6 24 7 23 8 21 9 22 10 20 11
REMARK SMILES IDX 7 12 8 13 13 14 9 15 12 16 14 17 10 18 11 19 98 20 15 21
REMARK SMILES IDX 6 22 3 23 4 24 100 25 5 26 99 27 2 28 1 29 16 30 17 31 18 32
REMARK SMILES IDX 19 33 31 34 32 35 33 36 34 37 35 38 36 39 37 40 38 41 39 42
REMARK SMILES IDX 97 43 40 44 96 45 41 46 42 47 43 48 90 49 44 50 95 51 89 52
REMARK SMILES IDX 91 53 45 54 94 55 88 56 87 57 46 59 76 60 57 61 75 62 58 63
REMARK SMILES IDX 61 64 74 65 92 66 59 67 60 68 73 70 93 71 62 72 47 73 48 74
REMARK SMILES IDX 56 75 49 76 55 77 50 78 51 79 52 80 53 81 54 82 77 83 78 84
REMARK SMILES IDX 86 85 79 86 85 87 80 88 81 89 82 90 83 91 84 92 63 93 64 94
REMARK SMILES IDX 72 95 65 96 71 97 66 98 67 99 68 100 69 101 70 102
REMARK H PARENT 91 58 61 69
REMARK Flexibility Score: inf
ROOT
ATOM      1  C   UNL A   1      39.777  28.592  29.967  1.00  0.00     0.188 C 
ENDROOT
BRANCH   1   2
ATOM      2  O   UNL A   1      40.402  28.411  28.699  1.00  0.00    -0.377 OA
BRANCH   2   3
ATOM      3  C   UNL A   1      40.776  27.098  28.335  1.00  0.00     0.188 C 
BRANCH   3   4
ATOM      4  C   UNL A   1      42.266  26.973  27.994  1.00  0.00     0.188 C 
BRANCH   4   5
ATOM      5  O   UNL A   1      42.864  28.182  27.538  1.00  0.00    -0.376 OA
BRANCH   5   6
ATOM      6  C   UNL A   1      44.284  28.298  27.606  1.00  0.00     0.202 C 
BRANCH   6   7
ATOM      7  C   UNL A   1      44.890  29.222  28.673  1.00  0.00     0.261 C 
BRANCH   7   8
ATOM      8  O   UNL A   1      43.922  29.519  29.704  1.00  0.00    -0.460 OA
BRANCH   8   9
ATOM      9  C   UNL A   1      44.426  29.775  30.921  1.00  0.00     0.338 C 
ATOM     10  O   UNL A   1      45.325  29.136  31.453  1.00  0.00    -0.246 OA
BRANCH   9  11
ATOM     11  C   UNL A   1      43.908  31.041  31.501  1.00  0.00     0.087 C 
ATOM     12  C   UNL A   1      42.651  30.769  35.449  1.00  0.00     0.026 A 
ATOM     13  C   UNL A   1      42.291  29.416  35.654  1.00  0.00     0.033 A 
ATOM     14  C   UNL A   1      43.006  31.110  34.127  1.00  0.00     0.135 A 
ATOM     15  C   UNL A   1      41.958  28.592  34.580  1.00  0.00     0.042 A 
ATOM     16  C   UNL A   1      42.447  30.377  33.069  1.00  0.00     0.019 A 
ATOM     17  O   UNL A   1      44.120  31.912  33.873  1.00  0.00    -0.475 OA
ATOM     18  Cl  UNL A   1      41.488  26.966  34.869  1.00  0.00    -0.084 Cl
ATOM     19  C   UNL A   1      41.929  29.105  33.291  1.00  0.00     0.032 A 
ATOM     20  C   UNL A   1      42.584  30.919  31.700  1.00  0.00     0.027 C 
ATOM     21  C   UNL A   1      44.591  32.008  32.453  1.00  0.00     0.316 C 
BRANCH  12  22
ATOM     22  C   UNL A   1      41.988  31.719  36.414  1.00  0.00    -0.015 A 
ATOM     23  C   UNL A   1      40.690  32.737  38.771  1.00  0.00    -0.048 A 
ATOM     24  C   UNL A   1      42.076  32.833  38.610  1.00  0.00     0.004 A 
ATOM     25  C   UNL A   1      39.948  32.203  37.713  1.00  0.00     0.004 A 
ATOM     26  C   UNL A   1      42.710  32.349  37.448  1.00  0.00     0.009 A 
ATOM     27  C   UNL A   1      40.584  31.710  36.556  1.00  0.00     0.009 A 
BRANCH  23  28
ATOM     28  C   UNL A   1      40.021  33.198  40.047  1.00  0.00     0.032 C 
ATOM     29  C   UNL A   1      38.501  33.312  39.959  1.00  0.00     0.009 C 
ENDBRANCH  23  28
ENDBRANCH  12  22
BRANCH  21  30
ATOM     30  C   UNL A   1      46.106  32.282  32.261  1.00  0.00     0.430 C 
ATOM     31  F   UNL A   1      46.818  31.438  33.057  1.00  0.00    -0.167 F 
ATOM     32  F   UNL A   1      46.494  32.021  30.989  1.00  0.00    -0.167 F 
ATOM     33  F   UNL A   1      46.528  33.519  32.555  1.00  0.00    -0.167 F 
ENDBRANCH  21  30
ENDBRANCH   9  11
ENDBRANCH   8   9
ENDBRANCH   7   8
ENDBRANCH   6   7
ENDBRANCH   5   6
ENDBRANCH   4   5
ENDBRANCH   3   4
ENDBRANCH   2   3
ENDBRANCH   1   2
BRANCH   1  34
ATOM     34  C   UNL A   1      38.702  29.679  30.191  1.00  0.00     0.188 C 
BRANCH  34  35
ATOM     35  O   UNL A   1      37.713  29.763  29.165  1.00  0.00    -0.376 OA
BRANCH  35  36
ATOM     36  C   UNL A   1      37.055  31.011  29.001  1.00  0.00     0.202 C 
BRANCH  36  37
ATOM     37  C   UNL A   1      35.673  31.087  29.665  1.00  0.00     0.261 C 
BRANCH  37  38
ATOM     38  O   UNL A   1      35.695  31.074  31.100  1.00  0.00    -0.460 OA
BRANCH  38  39
ATOM     39  C   UNL A   1      35.288  32.202  31.722  1.00  0.00     0.338 C 
ATOM     40  O   UNL A   1      34.142  32.603  31.838  1.00  0.00    -0.246 OA
BRANCH  39  41
ATOM     41  C   UNL A   1      36.448  32.777  32.430  1.00  0.00     0.060 A 
ATOM     42  C   UNL A   1      36.507  34.166  32.594  1.00  0.00     0.016 A 
ATOM     43  C   UNL A   1      37.459  31.955  32.936  1.00  0.00     0.016 A 
ATOM     44  C   UNL A   1      37.613  34.743  33.215  1.00  0.00     0.010 A 
ATOM     45  C   UNL A   1      38.574  32.535  33.544  1.00  0.00     0.010 A 
ATOM     46  C   UNL A   1      38.675  33.934  33.640  1.00  0.00    -0.014 A 
BRANCH  46  47
ATOM     47  C   UNL A   1      39.980  34.565  33.942  1.00  0.00     0.031 A 
ATOM     48  C   UNL A   1      40.988  34.659  32.829  1.00  0.00     0.074 A 
ATOM     49  C   UNL A   1      40.253  35.083  35.152  1.00  0.00     0.049 A 
ATOM     50  N   UNL A   1      42.169  35.220  32.822  1.00  0.00    -0.248 NA
ATOM     51  C   UNL A   1      40.606  34.039  31.549  1.00  0.00     0.031 C 
ATOM     52  C   UNL A   1      39.347  35.088  36.298  1.00  0.00     0.029 A 
ATOM     53  N   UNL A   1      41.380  35.719  35.607  1.00  0.00    -0.354 N 
ATOM     54  C   UNL A   1      42.668  35.024  31.539  1.00  0.00     0.074 A 
ATOM     55  C   UNL A   1      41.682  34.258  30.810  1.00  0.00     0.031 C 
ATOM     56  C   UNL A   1      39.952  35.708  37.327  1.00  0.00     0.029 A 
ATOM     57  C   UNL A   1      41.294  36.124  36.917  1.00  0.00     0.049 A 
ATOM     58  H   UNL A   1      42.176  35.870  35.047  1.00  0.00     0.167 HD
ATOM     59  C   UNL A   1      43.838  35.451  31.007  1.00  0.00     0.031 A 
ATOM     60  C   UNL A   1      42.195  36.759  37.692  1.00  0.00     0.031 A 
ATOM     61  C   UNL A   1      44.835  36.178  31.743  1.00  0.00     0.049 A 
ATOM     62  C   UNL A   1      43.525  37.157  37.106  1.00  0.00     0.074 A 
ATOM     63  C   UNL A   1      46.056  36.654  31.301  1.00  0.00     0.029 A 
ATOM     64  N   UNL A   1      44.733  36.519  33.083  1.00  0.00    -0.354 N 
ATOM     65  N   UNL A   1      43.972  36.993  35.883  1.00  0.00    -0.248 NA
ATOM     66  C   UNL A   1      44.466  37.839  38.004  1.00  0.00     0.031 C 
ATOM     67  C   UNL A   1      46.717  37.235  32.389  1.00  0.00     0.029 A 
ATOM     68  C   UNL A   1      45.880  37.177  33.493  1.00  0.00     0.049 A 
ATOM     69  H   UNL A   1      43.959  36.321  33.658  1.00  0.00     0.167 HD
ATOM     70  C   UNL A   1      45.233  37.583  35.856  1.00  0.00     0.074 A 
ATOM     71  C   UNL A   1      45.472  38.112  37.184  1.00  0.00     0.031 C 
ATOM     72  C   UNL A   1      46.107  37.689  34.823  1.00  0.00     0.031 A 
BRANCH  59  73
ATOM     73  C   UNL A   1      44.104  35.085  29.570  1.00  0.00    -0.014 A 
ATOM     74  C   UNL A   1      43.796  35.973  28.523  1.00  0.00     0.010 A 
ATOM     75  C   UNL A   1      44.636  33.820  29.263  1.00  0.00     0.010 A 
ATOM     76  C   UNL A   1      43.956  35.578  27.192  1.00  0.00     0.020 A 
ATOM     77  C   UNL A   1      44.826  33.433  27.934  1.00  0.00     0.020 A 
ATOM     78  C   UNL A   1      44.459  34.304  26.907  1.00  0.00     0.054 A 
BRANCH  78  79
ATOM     79  S   UNL A   1      44.630  33.803  25.172  1.00  0.00     0.124 S 
ATOM     80  O   UNL A   1      43.333  34.187  24.620  1.00  0.00    -0.237 OA
ATOM     81  O   UNL A   1      45.767  34.599  24.717  1.00  0.00    -0.237 OA
ATOM     82  O   UNL A   1      44.871  32.364  25.250  1.00  0.00    -0.744 OA
ENDBRANCH  78  79
ENDBRANCH  59  73
BRANCH  60  83
ATOM     83  C   UNL A   1      41.856  37.081  39.105  1.00  0.00    -0.014 A 
ATOM     84  C   UNL A   1      41.195  38.279  39.426  1.00  0.00     0.010 A 
ATOM     85  C   UNL A   1      42.176  36.179  40.137  1.00  0.00     0.010 A 
ATOM     86  C   UNL A   1      40.858  38.570  40.751  1.00  0.00     0.020 A 
ATOM     87  C   UNL A   1      41.821  36.457  41.460  1.00  0.00     0.020 A 
ATOM     88  C   UNL A   1      41.169  37.654  41.759  1.00  0.00     0.054 A 
BRANCH  88  89
ATOM     89  S   UNL A   1      40.652  38.018  43.462  1.00  0.00     0.124 S 
ATOM     90  O   UNL A   1      41.709  37.384  44.243  1.00  0.00    -0.237 OA
ATOM     91  O   UNL A   1      40.642  39.479  43.480  1.00  0.00    -0.237 OA
ATOM     92  O   UNL A   1      39.336  37.393  43.562  1.00  0.00    -0.744 OA
ENDBRANCH  88  89
ENDBRANCH  60  83
BRANCH  72  93
ATOM     93  C   UNL A   1      47.391  38.439  35.075  1.00  0.00    -0.014 A 
ATOM     94  C   UNL A   1      48.556  37.779  35.504  1.00  0.00     0.010 A 
ATOM     95  C   UNL A   1      47.436  39.825  34.838  1.00  0.00     0.010 A 
ATOM     96  C   UNL A   1      49.731  38.501  35.734  1.00  0.00     0.020 A 
ATOM     97  C   UNL A   1      48.617  40.545  35.039  1.00  0.00     0.020 A 
ATOM     98  C   UNL A   1      49.752  39.881  35.505  1.00  0.00     0.054 A 
BRANCH  98  99
ATOM     99  S   UNL A   1      51.294  40.794  35.792  1.00  0.00     0.124 S 
ATOM    100  O   UNL A   1      52.152  39.766  36.372  1.00  0.00    -0.237 OA
ATOM    101  O   UNL A   1      51.662  41.235  34.448  1.00  0.00    -0.237 OA
ATOM    102  O   UNL A   1      50.898  41.864  36.705  1.00  0.00    -0.744 OA
ENDBRANCH  98  99
ENDBRANCH  72  93
ENDBRANCH  46  47
ENDBRANCH  39  41
ENDBRANCH  38  39
ENDBRANCH  37  38
ENDBRANCH  36  37
ENDBRANCH  35  36
ENDBRANCH  34  35
ENDBRANCH   1  34
TORSDOF 26
ENDMDL
