MODEL 1
REMARK VINA RESULT:      -5.4      0.000      0.000
REMARK SMILES Cc1c(C(=O)OCCOCCOCCOCCOC(=O)c2ccc(-c3c4nc(c(-c5ccc(S(=O)(=O)[O-])cc5)c5ccc([nH]5)c(-c5ccc(S(=O)(=O)[O-])cc5)c5nc(c(-c6ccc(S(=O)(=O)[O-])cc6)c6ccc3[nH]6)C=C5)C=C4)cc2)cccc1N1[C@@H](C)C=C(/C=C(\C#N)C(=O)NCCc2c[nH]c3ccccc23)[C@@H]1C
REMARK SMILES IDX 10 1 9 2 8 3 7 4 6 5 4 6 5 7 3 8 1 9 2 10 84 11 81 12 83 13
REMARK SMILES IDX 82 14 85 15 86 16 108 17 88 18 87 19 89 20 109 21 90 22
REMARK SMILES IDX 91 23 92 24 93 25 94 26 95 27 96 28 97 30 98 31 99 32 100 33
REMARK SMILES IDX 107 34 101 35 102 36 106 37 103 39 105 40 104 41 11 42 12 43
REMARK SMILES IDX 13 44 14 45 15 46 16 47 17 48 18 49 19 50 20 51 21 52 22 53
REMARK SMILES IDX 80 54 23 55 79 56 24 57 25 58 26 59 73 60 27 61 78 62 72 63
REMARK SMILES IDX 74 64 28 65 77 66 71 67 70 68 29 70 59 71 40 72 58 73 41 74
REMARK SMILES IDX 44 75 57 76 75 77 42 78 43 79 56 81 76 82 45 83 30 84 31 85
REMARK SMILES IDX 39 86 32 87 38 88 33 89 34 90 35 91 36 92 37 93 60 94 61 95
REMARK SMILES IDX 69 96 62 97 68 98 63 99 64 100 65 101 66 102 67 103 46 104
REMARK SMILES IDX 47 105 55 106 48 107 54 108 49 109 50 110 51 111 52 112
REMARK SMILES IDX 53 113
REMARK H PARENT 96 29 101 38 74 69 44 80
REMARK Flexibility Score: inf
ROOT
ATOM      1  C   UNL A   1      46.767  20.276  35.396  1.00  0.00     0.188 C 
ENDROOT
BRANCH   1   2
ATOM      2  O   UNL A   1      47.137  20.548  34.056  1.00  0.00    -0.376 OA
BRANCH   2   3
ATOM      3  C   UNL A   1      48.073  19.636  33.499  1.00  0.00     0.202 C 
BRANCH   3   4
ATOM      4  C   UNL A   1      49.459  19.575  34.104  1.00  0.00     0.261 C 
BRANCH   4   5
ATOM      5  O   UNL A   1      50.332  20.423  33.371  1.00  0.00    -0.460 OA
BRANCH   5   6
ATOM      6  C   UNL A   1      51.603  20.353  33.763  1.00  0.00     0.338 C 
ATOM      7  O   UNL A   1      52.179  19.353  34.163  1.00  0.00    -0.246 OA
BRANCH   6   8
ATOM      8  C   UNL A   1      52.335  21.586  33.378  1.00  0.00     0.065 A 
ATOM      9  C   UNL A   1      50.479  23.382  33.412  1.00  0.00     0.047 C 
ATOM     10  C   UNL A   1      51.922  22.940  33.445  1.00  0.00    -0.013 A 
ATOM     11  C   UNL A   1      52.879  23.950  33.217  1.00  0.00     0.041 A 
ATOM     12  C   UNL A   1      53.543  21.266  32.739  1.00  0.00     0.016 A 
ATOM     13  C   UNL A   1      54.115  23.568  32.658  1.00  0.00     0.026 A 
ATOM     14  C   UNL A   1      54.413  22.253  32.338  1.00  0.00     0.003 A 
BRANCH  11  15
ATOM     15  N   UNL A   1      52.590  25.293  33.346  1.00  0.00    -0.358 N 
ATOM     16  C   UNL A   1      52.677  26.146  32.171  1.00  0.00     0.103 C 
ATOM     17  C   UNL A   1      52.214  26.024  34.574  1.00  0.00     0.110 C 
ATOM     18  C   UNL A   1      52.272  27.459  32.721  1.00  0.00     0.003 C 
ATOM     19  C   UNL A   1      51.695  25.747  31.073  1.00  0.00     0.035 C 
ATOM     20  C   UNL A   1      51.919  27.411  34.011  1.00  0.00    -0.026 C 
ATOM     21  C   UNL A   1      53.378  26.027  35.569  1.00  0.00     0.036 C 
BRANCH  20  22
ATOM     22  C   UNL A   1      51.347  28.496  34.789  1.00  0.00     0.031 C 
ATOM     23  C   UNL A   1      52.005  29.443  35.504  1.00  0.00     0.117 C 
BRANCH  23  24
ATOM     24  C   UNL A   1      53.409  29.521  35.598  1.00  0.00     0.105 C 
ATOM     25  N   UNL A   1      54.583  29.534  35.703  1.00  0.00    -0.192 NA
ENDBRANCH  23  24
BRANCH  23  26
ATOM     26  C   UNL A   1      51.194  30.239  36.467  1.00  0.00     0.261 C 
ATOM     27  O   UNL A   1      51.352  31.455  36.590  1.00  0.00    -0.268 OA
ATOM     28  N   UNL A   1      50.089  29.686  37.036  1.00  0.00    -0.351 N 
ATOM     29  H   UNL A   1      49.301  30.275  37.001  1.00  0.00     0.163 HD
BRANCH  28  30
ATOM     30  C   UNL A   1      49.818  28.395  37.694  1.00  0.00     0.121 C 
BRANCH  30  31
ATOM     31  C   UNL A   1      50.942  27.878  38.647  1.00  0.00     0.059 C 
BRANCH  31  32
ATOM     32  C   UNL A   1      50.663  26.518  39.301  1.00  0.00    -0.021 A 
ATOM     33  C   UNL A   1      51.405  26.042  40.384  1.00  0.00     0.087 A 
ATOM     34  C   UNL A   1      50.472  25.285  38.597  1.00  0.00     0.003 A 
ATOM     35  N   UNL A   1      52.395  25.363  39.660  1.00  0.00    -0.361 N 
ATOM     36  C   UNL A   1      51.755  24.732  38.612  1.00  0.00     0.046 A 
ATOM     37  C   UNL A   1      49.456  24.590  37.920  1.00  0.00     0.010 A 
ATOM     38  H   UNL A   1      53.358  25.340  39.861  1.00  0.00     0.166 HD
ATOM     39  C   UNL A   1      52.167  23.725  37.747  1.00  0.00     0.026 A 
ATOM     40  C   UNL A   1      49.809  23.422  37.224  1.00  0.00     0.001 A 
ATOM     41  C   UNL A   1      51.149  23.053  37.069  1.00  0.00     0.002 A 
ENDBRANCH  31  32
ENDBRANCH  30  31
ENDBRANCH  28  30
ENDBRANCH  23  26
ENDBRANCH  20  22
ENDBRANCH  11  15
ENDBRANCH   6   8
ENDBRANCH   5   6
ENDBRANCH   4   5
ENDBRANCH   3   4
ENDBRANCH   2   3
ENDBRANCH   1   2
BRANCH   1  42
ATOM     42  C   UNL A   1      45.444  20.792  35.984  1.00  0.00     0.188 C 
BRANCH  42  43
ATOM     43  O   UNL A   1      44.777  21.864  35.342  1.00  0.00    -0.377 OA
BRANCH  43  44
ATOM     44  C   UNL A   1      45.062  23.195  35.758  1.00  0.00     0.188 C 
BRANCH  44  45
ATOM     45  C   UNL A   1      45.371  23.448  37.199  1.00  0.00     0.188 C 
BRANCH  45  46
ATOM     46  O   UNL A   1      46.128  24.659  37.192  1.00  0.00    -0.376 OA
BRANCH  46  47
ATOM     47  C   UNL A   1      45.826  25.594  38.195  1.00  0.00     0.202 C 
BRANCH  47  48
ATOM     48  C   UNL A   1      46.107  27.024  37.764  1.00  0.00     0.261 C 
BRANCH  48  49
ATOM     49  O   UNL A   1      46.376  27.150  36.332  1.00  0.00    -0.460 OA
BRANCH  49  50
ATOM     50  C   UNL A   1      45.933  28.155  35.507  1.00  0.00     0.338 C 
ATOM     51  O   UNL A   1      45.171  29.022  35.918  1.00  0.00    -0.246 OA
BRANCH  50  52
ATOM     52  C   UNL A   1      46.676  28.365  34.226  1.00  0.00     0.060 A 
ATOM     53  C   UNL A   1      46.205  29.192  33.189  1.00  0.00     0.016 A 
ATOM     54  C   UNL A   1      47.882  27.736  34.029  1.00  0.00     0.016 A 
ATOM     55  C   UNL A   1      46.767  29.151  31.884  1.00  0.00     0.010 A 
ATOM     56  C   UNL A   1      48.401  27.667  32.741  1.00  0.00     0.010 A 
ATOM     57  C   UNL A   1      47.825  28.295  31.616  1.00  0.00    -0.014 A 
BRANCH  57  58
ATOM     58  C   UNL A   1      48.412  27.942  30.278  1.00  0.00     0.031 A 
ATOM     59  C   UNL A   1      49.670  28.691  29.876  1.00  0.00     0.074 A 
ATOM     60  C   UNL A   1      48.104  26.766  29.646  1.00  0.00     0.049 A 
ATOM     61  N   UNL A   1      50.475  28.369  28.923  1.00  0.00    -0.248 NA
ATOM     62  C   UNL A   1      50.198  29.834  30.623  1.00  0.00     0.031 C 
ATOM     63  C   UNL A   1      48.958  25.999  28.736  1.00  0.00     0.029 A 
ATOM     64  N   UNL A   1      46.997  25.924  29.721  1.00  0.00    -0.354 N 
ATOM     65  C   UNL A   1      51.723  28.924  29.170  1.00  0.00     0.074 A 
ATOM     66  C   UNL A   1      51.475  29.879  30.219  1.00  0.00     0.031 C 
ATOM     67  C   UNL A   1      48.364  24.890  28.279  1.00  0.00     0.029 A 
ATOM     68  C   UNL A   1      46.985  25.046  28.619  1.00  0.00     0.049 A 
ATOM     69  H   UNL A   1      46.323  25.940  30.438  1.00  0.00     0.167 HD
ATOM     70  C   UNL A   1      52.828  28.398  28.545  1.00  0.00     0.031 A 
ATOM     71  C   UNL A   1      45.999  25.149  27.690  1.00  0.00     0.031 A 
ATOM     72  C   UNL A   1      52.431  27.359  27.556  1.00  0.00     0.049 A 
ATOM     73  C   UNL A   1      46.677  25.693  26.408  1.00  0.00     0.074 A 
ATOM     74  C   UNL A   1      52.767  26.033  27.338  1.00  0.00     0.029 A 
ATOM     75  N   UNL A   1      51.331  27.596  26.720  1.00  0.00    -0.354 N 
ATOM     76  N   UNL A   1      47.712  26.523  26.394  1.00  0.00    -0.248 NA
ATOM     77  C   UNL A   1      46.535  24.993  25.130  1.00  0.00     0.031 C 
ATOM     78  C   UNL A   1      51.779  25.456  26.477  1.00  0.00     0.029 A 
ATOM     79  C   UNL A   1      50.861  26.440  26.118  1.00  0.00     0.049 A 
ATOM     80  H   UNL A   1      50.936  28.487  26.576  1.00  0.00     0.167 HD
ATOM     81  C   UNL A   1      48.490  26.282  25.270  1.00  0.00     0.074 A 
ATOM     82  C   UNL A   1      47.665  25.354  24.494  1.00  0.00     0.031 C 
ATOM     83  C   UNL A   1      49.841  26.508  25.067  1.00  0.00     0.031 A 
BRANCH  70  84
ATOM     84  C   UNL A   1      54.307  28.667  28.921  1.00  0.00    -0.014 A 
ATOM     85  C   UNL A   1      54.925  29.873  28.510  1.00  0.00     0.010 A 
ATOM     86  C   UNL A   1      55.152  27.810  29.664  1.00  0.00     0.010 A 
ATOM     87  C   UNL A   1      56.264  30.207  28.803  1.00  0.00     0.020 A 
ATOM     88  C   UNL A   1      56.499  28.137  29.982  1.00  0.00     0.020 A 
ATOM     89  C   UNL A   1      57.046  29.343  29.555  1.00  0.00     0.054 A 
BRANCH  89  90
ATOM     90  S   UNL A   1      58.735  29.853  30.005  1.00  0.00     0.124 S 
ATOM     91  O   UNL A   1      59.169  30.603  28.829  1.00  0.00    -0.237 OA
ATOM     92  O   UNL A   1      58.515  30.650  31.209  1.00  0.00    -0.237 OA
ATOM     93  O   UNL A   1      59.436  28.589  30.223  1.00  0.00    -0.744 OA
ENDBRANCH  89  90
ENDBRANCH  70  84
BRANCH  71  94
ATOM     94  C   UNL A   1      44.685  25.304  28.437  1.00  0.00    -0.014 A 
ATOM     95  C   UNL A   1      44.072  26.589  28.282  1.00  0.00     0.010 A 
ATOM     96  C   UNL A   1      43.809  24.208  28.582  1.00  0.00     0.010 A 
ATOM     97  C   UNL A   1      42.691  26.736  28.035  1.00  0.00     0.020 A 
ATOM     98  C   UNL A   1      42.417  24.359  28.341  1.00  0.00     0.020 A 
ATOM     99  C   UNL A   1      41.875  25.609  28.016  1.00  0.00     0.054 A 
BRANCH  99 100
ATOM    100  S   UNL A   1      40.178  25.764  27.340  1.00  0.00     0.124 S 
ATOM    101  O   UNL A   1      39.489  24.634  27.950  1.00  0.00    -0.237 OA
ATOM    102  O   UNL A   1      39.752  27.085  27.800  1.00  0.00    -0.237 OA
ATOM    103  O   UNL A   1      40.373  25.669  25.899  1.00  0.00    -0.744 OA
ENDBRANCH  99 100
ENDBRANCH  71  94
BRANCH  83 104
ATOM    104  C   UNL A   1      50.371  26.976  23.718  1.00  0.00    -0.014 A 
ATOM    105  C   UNL A   1      51.668  26.748  23.259  1.00  0.00     0.010 A 
ATOM    106  C   UNL A   1      49.461  27.556  22.788  1.00  0.00     0.010 A 
ATOM    107  C   UNL A   1      52.024  27.029  21.939  1.00  0.00     0.020 A 
ATOM    108  C   UNL A   1      49.789  27.799  21.458  1.00  0.00     0.020 A 
ATOM    109  C   UNL A   1      51.075  27.519  21.041  1.00  0.00     0.054 A 
BRANCH 109 110
ATOM    110  S   UNL A   1      51.555  27.726  19.319  1.00  0.00     0.124 S 
ATOM    111  O   UNL A   1      52.718  26.847  19.223  1.00  0.00    -0.237 OA
ATOM    112  O   UNL A   1      50.361  27.266  18.613  1.00  0.00    -0.237 OA
ATOM    113  O   UNL A   1      51.837  29.153  19.199  1.00  0.00    -0.744 OA
ENDBRANCH 109 110
ENDBRANCH  83 104
ENDBRANCH  57  58
ENDBRANCH  50  52
ENDBRANCH  49  50
ENDBRANCH  48  49
ENDBRANCH  47  48
ENDBRANCH  46  47
ENDBRANCH  45  46
ENDBRANCH  44  45
ENDBRANCH  43  44
ENDBRANCH  42  43
ENDBRANCH   1  42
TORSDOF 30
ENDMDL
MODEL 2
REMARK VINA RESULT:      -5.3      4.189      7.956
REMARK SMILES Cc1c(C(=O)OCCOCCOCCOCCOC(=O)c2ccc(-c3c4nc(c(-c5ccc(S(=O)(=O)[O-])cc5)c5ccc([nH]5)c(-c5ccc(S(=O)(=O)[O-])cc5)c5nc(c(-c6ccc(S(=O)(=O)[O-])cc6)c6ccc3[nH]6)C=C5)C=C4)cc2)cccc1N1[C@@H](C)C=C(/C=C(\C#N)C(=O)NCCc2c[nH]c3ccccc23)[C@@H]1C
REMARK SMILES IDX 10 1 9 2 8 3 7 4 6 5 4 6 5 7 3 8 1 9 2 10 84 11 81 12 83 13
REMARK SMILES IDX 82 14 85 15 86 16 108 17 88 18 87 19 89 20 109 21 90 22
REMARK SMILES IDX 91 23 92 24 93 25 94 26 95 27 96 28 97 30 98 31 99 32 100 33
REMARK SMILES IDX 107 34 101 35 102 36 106 37 103 39 105 40 104 41 11 42 12 43
REMARK SMILES IDX 13 44 14 45 15 46 16 47 17 48 18 49 19 50 20 51 21 52 22 53
REMARK SMILES IDX 80 54 23 55 79 56 24 57 25 58 26 59 73 60 27 61 78 62 72 63
REMARK SMILES IDX 74 64 28 65 77 66 71 67 70 68 29 70 59 71 40 72 58 73 41 74
REMARK SMILES IDX 44 75 57 76 75 77 42 78 43 79 56 81 76 82 45 83 30 84 31 85
REMARK SMILES IDX 39 86 32 87 38 88 33 89 34 90 35 91 36 92 37 93 60 94 61 95
REMARK SMILES IDX 69 96 62 97 68 98 63 99 64 100 65 101 66 102 67 103 46 104
REMARK SMILES IDX 47 105 55 106 48 107 54 108 49 109 50 110 51 111 52 112
REMARK SMILES IDX 53 113
REMARK H PARENT 96 29 101 38 74 69 44 80
REMARK Flexibility Score: inf
ROOT
ATOM      1  C   UNL A   1      39.728  30.894  35.578  1.00  0.00     0.188 C 
ENDROOT
BRANCH   1   2
ATOM      2  O   UNL A   1      41.099  30.853  35.224  1.00  0.00    -0.376 OA
BRANCH   2   3
ATOM      3  C   UNL A   1      41.378  31.203  33.875  1.00  0.00     0.202 C 
BRANCH   3   4
ATOM      4  C   UNL A   1      42.804  31.076  33.385  1.00  0.00     0.261 C 
BRANCH   4   5
ATOM      5  O   UNL A   1      43.649  30.730  34.473  1.00  0.00    -0.460 OA
BRANCH   5   6
ATOM      6  C   UNL A   1      44.879  30.375  34.107  1.00  0.00     0.338 C 
ATOM      7  O   UNL A   1      45.891  31.047  34.235  1.00  0.00    -0.246 OA
BRANCH   6   8
ATOM      8  C   UNL A   1      44.928  28.927  33.784  1.00  0.00     0.065 A 
ATOM      9  C   UNL A   1      45.563  27.860  36.048  1.00  0.00     0.047 C 
ATOM     10  C   UNL A   1      44.992  27.809  34.652  1.00  0.00    -0.013 A 
ATOM     11  C   UNL A   1      44.814  26.521  34.108  1.00  0.00     0.041 A 
ATOM     12  C   UNL A   1      45.063  28.733  32.400  1.00  0.00     0.016 A 
ATOM     13  C   UNL A   1      44.866  26.387  32.706  1.00  0.00     0.026 A 
ATOM     14  C   UNL A   1      45.079  27.466  31.863  1.00  0.00     0.003 A 
BRANCH  11  15
ATOM     15  N   UNL A   1      44.774  25.383  34.886  1.00  0.00    -0.358 N 
ATOM     16  C   UNL A   1      43.803  25.305  35.967  1.00  0.00     0.103 C 
ATOM     17  C   UNL A   1      45.638  24.187  34.788  1.00  0.00     0.110 C 
ATOM     18  C   UNL A   1      44.068  23.955  36.513  1.00  0.00     0.003 C 
ATOM     19  C   UNL A   1      42.360  25.365  35.475  1.00  0.00     0.035 C 
ATOM     20  C   UNL A   1      45.000  23.277  35.832  1.00  0.00    -0.026 C 
ATOM     21  C   UNL A   1      47.087  24.549  35.130  1.00  0.00     0.036 C 
BRANCH  20  22
ATOM     22  C   UNL A   1      45.375  21.888  36.035  1.00  0.00     0.031 C 
ATOM     23  C   UNL A   1      46.241  21.387  36.951  1.00  0.00     0.117 C 
BRANCH  23  24
ATOM     24  C   UNL A   1      46.935  22.177  37.890  1.00  0.00     0.105 C 
ATOM     25  N   UNL A   1      47.554  22.795  38.679  1.00  0.00    -0.192 NA
ENDBRANCH  23  24
BRANCH  23  26
ATOM     26  C   UNL A   1      46.697  19.984  36.743  1.00  0.00     0.261 C 
ATOM     27  O   UNL A   1      45.911  19.038  36.798  1.00  0.00    -0.268 OA
ATOM     28  N   UNL A   1      47.936  19.747  36.233  1.00  0.00    -0.351 N 
ATOM     29  H   UNL A   1      47.932  19.088  35.501  1.00  0.00     0.163 HD
BRANCH  28  30
ATOM     30  C   UNL A   1      49.282  20.264  36.540  1.00  0.00     0.121 C 
BRANCH  30  31
ATOM     31  C   UNL A   1      50.467  19.466  35.911  1.00  0.00     0.059 C 
BRANCH  31  32
ATOM     32  C   UNL A   1      51.795  20.231  35.833  1.00  0.00    -0.021 A 
ATOM     33  C   UNL A   1      52.064  21.348  36.627  1.00  0.00     0.087 A 
ATOM     34  C   UNL A   1      52.438  20.653  34.624  1.00  0.00     0.003 A 
ATOM     35  N   UNL A   1      51.578  22.331  35.754  1.00  0.00    -0.361 N 
ATOM     36  C   UNL A   1      51.978  21.964  34.485  1.00  0.00     0.046 A 
ATOM     37  C   UNL A   1      53.272  20.130  33.622  1.00  0.00     0.010 A 
ATOM     38  H   UNL A   1      51.054  23.127  35.999  1.00  0.00     0.166 HD
ATOM     39  C   UNL A   1      52.021  22.670  33.287  1.00  0.00     0.026 A 
ATOM     40  C   UNL A   1      53.525  20.928  32.494  1.00  0.00     0.001 A 
ATOM     41  C   UNL A   1      52.842  22.131  32.295  1.00  0.00     0.002 A 
ENDBRANCH  31  32
ENDBRANCH  30  31
ENDBRANCH  28  30
ENDBRANCH  23  26
ENDBRANCH  20  22
ENDBRANCH  11  15
ENDBRANCH   6   8
ENDBRANCH   5   6
ENDBRANCH   4   5
ENDBRANCH   3   4
ENDBRANCH   2   3
ENDBRANCH   1   2
BRANCH   1  42
ATOM     42  C   UNL A   1      39.130  32.090  36.335  1.00  0.00     0.188 C 
BRANCH  42  43
ATOM     43  O   UNL A   1      38.308  33.007  35.635  1.00  0.00    -0.377 OA
BRANCH  43  44
ATOM     44  C   UNL A   1      38.811  33.608  34.447  1.00  0.00     0.188 C 
BRANCH  44  45
ATOM     45  C   UNL A   1      37.890  34.444  33.618  1.00  0.00     0.188 C 
BRANCH  45  46
ATOM     46  O   UNL A   1      37.513  33.592  32.536  1.00  0.00    -0.376 OA
BRANCH  46  47
ATOM     47  C   UNL A   1      38.450  32.619  32.148  1.00  0.00     0.202 C 
BRANCH  47  48
ATOM     48  C   UNL A   1      37.806  31.279  31.836  1.00  0.00     0.261 C 
BRANCH  48  49
ATOM     49  O   UNL A   1      37.906  30.908  30.425  1.00  0.00    -0.460 OA
BRANCH  49  50
ATOM     50  C   UNL A   1      38.371  29.713  29.929  1.00  0.00     0.338 C 
ATOM     51  O   UNL A   1      37.616  28.921  29.377  1.00  0.00    -0.246 OA
BRANCH  50  52
ATOM     52  C   UNL A   1      39.850  29.571  29.764  1.00  0.00     0.060 A 
ATOM     53  C   UNL A   1      40.731  30.667  29.737  1.00  0.00     0.016 A 
ATOM     54  C   UNL A   1      40.402  28.318  29.638  1.00  0.00     0.016 A 
ATOM     55  C   UNL A   1      42.075  30.538  29.292  1.00  0.00     0.010 A 
ATOM     56  C   UNL A   1      41.703  28.203  29.164  1.00  0.00     0.010 A 
ATOM     57  C   UNL A   1      42.553  29.297  28.896  1.00  0.00    -0.014 A 
BRANCH  57  58
ATOM     58  C   UNL A   1      43.848  28.986  28.201  1.00  0.00     0.031 A 
ATOM     59  C   UNL A   1      44.617  30.170  27.643  1.00  0.00     0.074 A 
ATOM     60  C   UNL A   1      44.506  27.800  28.406  1.00  0.00     0.049 A 
ATOM     61  N   UNL A   1      45.846  30.167  27.259  1.00  0.00    -0.248 NA
ATOM     62  C   UNL A   1      44.069  31.527  27.584  1.00  0.00     0.031 C 
ATOM     63  C   UNL A   1      45.950  27.566  28.342  1.00  0.00     0.029 A 
ATOM     64  N   UNL A   1      44.063  26.540  28.800  1.00  0.00    -0.354 N 
ATOM     65  C   UNL A   1      46.346  31.461  27.312  1.00  0.00     0.074 A 
ATOM     66  C   UNL A   1      45.172  32.279  27.468  1.00  0.00     0.031 C 
ATOM     67  C   UNL A   1      46.279  26.292  28.587  1.00  0.00     0.029 A 
ATOM     68  C   UNL A   1      45.046  25.573  28.511  1.00  0.00     0.049 A 
ATOM     69  H   UNL A   1      43.193  26.352  29.219  1.00  0.00     0.167 HD
ATOM     70  C   UNL A   1      47.706  31.654  27.357  1.00  0.00     0.031 A 
ATOM     71  C   UNL A   1      44.799  24.623  27.571  1.00  0.00     0.031 A 
ATOM     72  C   UNL A   1      48.429  30.364  27.189  1.00  0.00     0.049 A 
ATOM     73  C   UNL A   1      45.720  24.961  26.373  1.00  0.00     0.074 A 
ATOM     74  C   UNL A   1      49.389  29.676  27.913  1.00  0.00     0.029 A 
ATOM     75  N   UNL A   1      47.989  29.456  26.216  1.00  0.00    -0.354 N 
ATOM     76  N   UNL A   1      46.084  26.186  26.019  1.00  0.00    -0.248 NA
ATOM     77  C   UNL A   1      46.625  23.953  25.816  1.00  0.00     0.031 C 
ATOM     78  C   UNL A   1      49.413  28.321  27.450  1.00  0.00     0.029 A 
ATOM     79  C   UNL A   1      48.505  28.184  26.403  1.00  0.00     0.049 A 
ATOM     80  H   UNL A   1      47.379  29.695  25.481  1.00  0.00     0.167 HD
ATOM     81  C   UNL A   1      47.349  26.154  25.451  1.00  0.00     0.074 A 
ATOM     82  C   UNL A   1      47.604  24.719  25.301  1.00  0.00     0.031 C 
ATOM     83  C   UNL A   1      48.315  27.145  25.386  1.00  0.00     0.031 A 
BRANCH  70  84
ATOM     84  C   UNL A   1      48.431  32.972  27.729  1.00  0.00    -0.014 A 
ATOM     85  C   UNL A   1      48.150  33.600  28.967  1.00  0.00     0.010 A 
ATOM     86  C   UNL A   1      49.386  33.655  26.940  1.00  0.00     0.010 A 
ATOM     87  C   UNL A   1      48.758  34.800  29.393  1.00  0.00     0.020 A 
ATOM     88  C   UNL A   1      50.019  34.856  27.359  1.00  0.00     0.020 A 
ATOM     89  C   UNL A   1      49.707  35.419  28.593  1.00  0.00     0.054 A 
BRANCH  89  90
ATOM     90  S   UNL A   1      50.548  36.907  29.220  1.00  0.00     0.124 S 
ATOM     91  O   UNL A   1      51.916  36.730  28.741  1.00  0.00    -0.237 OA
ATOM     92  O   UNL A   1      49.798  37.987  28.585  1.00  0.00    -0.237 OA
ATOM     93  O   UNL A   1      50.386  36.816  30.670  1.00  0.00    -0.744 OA
ENDBRANCH  89  90
ENDBRANCH  70  84
BRANCH  71  94
ATOM     94  C   UNL A   1      43.394  24.099  27.816  1.00  0.00    -0.014 A 
ATOM     95  C   UNL A   1      42.553  24.115  26.657  1.00  0.00     0.010 A 
ATOM     96  C   UNL A   1      43.170  23.052  28.734  1.00  0.00     0.010 A 
ATOM     97  C   UNL A   1      41.724  23.026  26.317  1.00  0.00     0.020 A 
ATOM     98  C   UNL A   1      42.329  21.958  28.394  1.00  0.00     0.020 A 
ATOM     99  C   UNL A   1      41.655  21.925  27.166  1.00  0.00     0.054 A 
BRANCH  99 100
ATOM    100  S   UNL A   1      40.879  20.384  26.547  1.00  0.00     0.124 S 
ATOM    101  O   UNL A   1      39.553  20.836  26.145  1.00  0.00    -0.237 OA
ATOM    102  O   UNL A   1      41.764  19.976  25.456  1.00  0.00    -0.237 OA
ATOM    103  O   UNL A   1      40.911  19.498  27.703  1.00  0.00    -0.744 OA
ENDBRANCH  99 100
ENDBRANCH  71  94
BRANCH  83 104
ATOM    104  C   UNL A   1      49.202  27.308  24.159  1.00  0.00    -0.014 A 
ATOM    105  C   UNL A   1      50.595  27.361  24.196  1.00  0.00     0.010 A 
ATOM    106  C   UNL A   1      48.601  27.256  22.868  1.00  0.00     0.010 A 
ATOM    107  C   UNL A   1      51.347  27.312  23.021  1.00  0.00     0.020 A 
ATOM    108  C   UNL A   1      49.340  27.160  21.692  1.00  0.00     0.020 A 
ATOM    109  C   UNL A   1      50.717  27.177  21.784  1.00  0.00     0.054 A 
BRANCH 109 110
ATOM    110  S   UNL A   1      51.744  26.973  20.319  1.00  0.00     0.124 S 
ATOM    111  O   UNL A   1      50.976  27.700  19.311  1.00  0.00    -0.237 OA
ATOM    112  O   UNL A   1      52.994  27.607  20.734  1.00  0.00    -0.237 OA
ATOM    113  O   UNL A   1      51.811  25.527  20.133  1.00  0.00    -0.744 OA
ENDBRANCH 109 110
ENDBRANCH  83 104
ENDBRANCH  57  58
ENDBRANCH  50  52
ENDBRANCH  49  50
ENDBRANCH  48  49
ENDBRANCH  47  48
ENDBRANCH  46  47
ENDBRANCH  45  46
ENDBRANCH  44  45
ENDBRANCH  43  44
ENDBRANCH  42  43
ENDBRANCH   1  42
TORSDOF 30
ENDMDL
MODEL 3
REMARK VINA RESULT:      -5.2      4.858      8.002
REMARK SMILES Cc1c(C(=O)OCCOCCOCCOCCOC(=O)c2ccc(-c3c4nc(c(-c5ccc(S(=O)(=O)[O-])cc5)c5ccc([nH]5)c(-c5ccc(S(=O)(=O)[O-])cc5)c5nc(c(-c6ccc(S(=O)(=O)[O-])cc6)c6ccc3[nH]6)C=C5)C=C4)cc2)cccc1N1[C@@H](C)C=C(/C=C(\C#N)C(=O)NCCc2c[nH]c3ccccc23)[C@@H]1C
REMARK SMILES IDX 10 1 9 2 8 3 7 4 6 5 4 6 5 7 3 8 1 9 2 10 84 11 81 12 83 13
REMARK SMILES IDX 82 14 85 15 86 16 108 17 88 18 87 19 89 20 109 21 90 22
REMARK SMILES IDX 91 23 92 24 93 25 94 26 95 27 96 28 97 30 98 31 99 32 100 33
REMARK SMILES IDX 107 34 101 35 102 36 106 37 103 39 105 40 104 41 11 42 12 43
REMARK SMILES IDX 13 44 14 45 15 46 16 47 17 48 18 49 19 50 20 51 21 52 22 53
REMARK SMILES IDX 80 54 23 55 79 56 24 57 25 58 26 59 73 60 27 61 78 62 72 63
REMARK SMILES IDX 74 64 28 65 77 66 71 67 70 68 29 70 59 71 40 72 58 73 41 74
REMARK SMILES IDX 44 75 57 76 75 77 42 78 43 79 56 81 76 82 45 83 30 84 31 85
REMARK SMILES IDX 39 86 32 87 38 88 33 89 34 90 35 91 36 92 37 93 60 94 61 95
REMARK SMILES IDX 69 96 62 97 68 98 63 99 64 100 65 101 66 102 67 103 46 104
REMARK SMILES IDX 47 105 55 106 48 107 54 108 49 109 50 110 51 111 52 112
REMARK SMILES IDX 53 113
REMARK H PARENT 96 29 101 38 74 69 44 80
REMARK Flexibility Score: inf
ROOT
ATOM      1  C   UNL A   1      41.386  28.708  28.726  1.00  0.00     0.188 C 
ENDROOT
BRANCH   1   2
ATOM      2  O   UNL A   1      41.611  27.517  27.992  1.00  0.00    -0.376 OA
BRANCH   2   3
ATOM      3  C   UNL A   1      42.909  27.402  27.424  1.00  0.00     0.202 C 
BRANCH   3   4
ATOM      4  C   UNL A   1      43.709  26.151  27.716  1.00  0.00     0.261 C 
BRANCH   4   5
ATOM      5  O   UNL A   1      44.289  26.253  29.010  1.00  0.00    -0.460 OA
BRANCH   5   6
ATOM      6  C   UNL A   1      44.142  25.158  29.752  1.00  0.00     0.338 C 
ATOM      7  O   UNL A   1      44.163  24.005  29.347  1.00  0.00    -0.246 OA
BRANCH   6   8
ATOM      8  C   UNL A   1      44.240  25.491  31.195  1.00  0.00     0.065 A 
ATOM      9  C   UNL A   1      44.056  23.177  32.327  1.00  0.00     0.047 C 
ATOM     10  C   UNL A   1      44.438  24.636  32.308  1.00  0.00    -0.013 A 
ATOM     11  C   UNL A   1      44.708  25.217  33.565  1.00  0.00     0.041 A 
ATOM     12  C   UNL A   1      43.948  26.847  31.412  1.00  0.00     0.016 A 
ATOM     13  C   UNL A   1      44.487  26.601  33.710  1.00  0.00     0.026 A 
ATOM     14  C   UNL A   1      44.026  27.394  32.672  1.00  0.00     0.003 A 
BRANCH  11  15
ATOM     15  N   UNL A   1      44.999  24.465  34.685  1.00  0.00    -0.358 N 
ATOM     16  C   UNL A   1      44.108  24.541  35.832  1.00  0.00     0.103 C 
ATOM     17  C   UNL A   1      46.159  23.574  34.901  1.00  0.00     0.110 C 
ATOM     18  C   UNL A   1      44.746  23.591  36.772  1.00  0.00     0.003 C 
ATOM     19  C   UNL A   1      42.696  24.053  35.520  1.00  0.00     0.035 C 
ATOM     20  C   UNL A   1      45.817  22.973  36.260  1.00  0.00    -0.026 C 
ATOM     21  C   UNL A   1      47.457  24.388  34.928  1.00  0.00     0.036 C 
BRANCH  20  22
ATOM     22  C   UNL A   1      46.565  21.893  36.881  1.00  0.00     0.031 C 
ATOM     23  C   UNL A   1      46.467  20.563  36.630  1.00  0.00     0.117 C 
BRANCH  23  24
ATOM     24  C   UNL A   1      45.586  20.006  35.681  1.00  0.00     0.105 C 
ATOM     25  N   UNL A   1      44.841  19.496  34.923  1.00  0.00    -0.192 NA
ENDBRANCH  23  24
BRANCH  23  26
ATOM     26  C   UNL A   1      47.101  19.647  37.618  1.00  0.00     0.261 C 
ATOM     27  O   UNL A   1      46.439  18.817  38.243  1.00  0.00    -0.268 OA
ATOM     28  N   UNL A   1      48.456  19.532  37.658  1.00  0.00    -0.351 N 
ATOM     29  H   UNL A   1      48.764  18.597  37.680  1.00  0.00     0.163 HD
BRANCH  28  30
ATOM     30  C   UNL A   1      49.563  20.506  37.673  1.00  0.00     0.121 C 
BRANCH  30  31
ATOM     31  C   UNL A   1      50.109  20.924  36.272  1.00  0.00     0.059 C 
BRANCH  31  32
ATOM     32  C   UNL A   1      51.638  20.978  36.162  1.00  0.00    -0.021 A 
ATOM     33  C   UNL A   1      52.378  22.095  36.555  1.00  0.00     0.087 A 
ATOM     34  C   UNL A   1      52.399  20.596  35.009  1.00  0.00     0.003 A 
ATOM     35  N   UNL A   1      52.380  22.772  35.327  1.00  0.00    -0.361 N 
ATOM     36  C   UNL A   1      52.572  21.815  34.350  1.00  0.00     0.046 A 
ATOM     37  C   UNL A   1      52.911  19.435  34.407  1.00  0.00     0.010 A 
ATOM     38  H   UNL A   1      52.266  23.740  35.188  1.00  0.00     0.166 HD
ATOM     39  C   UNL A   1      52.923  21.919  33.008  1.00  0.00     0.026 A 
ATOM     40  C   UNL A   1      53.491  19.556  33.133  1.00  0.00     0.001 A 
ATOM     41  C   UNL A   1      53.415  20.755  32.418  1.00  0.00     0.002 A 
ENDBRANCH  31  32
ENDBRANCH  30  31
ENDBRANCH  28  30
ENDBRANCH  23  26
ENDBRANCH  20  22
ENDBRANCH  11  15
ENDBRANCH   6   8
ENDBRANCH   5   6
ENDBRANCH   4   5
ENDBRANCH   3   4
ENDBRANCH   2   3
ENDBRANCH   1   2
BRANCH   1  42
ATOM     42  C   UNL A   1      39.967  29.173  29.086  1.00  0.00     0.188 C 
BRANCH  42  43
ATOM     43  O   UNL A   1      39.365  28.693  30.276  1.00  0.00    -0.377 OA
BRANCH  43  44
ATOM     44  C   UNL A   1      39.031  29.626  31.297  1.00  0.00     0.188 C 
BRANCH  44  45
ATOM     45  C   UNL A   1      40.073  29.991  32.306  1.00  0.00     0.188 C 
BRANCH  45  46
ATOM     46  O   UNL A   1      40.539  31.274  31.885  1.00  0.00    -0.376 OA
BRANCH  46  47
ATOM     47  C   UNL A   1      41.913  31.386  31.614  1.00  0.00     0.202 C 
BRANCH  47  48
ATOM     48  C   UNL A   1      42.196  31.729  30.161  1.00  0.00     0.261 C 
BRANCH  48  49
ATOM     49  O   UNL A   1      42.551  33.134  29.961  1.00  0.00    -0.460 OA
BRANCH  49  50
ATOM     50  C   UNL A   1      43.305  33.643  28.932  1.00  0.00     0.338 C 
ATOM     51  O   UNL A   1      43.128  34.784  28.522  1.00  0.00    -0.246 OA
BRANCH  50  52
ATOM     52  C   UNL A   1      44.561  32.913  28.578  1.00  0.00     0.060 A 
ATOM     53  C   UNL A   1      45.667  32.817  29.444  1.00  0.00     0.016 A 
ATOM     54  C   UNL A   1      44.664  32.289  27.358  1.00  0.00     0.016 A 
ATOM     55  C   UNL A   1      46.940  32.379  28.988  1.00  0.00     0.010 A 
ATOM     56  C   UNL A   1      45.920  31.902  26.905  1.00  0.00     0.010 A 
ATOM     57  C   UNL A   1      47.106  32.008  27.662  1.00  0.00    -0.014 A 
BRANCH  57  58
ATOM     58  C   UNL A   1      48.391  31.728  26.935  1.00  0.00     0.031 A 
ATOM     59  C   UNL A   1      49.073  32.919  26.287  1.00  0.00     0.074 A 
ATOM     60  C   UNL A   1      49.119  30.591  27.176  1.00  0.00     0.049 A 
ATOM     61  N   UNL A   1      50.287  32.960  25.857  1.00  0.00    -0.248 NA
ATOM     62  C   UNL A   1      48.451  34.240  26.178  1.00  0.00     0.031 C 
ATOM     63  C   UNL A   1      50.571  30.430  27.069  1.00  0.00     0.029 A 
ATOM     64  N   UNL A   1      48.760  29.332  27.652  1.00  0.00    -0.354 N 
ATOM     65  C   UNL A   1      50.717  34.279  25.824  1.00  0.00     0.074 A 
ATOM     66  C   UNL A   1      49.506  35.041  25.982  1.00  0.00     0.031 C 
ATOM     67  C   UNL A   1      50.977  29.190  27.368  1.00  0.00     0.029 A 
ATOM     68  C   UNL A   1      49.784  28.404  27.376  1.00  0.00     0.049 A 
ATOM     69  H   UNL A   1      47.916  29.122  28.113  1.00  0.00     0.167 HD
ATOM     70  C   UNL A   1      52.065  34.546  25.807  1.00  0.00     0.031 A 
ATOM     71  C   UNL A   1      49.555  27.394  26.497  1.00  0.00     0.031 A 
ATOM     72  C   UNL A   1      52.851  33.288  25.678  1.00  0.00     0.049 A 
ATOM     73  C   UNL A   1      50.414  27.714  25.248  1.00  0.00     0.074 A 
ATOM     74  C   UNL A   1      53.872  32.691  26.400  1.00  0.00     0.029 A 
ATOM     75  N   UNL A   1      52.427  32.307  24.771  1.00  0.00    -0.354 N 
ATOM     76  N   UNL A   1      50.697  28.936  24.818  1.00  0.00    -0.248 NA
ATOM     77  C   UNL A   1      51.352  26.726  24.711  1.00  0.00     0.031 C 
ATOM     78  C   UNL A   1      53.954  31.316  26.008  1.00  0.00     0.029 A 
ATOM     79  C   UNL A   1      53.018  31.076  25.005  1.00  0.00     0.049 A 
ATOM     80  H   UNL A   1      51.780  32.474  24.049  1.00  0.00     0.167 HD
ATOM     81  C   UNL A   1      51.942  28.939  24.204  1.00  0.00     0.074 A 
ATOM     82  C   UNL A   1      52.269  27.514  24.119  1.00  0.00     0.031 C 
ATOM     83  C   UNL A   1      52.849  29.974  24.051  1.00  0.00     0.031 A 
BRANCH  70  84
ATOM     84  C   UNL A   1      52.730  35.918  26.081  1.00  0.00    -0.014 A 
ATOM     85  C   UNL A   1      53.411  36.588  25.035  1.00  0.00     0.010 A 
ATOM     86  C   UNL A   1      52.737  36.615  27.312  1.00  0.00     0.010 A 
ATOM     87  C   UNL A   1      54.046  37.838  25.187  1.00  0.00     0.020 A 
ATOM     88  C   UNL A   1      53.359  37.882  27.480  1.00  0.00     0.020 A 
ATOM     89  C   UNL A   1      54.004  38.493  26.409  1.00  0.00     0.054 A 
BRANCH  89  90
ATOM     90  S   UNL A   1      54.743  40.152  26.542  1.00  0.00     0.124 S 
ATOM     91  O   UNL A   1      56.158  39.858  26.755  1.00  0.00    -0.237 OA
ATOM     92  O   UNL A   1      54.416  40.749  25.250  1.00  0.00    -0.237 OA
ATOM     93  O   UNL A   1      54.059  40.749  27.687  1.00  0.00    -0.744 OA
ENDBRANCH  89  90
ENDBRANCH  70  84
BRANCH  71  94
ATOM     94  C   UNL A   1      48.191  26.810  26.822  1.00  0.00    -0.014 A 
ATOM     95  C   UNL A   1      47.219  26.978  25.783  1.00  0.00     0.010 A 
ATOM     96  C   UNL A   1      48.080  25.636  27.596  1.00  0.00     0.010 A 
ATOM     97  C   UNL A   1      46.361  25.932  25.384  1.00  0.00     0.020 A 
ATOM     98  C   UNL A   1      47.208  24.586  27.198  1.00  0.00     0.020 A 
ATOM     99  C   UNL A   1      46.396  24.719  26.065  1.00  0.00     0.054 A 
BRANCH  99 100
ATOM    100  S   UNL A   1      45.557  23.269  25.320  1.00  0.00     0.124 S 
ATOM    101  O   UNL A   1      44.264  23.270  25.992  1.00  0.00    -0.237 OA
ATOM    102  O   UNL A   1      45.528  23.593  23.894  1.00  0.00    -0.237 OA
ATOM    103  O   UNL A   1      46.434  22.155  25.659  1.00  0.00    -0.744 OA
ENDBRANCH  99 100
ENDBRANCH  71  94
BRANCH  83 104
ATOM    104  C   UNL A   1      53.682  30.117  22.785  1.00  0.00    -0.014 A 
ATOM    105  C   UNL A   1      53.171  30.498  21.544  1.00  0.00     0.010 A 
ATOM    106  C   UNL A   1      55.100  30.003  22.880  1.00  0.00     0.010 A 
ATOM    107  C   UNL A   1      54.020  30.800  20.479  1.00  0.00     0.020 A 
ATOM    108  C   UNL A   1      55.958  30.345  21.840  1.00  0.00     0.020 A 
ATOM    109  C   UNL A   1      55.404  30.755  20.644  1.00  0.00     0.054 A 
BRANCH 109 110
ATOM    110  S   UNL A   1      56.446  31.294  19.279  1.00  0.00     0.124 S 
ATOM    111  O   UNL A   1      55.698  32.437  18.763  1.00  0.00    -0.237 OA
ATOM    112  O   UNL A   1      57.697  31.618  19.961  1.00  0.00    -0.237 OA
ATOM    113  O   UNL A   1      56.502  30.133  18.396  1.00  0.00    -0.744 OA
ENDBRANCH 109 110
ENDBRANCH  83 104
ENDBRANCH  57  58
ENDBRANCH  50  52
ENDBRANCH  49  50
ENDBRANCH  48  49
ENDBRANCH  47  48
ENDBRANCH  46  47
ENDBRANCH  45  46
ENDBRANCH  44  45
ENDBRANCH  43  44
ENDBRANCH  42  43
ENDBRANCH   1  42
TORSDOF 30
ENDMDL
