MODEL 1
REMARK VINA RESULT:      -9.2      0.000      0.000
REMARK SMILES O=C(OCCOCCOCCOCCOC(=O)[C@H]1CS[C@H](c2cc(F)ccc2F)[NH2+]1)c1ccc(-c2c3nc(c(-c4ccc(S(=O)(=O)[O-])cc4)c4ccc([nH]4)c(-c4ccc(S(=O)(=O)[O-])cc4)c4nc(c(-c5ccc(S(=O)(=O)[O-])cc5)c5ccc2[nH]5)C=C4)C=C3)cc1
REMARK SMILES IDX 8 1 7 2 6 3 5 4 4 5 3 6 2 7 1 8 31 9 32 10 90 11 33 12 89 13
REMARK SMILES IDX 34 14 35 15 36 16 83 17 37 18 88 19 82 20 84 21 38 22 87 23
REMARK SMILES IDX 81 24 80 25 39 27 69 28 50 29 68 30 51 31 54 32 67 33 85 34
REMARK SMILES IDX 52 35 53 36 66 38 86 39 55 40 40 41 41 42 49 43 42 44 48 45
REMARK SMILES IDX 43 46 44 47 45 48 46 49 47 50 70 51 71 52 79 53 72 54 78 55
REMARK SMILES IDX 73 56 74 57 75 58 76 59 77 60 56 61 57 62 65 63 58 64 64 65
REMARK SMILES IDX 59 66 60 67 61 68 62 69 63 70 9 71 10 72 11 73 12 74 13 75
REMARK SMILES IDX 14 76 15 77 16 78 17 79 18 80 19 81 30 82 20 83 21 84 22 87
REMARK SMILES IDX 23 88 28 89 24 90 27 91 29 92 25 93 26 94
REMARK H PARENT 84 26 54 37 30 85 30 86
REMARK Flexibility Score: inf
ROOT
ATOM      1  C   UNL A   1      38.691  22.194  26.121  1.00  0.00     0.188 C 
ENDROOT
BRANCH   1   2
ATOM      2  C   UNL A   1      39.983  21.430  26.400  1.00  0.00     0.188 C 
BRANCH   2   3
ATOM      3  O   UNL A   1      41.110  22.175  25.932  1.00  0.00    -0.376 OA
BRANCH   3   4
ATOM      4  C   UNL A   1      41.809  22.939  26.915  1.00  0.00     0.202 C 
BRANCH   4   5
ATOM      5  C   UNL A   1      43.160  23.479  26.445  1.00  0.00     0.261 C 
BRANCH   5   6
ATOM      6  O   UNL A   1      43.083  24.821  25.949  1.00  0.00    -0.460 OA
BRANCH   6   7
ATOM      7  C   UNL A   1      42.135  25.759  26.203  1.00  0.00     0.338 C 
ATOM      8  O   UNL A   1      41.358  26.043  25.292  1.00  0.00    -0.246 OA
BRANCH   7   9
ATOM      9  C   UNL A   1      41.987  26.505  27.498  1.00  0.00     0.060 A 
ATOM     10  C   UNL A   1      41.191  26.122  28.578  1.00  0.00     0.016 A 
ATOM     11  C   UNL A   1      42.781  27.657  27.659  1.00  0.00     0.016 A 
ATOM     12  C   UNL A   1      41.170  26.827  29.768  1.00  0.00     0.010 A 
ATOM     13  C   UNL A   1      42.753  28.395  28.847  1.00  0.00     0.010 A 
ATOM     14  C   UNL A   1      41.932  27.978  29.898  1.00  0.00    -0.014 A 
BRANCH  14  15
ATOM     15  C   UNL A   1      41.653  28.813  31.071  1.00  0.00     0.031 A 
ATOM     16  C   UNL A   1      40.433  29.681  31.013  1.00  0.00     0.074 A 
ATOM     17  C   UNL A   1      42.357  28.635  32.202  1.00  0.00     0.049 A 
ATOM     18  N   UNL A   1      39.988  30.536  31.887  1.00  0.00    -0.248 NA
ATOM     19  C   UNL A   1      39.583  29.547  29.812  1.00  0.00     0.031 C 
ATOM     20  C   UNL A   1      43.434  27.655  32.383  1.00  0.00     0.029 A 
ATOM     21  N   UNL A   1      42.253  29.241  33.423  1.00  0.00    -0.354 N 
ATOM     22  C   UNL A   1      38.837  31.073  31.325  1.00  0.00     0.074 A 
ATOM     23  C   UNL A   1      38.633  30.438  30.047  1.00  0.00     0.031 C 
ATOM     24  C   UNL A   1      43.889  27.732  33.644  1.00  0.00     0.029 A 
ATOM     25  C   UNL A   1      43.193  28.813  34.329  1.00  0.00     0.049 A 
ATOM     26  H   UNL A   1      41.569  29.919  33.632  1.00  0.00     0.167 HD
ATOM     27  C   UNL A   1      38.042  32.037  31.838  1.00  0.00     0.031 A 
ATOM     28  C   UNL A   1      43.482  29.295  35.552  1.00  0.00     0.031 A 
ATOM     29  C   UNL A   1      38.291  32.644  33.114  1.00  0.00     0.049 A 
ATOM     30  C   UNL A   1      42.662  30.461  36.043  1.00  0.00     0.074 A 
ATOM     31  C   UNL A   1      37.614  33.679  33.726  1.00  0.00     0.029 A 
ATOM     32  N   UNL A   1      39.314  32.260  33.971  1.00  0.00    -0.354 N 
ATOM     33  N   UNL A   1      41.620  31.027  35.477  1.00  0.00    -0.248 NA
ATOM     34  C   UNL A   1      43.063  31.066  37.317  1.00  0.00     0.031 C 
ATOM     35  C   UNL A   1      38.270  33.964  34.927  1.00  0.00     0.029 A 
ATOM     36  C   UNL A   1      39.311  33.060  35.096  1.00  0.00     0.049 A 
ATOM     37  H   UNL A   1      39.948  31.526  33.803  1.00  0.00     0.167 HD
ATOM     38  C   UNL A   1      41.230  32.048  36.334  1.00  0.00     0.074 A 
ATOM     39  C   UNL A   1      42.132  31.998  37.470  1.00  0.00     0.031 C 
ATOM     40  C   UNL A   1      40.229  32.954  36.201  1.00  0.00     0.031 A 
BRANCH  27  41
ATOM     41  C   UNL A   1      36.923  32.549  30.977  1.00  0.00    -0.014 A 
ATOM     42  C   UNL A   1      35.627  32.008  31.038  1.00  0.00     0.010 A 
ATOM     43  C   UNL A   1      37.184  33.609  30.089  1.00  0.00     0.010 A 
ATOM     44  C   UNL A   1      34.614  32.515  30.217  1.00  0.00     0.020 A 
ATOM     45  C   UNL A   1      36.170  34.133  29.285  1.00  0.00     0.020 A 
ATOM     46  C   UNL A   1      34.891  33.579  29.350  1.00  0.00     0.054 A 
BRANCH  46  47
ATOM     47  S   UNL A   1      33.542  34.254  28.343  1.00  0.00     0.124 S 
ATOM     48  O   UNL A   1      32.635  34.775  29.360  1.00  0.00    -0.237 OA
ATOM     49  O   UNL A   1      34.222  35.258  27.531  1.00  0.00    -0.237 OA
ATOM     50  O   UNL A   1      33.047  33.091  27.604  1.00  0.00    -0.744 OA
ENDBRANCH  46  47
ENDBRANCH  27  41
BRANCH  28  51
ATOM     51  C   UNL A   1      44.645  28.774  36.329  1.00  0.00    -0.014 A 
ATOM     52  C   UNL A   1      45.937  29.302  36.157  1.00  0.00     0.010 A 
ATOM     53  C   UNL A   1      44.469  27.697  37.221  1.00  0.00     0.010 A 
ATOM     54  C   UNL A   1      47.031  28.734  36.823  1.00  0.00     0.020 A 
ATOM     55  C   UNL A   1      45.552  27.151  37.915  1.00  0.00     0.020 A 
ATOM     56  C   UNL A   1      46.832  27.656  37.692  1.00  0.00     0.054 A 
BRANCH  56  57
ATOM     57  S   UNL A   1      48.264  26.923  38.531  1.00  0.00     0.124 S 
ATOM     58  O   UNL A   1      48.411  25.655  37.824  1.00  0.00    -0.237 OA
ATOM     59  O   UNL A   1      49.312  27.911  38.289  1.00  0.00    -0.237 OA
ATOM     60  O   UNL A   1      47.828  26.817  39.922  1.00  0.00    -0.744 OA
ENDBRANCH  56  57
ENDBRANCH  28  51
BRANCH  40  61
ATOM     61  C   UNL A   1      40.044  33.929  37.327  1.00  0.00    -0.014 A 
ATOM     62  C   UNL A   1      40.733  35.153  37.346  1.00  0.00     0.010 A 
ATOM     63  C   UNL A   1      39.109  33.640  38.337  1.00  0.00     0.010 A 
ATOM     64  C   UNL A   1      40.506  36.065  38.377  1.00  0.00     0.020 A 
ATOM     65  C   UNL A   1      38.855  34.563  39.349  1.00  0.00     0.020 A 
ATOM     66  C   UNL A   1      39.566  35.766  39.368  1.00  0.00     0.054 A 
BRANCH  66  67
ATOM     67  S   UNL A   1      39.247  36.993  40.661  1.00  0.00     0.124 S 
ATOM     68  O   UNL A   1      40.573  37.572  40.863  1.00  0.00    -0.237 OA
ATOM     69  O   UNL A   1      38.265  37.872  40.033  1.00  0.00    -0.237 OA
ATOM     70  O   UNL A   1      38.739  36.197  41.776  1.00  0.00    -0.744 OA
ENDBRANCH  66  67
ENDBRANCH  40  61
ENDBRANCH  14  15
ENDBRANCH   7   9
ENDBRANCH   6   7
ENDBRANCH   5   6
ENDBRANCH   4   5
ENDBRANCH   3   4
ENDBRANCH   2   3
ENDBRANCH   1   2
BRANCH   1  71
ATOM     71  O   UNL A   1      38.064  21.856  24.890  1.00  0.00    -0.377 OA
BRANCH  71  72
ATOM     72  C   UNL A   1      36.753  22.370  24.719  1.00  0.00     0.188 C 
BRANCH  72  73
ATOM     73  C   UNL A   1      35.582  21.750  25.499  1.00  0.00     0.188 C 
BRANCH  73  74
ATOM     74  O   UNL A   1      34.963  20.653  24.885  1.00  0.00    -0.376 OA
BRANCH  74  75
ATOM     75  C   UNL A   1      33.623  20.756  24.443  1.00  0.00     0.202 C 
BRANCH  75  76
ATOM     76  C   UNL A   1      32.374  21.048  25.318  1.00  0.00     0.261 C 
BRANCH  76  77
ATOM     77  O   UNL A   1      31.800  22.367  25.359  1.00  0.00    -0.459 OA
BRANCH  77  78
ATOM     78  C   UNL A   1      31.670  23.037  24.181  1.00  0.00     0.365 C 
ATOM     79  O   UNL A   1      31.462  22.490  23.103  1.00  0.00    -0.245 OA
BRANCH  78  80
ATOM     80  C   UNL A   1      31.668  24.574  24.324  1.00  0.00     0.304 C 
ATOM     81  C   UNL A   1      32.453  25.238  23.183  1.00  0.00     0.153 C 
ATOM     82  N   UNL A   1      30.316  25.207  24.506  1.00  0.00    -0.319 N 
ATOM     83  S   UNL A   1      31.334  26.459  22.454  1.00  0.00    -0.087 SA
ATOM     84  C   UNL A   1      30.376  26.591  24.009  1.00  0.00     0.277 C 
ATOM     85  H   UNL A   1      30.067  25.208  25.495  1.00  0.00     0.348 HD
ATOM     86  H   UNL A   1      29.613  24.681  23.987  1.00  0.00     0.348 HD
BRANCH  84  87
ATOM     87  C   UNL A   1      31.073  27.614  24.895  1.00  0.00     0.059 A 
ATOM     88  C   UNL A   1      31.376  27.264  26.232  1.00  0.00     0.053 A 
ATOM     89  C   UNL A   1      31.297  28.942  24.517  1.00  0.00     0.133 A 
ATOM     90  C   UNL A   1      31.700  28.244  27.163  1.00  0.00     0.123 A 
ATOM     91  C   UNL A   1      31.606  29.924  25.457  1.00  0.00     0.043 A 
ATOM     92  F   UNL A   1      31.174  29.337  23.244  1.00  0.00    -0.206 F 
ATOM     93  F   UNL A   1      31.891  27.900  28.443  1.00  0.00    -0.207 F 
ATOM     94  C   UNL A   1      31.777  29.579  26.794  1.00  0.00     0.042 A 
ENDBRANCH  84  87
ENDBRANCH  78  80
ENDBRANCH  77  78
ENDBRANCH  76  77
ENDBRANCH  75  76
ENDBRANCH  74  75
ENDBRANCH  73  74
ENDBRANCH  72  73
ENDBRANCH  71  72
ENDBRANCH   1  71
TORSDOF 24
ENDMDL
MODEL 2
REMARK VINA RESULT:      -8.5      4.903     10.401
REMARK SMILES O=C(OCCOCCOCCOCCOC(=O)[C@H]1CS[C@H](c2cc(F)ccc2F)[NH2+]1)c1ccc(-c2c3nc(c(-c4ccc(S(=O)(=O)[O-])cc4)c4ccc([nH]4)c(-c4ccc(S(=O)(=O)[O-])cc4)c4nc(c(-c5ccc(S(=O)(=O)[O-])cc5)c5ccc2[nH]5)C=C4)C=C3)cc1
REMARK SMILES IDX 8 1 7 2 6 3 5 4 4 5 3 6 2 7 1 8 31 9 32 10 90 11 33 12 89 13
REMARK SMILES IDX 34 14 35 15 36 16 83 17 37 18 88 19 82 20 84 21 38 22 87 23
REMARK SMILES IDX 81 24 80 25 39 27 69 28 50 29 68 30 51 31 54 32 67 33 85 34
REMARK SMILES IDX 52 35 53 36 66 38 86 39 55 40 40 41 41 42 49 43 42 44 48 45
REMARK SMILES IDX 43 46 44 47 45 48 46 49 47 50 70 51 71 52 79 53 72 54 78 55
REMARK SMILES IDX 73 56 74 57 75 58 76 59 77 60 56 61 57 62 65 63 58 64 64 65
REMARK SMILES IDX 59 66 60 67 61 68 62 69 63 70 9 71 10 72 11 73 12 74 13 75
REMARK SMILES IDX 14 76 15 77 16 78 17 79 18 80 19 81 30 82 20 83 21 84 22 87
REMARK SMILES IDX 23 88 28 89 24 90 27 91 29 92 25 93 26 94
REMARK H PARENT 84 26 54 37 30 85 30 86
REMARK Flexibility Score: inf
ROOT
ATOM      1  C   UNL A   1      42.003  20.778  26.497  1.00  0.00     0.188 C 
ENDROOT
BRANCH   1   2
ATOM      2  C   UNL A   1      42.119  19.378  25.898  1.00  0.00     0.188 C 
BRANCH   2   3
ATOM      3  O   UNL A   1      43.467  18.911  25.987  1.00  0.00    -0.376 OA
BRANCH   3   4
ATOM      4  C   UNL A   1      44.191  18.845  24.758  1.00  0.00     0.202 C 
BRANCH   4   5
ATOM      5  C   UNL A   1      45.577  19.486  24.811  1.00  0.00     0.261 C 
BRANCH   5   6
ATOM      6  O   UNL A   1      45.697  20.631  23.956  1.00  0.00    -0.460 OA
BRANCH   6   7
ATOM      7  C   UNL A   1      45.111  21.848  24.093  1.00  0.00     0.338 C 
ATOM      8  O   UNL A   1      44.368  22.225  23.186  1.00  0.00    -0.246 OA
BRANCH   7   9
ATOM      9  C   UNL A   1      45.330  22.785  25.245  1.00  0.00     0.060 A 
ATOM     10  C   UNL A   1      45.170  22.474  26.596  1.00  0.00     0.016 A 
ATOM     11  C   UNL A   1      45.809  24.071  24.932  1.00  0.00     0.016 A 
ATOM     12  C   UNL A   1      45.468  23.375  27.602  1.00  0.00     0.010 A 
ATOM     13  C   UNL A   1      46.092  25.003  25.937  1.00  0.00     0.010 A 
ATOM     14  C   UNL A   1      45.906  24.649  27.275  1.00  0.00    -0.014 A 
BRANCH  14  15
ATOM     15  C   UNL A   1      45.939  25.626  28.370  1.00  0.00     0.031 A 
ATOM     16  C   UNL A   1      47.274  25.911  28.987  1.00  0.00     0.074 A 
ATOM     17  C   UNL A   1      44.847  26.361  28.643  1.00  0.00     0.049 A 
ATOM     18  N   UNL A   1      47.570  26.691  29.985  1.00  0.00    -0.248 NA
ATOM     19  C   UNL A   1      48.441  25.243  28.376  1.00  0.00     0.031 C 
ATOM     20  C   UNL A   1      43.565  26.268  27.934  1.00  0.00     0.029 A 
ATOM     21  N   UNL A   1      44.646  27.353  29.561  1.00  0.00    -0.354 N 
ATOM     22  C   UNL A   1      48.944  26.572  30.152  1.00  0.00     0.074 A 
ATOM     23  C   UNL A   1      49.432  25.666  29.143  1.00  0.00     0.031 C 
ATOM     24  C   UNL A   1      42.714  27.170  28.450  1.00  0.00     0.029 A 
ATOM     25  C   UNL A   1      43.362  27.842  29.567  1.00  0.00     0.049 A 
ATOM     26  H   UNL A   1      45.355  27.686  30.159  1.00  0.00     0.167 HD
ATOM     27  C   UNL A   1      49.713  27.160  31.093  1.00  0.00     0.031 A 
ATOM     28  C   UNL A   1      42.777  28.696  30.428  1.00  0.00     0.031 A 
ATOM     29  C   UNL A   1      49.177  28.051  32.082  1.00  0.00     0.049 A 
ATOM     30  C   UNL A   1      43.630  29.232  31.550  1.00  0.00     0.074 A 
ATOM     31  C   UNL A   1      49.823  28.661  33.138  1.00  0.00     0.029 A 
ATOM     32  N   UNL A   1      47.848  28.452  32.128  1.00  0.00    -0.354 N 
ATOM     33  N   UNL A   1      44.916  29.057  31.760  1.00  0.00    -0.248 NA
ATOM     34  C   UNL A   1      42.959  30.058  32.559  1.00  0.00     0.031 C 
ATOM     35  C   UNL A   1      48.868  29.380  33.862  1.00  0.00     0.029 A 
ATOM     36  C   UNL A   1      47.643  29.277  33.216  1.00  0.00     0.049 A 
ATOM     37  H   UNL A   1      47.155  28.188  31.481  1.00  0.00     0.167 HD
ATOM     38  C   UNL A   1      45.211  29.764  32.918  1.00  0.00     0.074 A 
ATOM     39  C   UNL A   1      43.975  30.392  33.343  1.00  0.00     0.031 C 
ATOM     40  C   UNL A   1      46.388  29.882  33.582  1.00  0.00     0.031 A 
BRANCH  27  41
ATOM     41  C   UNL A   1      51.162  26.769  31.152  1.00  0.00    -0.014 A 
ATOM     42  C   UNL A   1      51.606  25.660  31.892  1.00  0.00     0.010 A 
ATOM     43  C   UNL A   1      52.099  27.536  30.435  1.00  0.00     0.010 A 
ATOM     44  C   UNL A   1      52.966  25.332  31.920  1.00  0.00     0.020 A 
ATOM     45  C   UNL A   1      53.453  27.198  30.442  1.00  0.00     0.020 A 
ATOM     46  C   UNL A   1      53.880  26.100  31.190  1.00  0.00     0.054 A 
BRANCH  46  47
ATOM     47  S   UNL A   1      55.627  25.613  31.197  1.00  0.00     0.124 S 
ATOM     48  O   UNL A   1      55.668  24.644  32.287  1.00  0.00    -0.237 OA
ATOM     49  O   UNL A   1      55.811  25.065  29.858  1.00  0.00    -0.237 OA
ATOM     50  O   UNL A   1      56.335  26.869  31.455  1.00  0.00    -0.744 OA
ENDBRANCH  46  47
ENDBRANCH  27  41
BRANCH  28  51
ATOM     51  C   UNL A   1      41.318  28.996  30.343  1.00  0.00    -0.014 A 
ATOM     52  C   UNL A   1      40.833  30.062  29.565  1.00  0.00     0.010 A 
ATOM     53  C   UNL A   1      40.399  28.235  31.094  1.00  0.00     0.010 A 
ATOM     54  C   UNL A   1      39.470  30.388  29.577  1.00  0.00     0.020 A 
ATOM     55  C   UNL A   1      39.034  28.533  31.079  1.00  0.00     0.020 A 
ATOM     56  C   UNL A   1      38.580  29.625  30.341  1.00  0.00     0.054 A 
BRANCH  56  57
ATOM     57  S   UNL A   1      36.822  30.073  30.356  1.00  0.00     0.124 S 
ATOM     58  O   UNL A   1      36.882  31.520  30.533  1.00  0.00    -0.237 OA
ATOM     59  O   UNL A   1      36.367  29.611  29.047  1.00  0.00    -0.237 OA
ATOM     60  O   UNL A   1      36.289  29.325  31.493  1.00  0.00    -0.744 OA
ENDBRANCH  56  57
ENDBRANCH  28  51
BRANCH  40  61
ATOM     61  C   UNL A   1      46.390  30.748  34.808  1.00  0.00    -0.014 A 
ATOM     62  C   UNL A   1      46.608  32.133  34.717  1.00  0.00     0.010 A 
ATOM     63  C   UNL A   1      46.091  30.171  36.055  1.00  0.00     0.010 A 
ATOM     64  C   UNL A   1      46.555  32.925  35.863  1.00  0.00     0.020 A 
ATOM     65  C   UNL A   1      46.003  30.965  37.197  1.00  0.00     0.020 A 
ATOM     66  C   UNL A   1      46.248  32.336  37.094  1.00  0.00     0.054 A 
BRANCH  66  67
ATOM     67  S   UNL A   1      46.126  33.396  38.558  1.00  0.00     0.124 S 
ATOM     68  O   UNL A   1      45.272  32.601  39.437  1.00  0.00    -0.237 OA
ATOM     69  O   UNL A   1      47.518  33.523  38.978  1.00  0.00    -0.237 OA
ATOM     70  O   UNL A   1      45.522  34.624  38.046  1.00  0.00    -0.744 OA
ENDBRANCH  66  67
ENDBRANCH  40  61
ENDBRANCH  14  15
ENDBRANCH   7   9
ENDBRANCH   6   7
ENDBRANCH   5   6
ENDBRANCH   4   5
ENDBRANCH   3   4
ENDBRANCH   2   3
ENDBRANCH   1   2
BRANCH   1  71
ATOM     71  O   UNL A   1      40.668  21.254  26.618  1.00  0.00    -0.377 OA
BRANCH  71  72
ATOM     72  C   UNL A   1      40.473  22.260  27.599  1.00  0.00     0.188 C 
BRANCH  72  73
ATOM     73  C   UNL A   1      40.887  23.710  27.298  1.00  0.00     0.188 C 
BRANCH  73  74
ATOM     74  O   UNL A   1      39.839  24.581  26.973  1.00  0.00    -0.376 OA
BRANCH  74  75
ATOM     75  C   UNL A   1      38.541  24.066  26.743  1.00  0.00     0.202 C 
BRANCH  75  76
ATOM     76  C   UNL A   1      37.881  23.786  25.365  1.00  0.00     0.261 C 
BRANCH  76  77
ATOM     77  O   UNL A   1      37.035  22.637  25.179  1.00  0.00    -0.459 OA
BRANCH  77  78
ATOM     78  C   UNL A   1      35.880  22.809  24.479  1.00  0.00     0.365 C 
ATOM     79  O   UNL A   1      35.679  23.744  23.712  1.00  0.00    -0.245 OA
BRANCH  78  80
ATOM     80  C   UNL A   1      34.876  21.645  24.620  1.00  0.00     0.304 C 
ATOM     81  C   UNL A   1      34.788  21.162  26.076  1.00  0.00     0.153 C 
ATOM     82  N   UNL A   1      33.512  21.889  24.035  1.00  0.00    -0.319 N 
ATOM     83  S   UNL A   1      33.031  21.205  26.508  1.00  0.00    -0.087 SA
ATOM     84  C   UNL A   1      32.538  21.050  24.751  1.00  0.00     0.277 C 
ATOM     85  H   UNL A   1      33.514  21.645  23.046  1.00  0.00     0.348 HD
ATOM     86  H   UNL A   1      33.263  22.873  24.134  1.00  0.00     0.348 HD
BRANCH  84  87
ATOM     87  C   UNL A   1      32.517  19.568  24.406  1.00  0.00     0.059 A 
ATOM     88  C   UNL A   1      32.764  18.626  25.432  1.00  0.00     0.053 A 
ATOM     89  C   UNL A   1      32.422  19.077  23.099  1.00  0.00     0.133 A 
ATOM     90  C   UNL A   1      33.081  17.309  25.120  1.00  0.00     0.123 A 
ATOM     91  C   UNL A   1      32.757  17.760  22.790  1.00  0.00     0.043 A 
ATOM     92  F   UNL A   1      32.054  19.865  22.082  1.00  0.00    -0.206 F 
ATOM     93  F   UNL A   1      33.403  16.457  26.103  1.00  0.00    -0.207 F 
ATOM     94  C   UNL A   1      33.121  16.878  23.803  1.00  0.00     0.042 A 
ENDBRANCH  84  87
ENDBRANCH  78  80
ENDBRANCH  77  78
ENDBRANCH  76  77
ENDBRANCH  75  76
ENDBRANCH  74  75
ENDBRANCH  73  74
ENDBRANCH  72  73
ENDBRANCH  71  72
ENDBRANCH   1  71
TORSDOF 24
ENDMDL
MODEL 3
REMARK VINA RESULT:      -8.1      4.438      9.981
REMARK SMILES O=C(OCCOCCOCCOCCOC(=O)[C@H]1CS[C@H](c2cc(F)ccc2F)[NH2+]1)c1ccc(-c2c3nc(c(-c4ccc(S(=O)(=O)[O-])cc4)c4ccc([nH]4)c(-c4ccc(S(=O)(=O)[O-])cc4)c4nc(c(-c5ccc(S(=O)(=O)[O-])cc5)c5ccc2[nH]5)C=C4)C=C3)cc1
REMARK SMILES IDX 8 1 7 2 6 3 5 4 4 5 3 6 2 7 1 8 31 9 32 10 90 11 33 12 89 13
REMARK SMILES IDX 34 14 35 15 36 16 83 17 37 18 88 19 82 20 84 21 38 22 87 23
REMARK SMILES IDX 81 24 80 25 39 27 69 28 50 29 68 30 51 31 54 32 67 33 85 34
REMARK SMILES IDX 52 35 53 36 66 38 86 39 55 40 40 41 41 42 49 43 42 44 48 45
REMARK SMILES IDX 43 46 44 47 45 48 46 49 47 50 70 51 71 52 79 53 72 54 78 55
REMARK SMILES IDX 73 56 74 57 75 58 76 59 77 60 56 61 57 62 65 63 58 64 64 65
REMARK SMILES IDX 59 66 60 67 61 68 62 69 63 70 9 71 10 72 11 73 12 74 13 75
REMARK SMILES IDX 14 76 15 77 16 78 17 79 18 80 19 81 30 82 20 83 21 84 22 87
REMARK SMILES IDX 23 88 28 89 24 90 27 91 29 92 25 93 26 94
REMARK H PARENT 84 26 54 37 30 85 30 86
REMARK Flexibility Score: inf
ROOT
ATOM      1  C   UNL A   1      42.483  19.787  26.834  1.00  0.00     0.188 C 
ENDROOT
BRANCH   1   2
ATOM      2  C   UNL A   1      42.629  18.684  25.788  1.00  0.00     0.188 C 
BRANCH   2   3
ATOM      3  O   UNL A   1      44.009  18.367  25.591  1.00  0.00    -0.376 OA
BRANCH   3   4
ATOM      4  C   UNL A   1      44.607  18.877  24.398  1.00  0.00     0.202 C 
BRANCH   4   5
ATOM      5  C   UNL A   1      45.677  19.941  24.639  1.00  0.00     0.261 C 
BRANCH   5   6
ATOM      6  O   UNL A   1      45.445  21.145  23.897  1.00  0.00    -0.460 OA
BRANCH   6   7
ATOM      7  C   UNL A   1      44.728  22.236  24.267  1.00  0.00     0.338 C 
ATOM      8  O   UNL A   1      43.800  22.581  23.535  1.00  0.00    -0.246 OA
BRANCH   7   9
ATOM      9  C   UNL A   1      45.004  23.077  25.480  1.00  0.00     0.060 A 
ATOM     10  C   UNL A   1      44.884  22.664  26.808  1.00  0.00     0.016 A 
ATOM     11  C   UNL A   1      45.495  24.376  25.251  1.00  0.00     0.016 A 
ATOM     12  C   UNL A   1      45.232  23.479  27.870  1.00  0.00     0.010 A 
ATOM     13  C   UNL A   1      45.829  25.222  26.314  1.00  0.00     0.010 A 
ATOM     14  C   UNL A   1      45.683  24.768  27.627  1.00  0.00    -0.014 A 
BRANCH  14  15
ATOM     15  C   UNL A   1      45.770  25.656  28.792  1.00  0.00     0.031 A 
ATOM     16  C   UNL A   1      47.122  25.828  29.415  1.00  0.00     0.074 A 
ATOM     17  C   UNL A   1      44.717  26.419  29.132  1.00  0.00     0.049 A 
ATOM     18  N   UNL A   1      47.463  26.514  30.467  1.00  0.00    -0.248 NA
ATOM     19  C   UNL A   1      48.251  25.153  28.743  1.00  0.00     0.031 C 
ATOM     20  C   UNL A   1      43.428  26.443  28.432  1.00  0.00     0.029 A 
ATOM     21  N   UNL A   1      44.572  27.347  30.125  1.00  0.00    -0.354 N 
ATOM     22  C   UNL A   1      48.830  26.317  30.610  1.00  0.00     0.074 A 
ATOM     23  C   UNL A   1      49.267  25.467  29.530  1.00  0.00     0.031 C 
ATOM     24  C   UNL A   1      42.625  27.342  29.023  1.00  0.00     0.029 A 
ATOM     25  C   UNL A   1      43.313  27.895  30.182  1.00  0.00     0.049 A 
ATOM     26  H   UNL A   1      45.300  27.598  30.739  1.00  0.00     0.167 HD
ATOM     27  C   UNL A   1      49.634  26.793  31.585  1.00  0.00     0.031 A 
ATOM     28  C   UNL A   1      42.777  28.708  31.112  1.00  0.00     0.031 A 
ATOM     29  C   UNL A   1      49.149  27.630  32.644  1.00  0.00     0.049 A 
ATOM     30  C   UNL A   1      43.662  29.115  32.262  1.00  0.00     0.074 A 
ATOM     31  C   UNL A   1      49.831  28.126  33.736  1.00  0.00     0.029 A 
ATOM     32  N   UNL A   1      47.841  28.091  32.735  1.00  0.00    -0.354 N 
ATOM     33  N   UNL A   1      44.940  28.863  32.444  1.00  0.00    -0.248 NA
ATOM     34  C   UNL A   1      43.040  29.893  33.338  1.00  0.00     0.031 C 
ATOM     35  C   UNL A   1      48.918  28.834  34.522  1.00  0.00     0.029 A 
ATOM     36  C   UNL A   1      47.685  28.839  33.884  1.00  0.00     0.049 A 
ATOM     37  H   UNL A   1      47.132  27.911  32.077  1.00  0.00     0.167 HD
ATOM     38  C   UNL A   1      45.277  29.465  33.649  1.00  0.00     0.074 A 
ATOM     39  C   UNL A   1      44.076  30.117  34.134  1.00  0.00     0.031 C 
ATOM     40  C   UNL A   1      46.463  29.475  34.308  1.00  0.00     0.031 A 
BRANCH  27  41
ATOM     41  C   UNL A   1      51.062  26.329  31.598  1.00  0.00    -0.014 A 
ATOM     42  C   UNL A   1      52.084  27.042  30.948  1.00  0.00     0.010 A 
ATOM     43  C   UNL A   1      51.383  25.149  32.294  1.00  0.00     0.010 A 
ATOM     44  C   UNL A   1      53.402  26.573  30.986  1.00  0.00     0.020 A 
ATOM     45  C   UNL A   1      52.701  24.691  32.353  1.00  0.00     0.020 A 
ATOM     46  C   UNL A   1      53.702  25.404  31.693  1.00  0.00     0.054 A 
BRANCH  46  47
ATOM     47  S   UNL A   1      55.430  24.855  31.775  1.00  0.00     0.124 S 
ATOM     48  O   UNL A   1      55.987  25.754  32.781  1.00  0.00    -0.237 OA
ATOM     49  O   UNL A   1      55.302  23.459  32.179  1.00  0.00    -0.237 OA
ATOM     50  O   UNL A   1      55.924  25.064  30.412  1.00  0.00    -0.744 OA
ENDBRANCH  46  47
ENDBRANCH  27  41
BRANCH  28  51
ATOM     51  C   UNL A   1      41.334  29.084  31.065  1.00  0.00    -0.014 A 
ATOM     52  C   UNL A   1      40.341  28.247  31.605  1.00  0.00     0.010 A 
ATOM     53  C   UNL A   1      40.938  30.274  30.423  1.00  0.00     0.010 A 
ATOM     54  C   UNL A   1      38.984  28.571  31.463  1.00  0.00     0.020 A 
ATOM     55  C   UNL A   1      39.588  30.619  30.312  1.00  0.00     0.020 A 
ATOM     56  C   UNL A   1      38.617  29.752  30.810  1.00  0.00     0.054 A 
BRANCH  56  57
ATOM     57  S   UNL A   1      36.856  30.144  30.622  1.00  0.00     0.124 S 
ATOM     58  O   UNL A   1      36.890  31.587  30.404  1.00  0.00    -0.237 OA
ATOM     59  O   UNL A   1      36.474  29.336  29.466  1.00  0.00    -0.237 OA
ATOM     60  O   UNL A   1      36.272  29.717  31.891  1.00  0.00    -0.744 OA
ENDBRANCH  56  57
ENDBRANCH  28  51
BRANCH  40  61
ATOM     61  C   UNL A   1      46.515  30.243  35.596  1.00  0.00    -0.014 A 
ATOM     62  C   UNL A   1      46.810  31.617  35.609  1.00  0.00     0.010 A 
ATOM     63  C   UNL A   1      46.189  29.590  36.797  1.00  0.00     0.010 A 
ATOM     64  C   UNL A   1      46.803  32.321  36.813  1.00  0.00     0.020 A 
ATOM     65  C   UNL A   1      46.147  30.298  37.997  1.00  0.00     0.020 A 
ATOM     66  C   UNL A   1      46.467  31.658  37.997  1.00  0.00     0.054 A 
BRANCH  66  67
ATOM     67  S   UNL A   1      46.407  32.608  39.538  1.00  0.00     0.124 S 
ATOM     68  O   UNL A   1      45.267  33.490  39.305  1.00  0.00    -0.237 OA
ATOM     69  O   UNL A   1      46.205  31.571  40.546  1.00  0.00    -0.237 OA
ATOM     70  O   UNL A   1      47.708  33.271  39.587  1.00  0.00    -0.744 OA
ENDBRANCH  66  67
ENDBRANCH  40  61
ENDBRANCH  14  15
ENDBRANCH   7   9
ENDBRANCH   6   7
ENDBRANCH   5   6
ENDBRANCH   4   5
ENDBRANCH   3   4
ENDBRANCH   2   3
ENDBRANCH   1   2
BRANCH   1  71
ATOM     71  O   UNL A   1      41.141  20.200  27.066  1.00  0.00    -0.377 OA
BRANCH  71  72
ATOM     72  C   UNL A   1      40.992  21.530  27.534  1.00  0.00     0.188 C 
BRANCH  72  73
ATOM     73  C   UNL A   1      41.163  22.707  26.559  1.00  0.00     0.188 C 
BRANCH  73  74
ATOM     74  O   UNL A   1      39.973  23.248  26.055  1.00  0.00    -0.376 OA
BRANCH  74  75
ATOM     75  C   UNL A   1      38.727  22.723  26.473  1.00  0.00     0.202 C 
BRANCH  75  76
ATOM     76  C   UNL A   1      37.325  23.104  25.925  1.00  0.00     0.261 C 
BRANCH  76  77
ATOM     77  O   UNL A   1      36.859  22.572  24.672  1.00  0.00    -0.459 OA
BRANCH  77  78
ATOM     78  C   UNL A   1      35.787  21.733  24.701  1.00  0.00     0.365 C 
ATOM     79  O   UNL A   1      35.862  20.538  24.970  1.00  0.00    -0.245 OA
BRANCH  78  80
ATOM     80  C   UNL A   1      34.428  22.435  24.500  1.00  0.00     0.304 C 
ATOM     81  C   UNL A   1      34.554  23.618  23.527  1.00  0.00     0.153 C 
ATOM     82  N   UNL A   1      33.280  21.537  24.132  1.00  0.00    -0.319 N 
ATOM     83  S   UNL A   1      33.297  23.349  22.253  1.00  0.00    -0.087 SA
ATOM     84  C   UNL A   1      32.286  22.326  23.387  1.00  0.00     0.277 C 
ATOM     85  H   UNL A   1      32.854  21.159  24.978  1.00  0.00     0.348 HD
ATOM     86  H   UNL A   1      33.614  20.764  23.556  1.00  0.00     0.348 HD
BRANCH  84  87
ATOM     87  C   UNL A   1      31.405  23.268  24.196  1.00  0.00     0.059 A 
ATOM     88  C   UNL A   1      31.070  24.528  23.648  1.00  0.00     0.053 A 
ATOM     89  C   UNL A   1      31.028  23.028  25.523  1.00  0.00     0.133 A 
ATOM     90  C   UNL A   1      30.561  25.537  24.456  1.00  0.00     0.123 A 
ATOM     91  C   UNL A   1      30.533  24.048  26.333  1.00  0.00     0.043 A 
ATOM     92  F   UNL A   1      31.175  21.823  26.085  1.00  0.00    -0.206 F 
ATOM     93  F   UNL A   1      30.339  26.751  23.935  1.00  0.00    -0.207 F 
ATOM     94  C   UNL A   1      30.329  25.320  25.806  1.00  0.00     0.042 A 
ENDBRANCH  84  87
ENDBRANCH  78  80
ENDBRANCH  77  78
ENDBRANCH  76  77
ENDBRANCH  75  76
ENDBRANCH  74  75
ENDBRANCH  73  74
ENDBRANCH  72  73
ENDBRANCH  71  72
ENDBRANCH   1  71
TORSDOF 24
ENDMDL
