MODEL 1
REMARK VINA RESULT:      -8.8      0.000      0.000
REMARK SMILES COc1c(C)cc(Br)cc1C(=O)Nc1ccc(O)c(C(=O)OCCOCCOCCOCCOC(=O)c2ccc(-c3c4nc(c(-c5ccc(S(=O)(=O)[O-])cc5)c5ccc([nH]5)c(-c5ccc(S(=O)(=O)[O-])cc5)c5nc(c(-c6ccc(S(=O)(=O)[O-])cc6)c6ccc3[nH]6)C=C5)C=C4)cc2)c1
REMARK SMILES IDX 28 1 27 2 26 3 25 4 24 5 23 6 22 7 20 8 21 9 19 10 14 11
REMARK SMILES IDX 15 12 97 13 16 14 17 15 13 16 11 17 12 18 10 20 3 21 4 22
REMARK SMILES IDX 5 23 6 24 9 25 7 26 8 27 2 28 1 29 18 30 29 32 30 33 31 34
REMARK SMILES IDX 32 35 33 36 34 37 35 38 36 39 37 40 38 41 96 42 39 43 95 44
REMARK SMILES IDX 40 45 41 46 42 47 89 48 43 49 94 50 88 51 90 52 44 53 93 54
REMARK SMILES IDX 87 55 86 56 45 58 75 59 56 60 74 61 57 62 60 63 73 64 91 65
REMARK SMILES IDX 58 66 59 67 72 69 92 70 61 71 46 72 47 73 55 74 48 75 54 76
REMARK SMILES IDX 49 77 50 78 51 79 52 80 53 81 76 82 77 83 85 84 78 85 84 86
REMARK SMILES IDX 79 87 80 88 81 89 82 90 83 91 62 92 63 93 71 94 64 95 70 96
REMARK SMILES IDX 65 97 66 98 67 99 68 100 69 101
REMARK H PARENT 13 19 18 31 90 57 60 68
REMARK Flexibility Score: inf
ROOT
ATOM      1  O   UNL A   1      34.084  32.237  28.917  1.00  0.00    -0.377 OA
ENDROOT
BRANCH   1   2
ATOM      2  C   UNL A   1      34.491  31.521  27.758  1.00  0.00     0.188 C 
BRANCH   2   3
ATOM      3  C   UNL A   1      35.484  30.343  27.879  1.00  0.00     0.188 C 
BRANCH   3   4
ATOM      4  O   UNL A   1      34.846  29.079  27.795  1.00  0.00    -0.376 OA
BRANCH   4   5
ATOM      5  C   UNL A   1      33.821  28.797  26.865  1.00  0.00     0.202 C 
BRANCH   5   6
ATOM      6  C   UNL A   1      34.004  29.122  25.378  1.00  0.00     0.261 C 
BRANCH   6   7
ATOM      7  O   UNL A   1      33.705  28.038  24.509  1.00  0.00    -0.460 OA
BRANCH   7   8
ATOM      8  C   UNL A   1      32.641  28.093  23.681  1.00  0.00     0.342 C 
ATOM      9  O   UNL A   1      32.577  28.669  22.610  1.00  0.00    -0.246 OA
BRANCH   8  10
ATOM     10  C   UNL A   1      31.693  27.049  24.162  1.00  0.00     0.103 A 
ATOM     11  C   UNL A   1      31.069  25.594  25.962  1.00  0.00     0.042 A 
ATOM     12  C   UNL A   1      29.720  25.766  25.642  1.00  0.00     0.030 A 
ATOM     13  C   UNL A   1      32.052  26.322  25.301  1.00  0.00     0.045 A 
ATOM     14  C   UNL A   1      29.377  26.402  24.450  1.00  0.00     0.049 A 
ATOM     15  C   UNL A   1      30.383  26.956  23.663  1.00  0.00     0.130 A 
BRANCH  11  16
ATOM     16  N   UNL A   1      31.415  24.677  26.950  1.00  0.00    -0.322 N 
ATOM     17  C   UNL A   1      32.169  23.522  26.810  1.00  0.00     0.259 C 
ATOM     18  O   UNL A   1      32.076  22.678  27.708  1.00  0.00    -0.269 OA
ATOM     19  H   UNL A   1      31.084  24.872  27.856  1.00  0.00     0.170 HD
BRANCH  17  20
ATOM     20  C   UNL A   1      33.243  23.334  25.766  1.00  0.00     0.083 A 
ATOM     21  C   UNL A   1      33.101  22.946  24.427  1.00  0.00     0.134 A 
ATOM     22  C   UNL A   1      34.126  23.142  23.482  1.00  0.00    -0.007 A 
ATOM     23  C   UNL A   1      33.851  23.033  22.007  1.00  0.00     0.048 C 
ATOM     24  C   UNL A   1      35.412  23.412  23.945  1.00  0.00     0.023 A 
ATOM     25  C   UNL A   1      34.552  23.602  26.202  1.00  0.00     0.033 A 
ATOM     26  C   UNL A   1      35.626  23.583  25.309  1.00  0.00     0.019 A 
ATOM     27  Br  UNL A   1      37.388  23.812  25.952  1.00  0.00    -0.051 Br
BRANCH  21  28
ATOM     28  O   UNL A   1      32.005  22.274  23.989  1.00  0.00    -0.496 OA
ATOM     29  C   UNL A   1      32.143  20.859  24.136  1.00  0.00     0.278 C 
ENDBRANCH  21  28
ENDBRANCH  17  20
ENDBRANCH  11  16
BRANCH  15  30
ATOM     30  O   UNL A   1      30.069  27.470  22.437  1.00  0.00    -0.507 OA
ATOM     31  H   UNL A   1      29.333  28.043  22.343  1.00  0.00     0.293 HD
ENDBRANCH  15  30
ENDBRANCH   8  10
ENDBRANCH   7   8
ENDBRANCH   6   7
ENDBRANCH   5   6
ENDBRANCH   4   5
ENDBRANCH   3   4
ENDBRANCH   2   3
ENDBRANCH   1   2
BRANCH   1  32
ATOM     32  C   UNL A   1      34.665  33.532  29.041  1.00  0.00     0.188 C 
BRANCH  32  33
ATOM     33  C   UNL A   1      34.132  34.469  27.944  1.00  0.00     0.188 C 
BRANCH  33  34
ATOM     34  O   UNL A   1      34.541  35.818  28.110  1.00  0.00    -0.376 OA
BRANCH  34  35
ATOM     35  C   UNL A   1      33.730  36.726  28.840  1.00  0.00     0.202 C 
BRANCH  35  36
ATOM     36  C   UNL A   1      32.876  36.373  30.080  1.00  0.00     0.261 C 
BRANCH  36  37
ATOM     37  O   UNL A   1      33.499  36.307  31.367  1.00  0.00    -0.460 OA
BRANCH  37  38
ATOM     38  C   UNL A   1      33.065  35.373  32.242  1.00  0.00     0.338 C 
ATOM     39  O   UNL A   1      31.930  34.986  32.398  1.00  0.00    -0.246 OA
BRANCH  38  40
ATOM     40  C   UNL A   1      34.282  34.752  32.825  1.00  0.00     0.060 A 
ATOM     41  C   UNL A   1      35.445  35.525  32.942  1.00  0.00     0.016 A 
ATOM     42  C   UNL A   1      34.258  33.438  33.299  1.00  0.00     0.016 A 
ATOM     43  C   UNL A   1      36.594  34.979  33.513  1.00  0.00     0.010 A 
ATOM     44  C   UNL A   1      35.422  32.880  33.840  1.00  0.00     0.010 A 
ATOM     45  C   UNL A   1      36.602  33.640  33.922  1.00  0.00    -0.014 A 
BRANCH  45  46
ATOM     46  C   UNL A   1      37.892  32.985  34.243  1.00  0.00     0.031 A 
ATOM     47  C   UNL A   1      38.487  33.223  35.605  1.00  0.00     0.074 A 
ATOM     48  C   UNL A   1      38.510  32.177  33.362  1.00  0.00     0.049 A 
ATOM     49  N   UNL A   1      39.615  32.791  36.102  1.00  0.00    -0.248 NA
ATOM     50  C   UNL A   1      37.703  34.062  36.528  1.00  0.00     0.031 C 
ATOM     51  C   UNL A   1      38.010  31.831  32.033  1.00  0.00     0.029 A 
ATOM     52  N   UNL A   1      39.705  31.507  33.458  1.00  0.00    -0.354 N 
ATOM     53  C   UNL A   1      39.686  33.319  37.387  1.00  0.00     0.074 A 
ATOM     54  C   UNL A   1      38.497  34.118  37.586  1.00  0.00     0.031 C 
ATOM     55  C   UNL A   1      38.901  31.025  31.430  1.00  0.00     0.029 A 
ATOM     56  C   UNL A   1      40.050  30.829  32.313  1.00  0.00     0.049 A 
ATOM     57  H   UNL A   1      40.262  31.513  34.269  1.00  0.00     0.167 HD
ATOM     58  C   UNL A   1      40.656  33.155  38.315  1.00  0.00     0.031 A 
ATOM     59  C   UNL A   1      41.175  30.153  32.005  1.00  0.00     0.031 A 
ATOM     60  C   UNL A   1      41.840  32.365  38.109  1.00  0.00     0.049 A 
ATOM     61  C   UNL A   1      42.273  30.041  33.033  1.00  0.00     0.074 A 
ATOM     62  C   UNL A   1      42.866  32.111  39.001  1.00  0.00     0.029 A 
ATOM     63  N   UNL A   1      42.166  31.718  36.927  1.00  0.00    -0.354 N 
ATOM     64  N   UNL A   1      42.307  30.509  34.259  1.00  0.00    -0.248 NA
ATOM     65  C   UNL A   1      43.482  29.302  32.640  1.00  0.00     0.031 C 
ATOM     66  C   UNL A   1      43.849  31.373  38.335  1.00  0.00     0.029 A 
ATOM     67  C   UNL A   1      43.398  31.099  37.054  1.00  0.00     0.049 A 
ATOM     68  H   UNL A   1      41.604  31.701  36.119  1.00  0.00     0.167 HD
ATOM     69  C   UNL A   1      43.527  30.098  34.790  1.00  0.00     0.074 A 
ATOM     70  C   UNL A   1      44.191  29.327  33.759  1.00  0.00     0.031 C 
ATOM     71  C   UNL A   1      44.049  30.335  36.019  1.00  0.00     0.031 A 
BRANCH  58  72
ATOM     72  C   UNL A   1      40.505  33.880  39.626  1.00  0.00    -0.014 A 
ATOM     73  C   UNL A   1      39.906  33.270  40.743  1.00  0.00     0.010 A 
ATOM     74  C   UNL A   1      41.029  35.179  39.755  1.00  0.00     0.010 A 
ATOM     75  C   UNL A   1      39.814  33.957  41.956  1.00  0.00     0.020 A 
ATOM     76  C   UNL A   1      40.967  35.857  40.975  1.00  0.00     0.020 A 
ATOM     77  C   UNL A   1      40.348  35.244  42.066  1.00  0.00     0.054 A 
BRANCH  77  78
ATOM     78  S   UNL A   1      40.260  36.089  43.667  1.00  0.00     0.124 S 
ATOM     79  O   UNL A   1      40.784  37.414  43.339  1.00  0.00    -0.237 OA
ATOM     80  O   UNL A   1      38.835  36.038  43.978  1.00  0.00    -0.237 OA
ATOM     81  O   UNL A   1      41.114  35.281  44.535  1.00  0.00    -0.744 OA
ENDBRANCH  77  78
ENDBRANCH  58  72
BRANCH  59  82
ATOM     82  C   UNL A   1      41.346  29.566  30.645  1.00  0.00    -0.014 A 
ATOM     83  C   UNL A   1      40.980  28.235  30.375  1.00  0.00     0.010 A 
ATOM     84  C   UNL A   1      41.900  30.342  29.609  1.00  0.00     0.010 A 
ATOM     85  C   UNL A   1      41.188  27.685  29.105  1.00  0.00     0.020 A 
ATOM     86  C   UNL A   1      42.078  29.808  28.330  1.00  0.00     0.020 A 
ATOM     87  C   UNL A   1      41.733  28.478  28.090  1.00  0.00     0.054 A 
BRANCH  87  88
ATOM     88  S   UNL A   1      41.955  27.758  26.439  1.00  0.00     0.124 S 
ATOM     89  O   UNL A   1      40.649  27.153  26.193  1.00  0.00    -0.237 OA
ATOM     90  O   UNL A   1      42.274  28.930  25.627  1.00  0.00    -0.237 OA
ATOM     91  O   UNL A   1      43.057  26.816  26.622  1.00  0.00    -0.744 OA
ENDBRANCH  87  88
ENDBRANCH  59  82
BRANCH  71  92
ATOM     92  C   UNL A   1      45.392  29.727  36.339  1.00  0.00    -0.014 A 
ATOM     93  C   UNL A   1      45.510  28.396  36.778  1.00  0.00     0.010 A 
ATOM     94  C   UNL A   1      46.561  30.485  36.133  1.00  0.00     0.010 A 
ATOM     95  C   UNL A   1      46.768  27.847  37.037  1.00  0.00     0.020 A 
ATOM     96  C   UNL A   1      47.821  29.928  36.358  1.00  0.00     0.020 A 
ATOM     97  C   UNL A   1      47.917  28.615  36.823  1.00  0.00     0.054 A 
BRANCH  97  98
ATOM     98  S   UNL A   1      49.539  27.863  37.126  1.00  0.00     0.124 S 
ATOM     99  O   UNL A   1      50.447  28.866  36.579  1.00  0.00    -0.237 OA
ATOM    100  O   UNL A   1      49.559  27.723  38.580  1.00  0.00    -0.237 OA
ATOM    101  O   UNL A   1      49.482  26.604  36.386  1.00  0.00    -0.744 OA
ENDBRANCH  97  98
ENDBRANCH  71  92
ENDBRANCH  45  46
ENDBRANCH  38  40
ENDBRANCH  37  38
ENDBRANCH  36  37
ENDBRANCH  35  36
ENDBRANCH  34  35
ENDBRANCH  33  34
ENDBRANCH  32  33
ENDBRANCH   1  32
TORSDOF 27
ENDMDL
MODEL 2
REMARK VINA RESULT:      -8.0      6.732     11.757
REMARK SMILES COc1c(C)cc(Br)cc1C(=O)Nc1ccc(O)c(C(=O)OCCOCCOCCOCCOC(=O)c2ccc(-c3c4nc(c(-c5ccc(S(=O)(=O)[O-])cc5)c5ccc([nH]5)c(-c5ccc(S(=O)(=O)[O-])cc5)c5nc(c(-c6ccc(S(=O)(=O)[O-])cc6)c6ccc3[nH]6)C=C5)C=C4)cc2)c1
REMARK SMILES IDX 28 1 27 2 26 3 25 4 24 5 23 6 22 7 20 8 21 9 19 10 14 11
REMARK SMILES IDX 15 12 97 13 16 14 17 15 13 16 11 17 12 18 10 20 3 21 4 22
REMARK SMILES IDX 5 23 6 24 9 25 7 26 8 27 2 28 1 29 18 30 29 32 30 33 31 34
REMARK SMILES IDX 32 35 33 36 34 37 35 38 36 39 37 40 38 41 96 42 39 43 95 44
REMARK SMILES IDX 40 45 41 46 42 47 89 48 43 49 94 50 88 51 90 52 44 53 93 54
REMARK SMILES IDX 87 55 86 56 45 58 75 59 56 60 74 61 57 62 60 63 73 64 91 65
REMARK SMILES IDX 58 66 59 67 72 69 92 70 61 71 46 72 47 73 55 74 48 75 54 76
REMARK SMILES IDX 49 77 50 78 51 79 52 80 53 81 76 82 77 83 85 84 78 85 84 86
REMARK SMILES IDX 79 87 80 88 81 89 82 90 83 91 62 92 63 93 71 94 64 95 70 96
REMARK SMILES IDX 65 97 66 98 67 99 68 100 69 101
REMARK H PARENT 13 19 18 31 90 57 60 68
REMARK Flexibility Score: inf
ROOT
ATOM      1  O   UNL A   1      40.971  27.313  26.684  1.00  0.00    -0.377 OA
ENDROOT
BRANCH   1   2
ATOM      2  C   UNL A   1      40.400  28.089  27.730  1.00  0.00     0.188 C 
BRANCH   2   3
ATOM      3  C   UNL A   1      38.883  28.386  27.741  1.00  0.00     0.188 C 
BRANCH   3   4
ATOM      4  O   UNL A   1      38.597  29.768  27.884  1.00  0.00    -0.376 OA
BRANCH   4   5
ATOM      5  C   UNL A   1      37.285  30.290  27.829  1.00  0.00     0.202 C 
BRANCH   5   6
ATOM      6  C   UNL A   1      36.093  29.458  28.312  1.00  0.00     0.261 C 
BRANCH   6   7
ATOM      7  O   UNL A   1      35.277  28.953  27.263  1.00  0.00    -0.460 OA
BRANCH   7   8
ATOM      8  C   UNL A   1      34.172  29.620  26.870  1.00  0.00     0.342 C 
ATOM      9  O   UNL A   1      34.009  30.826  26.867  1.00  0.00    -0.246 OA
BRANCH   8  10
ATOM     10  C   UNL A   1      33.337  28.630  26.133  1.00  0.00     0.103 A 
ATOM     11  C   UNL A   1      31.724  26.863  26.295  1.00  0.00     0.042 A 
ATOM     12  C   UNL A   1      31.120  27.298  25.113  1.00  0.00     0.030 A 
ATOM     13  C   UNL A   1      32.759  27.592  26.871  1.00  0.00     0.045 A 
ATOM     14  C   UNL A   1      31.760  28.261  24.333  1.00  0.00     0.049 A 
ATOM     15  C   UNL A   1      32.926  28.852  24.808  1.00  0.00     0.130 A 
BRANCH  11  16
ATOM     16  N   UNL A   1      31.278  25.685  26.885  1.00  0.00    -0.322 N 
ATOM     17  C   UNL A   1      31.367  24.396  26.381  1.00  0.00     0.259 C 
ATOM     18  O   UNL A   1      30.621  23.545  26.879  1.00  0.00    -0.269 OA
ATOM     19  H   UNL A   1      30.848  25.777  27.766  1.00  0.00     0.170 HD
BRANCH  17  20
ATOM     20  C   UNL A   1      32.450  23.929  25.439  1.00  0.00     0.083 A 
ATOM     21  C   UNL A   1      32.332  23.531  24.101  1.00  0.00     0.134 A 
ATOM     22  C   UNL A   1      33.449  23.452  23.247  1.00  0.00    -0.007 A 
ATOM     23  C   UNL A   1      33.276  23.351  21.755  1.00  0.00     0.048 C 
ATOM     24  C   UNL A   1      34.720  23.441  23.815  1.00  0.00     0.023 A 
ATOM     25  C   UNL A   1      33.746  23.910  25.984  1.00  0.00     0.033 A 
ATOM     26  C   UNL A   1      34.856  23.612  25.189  1.00  0.00     0.019 A 
ATOM     27  Br  UNL A   1      36.565  23.460  25.980  1.00  0.00    -0.051 Br
BRANCH  21  28
ATOM     28  O   UNL A   1      31.150  23.108  23.581  1.00  0.00    -0.496 OA
ATOM     29  C   UNL A   1      30.284  24.196  23.252  1.00  0.00     0.278 C 
ENDBRANCH  21  28
ENDBRANCH  17  20
ENDBRANCH  11  16
BRANCH  15  30
ATOM     30  O   UNL A   1      33.625  29.702  23.998  1.00  0.00    -0.507 OA
ATOM     31  H   UNL A   1      34.521  29.521  23.792  1.00  0.00     0.293 HD
ENDBRANCH  15  30
ENDBRANCH   8  10
ENDBRANCH   7   8
ENDBRANCH   6   7
ENDBRANCH   5   6
ENDBRANCH   4   5
ENDBRANCH   3   4
ENDBRANCH   2   3
ENDBRANCH   1   2
BRANCH   1  32
ATOM     32  C   UNL A   1      42.000  26.424  27.109  1.00  0.00     0.188 C 
BRANCH  32  33
ATOM     33  C   UNL A   1      41.501  25.529  28.255  1.00  0.00     0.188 C 
BRANCH  33  34
ATOM     34  O   UNL A   1      42.454  24.562  28.669  1.00  0.00    -0.376 OA
BRANCH  34  35
ATOM     35  C   UNL A   1      42.957  23.613  27.741  1.00  0.00     0.202 C 
BRANCH  35  36
ATOM     36  C   UNL A   1      44.450  23.274  27.519  1.00  0.00     0.261 C 
BRANCH  36  37
ATOM     37  O   UNL A   1      45.437  23.844  28.386  1.00  0.00    -0.460 OA
BRANCH  37  38
ATOM     38  C   UNL A   1      46.471  24.512  27.829  1.00  0.00     0.338 C 
ATOM     39  O   UNL A   1      47.369  24.049  27.165  1.00  0.00    -0.246 OA
BRANCH  38  40
ATOM     40  C   UNL A   1      46.175  25.957  28.003  1.00  0.00     0.060 A 
ATOM     41  C   UNL A   1      45.616  26.666  26.932  1.00  0.00     0.016 A 
ATOM     42  C   UNL A   1      46.400  26.591  29.228  1.00  0.00     0.016 A 
ATOM     43  C   UNL A   1      45.299  28.016  27.075  1.00  0.00     0.010 A 
ATOM     44  C   UNL A   1      46.114  27.954  29.359  1.00  0.00     0.010 A 
ATOM     45  C   UNL A   1      45.590  28.679  28.274  1.00  0.00    -0.014 A 
BRANCH  45  46
ATOM     46  C   UNL A   1      45.534  30.159  28.321  1.00  0.00     0.031 A 
ATOM     47  C   UNL A   1      46.751  30.926  27.878  1.00  0.00     0.074 A 
ATOM     48  C   UNL A   1      44.427  30.810  28.718  1.00  0.00     0.049 A 
ATOM     49  N   UNL A   1      46.955  32.217  27.862  1.00  0.00    -0.248 NA
ATOM     50  C   UNL A   1      47.890  30.129  27.390  1.00  0.00     0.031 C 
ATOM     51  C   UNL A   1      43.171  30.179  29.123  1.00  0.00     0.029 A 
ATOM     52  N   UNL A   1      44.187  32.155  28.854  1.00  0.00    -0.354 N 
ATOM     53  C   UNL A   1      48.248  32.387  27.381  1.00  0.00     0.074 A 
ATOM     54  C   UNL A   1      48.789  31.068  27.134  1.00  0.00     0.031 C 
ATOM     55  C   UNL A   1      42.298  31.138  29.479  1.00  0.00     0.029 A 
ATOM     56  C   UNL A   1      42.943  32.445  29.362  1.00  0.00     0.049 A 
ATOM     57  H   UNL A   1      44.844  32.846  28.610  1.00  0.00     0.167 HD
ATOM     58  C   UNL A   1      48.925  33.538  27.166  1.00  0.00     0.031 A 
ATOM     59  C   UNL A   1      42.400  33.627  29.720  1.00  0.00     0.031 A 
ATOM     60  C   UNL A   1      48.386  34.847  27.421  1.00  0.00     0.049 A 
ATOM     61  C   UNL A   1      43.200  34.892  29.535  1.00  0.00     0.074 A 
ATOM     62  C   UNL A   1      48.982  36.076  27.204  1.00  0.00     0.029 A 
ATOM     63  N   UNL A   1      47.134  35.097  27.962  1.00  0.00    -0.354 N 
ATOM     64  N   UNL A   1      44.407  35.041  29.038  1.00  0.00    -0.248 NA
ATOM     65  C   UNL A   1      42.564  36.151  29.951  1.00  0.00     0.031 C 
ATOM     66  C   UNL A   1      48.122  37.067  27.685  1.00  0.00     0.029 A 
ATOM     67  C   UNL A   1      46.956  36.460  28.125  1.00  0.00     0.049 A 
ATOM     68  H   UNL A   1      46.470  34.408  28.194  1.00  0.00     0.167 HD
ATOM     69  C   UNL A   1      44.660  36.410  29.058  1.00  0.00     0.074 A 
ATOM     70  C   UNL A   1      43.475  37.046  29.596  1.00  0.00     0.031 C 
ATOM     71  C   UNL A   1      45.771  37.080  28.664  1.00  0.00     0.031 A 
BRANCH  58  72
ATOM     72  C   UNL A   1      50.345  33.438  26.674  1.00  0.00    -0.014 A 
ATOM     73  C   UNL A   1      50.657  33.491  25.304  1.00  0.00     0.010 A 
ATOM     74  C   UNL A   1      51.390  33.348  27.611  1.00  0.00     0.010 A 
ATOM     75  C   UNL A   1      51.987  33.433  24.880  1.00  0.00     0.020 A 
ATOM     76  C   UNL A   1      52.723  33.321  27.194  1.00  0.00     0.020 A 
ATOM     77  C   UNL A   1      53.012  33.352  25.828  1.00  0.00     0.054 A 
BRANCH  77  78
ATOM     78  S   UNL A   1      54.731  33.331  25.251  1.00  0.00     0.124 S 
ATOM     79  O   UNL A   1      55.153  34.706  25.510  1.00  0.00    -0.237 OA
ATOM     80  O   UNL A   1      55.342  32.316  26.104  1.00  0.00    -0.237 OA
ATOM     81  O   UNL A   1      54.620  32.971  23.839  1.00  0.00    -0.744 OA
ENDBRANCH  77  78
ENDBRANCH  58  72
BRANCH  59  82
ATOM     82  C   UNL A   1      41.042  33.671  30.334  1.00  0.00    -0.014 A 
ATOM     83  C   UNL A   1      39.911  34.019  29.575  1.00  0.00     0.010 A 
ATOM     84  C   UNL A   1      40.881  33.380  31.702  1.00  0.00     0.010 A 
ATOM     85  C   UNL A   1      38.650  34.098  30.177  1.00  0.00     0.020 A 
ATOM     86  C   UNL A   1      39.618  33.425  32.300  1.00  0.00     0.020 A 
ATOM     87  C   UNL A   1      38.512  33.797  31.536  1.00  0.00     0.054 A 
BRANCH  87  88
ATOM     88  S   UNL A   1      36.862  33.866  32.287  1.00  0.00     0.124 S 
ATOM     89  O   UNL A   1      37.006  34.963  33.238  1.00  0.00    -0.237 OA
ATOM     90  O   UNL A   1      36.004  34.133  31.135  1.00  0.00    -0.237 OA
ATOM     91  O   UNL A   1      36.701  32.539  32.879  1.00  0.00    -0.744 OA
ENDBRANCH  87  88
ENDBRANCH  59  82
BRANCH  71  92
ATOM     92  C   UNL A   1      45.755  38.585  28.764  1.00  0.00    -0.014 A 
ATOM     93  C   UNL A   1      46.330  39.255  29.858  1.00  0.00     0.010 A 
ATOM     94  C   UNL A   1      45.211  39.342  27.707  1.00  0.00     0.010 A 
ATOM     95  C   UNL A   1      46.330  40.652  29.911  1.00  0.00     0.020 A 
ATOM     96  C   UNL A   1      45.240  40.738  27.741  1.00  0.00     0.020 A 
ATOM     97  C   UNL A   1      45.787  41.385  28.851  1.00  0.00     0.054 A 
BRANCH  97  98
ATOM     98  S   UNL A   1      45.840  43.196  28.925  1.00  0.00     0.124 S 
ATOM     99  O   UNL A   1      46.017  43.554  27.522  1.00  0.00    -0.237 OA
ATOM    100  O   UNL A   1      44.539  43.529  29.500  1.00  0.00    -0.237 OA
ATOM    101  O   UNL A   1      46.986  43.476  29.789  1.00  0.00    -0.744 OA
ENDBRANCH  97  98
ENDBRANCH  71  92
ENDBRANCH  45  46
ENDBRANCH  38  40
ENDBRANCH  37  38
ENDBRANCH  36  37
ENDBRANCH  35  36
ENDBRANCH  34  35
ENDBRANCH  33  34
ENDBRANCH  32  33
ENDBRANCH   1  32
TORSDOF 27
ENDMDL
MODEL 3
REMARK VINA RESULT:      -7.9      1.389      2.162
REMARK SMILES COc1c(C)cc(Br)cc1C(=O)Nc1ccc(O)c(C(=O)OCCOCCOCCOCCOC(=O)c2ccc(-c3c4nc(c(-c5ccc(S(=O)(=O)[O-])cc5)c5ccc([nH]5)c(-c5ccc(S(=O)(=O)[O-])cc5)c5nc(c(-c6ccc(S(=O)(=O)[O-])cc6)c6ccc3[nH]6)C=C5)C=C4)cc2)c1
REMARK SMILES IDX 28 1 27 2 26 3 25 4 24 5 23 6 22 7 20 8 21 9 19 10 14 11
REMARK SMILES IDX 15 12 97 13 16 14 17 15 13 16 11 17 12 18 10 20 3 21 4 22
REMARK SMILES IDX 5 23 6 24 9 25 7 26 8 27 2 28 1 29 18 30 29 32 30 33 31 34
REMARK SMILES IDX 32 35 33 36 34 37 35 38 36 39 37 40 38 41 96 42 39 43 95 44
REMARK SMILES IDX 40 45 41 46 42 47 89 48 43 49 94 50 88 51 90 52 44 53 93 54
REMARK SMILES IDX 87 55 86 56 45 58 75 59 56 60 74 61 57 62 60 63 73 64 91 65
REMARK SMILES IDX 58 66 59 67 72 69 92 70 61 71 46 72 47 73 55 74 48 75 54 76
REMARK SMILES IDX 49 77 50 78 51 79 52 80 53 81 76 82 77 83 85 84 78 85 84 86
REMARK SMILES IDX 79 87 80 88 81 89 82 90 83 91 62 92 63 93 71 94 64 95 70 96
REMARK SMILES IDX 65 97 66 98 67 99 68 100 69 101
REMARK H PARENT 13 19 18 31 90 57 60 68
REMARK Flexibility Score: inf
ROOT
ATOM      1  O   UNL A   1      33.768  31.046  28.067  1.00  0.00    -0.377 OA
ENDROOT
BRANCH   1   2
ATOM      2  C   UNL A   1      33.516  30.336  26.862  1.00  0.00     0.188 C 
BRANCH   2   3
ATOM      3  C   UNL A   1      33.609  28.794  26.832  1.00  0.00     0.188 C 
BRANCH   3   4
ATOM      4  O   UNL A   1      32.651  28.171  27.673  1.00  0.00    -0.376 OA
BRANCH   4   5
ATOM      5  C   UNL A   1      31.386  27.745  27.211  1.00  0.00     0.202 C 
BRANCH   5   6
ATOM      6  C   UNL A   1      31.272  26.646  26.150  1.00  0.00     0.261 C 
BRANCH   6   7
ATOM      7  O   UNL A   1      30.131  26.769  25.311  1.00  0.00    -0.460 OA
BRANCH   7   8
ATOM      8  C   UNL A   1      30.266  27.106  24.011  1.00  0.00     0.342 C 
ATOM      9  O   UNL A   1      29.897  28.139  23.482  1.00  0.00    -0.246 OA
BRANCH   8  10
ATOM     10  C   UNL A   1      31.238  26.136  23.435  1.00  0.00     0.103 A 
ATOM     11  C   UNL A   1      31.569  23.949  22.510  1.00  0.00     0.042 A 
ATOM     12  C   UNL A   1      32.528  24.458  21.631  1.00  0.00     0.030 A 
ATOM     13  C   UNL A   1      30.838  24.800  23.332  1.00  0.00     0.045 A 
ATOM     14  C   UNL A   1      32.994  25.760  21.810  1.00  0.00     0.049 A 
ATOM     15  C   UNL A   1      32.409  26.562  22.785  1.00  0.00     0.130 A 
BRANCH  11  16
ATOM     16  N   UNL A   1      31.359  22.574  22.554  1.00  0.00    -0.322 N 
ATOM     17  C   UNL A   1      32.266  21.587  22.909  1.00  0.00     0.259 C 
ATOM     18  O   UNL A   1      32.005  20.431  22.558  1.00  0.00    -0.269 OA
ATOM     19  H   UNL A   1      30.459  22.265  22.302  1.00  0.00     0.170 HD
BRANCH  17  20
ATOM     20  C   UNL A   1      33.412  21.798  23.868  1.00  0.00     0.083 A 
ATOM     21  C   UNL A   1      34.327  20.855  24.356  1.00  0.00     0.134 A 
ATOM     22  C   UNL A   1      35.539  21.238  24.960  1.00  0.00    -0.007 A 
ATOM     23  C   UNL A   1      36.646  20.241  25.176  1.00  0.00     0.048 C 
ATOM     24  C   UNL A   1      35.682  22.557  25.383  1.00  0.00     0.023 A 
ATOM     25  C   UNL A   1      33.585  23.121  24.310  1.00  0.00     0.033 A 
ATOM     26  C   UNL A   1      34.676  23.477  25.105  1.00  0.00     0.019 A 
ATOM     27  Br  UNL A   1      34.804  25.231  25.796  1.00  0.00    -0.051 Br
BRANCH  21  28
ATOM     28  O   UNL A   1      34.052  19.525  24.358  1.00  0.00    -0.496 OA
ATOM     29  C   UNL A   1      33.161  19.158  25.414  1.00  0.00     0.278 C 
ENDBRANCH  21  28
ENDBRANCH  17  20
ENDBRANCH  11  16
BRANCH  15  30
ATOM     30  O   UNL A   1      32.941  27.792  23.050  1.00  0.00    -0.507 OA
ATOM     31  H   UNL A   1      33.269  28.322  22.350  1.00  0.00     0.293 HD
ENDBRANCH  15  30
ENDBRANCH   8  10
ENDBRANCH   7   8
ENDBRANCH   6   7
ENDBRANCH   5   6
ENDBRANCH   4   5
ENDBRANCH   3   4
ENDBRANCH   2   3
ENDBRANCH   1   2
BRANCH   1  32
ATOM     32  C   UNL A   1      35.145  31.317  28.311  1.00  0.00     0.188 C 
BRANCH  32  33
ATOM     33  C   UNL A   1      35.561  32.639  27.645  1.00  0.00     0.188 C 
BRANCH  33  34
ATOM     34  O   UNL A   1      36.287  33.500  28.508  1.00  0.00    -0.376 OA
BRANCH  34  35
ATOM     35  C   UNL A   1      35.610  34.503  29.251  1.00  0.00     0.202 C 
BRANCH  35  36
ATOM     36  C   UNL A   1      34.094  34.525  29.561  1.00  0.00     0.261 C 
BRANCH  36  37
ATOM     37  O   UNL A   1      33.576  35.510  30.460  1.00  0.00    -0.460 OA
BRANCH  37  38
ATOM     38  C   UNL A   1      33.240  35.122  31.711  1.00  0.00     0.338 C 
ATOM     39  O   UNL A   1      32.138  35.121  32.207  1.00  0.00    -0.246 OA
BRANCH  38  40
ATOM     40  C   UNL A   1      34.453  34.490  32.290  1.00  0.00     0.060 A 
ATOM     41  C   UNL A   1      35.578  35.288  32.537  1.00  0.00     0.016 A 
ATOM     42  C   UNL A   1      34.460  33.136  32.634  1.00  0.00     0.016 A 
ATOM     43  C   UNL A   1      36.721  34.730  33.109  1.00  0.00     0.010 A 
ATOM     44  C   UNL A   1      35.620  32.569  33.174  1.00  0.00     0.010 A 
ATOM     45  C   UNL A   1      36.764  33.358  33.387  1.00  0.00    -0.014 A 
BRANCH  45  46
ATOM     46  C   UNL A   1      38.063  32.720  33.706  1.00  0.00     0.031 A 
ATOM     47  C   UNL A   1      38.635  32.931  35.082  1.00  0.00     0.074 A 
ATOM     48  C   UNL A   1      38.709  31.951  32.810  1.00  0.00     0.049 A 
ATOM     49  N   UNL A   1      39.766  32.508  35.581  1.00  0.00    -0.248 NA
ATOM     50  C   UNL A   1      37.822  33.726  36.018  1.00  0.00     0.031 C 
ATOM     51  C   UNL A   1      38.232  31.634  31.465  1.00  0.00     0.029 A 
ATOM     52  N   UNL A   1      39.916  31.303  32.902  1.00  0.00    -0.354 N 
ATOM     53  C   UNL A   1      39.809  32.999  36.881  1.00  0.00     0.074 A 
ATOM     54  C   UNL A   1      38.602  33.768  37.088  1.00  0.00     0.031 C 
ATOM     55  C   UNL A   1      39.148  30.865  30.851  1.00  0.00     0.029 A 
ATOM     56  C   UNL A   1      40.289  30.666  31.743  1.00  0.00     0.049 A 
ATOM     57  H   UNL A   1      40.462  31.296  33.721  1.00  0.00     0.167 HD
ATOM     58  C   UNL A   1      40.771  32.827  37.818  1.00  0.00     0.031 A 
ATOM     59  C   UNL A   1      41.432  30.022  31.430  1.00  0.00     0.031 A 
ATOM     60  C   UNL A   1      41.974  32.069  37.604  1.00  0.00     0.049 A 
ATOM     61  C   UNL A   1      42.519  29.903  32.469  1.00  0.00     0.074 A 
ATOM     62  C   UNL A   1      42.994  31.810  38.502  1.00  0.00     0.029 A 
ATOM     63  N   UNL A   1      42.328  31.463  36.408  1.00  0.00    -0.354 N 
ATOM     64  N   UNL A   1      42.528  30.335  33.709  1.00  0.00    -0.248 NA
ATOM     65  C   UNL A   1      43.748  29.200  32.071  1.00  0.00     0.031 C 
ATOM     66  C   UNL A   1      44.000  31.112  37.828  1.00  0.00     0.029 A 
ATOM     67  C   UNL A   1      43.571  30.866  36.533  1.00  0.00     0.049 A 
ATOM     68  H   UNL A   1      41.777  31.458  35.592  1.00  0.00     0.167 HD
ATOM     69  C   UNL A   1      43.749  29.934  34.243  1.00  0.00     0.074 A 
ATOM     70  C   UNL A   1      44.442  29.207  33.200  1.00  0.00     0.031 C 
ATOM     71  C   UNL A   1      44.251  30.146  35.486  1.00  0.00     0.031 A 
BRANCH  58  72
ATOM     72  C   UNL A   1      40.588  33.512  39.147  1.00  0.00    -0.014 A 
ATOM     73  C   UNL A   1      39.932  32.880  40.218  1.00  0.00     0.010 A 
ATOM     74  C   UNL A   1      41.139  34.791  39.341  1.00  0.00     0.010 A 
ATOM     75  C   UNL A   1      39.810  33.526  41.450  1.00  0.00     0.020 A 
ATOM     76  C   UNL A   1      41.048  35.428  40.581  1.00  0.00     0.020 A 
ATOM     77  C   UNL A   1      40.373  34.795  41.625  1.00  0.00     0.054 A 
BRANCH  77  78
ATOM     78  S   UNL A   1      40.245  35.586  43.252  1.00  0.00     0.124 S 
ATOM     79  O   UNL A   1      39.687  34.510  44.068  1.00  0.00    -0.237 OA
ATOM     80  O   UNL A   1      41.631  35.941  43.544  1.00  0.00    -0.237 OA
ATOM     81  O   UNL A   1      39.350  36.718  43.019  1.00  0.00    -0.744 OA
ENDBRANCH  77  78
ENDBRANCH  58  72
BRANCH  59  82
ATOM     82  C   UNL A   1      41.632  29.479  30.056  1.00  0.00    -0.014 A 
ATOM     83  C   UNL A   1      42.355  30.198  29.087  1.00  0.00     0.010 A 
ATOM     84  C   UNL A   1      41.075  28.234  29.705  1.00  0.00     0.010 A 
ATOM     85  C   UNL A   1      42.496  29.694  27.789  1.00  0.00     0.020 A 
ATOM     86  C   UNL A   1      41.242  27.713  28.419  1.00  0.00     0.020 A 
ATOM     87  C   UNL A   1      41.941  28.453  27.465  1.00  0.00     0.054 A 
BRANCH  87  88
ATOM     88  S   UNL A   1      42.171  27.799  25.788  1.00  0.00     0.124 S 
ATOM     89  O   UNL A   1      41.936  28.982  24.966  1.00  0.00    -0.237 OA
ATOM     90  O   UNL A   1      43.550  27.317  25.827  1.00  0.00    -0.237 OA
ATOM     91  O   UNL A   1      41.155  26.753  25.686  1.00  0.00    -0.744 OA
ENDBRANCH  87  88
ENDBRANCH  59  82
BRANCH  71  92
ATOM     92  C   UNL A   1      45.601  29.556  35.806  1.00  0.00    -0.014 A 
ATOM     93  C   UNL A   1      46.786  30.290  35.622  1.00  0.00     0.010 A 
ATOM     94  C   UNL A   1      45.677  28.266  36.366  1.00  0.00     0.010 A 
ATOM     95  C   UNL A   1      48.023  29.733  35.958  1.00  0.00     0.020 A 
ATOM     96  C   UNL A   1      46.908  27.719  36.734  1.00  0.00     0.020 A 
ATOM     97  C   UNL A   1      48.076  28.451  36.514  1.00  0.00     0.054 A 
BRANCH  97  98
ATOM     98  S   UNL A   1      49.690  27.769  36.981  1.00  0.00     0.124 S 
ATOM     99  O   UNL A   1      50.386  28.949  37.483  1.00  0.00    -0.237 OA
ATOM    100  O   UNL A   1      49.336  26.771  37.988  1.00  0.00    -0.237 OA
ATOM    101  O   UNL A   1      50.212  27.223  35.729  1.00  0.00    -0.744 OA
ENDBRANCH  97  98
ENDBRANCH  71  92
ENDBRANCH  45  46
ENDBRANCH  38  40
ENDBRANCH  37  38
ENDBRANCH  36  37
ENDBRANCH  35  36
ENDBRANCH  34  35
ENDBRANCH  33  34
ENDBRANCH  32  33
ENDBRANCH   1  32
TORSDOF 27
ENDMDL
