MODEL 1
REMARK VINA RESULT:      -9.0      0.000      0.000
REMARK SMILES O=C1NC(=S)S/C1=C\c1ccc(OCc2cn(-c3ccc(C(=O)OCCOCCOCCOCCOC(=O)c4ccc(-c5c6nc(c(-c7ccc(S(=O)(=O)[O-])cc7)c7ccc([nH]7)c(-c7ccc(S(=O)(=O)[O-])cc7)c7nc(c(-c8ccc(S(=O)(=O)[O-])cc8)c8ccc5[nH]8)C=C7)C=C6)cc4)cc3)nn2)cc1
REMARK SMILES IDX 29 1 28 2 27 3 26 4 25 5 24 6 22 7 23 8 21 9 18 10 19 11
REMARK SMILES IDX 100 12 20 13 99 14 17 15 15 16 16 17 102 18 101 19 14 20
REMARK SMILES IDX 13 21 12 22 9 23 10 24 104 25 11 26 103 27 8 28 1 29 2 30
REMARK SMILES IDX 3 31 7 32 4 33 6 35 5 36 30 37 31 38 32 39 33 40 34 41 35 42
REMARK SMILES IDX 36 43 37 44 38 45 39 46 40 47 98 48 41 49 97 50 42 51 43 52
REMARK SMILES IDX 44 53 91 54 45 55 96 56 90 57 92 58 46 59 95 60 89 61 88 62
REMARK SMILES IDX 47 64 77 65 58 66 76 67 59 68 62 69 75 70 93 71 60 72 61 73
REMARK SMILES IDX 74 75 94 76 63 77 48 78 49 79 57 80 50 81 56 82 51 83 52 84
REMARK SMILES IDX 53 85 54 86 55 87 78 88 79 89 87 90 80 91 86 92 81 93 82 94
REMARK SMILES IDX 83 95 84 96 85 97 64 98 65 99 73 100 66 101 72 102 67 103
REMARK SMILES IDX 68 104 69 105 70 106 71 107
REMARK H PARENT 3 34 92 63 62 74
REMARK Flexibility Score: inf
ROOT
ATOM      1  C   UNL A   1      43.845  26.941  27.618  1.00  0.00     0.188 C 
ENDROOT
BRANCH   1   2
ATOM      2  C   UNL A   1      43.705  25.894  26.494  1.00  0.00     0.188 C 
BRANCH   2   3
ATOM      3  O   UNL A   1      44.113  24.551  26.695  1.00  0.00    -0.376 OA
BRANCH   3   4
ATOM      4  C   UNL A   1      43.942  23.532  25.727  1.00  0.00     0.202 C 
BRANCH   4   5
ATOM      5  C   UNL A   1      42.647  22.737  25.476  1.00  0.00     0.261 C 
BRANCH   5   6
ATOM      6  O   UNL A   1      41.453  23.192  26.102  1.00  0.00    -0.460 OA
BRANCH   6   7
ATOM      7  C   UNL A   1      40.732  22.250  26.740  1.00  0.00     0.338 C 
ATOM      8  O   UNL A   1      41.115  21.477  27.601  1.00  0.00    -0.246 OA
BRANCH   7   9
ATOM      9  C   UNL A   1      39.318  22.429  26.351  1.00  0.00     0.060 A 
ATOM     10  C   UNL A   1      36.691  22.703  25.490  1.00  0.00     0.066 A 
ATOM     11  C   UNL A   1      37.305  21.442  25.459  1.00  0.00     0.029 A 
ATOM     12  C   UNL A   1      37.354  23.802  26.053  1.00  0.00     0.029 A 
ATOM     13  C   UNL A   1      38.633  21.318  25.850  1.00  0.00     0.018 A 
ATOM     14  C   UNL A   1      38.666  23.657  26.510  1.00  0.00     0.018 A 
BRANCH  10  15
ATOM     15  N   UNL A   1      35.457  22.861  24.822  1.00  0.00    -0.220 N 
ATOM     16  C   UNL A   1      33.982  23.224  23.258  1.00  0.00     0.120 A 
ATOM     17  C   UNL A   1      35.173  23.699  23.766  1.00  0.00     0.144 A 
ATOM     18  N   UNL A   1      33.547  22.195  24.049  1.00  0.00    -0.131 NA
ATOM     19  N   UNL A   1      34.440  21.991  25.001  1.00  0.00    -0.062 NA
BRANCH  16  20
ATOM     20  C   UNL A   1      33.257  23.570  22.001  1.00  0.00     0.289 C 
BRANCH  20  21
ATOM     21  O   UNL A   1      31.935  24.095  22.182  1.00  0.00    -0.487 OA
BRANCH  21  22
ATOM     22  C   UNL A   1      31.809  25.330  22.756  1.00  0.00     0.119 A 
ATOM     23  C   UNL A   1      31.168  27.830  23.856  1.00  0.00    -0.024 A 
ATOM     24  C   UNL A   1      30.426  26.700  24.207  1.00  0.00     0.012 A 
ATOM     25  C   UNL A   1      32.282  27.687  23.026  1.00  0.00     0.012 A 
ATOM     26  C   UNL A   1      30.748  25.456  23.655  1.00  0.00     0.047 A 
ATOM     27  C   UNL A   1      32.612  26.439  22.497  1.00  0.00     0.047 A 
BRANCH  23  28
ATOM     28  C   UNL A   1      30.771  29.160  24.323  1.00  0.00     0.029 C 
ATOM     29  O   UNL A   1      30.114  31.866  25.169  1.00  0.00    -0.268 OA
ATOM     30  C   UNL A   1      29.751  31.403  24.098  1.00  0.00     0.263 C 
ATOM     31  N   UNL A   1      29.035  32.085  23.155  1.00  0.00    -0.307 N 
ATOM     32  C   UNL A   1      30.067  30.040  23.597  1.00  0.00     0.080 C 
ATOM     33  C   UNL A   1      28.766  31.460  21.976  1.00  0.00     0.145 C 
ATOM     34  H   UNL A   1      28.723  33.004  23.323  1.00  0.00     0.171 HD
ATOM     35  S   UNL A   1      29.420  29.839  22.007  1.00  0.00    -0.055 SA
ATOM     36  S   UNL A   1      27.965  32.176  20.717  1.00  0.00    -0.052 S 
ENDBRANCH  23  28
ENDBRANCH  21  22
ENDBRANCH  20  21
ENDBRANCH  16  20
ENDBRANCH  10  15
ENDBRANCH   7   9
ENDBRANCH   6   7
ENDBRANCH   5   6
ENDBRANCH   4   5
ENDBRANCH   3   4
ENDBRANCH   2   3
ENDBRANCH   1   2
BRANCH   1  37
ATOM     37  O   UNL A   1      42.987  28.057  27.453  1.00  0.00    -0.377 OA
BRANCH  37  38
ATOM     38  C   UNL A   1      41.729  27.977  28.118  1.00  0.00     0.188 C 
BRANCH  38  39
ATOM     39  C   UNL A   1      40.428  28.215  27.304  1.00  0.00     0.188 C 
BRANCH  39  40
ATOM     40  O   UNL A   1      39.229  28.178  28.072  1.00  0.00    -0.376 OA
BRANCH  40  41
ATOM     41  C   UNL A   1      38.194  29.125  27.873  1.00  0.00     0.202 C 
BRANCH  41  42
ATOM     42  C   UNL A   1      38.294  30.387  28.724  1.00  0.00     0.261 C 
BRANCH  42  43
ATOM     43  O   UNL A   1      37.348  31.370  28.352  1.00  0.00    -0.460 OA
BRANCH  43  44
ATOM     44  C   UNL A   1      36.154  31.269  28.962  1.00  0.00     0.338 C 
ATOM     45  O   UNL A   1      35.085  30.965  28.455  1.00  0.00    -0.246 OA
BRANCH  44  46
ATOM     46  C   UNL A   1      36.320  31.710  30.345  1.00  0.00     0.060 A 
ATOM     47  C   UNL A   1      36.984  32.923  30.503  1.00  0.00     0.016 A 
ATOM     48  C   UNL A   1      36.232  30.745  31.362  1.00  0.00     0.016 A 
ATOM     49  C   UNL A   1      37.859  33.016  31.551  1.00  0.00     0.010 A 
ATOM     50  C   UNL A   1      37.125  30.826  32.389  1.00  0.00     0.010 A 
ATOM     51  C   UNL A   1      38.000  31.907  32.391  1.00  0.00    -0.014 A 
BRANCH  51  52
ATOM     52  C   UNL A   1      39.097  31.920  33.320  1.00  0.00     0.031 A 
ATOM     53  C   UNL A   1      38.786  32.698  34.527  1.00  0.00     0.074 A 
ATOM     54  C   UNL A   1      40.221  31.220  33.099  1.00  0.00     0.049 A 
ATOM     55  N   UNL A   1      39.254  33.851  34.861  1.00  0.00    -0.248 NA
ATOM     56  C   UNL A   1      37.647  32.237  35.340  1.00  0.00     0.031 C 
ATOM     57  C   UNL A   1      40.474  30.201  32.075  1.00  0.00     0.029 A 
ATOM     58  N   UNL A   1      41.348  31.187  33.852  1.00  0.00    -0.354 N 
ATOM     59  C   UNL A   1      38.634  34.149  36.064  1.00  0.00     0.074 A 
ATOM     60  C   UNL A   1      37.503  33.265  36.174  1.00  0.00     0.031 C 
ATOM     61  C   UNL A   1      41.565  29.484  32.432  1.00  0.00     0.029 A 
ATOM     62  C   UNL A   1      42.145  30.074  33.629  1.00  0.00     0.049 A 
ATOM     63  H   UNL A   1      41.579  31.891  34.499  1.00  0.00     0.167 HD
ATOM     64  C   UNL A   1      39.272  34.869  37.024  1.00  0.00     0.031 A 
ATOM     65  C   UNL A   1      43.130  29.629  34.449  1.00  0.00     0.031 A 
ATOM     66  C   UNL A   1      40.407  35.580  36.498  1.00  0.00     0.049 A 
ATOM     67  C   UNL A   1      43.501  30.759  35.345  1.00  0.00     0.074 A 
ATOM     68  C   UNL A   1      40.577  36.533  35.513  1.00  0.00     0.029 A 
ATOM     69  N   UNL A   1      41.649  35.032  36.722  1.00  0.00    -0.354 N 
ATOM     70  N   UNL A   1      44.072  31.853  34.925  1.00  0.00    -0.248 NA
ATOM     71  C   UNL A   1      42.820  30.871  36.628  1.00  0.00     0.031 C 
ATOM     72  C   UNL A   1      41.813  36.203  34.885  1.00  0.00     0.029 A 
ATOM     73  C   UNL A   1      42.361  35.104  35.552  1.00  0.00     0.049 A 
ATOM     74  H   UNL A   1      41.971  34.655  37.574  1.00  0.00     0.167 HD
ATOM     75  C   UNL A   1      43.476  32.875  35.654  1.00  0.00     0.074 A 
ATOM     76  C   UNL A   1      42.789  32.202  36.754  1.00  0.00     0.031 C 
ATOM     77  C   UNL A   1      43.358  34.135  35.139  1.00  0.00     0.031 A 
BRANCH  64  78
ATOM     78  C   UNL A   1      39.116  34.551  38.488  1.00  0.00    -0.014 A 
ATOM     79  C   UNL A   1      38.648  33.280  38.861  1.00  0.00     0.010 A 
ATOM     80  C   UNL A   1      39.151  35.544  39.494  1.00  0.00     0.010 A 
ATOM     81  C   UNL A   1      38.179  33.037  40.158  1.00  0.00     0.020 A 
ATOM     82  C   UNL A   1      38.735  35.301  40.799  1.00  0.00     0.020 A 
ATOM     83  C   UNL A   1      38.216  34.056  41.114  1.00  0.00     0.054 A 
BRANCH  83  84
ATOM     84  S   UNL A   1      37.508  33.771  42.751  1.00  0.00     0.124 S 
ATOM     85  O   UNL A   1      37.125  35.123  43.147  1.00  0.00    -0.237 OA
ATOM     86  O   UNL A   1      36.408  32.858  42.456  1.00  0.00    -0.237 OA
ATOM     87  O   UNL A   1      38.614  33.185  43.503  1.00  0.00    -0.744 OA
ENDBRANCH  83  84
ENDBRANCH  64  78
BRANCH  65  88
ATOM     88  C   UNL A   1      43.479  28.216  34.745  1.00  0.00    -0.014 A 
ATOM     89  C   UNL A   1      42.637  27.412  35.534  1.00  0.00     0.010 A 
ATOM     90  C   UNL A   1      44.511  27.574  34.028  1.00  0.00     0.010 A 
ATOM     91  C   UNL A   1      42.784  26.013  35.555  1.00  0.00     0.020 A 
ATOM     92  C   UNL A   1      44.671  26.184  34.052  1.00  0.00     0.020 A 
ATOM     93  C   UNL A   1      43.790  25.407  34.797  1.00  0.00     0.054 A 
BRANCH  93  94
ATOM     94  S   UNL A   1      43.864  23.594  34.687  1.00  0.00     0.124 S 
ATOM     95  O   UNL A   1      44.807  23.256  35.749  1.00  0.00    -0.237 OA
ATOM     96  O   UNL A   1      42.477  23.204  34.924  1.00  0.00    -0.237 OA
ATOM     97  O   UNL A   1      44.347  23.351  33.329  1.00  0.00    -0.744 OA
ENDBRANCH  93  94
ENDBRANCH  65  88
BRANCH  77  98
ATOM     98  C   UNL A   1      44.152  34.482  33.899  1.00  0.00    -0.014 A 
ATOM     99  C   UNL A   1      43.743  34.159  32.590  1.00  0.00     0.010 A 
ATOM    100  C   UNL A   1      45.280  35.303  34.063  1.00  0.00     0.010 A 
ATOM    101  C   UNL A   1      44.462  34.625  31.478  1.00  0.00     0.020 A 
ATOM    102  C   UNL A   1      45.989  35.786  32.961  1.00  0.00     0.020 A 
ATOM    103  C   UNL A   1      45.584  35.437  31.673  1.00  0.00     0.054 A 
BRANCH 103 104
ATOM    104  S   UNL A   1      46.486  36.077  30.234  1.00  0.00     0.124 S 
ATOM    105  O   UNL A   1      47.284  37.154  30.812  1.00  0.00    -0.237 OA
ATOM    106  O   UNL A   1      47.237  34.911  29.776  1.00  0.00    -0.237 OA
ATOM    107  O   UNL A   1      45.425  36.514  29.325  1.00  0.00    -0.744 OA
ENDBRANCH 103 104
ENDBRANCH  77  98
ENDBRANCH  51  52
ENDBRANCH  44  46
ENDBRANCH  43  44
ENDBRANCH  42  43
ENDBRANCH  41  42
ENDBRANCH  40  41
ENDBRANCH  39  40
ENDBRANCH  38  39
ENDBRANCH  37  38
ENDBRANCH   1  37
TORSDOF 28
ENDMDL
MODEL 2
REMARK VINA RESULT:      -8.9      2.802      3.884
REMARK SMILES O=C1NC(=S)S/C1=C\c1ccc(OCc2cn(-c3ccc(C(=O)OCCOCCOCCOCCOC(=O)c4ccc(-c5c6nc(c(-c7ccc(S(=O)(=O)[O-])cc7)c7ccc([nH]7)c(-c7ccc(S(=O)(=O)[O-])cc7)c7nc(c(-c8ccc(S(=O)(=O)[O-])cc8)c8ccc5[nH]8)C=C7)C=C6)cc4)cc3)nn2)cc1
REMARK SMILES IDX 29 1 28 2 27 3 26 4 25 5 24 6 22 7 23 8 21 9 18 10 19 11
REMARK SMILES IDX 100 12 20 13 99 14 17 15 15 16 16 17 102 18 101 19 14 20
REMARK SMILES IDX 13 21 12 22 9 23 10 24 104 25 11 26 103 27 8 28 1 29 2 30
REMARK SMILES IDX 3 31 7 32 4 33 6 35 5 36 30 37 31 38 32 39 33 40 34 41 35 42
REMARK SMILES IDX 36 43 37 44 38 45 39 46 40 47 98 48 41 49 97 50 42 51 43 52
REMARK SMILES IDX 44 53 91 54 45 55 96 56 90 57 92 58 46 59 95 60 89 61 88 62
REMARK SMILES IDX 47 64 77 65 58 66 76 67 59 68 62 69 75 70 93 71 60 72 61 73
REMARK SMILES IDX 74 75 94 76 63 77 48 78 49 79 57 80 50 81 56 82 51 83 52 84
REMARK SMILES IDX 53 85 54 86 55 87 78 88 79 89 87 90 80 91 86 92 81 93 82 94
REMARK SMILES IDX 83 95 84 96 85 97 64 98 65 99 73 100 66 101 72 102 67 103
REMARK SMILES IDX 68 104 69 105 70 106 71 107
REMARK H PARENT 3 34 92 63 62 74
REMARK Flexibility Score: inf
ROOT
ATOM      1  C   UNL A   1      40.687  28.411  30.081  1.00  0.00     0.188 C 
ENDROOT
BRANCH   1   2
ATOM      2  C   UNL A   1      41.110  27.972  28.665  1.00  0.00     0.188 C 
BRANCH   2   3
ATOM      3  O   UNL A   1      41.158  26.600  28.311  1.00  0.00    -0.376 OA
BRANCH   3   4
ATOM      4  C   UNL A   1      42.231  25.743  28.657  1.00  0.00     0.202 C 
BRANCH   4   5
ATOM      5  C   UNL A   1      43.131  24.983  27.664  1.00  0.00     0.261 C 
BRANCH   5   6
ATOM      6  O   UNL A   1      42.522  24.017  26.817  1.00  0.00    -0.460 OA
BRANCH   6   7
ATOM      7  C   UNL A   1      41.957  22.964  27.441  1.00  0.00     0.338 C 
ATOM      8  O   UNL A   1      42.397  22.340  28.391  1.00  0.00    -0.246 OA
BRANCH   7   9
ATOM      9  C   UNL A   1      40.597  22.797  26.891  1.00  0.00     0.060 A 
ATOM     10  C   UNL A   1      38.097  22.421  25.738  1.00  0.00     0.066 A 
ATOM     11  C   UNL A   1      38.979  21.335  25.856  1.00  0.00     0.029 A 
ATOM     12  C   UNL A   1      38.424  23.665  26.294  1.00  0.00     0.029 A 
ATOM     13  C   UNL A   1      40.244  21.537  26.395  1.00  0.00     0.018 A 
ATOM     14  C   UNL A   1      39.670  23.846  26.897  1.00  0.00     0.018 A 
BRANCH  10  15
ATOM     15  N   UNL A   1      36.948  22.262  24.932  1.00  0.00    -0.220 N 
ATOM     16  C   UNL A   1      34.868  22.078  24.308  1.00  0.00     0.120 A 
ATOM     17  C   UNL A   1      35.760  21.655  25.271  1.00  0.00     0.144 A 
ATOM     18  N   UNL A   1      35.541  22.838  23.390  1.00  0.00    -0.131 NA
ATOM     19  N   UNL A   1      36.803  22.934  23.769  1.00  0.00    -0.062 NA
BRANCH  16  20
ATOM     20  C   UNL A   1      33.385  21.935  24.229  1.00  0.00     0.289 C 
BRANCH  20  21
ATOM     21  O   UNL A   1      32.805  22.260  22.959  1.00  0.00    -0.487 OA
BRANCH  21  22
ATOM     22  C   UNL A   1      32.101  23.428  22.856  1.00  0.00     0.119 A 
ATOM     23  C   UNL A   1      31.002  26.005  22.698  1.00  0.00    -0.024 A 
ATOM     24  C   UNL A   1      32.139  25.682  21.954  1.00  0.00     0.012 A 
ATOM     25  C   UNL A   1      30.370  25.011  23.448  1.00  0.00     0.012 A 
ATOM     26  C   UNL A   1      32.684  24.397  22.037  1.00  0.00     0.047 A 
ATOM     27  C   UNL A   1      30.906  23.724  23.508  1.00  0.00     0.047 A 
BRANCH  23  28
ATOM     28  C   UNL A   1      30.490  27.376  22.723  1.00  0.00     0.029 C 
ATOM     29  O   UNL A   1      29.360  30.053  22.891  1.00  0.00    -0.268 OA
ATOM     30  C   UNL A   1      30.235  29.658  23.646  1.00  0.00     0.263 C 
ATOM     31  N   UNL A   1      30.766  30.385  24.674  1.00  0.00    -0.307 N 
ATOM     32  C   UNL A   1      30.840  28.301  23.629  1.00  0.00     0.080 C 
ATOM     33  C   UNL A   1      31.684  29.784  25.479  1.00  0.00     0.145 C 
ATOM     34  H   UNL A   1      30.492  31.319  24.828  1.00  0.00     0.171 HD
ATOM     35  S   UNL A   1      31.977  28.154  24.922  1.00  0.00    -0.055 SA
ATOM     36  S   UNL A   1      32.368  30.513  26.798  1.00  0.00    -0.052 S 
ENDBRANCH  23  28
ENDBRANCH  21  22
ENDBRANCH  20  21
ENDBRANCH  16  20
ENDBRANCH  10  15
ENDBRANCH   7   9
ENDBRANCH   6   7
ENDBRANCH   5   6
ENDBRANCH   4   5
ENDBRANCH   3   4
ENDBRANCH   2   3
ENDBRANCH   1   2
BRANCH   1  37
ATOM     37  O   UNL A   1      39.330  28.811  30.162  1.00  0.00    -0.377 OA
BRANCH  37  38
ATOM     38  C   UNL A   1      38.879  29.689  29.132  1.00  0.00     0.188 C 
BRANCH  38  39
ATOM     39  C   UNL A   1      37.517  29.408  28.443  1.00  0.00     0.188 C 
BRANCH  39  40
ATOM     40  O   UNL A   1      36.931  30.536  27.800  1.00  0.00    -0.376 OA
BRANCH  40  41
ATOM     41  C   UNL A   1      35.789  31.182  28.337  1.00  0.00     0.202 C 
BRANCH  41  42
ATOM     42  C   UNL A   1      36.079  32.388  29.223  1.00  0.00     0.261 C 
BRANCH  42  43
ATOM     43  O   UNL A   1      36.185  32.045  30.591  1.00  0.00    -0.460 OA
BRANCH  43  44
ATOM     44  C   UNL A   1      35.543  32.869  31.436  1.00  0.00     0.338 C 
ATOM     45  O   UNL A   1      34.335  33.019  31.552  1.00  0.00    -0.246 OA
BRANCH  44  46
ATOM     46  C   UNL A   1      36.548  33.670  32.131  1.00  0.00     0.060 A 
ATOM     47  C   UNL A   1      37.478  34.297  31.307  1.00  0.00     0.016 A 
ATOM     48  C   UNL A   1      36.785  33.399  33.489  1.00  0.00     0.016 A 
ATOM     49  C   UNL A   1      38.772  34.330  31.749  1.00  0.00     0.010 A 
ATOM     50  C   UNL A   1      38.080  33.405  33.918  1.00  0.00     0.010 A 
ATOM     51  C   UNL A   1      39.056  33.760  32.995  1.00  0.00    -0.014 A 
BRANCH  51  52
ATOM     52  C   UNL A   1      40.441  33.568  33.330  1.00  0.00     0.031 A 
ATOM     53  C   UNL A   1      40.991  34.713  34.069  1.00  0.00     0.074 A 
ATOM     54  C   UNL A   1      41.087  32.424  33.051  1.00  0.00     0.049 A 
ATOM     55  N   UNL A   1      41.823  35.599  33.638  1.00  0.00    -0.248 NA
ATOM     56  C   UNL A   1      40.362  35.036  35.360  1.00  0.00     0.031 C 
ATOM     57  C   UNL A   1      40.526  31.150  32.592  1.00  0.00     0.029 A 
ATOM     58  N   UNL A   1      42.394  32.131  33.253  1.00  0.00    -0.354 N 
ATOM     59  C   UNL A   1      42.003  36.463  34.707  1.00  0.00     0.074 A 
ATOM     60  C   UNL A   1      40.917  36.218  35.621  1.00  0.00     0.031 C 
ATOM     61  C   UNL A   1      41.436  30.172  32.799  1.00  0.00     0.029 A 
ATOM     62  C   UNL A   1      42.671  30.772  33.282  1.00  0.00     0.049 A 
ATOM     63  H   UNL A   1      43.086  32.821  33.370  1.00  0.00     0.167 HD
ATOM     64  C   UNL A   1      43.193  37.082  34.917  1.00  0.00     0.031 A 
ATOM     65  C   UNL A   1      43.798  30.204  33.780  1.00  0.00     0.031 A 
ATOM     66  C   UNL A   1      44.028  37.058  33.745  1.00  0.00     0.049 A 
ATOM     67  C   UNL A   1      44.834  31.271  33.852  1.00  0.00     0.074 A 
ATOM     68  C   UNL A   1      43.888  37.521  32.451  1.00  0.00     0.029 A 
ATOM     69  N   UNL A   1      45.036  36.121  33.712  1.00  0.00    -0.354 N 
ATOM     70  N   UNL A   1      45.349  31.847  32.801  1.00  0.00    -0.248 NA
ATOM     71  C   UNL A   1      44.960  32.025  35.092  1.00  0.00     0.031 C 
ATOM     72  C   UNL A   1      44.504  36.531  31.633  1.00  0.00     0.029 A 
ATOM     73  C   UNL A   1      45.037  35.545  32.467  1.00  0.00     0.049 A 
ATOM     74  H   UNL A   1      45.649  35.904  34.451  1.00  0.00     0.167 HD
ATOM     75  C   UNL A   1      45.477  33.186  33.147  1.00  0.00     0.074 A 
ATOM     76  C   UNL A   1      45.317  33.215  34.600  1.00  0.00     0.031 C 
ATOM     77  C   UNL A   1      45.414  34.170  32.202  1.00  0.00     0.031 A 
BRANCH  64  78
ATOM     78  C   UNL A   1      43.743  37.295  36.304  1.00  0.00    -0.014 A 
ATOM     79  C   UNL A   1      43.848  36.192  37.169  1.00  0.00     0.010 A 
ATOM     80  C   UNL A   1      43.901  38.577  36.876  1.00  0.00     0.010 A 
ATOM     81  C   UNL A   1      44.036  36.372  38.545  1.00  0.00     0.020 A 
ATOM     82  C   UNL A   1      44.139  38.767  38.233  1.00  0.00     0.020 A 
ATOM     83  C   UNL A   1      44.168  37.662  39.067  1.00  0.00     0.054 A 
BRANCH  83  84
ATOM     84  S   UNL A   1      44.299  37.893  40.853  1.00  0.00     0.124 S 
ATOM     85  O   UNL A   1      45.235  36.835  41.221  1.00  0.00    -0.237 OA
ATOM     86  O   UNL A   1      44.809  39.258  40.950  1.00  0.00    -0.237 OA
ATOM     87  O   UNL A   1      42.928  37.710  41.322  1.00  0.00    -0.744 OA
ENDBRANCH  83  84
ENDBRANCH  64  78
BRANCH  65  88
ATOM     88  C   UNL A   1      43.901  28.927  34.532  1.00  0.00    -0.014 A 
ATOM     89  C   UNL A   1      43.332  28.792  35.811  1.00  0.00     0.010 A 
ATOM     90  C   UNL A   1      44.328  27.751  33.879  1.00  0.00     0.010 A 
ATOM     91  C   UNL A   1      43.142  27.524  36.388  1.00  0.00     0.020 A 
ATOM     92  C   UNL A   1      44.153  26.485  34.451  1.00  0.00     0.020 A 
ATOM     93  C   UNL A   1      43.537  26.376  35.694  1.00  0.00     0.054 A 
BRANCH  93  94
ATOM     94  S   UNL A   1      43.129  24.736  36.362  1.00  0.00     0.124 S 
ATOM     95  O   UNL A   1      41.931  25.011  37.151  1.00  0.00    -0.237 OA
ATOM     96  O   UNL A   1      42.923  23.943  35.154  1.00  0.00    -0.237 OA
ATOM     97  O   UNL A   1      44.314  24.376  37.140  1.00  0.00    -0.744 OA
ENDBRANCH  93  94
ENDBRANCH  65  88
BRANCH  77  98
ATOM     98  C   UNL A   1      45.513  33.775  30.746  1.00  0.00    -0.014 A 
ATOM     99  C   UNL A   1      46.732  33.652  30.047  1.00  0.00     0.010 A 
ATOM    100  C   UNL A   1      44.332  33.365  30.105  1.00  0.00     0.010 A 
ATOM    101  C   UNL A   1      46.759  33.156  28.734  1.00  0.00     0.020 A 
ATOM    102  C   UNL A   1      44.354  32.852  28.806  1.00  0.00     0.020 A 
ATOM    103  C   UNL A   1      45.566  32.760  28.122  1.00  0.00     0.054 A 
BRANCH 103 104
ATOM    104  S   UNL A   1      45.608  32.075  26.441  1.00  0.00     0.124 S 
ATOM    105  O   UNL A   1      46.365  33.083  25.706  1.00  0.00    -0.237 OA
ATOM    106  O   UNL A   1      46.283  30.793  26.629  1.00  0.00    -0.237 OA
ATOM    107  O   UNL A   1      44.196  31.971  26.072  1.00  0.00    -0.744 OA
ENDBRANCH 103 104
ENDBRANCH  77  98
ENDBRANCH  51  52
ENDBRANCH  44  46
ENDBRANCH  43  44
ENDBRANCH  42  43
ENDBRANCH  41  42
ENDBRANCH  40  41
ENDBRANCH  39  40
ENDBRANCH  38  39
ENDBRANCH  37  38
ENDBRANCH   1  37
TORSDOF 28
ENDMDL
MODEL 3
REMARK VINA RESULT:      -8.6      6.663     12.011
REMARK SMILES O=C1NC(=S)S/C1=C\c1ccc(OCc2cn(-c3ccc(C(=O)OCCOCCOCCOCCOC(=O)c4ccc(-c5c6nc(c(-c7ccc(S(=O)(=O)[O-])cc7)c7ccc([nH]7)c(-c7ccc(S(=O)(=O)[O-])cc7)c7nc(c(-c8ccc(S(=O)(=O)[O-])cc8)c8ccc5[nH]8)C=C7)C=C6)cc4)cc3)nn2)cc1
REMARK SMILES IDX 29 1 28 2 27 3 26 4 25 5 24 6 22 7 23 8 21 9 18 10 19 11
REMARK SMILES IDX 100 12 20 13 99 14 17 15 15 16 16 17 102 18 101 19 14 20
REMARK SMILES IDX 13 21 12 22 9 23 10 24 104 25 11 26 103 27 8 28 1 29 2 30
REMARK SMILES IDX 3 31 7 32 4 33 6 35 5 36 30 37 31 38 32 39 33 40 34 41 35 42
REMARK SMILES IDX 36 43 37 44 38 45 39 46 40 47 98 48 41 49 97 50 42 51 43 52
REMARK SMILES IDX 44 53 91 54 45 55 96 56 90 57 92 58 46 59 95 60 89 61 88 62
REMARK SMILES IDX 47 64 77 65 58 66 76 67 59 68 62 69 75 70 93 71 60 72 61 73
REMARK SMILES IDX 74 75 94 76 63 77 48 78 49 79 57 80 50 81 56 82 51 83 52 84
REMARK SMILES IDX 53 85 54 86 55 87 78 88 79 89 87 90 80 91 86 92 81 93 82 94
REMARK SMILES IDX 83 95 84 96 85 97 64 98 65 99 73 100 66 101 72 102 67 103
REMARK SMILES IDX 68 104 69 105 70 106 71 107
REMARK H PARENT 3 34 92 63 62 74
REMARK Flexibility Score: inf
ROOT
ATOM      1  C   UNL A   1      42.747  28.876  28.166  1.00  0.00     0.188 C 
ENDROOT
BRANCH   1   2
ATOM      2  C   UNL A   1      42.431  27.544  27.456  1.00  0.00     0.188 C 
BRANCH   2   3
ATOM      3  O   UNL A   1      43.472  26.688  27.017  1.00  0.00    -0.376 OA
BRANCH   3   4
ATOM      4  C   UNL A   1      43.372  25.865  25.869  1.00  0.00     0.202 C 
BRANCH   4   5
ATOM      5  C   UNL A   1      42.681  24.489  25.806  1.00  0.00     0.261 C 
BRANCH   5   6
ATOM      6  O   UNL A   1      41.654  24.215  26.751  1.00  0.00    -0.460 OA
BRANCH   6   7
ATOM      7  C   UNL A   1      41.213  22.942  26.783  1.00  0.00     0.338 C 
ATOM      8  O   UNL A   1      41.831  21.950  27.130  1.00  0.00    -0.246 OA
BRANCH   7   9
ATOM      9  C   UNL A   1      39.764  22.963  26.498  1.00  0.00     0.060 A 
ATOM     10  C   UNL A   1      37.069  22.960  25.824  1.00  0.00     0.066 A 
ATOM     11  C   UNL A   1      37.844  21.813  25.594  1.00  0.00     0.029 A 
ATOM     12  C   UNL A   1      37.616  24.065  26.489  1.00  0.00     0.029 A 
ATOM     13  C   UNL A   1      39.202  21.834  25.894  1.00  0.00     0.018 A 
ATOM     14  C   UNL A   1      38.964  24.056  26.851  1.00  0.00     0.018 A 
BRANCH  10  15
ATOM     15  N   UNL A   1      35.780  23.020  25.249  1.00  0.00    -0.220 N 
ATOM     16  C   UNL A   1      34.171  23.118  23.783  1.00  0.00     0.120 A 
ATOM     17  C   UNL A   1      35.407  23.651  24.084  1.00  0.00     0.144 A 
ATOM     18  N   UNL A   1      33.803  22.266  24.790  1.00  0.00    -0.131 NA
ATOM     19  N   UNL A   1      34.777  22.223  25.679  1.00  0.00    -0.062 NA
BRANCH  16  20
ATOM     20  C   UNL A   1      33.336  23.239  22.552  1.00  0.00     0.289 C 
BRANCH  20  21
ATOM     21  O   UNL A   1      32.136  24.011  22.700  1.00  0.00    -0.487 OA
BRANCH  21  22
ATOM     22  C   UNL A   1      32.230  25.231  23.311  1.00  0.00     0.119 A 
ATOM     23  C   UNL A   1      32.037  27.703  24.624  1.00  0.00    -0.024 A 
ATOM     24  C   UNL A   1      31.453  26.566  25.184  1.00  0.00     0.012 A 
ATOM     25  C   UNL A   1      32.792  27.580  23.455  1.00  0.00     0.012 A 
ATOM     26  C   UNL A   1      31.550  25.336  24.526  1.00  0.00     0.047 A 
ATOM     27  C   UNL A   1      32.904  26.345  22.814  1.00  0.00     0.047 A 
BRANCH  23  28
ATOM     28  C   UNL A   1      31.841  29.021  25.230  1.00  0.00     0.029 C 
ATOM     29  O   UNL A   1      31.395  31.564  26.575  1.00  0.00    -0.268 OA
ATOM     30  C   UNL A   1      32.423  30.918  26.709  1.00  0.00     0.263 C 
ATOM     31  N   UNL A   1      33.466  31.270  27.519  1.00  0.00    -0.307 N 
ATOM     32  C   UNL A   1      32.707  29.607  26.070  1.00  0.00     0.080 C 
ATOM     33  C   UNL A   1      34.516  30.411  27.623  1.00  0.00     0.145 C 
ATOM     34  H   UNL A   1      33.458  32.123  28.013  1.00  0.00     0.171 HD
ATOM     35  S   UNL A   1      34.243  29.020  26.602  1.00  0.00    -0.055 SA
ATOM     36  S   UNL A   1      35.821  30.670  28.609  1.00  0.00    -0.052 S 
ENDBRANCH  23  28
ENDBRANCH  21  22
ENDBRANCH  20  21
ENDBRANCH  16  20
ENDBRANCH  10  15
ENDBRANCH   7   9
ENDBRANCH   6   7
ENDBRANCH   5   6
ENDBRANCH   4   5
ENDBRANCH   3   4
ENDBRANCH   2   3
ENDBRANCH   1   2
BRANCH   1  37
ATOM     37  O   UNL A   1      41.588  29.571  28.593  1.00  0.00    -0.377 OA
BRANCH  37  38
ATOM     38  C   UNL A   1      40.780  28.898  29.555  1.00  0.00     0.188 C 
BRANCH  38  39
ATOM     39  C   UNL A   1      41.290  28.773  31.016  1.00  0.00     0.188 C 
BRANCH  39  40
ATOM     40  O   UNL A   1      42.001  29.909  31.498  1.00  0.00    -0.376 OA
BRANCH  40  41
ATOM     41  C   UNL A   1      41.387  31.183  31.587  1.00  0.00     0.202 C 
BRANCH  41  42
ATOM     42  C   UNL A   1      42.278  32.363  31.217  1.00  0.00     0.261 C 
BRANCH  42  43
ATOM     43  O   UNL A   1      41.869  33.000  30.023  1.00  0.00    -0.460 OA
BRANCH  43  44
ATOM     44  C   UNL A   1      42.851  33.228  29.134  1.00  0.00     0.338 C 
ATOM     45  O   UNL A   1      43.798  32.500  28.871  1.00  0.00    -0.246 OA
BRANCH  44  46
ATOM     46  C   UNL A   1      42.669  34.576  28.601  1.00  0.00     0.060 A 
ATOM     47  C   UNL A   1      43.174  34.778  27.319  1.00  0.00     0.016 A 
ATOM     48  C   UNL A   1      42.445  35.622  29.511  1.00  0.00     0.016 A 
ATOM     49  C   UNL A   1      43.785  35.977  27.078  1.00  0.00     0.010 A 
ATOM     50  C   UNL A   1      43.080  36.807  29.281  1.00  0.00     0.010 A 
ATOM     51  C   UNL A   1      43.835  36.912  28.118  1.00  0.00    -0.014 A 
BRANCH  51  52
ATOM     52  C   UNL A   1      44.696  38.049  27.940  1.00  0.00     0.031 A 
ATOM     53  C   UNL A   1      46.100  37.725  28.228  1.00  0.00     0.074 A 
ATOM     54  C   UNL A   1      44.234  39.224  27.484  1.00  0.00     0.049 A 
ATOM     55  N   UNL A   1      46.798  38.093  29.248  1.00  0.00    -0.248 NA
ATOM     56  C   UNL A   1      46.725  36.681  27.399  1.00  0.00     0.031 C 
ATOM     57  C   UNL A   1      42.922  39.524  26.903  1.00  0.00     0.029 A 
ATOM     58  N   UNL A   1      44.914  40.386  27.326  1.00  0.00    -0.354 N 
ATOM     59  C   UNL A   1      48.040  37.509  29.054  1.00  0.00     0.074 A 
ATOM     60  C   UNL A   1      47.861  36.479  28.064  1.00  0.00     0.031 C 
ATOM     61  C   UNL A   1      42.998  40.697  26.233  1.00  0.00     0.029 A 
ATOM     62  C   UNL A   1      44.315  41.277  26.448  1.00  0.00     0.049 A 
ATOM     63  H   UNL A   1      45.758  40.580  27.793  1.00  0.00     0.167 HD
ATOM     64  C   UNL A   1      49.177  38.122  29.476  1.00  0.00     0.031 A 
ATOM     65  C   UNL A   1      44.920  42.342  25.865  1.00  0.00     0.031 A 
ATOM     66  C   UNL A   1      48.907  39.152  30.443  1.00  0.00     0.049 A 
ATOM     67  C   UNL A   1      46.140  42.645  26.663  1.00  0.00     0.074 A 
ATOM     68  C   UNL A   1      48.301  39.176  31.685  1.00  0.00     0.029 A 
ATOM     69  N   UNL A   1      48.913  40.453  29.993  1.00  0.00    -0.354 N 
ATOM     70  N   UNL A   1      46.108  43.082  27.891  1.00  0.00    -0.248 NA
ATOM     71  C   UNL A   1      47.396  42.024  26.262  1.00  0.00     0.031 C 
ATOM     72  C   UNL A   1      47.580  40.404  31.723  1.00  0.00     0.029 A 
ATOM     73  C   UNL A   1      47.826  41.092  30.533  1.00  0.00     0.049 A 
ATOM     74  H   UNL A   1      49.581  40.854  29.391  1.00  0.00     0.167 HD
ATOM     75  C   UNL A   1      47.149  42.427  28.537  1.00  0.00     0.074 A 
ATOM     76  C   UNL A   1      47.966  41.868  27.461  1.00  0.00     0.031 C 
ATOM     77  C   UNL A   1      47.094  42.157  29.875  1.00  0.00     0.031 A 
BRANCH  64  78
ATOM     78  C   UNL A   1      50.449  38.074  28.670  1.00  0.00    -0.014 A 
ATOM     79  C   UNL A   1      50.451  38.613  27.372  1.00  0.00     0.010 A 
ATOM     80  C   UNL A   1      51.558  37.278  29.037  1.00  0.00     0.010 A 
ATOM     81  C   UNL A   1      51.480  38.315  26.471  1.00  0.00     0.020 A 
ATOM     82  C   UNL A   1      52.611  37.016  28.167  1.00  0.00     0.020 A 
ATOM     83  C   UNL A   1      52.546  37.506  26.873  1.00  0.00     0.054 A 
BRANCH  83  84
ATOM     84  S   UNL A   1      53.812  37.034  25.674  1.00  0.00     0.124 S 
ATOM     85  O   UNL A   1      53.183  35.895  25.013  1.00  0.00    -0.237 OA
ATOM     86  O   UNL A   1      53.941  38.246  24.870  1.00  0.00    -0.237 OA
ATOM     87  O   UNL A   1      54.969  36.717  26.507  1.00  0.00    -0.744 OA
ENDBRANCH  83  84
ENDBRANCH  64  78
BRANCH  65  88
ATOM     88  C   UNL A   1      44.714  42.845  24.483  1.00  0.00    -0.014 A 
ATOM     89  C   UNL A   1      44.169  44.120  24.250  1.00  0.00     0.010 A 
ATOM     90  C   UNL A   1      45.304  42.177  23.389  1.00  0.00     0.010 A 
ATOM     91  C   UNL A   1      44.266  44.728  22.985  1.00  0.00     0.020 A 
ATOM     92  C   UNL A   1      45.395  42.770  22.124  1.00  0.00     0.020 A 
ATOM     93  C   UNL A   1      44.896  44.055  21.935  1.00  0.00     0.054 A 
BRANCH  93  94
ATOM     94  S   UNL A   1      45.177  44.912  20.357  1.00  0.00     0.124 S 
ATOM     95  O   UNL A   1      46.238  44.112  19.753  1.00  0.00    -0.237 OA
ATOM     96  O   UNL A   1      43.871  44.824  19.711  1.00  0.00    -0.237 OA
ATOM     97  O   UNL A   1      45.573  46.260  20.763  1.00  0.00    -0.744 OA
ENDBRANCH  93  94
ENDBRANCH  65  88
BRANCH  77  98
ATOM     98  C   UNL A   1      46.034  42.848  30.703  1.00  0.00    -0.014 A 
ATOM     99  C   UNL A   1      44.648  42.679  30.504  1.00  0.00     0.010 A 
ATOM    100  C   UNL A   1      46.463  43.576  31.826  1.00  0.00     0.010 A 
ATOM    101  C   UNL A   1      43.721  43.247  31.392  1.00  0.00     0.020 A 
ATOM    102  C   UNL A   1      45.546  44.128  32.723  1.00  0.00     0.020 A 
ATOM    103  C   UNL A   1      44.179  43.970  32.497  1.00  0.00     0.054 A 
BRANCH 103 104
ATOM    104  S   UNL A   1      42.980  44.665  33.670  1.00  0.00     0.124 S 
ATOM    105  O   UNL A   1      43.580  45.951  34.014  1.00  0.00    -0.237 OA
ATOM    106  O   UNL A   1      41.754  44.733  32.879  1.00  0.00    -0.237 OA
ATOM    107  O   UNL A   1      42.950  43.687  34.757  1.00  0.00    -0.744 OA
ENDBRANCH 103 104
ENDBRANCH  77  98
ENDBRANCH  51  52
ENDBRANCH  44  46
ENDBRANCH  43  44
ENDBRANCH  42  43
ENDBRANCH  41  42
ENDBRANCH  40  41
ENDBRANCH  39  40
ENDBRANCH  38  39
ENDBRANCH  37  38
ENDBRANCH   1  37
TORSDOF 28
ENDMDL
