MODEL 1
REMARK VINA RESULT:      -8.8      0.000      0.000
REMARK SMILES COc1ccc(C(=O)N(C)C)cc1NC(=O)[C@H]1[C@@H](C(=O)OCCOCCOCCOCCOC(=O)c2ccc(-c3c4nc(c(-c5ccc(S(=O)(=O)[O-])cc5)c5ccc([nH]5)c(-c5ccc(S(=O)(=O)[O-])cc5)c5nc(c(-c6ccc(S(=O)(=O)[O-])cc6)c6ccc3[nH]6)C=C5)C=C4)cc2)[C@H]2C=C[C@@H]1C2
REMARK SMILES IDX 27 1 26 2 25 3 24 4 23 5 22 6 21 7 19 8 20 9 18 10 17 11
REMARK SMILES IDX 99 12 96 13 98 14 100 15 97 16 15 17 14 18 16 20 13 21 3 22
REMARK SMILES IDX 4 23 5 24 12 25 6 26 2 27 1 28 7 29 8 30 9 31 10 32 11 33
REMARK SMILES IDX 28 34 29 35 30 36 31 37 32 38 33 39 34 40 35 41 36 42 37 43
REMARK SMILES IDX 95 44 38 45 94 46 39 47 40 48 41 49 88 50 42 51 93 52 87 53
REMARK SMILES IDX 89 54 43 55 92 56 86 57 85 58 44 60 74 61 55 62 73 63 56 64
REMARK SMILES IDX 59 65 72 66 90 67 57 68 58 69 71 71 91 72 60 73 45 74 46 75
REMARK SMILES IDX 54 76 47 77 53 78 48 79 49 80 50 81 51 82 52 83 75 84 76 85
REMARK SMILES IDX 84 86 77 87 83 88 78 89 79 90 80 91 81 92 82 93 61 94 62 95
REMARK SMILES IDX 70 96 63 97 69 98 64 99 65 100 66 101 67 102 68 103
REMARK H PARENT 14 19 89 59 59 70
REMARK Flexibility Score: inf
ROOT
ATOM      1  O   UNL A   1      38.052  23.338  26.671  1.00  0.00    -0.377 OA
ENDROOT
BRANCH   1   2
ATOM      2  C   UNL A   1      38.099  22.456  25.574  1.00  0.00     0.188 C 
BRANCH   2   3
ATOM      3  C   UNL A   1      36.908  21.867  24.803  1.00  0.00     0.188 C 
BRANCH   3   4
ATOM      4  O   UNL A   1      35.571  22.044  25.213  1.00  0.00    -0.376 OA
BRANCH   4   5
ATOM      5  C   UNL A   1      34.447  21.667  24.446  1.00  0.00     0.202 C 
BRANCH   5   6
ATOM      6  C   UNL A   1      33.765  22.529  23.379  1.00  0.00     0.261 C 
BRANCH   6   7
ATOM      7  O   UNL A   1      33.719  23.945  23.591  1.00  0.00    -0.463 OA
BRANCH   7   8
ATOM      8  C   UNL A   1      32.934  24.631  22.734  1.00  0.00     0.310 C 
ATOM      9  O   UNL A   1      33.155  24.741  21.529  1.00  0.00    -0.252 OA
BRANCH   8  10
ATOM     10  C   UNL A   1      31.786  25.370  23.368  1.00  0.00     0.119 C 
ATOM     11  C   UNL A   1      31.868  26.634  24.263  1.00  0.00     0.100 C 
ATOM     12  C   UNL A   1      30.711  26.384  25.273  1.00  0.00     0.025 C 
ATOM     13  C   UNL A   1      30.680  24.504  24.047  1.00  0.00     0.027 C 
ATOM     14  C   UNL A   1      31.079  25.242  26.190  1.00  0.00    -0.027 C 
ATOM     15  C   UNL A   1      29.685  25.608  24.428  1.00  0.00     0.017 C 
ATOM     16  C   UNL A   1      31.024  24.117  25.461  1.00  0.00    -0.027 C 
BRANCH  11  17
ATOM     17  C   UNL A   1      33.089  27.194  24.977  1.00  0.00     0.229 C 
ATOM     18  N   UNL A   1      33.038  28.408  25.618  1.00  0.00    -0.323 N 
ATOM     19  H   UNL A   1      33.820  28.579  26.191  1.00  0.00     0.170 HD
ATOM     20  O   UNL A   1      34.153  26.583  25.049  1.00  0.00    -0.274 OA
BRANCH  18  21
ATOM     21  C   UNL A   1      32.099  29.463  25.628  1.00  0.00     0.084 A 
ATOM     22  C   UNL A   1      32.284  30.482  26.575  1.00  0.00     0.142 A 
ATOM     23  C   UNL A   1      31.520  31.652  26.529  1.00  0.00     0.049 A 
ATOM     24  C   UNL A   1      30.572  31.825  25.514  1.00  0.00     0.018 A 
ATOM     25  C   UNL A   1      31.036  29.589  24.733  1.00  0.00     0.044 A 
ATOM     26  C   UNL A   1      30.334  30.793  24.604  1.00  0.00     0.042 A 
BRANCH  22  27
ATOM     27  O   UNL A   1      33.141  30.292  27.629  1.00  0.00    -0.495 OA
ATOM     28  C   UNL A   1      34.486  30.667  27.327  1.00  0.00     0.278 C 
ENDBRANCH  22  27
BRANCH  26  29
ATOM     29  C   UNL A   1      29.281  30.945  23.557  1.00  0.00     0.253 C 
ATOM     30  O   UNL A   1      28.392  31.770  23.758  1.00  0.00    -0.269 OA
ATOM     31  N   UNL A   1      29.318  30.145  22.410  1.00  0.00    -0.345 N 
ATOM     32  C   UNL A   1      30.459  29.371  21.962  1.00  0.00     0.146 C 
ATOM     33  C   UNL A   1      28.158  30.103  21.537  1.00  0.00     0.146 C 
ENDBRANCH  26  29
ENDBRANCH  18  21
ENDBRANCH  11  17
ENDBRANCH   8  10
ENDBRANCH   7   8
ENDBRANCH   6   7
ENDBRANCH   5   6
ENDBRANCH   4   5
ENDBRANCH   3   4
ENDBRANCH   2   3
ENDBRANCH   1   2
BRANCH   1  34
ATOM     34  C   UNL A   1      39.123  24.206  26.902  1.00  0.00     0.188 C 
BRANCH  34  35
ATOM     35  C   UNL A   1      40.487  23.524  26.937  1.00  0.00     0.188 C 
BRANCH  35  36
ATOM     36  O   UNL A   1      41.408  24.075  26.003  1.00  0.00    -0.376 OA
BRANCH  36  37
ATOM     37  C   UNL A   1      42.469  24.863  26.533  1.00  0.00     0.202 C 
BRANCH  37  38
ATOM     38  C   UNL A   1      42.152  26.163  27.298  1.00  0.00     0.261 C 
BRANCH  38  39
ATOM     39  O   UNL A   1      40.898  26.805  27.033  1.00  0.00    -0.460 OA
BRANCH  39  40
ATOM     40  C   UNL A   1      40.855  28.150  27.016  1.00  0.00     0.338 C 
ATOM     41  O   UNL A   1      40.569  28.867  26.073  1.00  0.00    -0.246 OA
BRANCH  40  42
ATOM     42  C   UNL A   1      41.038  28.608  28.409  1.00  0.00     0.060 A 
ATOM     43  C   UNL A   1      40.318  27.969  29.425  1.00  0.00     0.016 A 
ATOM     44  C   UNL A   1      41.936  29.637  28.712  1.00  0.00     0.016 A 
ATOM     45  C   UNL A   1      40.487  28.365  30.752  1.00  0.00     0.010 A 
ATOM     46  C   UNL A   1      42.075  30.059  30.037  1.00  0.00     0.010 A 
ATOM     47  C   UNL A   1      41.328  29.443  31.056  1.00  0.00    -0.014 A 
BRANCH  47  48
ATOM     48  C   UNL A   1      41.228  30.070  32.394  1.00  0.00     0.031 A 
ATOM     49  C   UNL A   1      40.044  30.958  32.660  1.00  0.00     0.074 A 
ATOM     50  C   UNL A   1      42.133  29.832  33.359  1.00  0.00     0.049 A 
ATOM     51  N   UNL A   1      39.716  31.601  33.749  1.00  0.00    -0.248 NA
ATOM     52  C   UNL A   1      39.100  31.140  31.543  1.00  0.00     0.031 C 
ATOM     53  C   UNL A   1      43.300  28.960  33.233  1.00  0.00     0.029 A 
ATOM     54  N   UNL A   1      42.207  30.313  34.643  1.00  0.00    -0.354 N 
ATOM     55  C   UNL A   1      38.530  32.262  33.449  1.00  0.00     0.074 A 
ATOM     56  C   UNL A   1      38.211  31.966  32.071  1.00  0.00     0.031 C 
ATOM     57  C   UNL A   1      43.983  28.979  34.393  1.00  0.00     0.029 A 
ATOM     58  C   UNL A   1      43.316  29.883  35.330  1.00  0.00     0.049 A 
ATOM     59  H   UNL A   1      41.529  30.909  35.034  1.00  0.00     0.167 HD
ATOM     60  C   UNL A   1      37.773  33.047  34.250  1.00  0.00     0.031 A 
ATOM     61  C   UNL A   1      43.752  30.200  36.566  1.00  0.00     0.031 A 
ATOM     62  C   UNL A   1      38.112  33.368  35.608  1.00  0.00     0.049 A 
ATOM     63  C   UNL A   1      42.931  31.135  37.419  1.00  0.00     0.074 A 
ATOM     64  C   UNL A   1      37.409  34.148  36.510  1.00  0.00     0.029 A 
ATOM     65  N   UNL A   1      39.262  32.941  36.257  1.00  0.00    -0.354 N 
ATOM     66  N   UNL A   1      41.789  31.720  37.139  1.00  0.00    -0.248 NA
ATOM     67  C   UNL A   1      43.450  31.444  38.760  1.00  0.00     0.031 C 
ATOM     68  C   UNL A   1      38.165  34.241  37.682  1.00  0.00     0.029 A 
ATOM     69  C   UNL A   1      39.305  33.467  37.536  1.00  0.00     0.049 A 
ATOM     70  H   UNL A   1      39.945  32.351  35.864  1.00  0.00     0.167 HD
ATOM     71  C   UNL A   1      41.443  32.446  38.275  1.00  0.00     0.074 A 
ATOM     72  C   UNL A   1      42.489  32.214  39.251  1.00  0.00     0.031 C 
ATOM     73  C   UNL A   1      40.357  33.230  38.493  1.00  0.00     0.031 A 
BRANCH  60  74
ATOM     74  C   UNL A   1      36.533  33.651  33.647  1.00  0.00    -0.014 A 
ATOM     75  C   UNL A   1      35.287  33.003  33.736  1.00  0.00     0.010 A 
ATOM     76  C   UNL A   1      36.617  34.889  32.986  1.00  0.00     0.010 A 
ATOM     77  C   UNL A   1      34.157  33.562  33.136  1.00  0.00     0.020 A 
ATOM     78  C   UNL A   1      35.483  35.465  32.407  1.00  0.00     0.020 A 
ATOM     79  C   UNL A   1      34.262  34.789  32.470  1.00  0.00     0.054 A 
BRANCH  79  80
ATOM     80  S   UNL A   1      32.779  35.497  31.707  1.00  0.00     0.124 S 
ATOM     81  O   UNL A   1      31.719  34.967  32.560  1.00  0.00    -0.237 OA
ATOM     82  O   UNL A   1      33.016  36.933  31.819  1.00  0.00    -0.237 OA
ATOM     83  O   UNL A   1      32.804  34.969  30.344  1.00  0.00    -0.744 OA
ENDBRANCH  79  80
ENDBRANCH  60  74
BRANCH  61  84
ATOM     84  C   UNL A   1      45.043  29.649  37.060  1.00  0.00    -0.014 A 
ATOM     85  C   UNL A   1      45.135  28.334  37.547  1.00  0.00     0.010 A 
ATOM     86  C   UNL A   1      46.202  30.448  37.032  1.00  0.00     0.010 A 
ATOM     87  C   UNL A   1      46.359  27.829  38.000  1.00  0.00     0.020 A 
ATOM     88  C   UNL A   1      47.432  29.940  37.458  1.00  0.00     0.020 A 
ATOM     89  C   UNL A   1      47.501  28.633  37.946  1.00  0.00     0.054 A 
BRANCH  89  90
ATOM     90  S   UNL A   1      49.095  27.934  38.458  1.00  0.00     0.124 S 
ATOM     91  O   UNL A   1      49.398  28.708  39.657  1.00  0.00    -0.237 OA
ATOM     92  O   UNL A   1      48.766  26.527  38.675  1.00  0.00    -0.237 OA
ATOM     93  O   UNL A   1      49.962  28.189  37.308  1.00  0.00    -0.744 OA
ENDBRANCH  89  90
ENDBRANCH  61  84
BRANCH  73  94
ATOM     94  C   UNL A   1      40.222  33.874  39.847  1.00  0.00    -0.014 A 
ATOM     95  C   UNL A   1      40.488  35.241  40.037  1.00  0.00     0.010 A 
ATOM     96  C   UNL A   1      39.749  33.110  40.931  1.00  0.00     0.010 A 
ATOM     97  C   UNL A   1      40.316  35.825  41.296  1.00  0.00     0.020 A 
ATOM     98  C   UNL A   1      39.547  33.697  42.183  1.00  0.00     0.020 A 
ATOM     99  C   UNL A   1      39.845  35.049  42.360  1.00  0.00     0.054 A 
BRANCH  99 100
ATOM    100  S   UNL A   1      39.585  35.842  43.971  1.00  0.00     0.124 S 
ATOM    101  O   UNL A   1      40.428  37.030  43.865  1.00  0.00    -0.237 OA
ATOM    102  O   UNL A   1      38.145  36.092  43.978  1.00  0.00    -0.237 OA
ATOM    103  O   UNL A   1      40.041  34.838  44.929  1.00  0.00    -0.744 OA
ENDBRANCH  99 100
ENDBRANCH  73  94
ENDBRANCH  47  48
ENDBRANCH  40  42
ENDBRANCH  39  40
ENDBRANCH  38  39
ENDBRANCH  37  38
ENDBRANCH  36  37
ENDBRANCH  35  36
ENDBRANCH  34  35
ENDBRANCH   1  34
TORSDOF 27
ENDMDL
MODEL 2
REMARK VINA RESULT:      -8.2      4.586      8.955
REMARK SMILES COc1ccc(C(=O)N(C)C)cc1NC(=O)[C@H]1[C@@H](C(=O)OCCOCCOCCOCCOC(=O)c2ccc(-c3c4nc(c(-c5ccc(S(=O)(=O)[O-])cc5)c5ccc([nH]5)c(-c5ccc(S(=O)(=O)[O-])cc5)c5nc(c(-c6ccc(S(=O)(=O)[O-])cc6)c6ccc3[nH]6)C=C5)C=C4)cc2)[C@H]2C=C[C@@H]1C2
REMARK SMILES IDX 27 1 26 2 25 3 24 4 23 5 22 6 21 7 19 8 20 9 18 10 17 11
REMARK SMILES IDX 99 12 96 13 98 14 100 15 97 16 15 17 14 18 16 20 13 21 3 22
REMARK SMILES IDX 4 23 5 24 12 25 6 26 2 27 1 28 7 29 8 30 9 31 10 32 11 33
REMARK SMILES IDX 28 34 29 35 30 36 31 37 32 38 33 39 34 40 35 41 36 42 37 43
REMARK SMILES IDX 95 44 38 45 94 46 39 47 40 48 41 49 88 50 42 51 93 52 87 53
REMARK SMILES IDX 89 54 43 55 92 56 86 57 85 58 44 60 74 61 55 62 73 63 56 64
REMARK SMILES IDX 59 65 72 66 90 67 57 68 58 69 71 71 91 72 60 73 45 74 46 75
REMARK SMILES IDX 54 76 47 77 53 78 48 79 49 80 50 81 51 82 52 83 75 84 76 85
REMARK SMILES IDX 84 86 77 87 83 88 78 89 79 90 80 91 81 92 82 93 61 94 62 95
REMARK SMILES IDX 70 96 63 97 69 98 64 99 65 100 66 101 67 102 68 103
REMARK H PARENT 14 19 89 59 59 70
REMARK Flexibility Score: inf
ROOT
ATOM      1  O   UNL A   1      39.591  31.870  31.271  1.00  0.00    -0.377 OA
ENDROOT
BRANCH   1   2
ATOM      2  C   UNL A   1      39.111  32.696  30.236  1.00  0.00     0.188 C 
BRANCH   2   3
ATOM      3  C   UNL A   1      37.652  32.873  29.788  1.00  0.00     0.188 C 
BRANCH   3   4
ATOM      4  O   UNL A   1      36.957  31.894  29.051  1.00  0.00    -0.376 OA
BRANCH   4   5
ATOM      5  C   UNL A   1      37.551  30.729  28.516  1.00  0.00     0.202 C 
BRANCH   5   6
ATOM      6  C   UNL A   1      36.917  29.804  27.472  1.00  0.00     0.261 C 
BRANCH   6   7
ATOM      7  O   UNL A   1      35.647  29.219  27.779  1.00  0.00    -0.463 OA
BRANCH   7   8
ATOM      8  C   UNL A   1      34.803  29.091  26.733  1.00  0.00     0.310 C 
ATOM      9  O   UNL A   1      34.888  29.740  25.692  1.00  0.00    -0.252 OA
BRANCH   8  10
ATOM     10  C   UNL A   1      33.646  28.153  26.954  1.00  0.00     0.119 C 
ATOM     11  C   UNL A   1      33.239  26.947  26.068  1.00  0.00     0.100 C 
ATOM     12  C   UNL A   1      31.687  26.984  26.176  1.00  0.00     0.025 C 
ATOM     13  C   UNL A   1      32.284  28.798  27.355  1.00  0.00     0.027 C 
ATOM     14  C   UNL A   1      31.159  28.193  25.442  1.00  0.00    -0.027 C 
ATOM     15  C   UNL A   1      31.459  27.527  27.597  1.00  0.00     0.017 C 
ATOM     16  C   UNL A   1      31.487  29.271  26.170  1.00  0.00    -0.027 C 
BRANCH  11  17
ATOM     17  C   UNL A   1      33.668  26.651  24.638  1.00  0.00     0.229 C 
ATOM     18  N   UNL A   1      34.193  25.429  24.297  1.00  0.00    -0.323 N 
ATOM     19  H   UNL A   1      34.262  25.293  23.324  1.00  0.00     0.170 HD
ATOM     20  O   UNL A   1      33.533  27.463  23.726  1.00  0.00    -0.274 OA
BRANCH  18  21
ATOM     21  C   UNL A   1      34.656  24.326  25.048  1.00  0.00     0.084 A 
ATOM     22  C   UNL A   1      33.689  23.488  25.626  1.00  0.00     0.142 A 
ATOM     23  C   UNL A   1      34.053  22.276  26.218  1.00  0.00     0.049 A 
ATOM     24  C   UNL A   1      35.394  21.875  26.219  1.00  0.00     0.018 A 
ATOM     25  C   UNL A   1      35.998  23.983  25.211  1.00  0.00     0.044 A 
ATOM     26  C   UNL A   1      36.373  22.728  25.704  1.00  0.00     0.042 A 
BRANCH  22  27
ATOM     27  O   UNL A   1      32.385  23.905  25.717  1.00  0.00    -0.495 OA
ATOM     28  C   UNL A   1      31.665  23.254  26.765  1.00  0.00     0.278 C 
ENDBRANCH  22  27
BRANCH  26  29
ATOM     29  C   UNL A   1      37.811  22.336  25.758  1.00  0.00     0.253 C 
ATOM     30  O   UNL A   1      38.147  21.311  25.167  1.00  0.00    -0.269 OA
ATOM     31  N   UNL A   1      38.719  23.115  26.485  1.00  0.00    -0.345 N 
ATOM     32  C   UNL A   1      38.477  24.462  26.960  1.00  0.00     0.146 C 
ATOM     33  C   UNL A   1      40.044  22.588  26.759  1.00  0.00     0.146 C 
ENDBRANCH  26  29
ENDBRANCH  18  21
ENDBRANCH  11  17
ENDBRANCH   8  10
ENDBRANCH   7   8
ENDBRANCH   6   7
ENDBRANCH   5   6
ENDBRANCH   4   5
ENDBRANCH   3   4
ENDBRANCH   2   3
ENDBRANCH   1   2
BRANCH   1  34
ATOM     34  C   UNL A   1      40.777  31.154  31.084  1.00  0.00     0.188 C 
BRANCH  34  35
ATOM     35  C   UNL A   1      40.631  29.644  31.247  1.00  0.00     0.188 C 
BRANCH  35  36
ATOM     36  O   UNL A   1      39.678  29.079  30.355  1.00  0.00    -0.376 OA
BRANCH  36  37
ATOM     37  C   UNL A   1      38.857  28.034  30.865  1.00  0.00     0.202 C 
BRANCH  37  38
ATOM     38  C   UNL A   1      38.700  27.856  32.389  1.00  0.00     0.261 C 
BRANCH  38  39
ATOM     39  O   UNL A   1      37.520  28.388  33.005  1.00  0.00    -0.460 OA
BRANCH  39  40
ATOM     40  C   UNL A   1      37.081  29.599  32.615  1.00  0.00     0.338 C 
ATOM     41  O   UNL A   1      36.239  29.840  31.766  1.00  0.00    -0.246 OA
BRANCH  40  42
ATOM     42  C   UNL A   1      37.670  30.592  33.537  1.00  0.00     0.060 A 
ATOM     43  C   UNL A   1      38.781  30.219  34.303  1.00  0.00     0.016 A 
ATOM     44  C   UNL A   1      37.150  31.887  33.621  1.00  0.00     0.016 A 
ATOM     45  C   UNL A   1      39.372  31.142  35.165  1.00  0.00     0.010 A 
ATOM     46  C   UNL A   1      37.718  32.799  34.515  1.00  0.00     0.010 A 
ATOM     47  C   UNL A   1      38.813  32.418  35.310  1.00  0.00    -0.014 A 
BRANCH  47  48
ATOM     48  C   UNL A   1      39.224  33.250  36.465  1.00  0.00     0.031 A 
ATOM     49  C   UNL A   1      40.357  34.217  36.257  1.00  0.00     0.074 A 
ATOM     50  C   UNL A   1      38.591  33.184  37.649  1.00  0.00     0.049 A 
ATOM     51  N   UNL A   1      40.886  35.068  37.096  1.00  0.00    -0.248 NA
ATOM     52  C   UNL A   1      40.972  34.226  34.918  1.00  0.00     0.031 C 
ATOM     53  C   UNL A   1      37.457  32.316  37.958  1.00  0.00     0.029 A 
ATOM     54  N   UNL A   1      38.823  33.866  38.817  1.00  0.00    -0.354 N 
ATOM     55  C   UNL A   1      41.894  35.712  36.387  1.00  0.00     0.074 A 
ATOM     56  C   UNL A   1      41.921  35.137  35.061  1.00  0.00     0.031 C 
ATOM     57  C   UNL A   1      37.099  32.509  39.241  1.00  0.00     0.029 A 
ATOM     58  C   UNL A   1      37.996  33.493  39.848  1.00  0.00     0.049 A 
ATOM     59  H   UNL A   1      39.517  34.558  38.907  1.00  0.00     0.167 HD
ATOM     60  C   UNL A   1      42.725  36.696  36.802  1.00  0.00     0.031 A 
ATOM     61  C   UNL A   1      37.978  33.888  41.137  1.00  0.00     0.031 A 
ATOM     62  C   UNL A   1      42.719  37.242  38.131  1.00  0.00     0.049 A 
ATOM     63  C   UNL A   1      38.960  34.935  41.600  1.00  0.00     0.074 A 
ATOM     64  C   UNL A   1      43.513  38.247  38.653  1.00  0.00     0.029 A 
ATOM     65  N   UNL A   1      41.888  36.813  39.156  1.00  0.00    -0.354 N 
ATOM     66  N   UNL A   1      39.879  35.567  40.909  1.00  0.00    -0.248 NA
ATOM     67  C   UNL A   1      38.894  35.331  43.015  1.00  0.00     0.031 C 
ATOM     68  C   UNL A   1      43.204  38.384  40.009  1.00  0.00     0.029 A 
ATOM     69  C   UNL A   1      42.172  37.510  40.317  1.00  0.00     0.049 A 
ATOM     70  H   UNL A   1      41.199  36.116  39.069  1.00  0.00     0.167 HD
ATOM     71  C   UNL A   1      40.485  36.450  41.797  1.00  0.00     0.074 A 
ATOM     72  C   UNL A   1      39.817  36.282  43.072  1.00  0.00     0.031 C 
ATOM     73  C   UNL A   1      41.499  37.326  41.579  1.00  0.00     0.031 A 
BRANCH  60  74
ATOM     74  C   UNL A   1      43.741  37.201  35.813  1.00  0.00    -0.014 A 
ATOM     75  C   UNL A   1      45.049  36.684  35.780  1.00  0.00     0.010 A 
ATOM     76  C   UNL A   1      43.377  38.207  34.900  1.00  0.00     0.010 A 
ATOM     77  C   UNL A   1      45.988  37.196  34.881  1.00  0.00     0.020 A 
ATOM     78  C   UNL A   1      44.305  38.701  33.980  1.00  0.00     0.020 A 
ATOM     79  C   UNL A   1      45.611  38.205  33.988  1.00  0.00     0.054 A 
BRANCH  79  80
ATOM     80  S   UNL A   1      46.846  38.845  32.825  1.00  0.00     0.124 S 
ATOM     81  O   UNL A   1      46.202  38.601  31.538  1.00  0.00    -0.237 OA
ATOM     82  O   UNL A   1      46.957  40.248  33.217  1.00  0.00    -0.237 OA
ATOM     83  O   UNL A   1      48.030  38.031  33.094  1.00  0.00    -0.744 OA
ENDBRANCH  79  80
ENDBRANCH  60  74
BRANCH  61  84
ATOM     84  C   UNL A   1      37.014  33.269  42.087  1.00  0.00    -0.014 A 
ATOM     85  C   UNL A   1      37.394  32.200  42.917  1.00  0.00     0.010 A 
ATOM     86  C   UNL A   1      35.698  33.764  42.173  1.00  0.00     0.010 A 
ATOM     87  C   UNL A   1      36.478  31.635  43.811  1.00  0.00     0.020 A 
ATOM     88  C   UNL A   1      34.788  33.220  43.082  1.00  0.00     0.020 A 
ATOM     89  C   UNL A   1      35.182  32.154  43.893  1.00  0.00     0.054 A 
BRANCH  89  90
ATOM     90  S   UNL A   1      34.034  31.465  45.117  1.00  0.00     0.124 S 
ATOM     91  O   UNL A   1      32.854  32.303  44.935  1.00  0.00    -0.237 OA
ATOM     92  O   UNL A   1      33.903  30.078  44.680  1.00  0.00    -0.237 OA
ATOM     93  O   UNL A   1      34.743  31.642  46.384  1.00  0.00    -0.744 OA
ENDBRANCH  89  90
ENDBRANCH  61  84
BRANCH  73  94
ATOM     94  C   UNL A   1      41.933  38.193  42.730  1.00  0.00    -0.014 A 
ATOM     95  C   UNL A   1      41.316  39.429  42.989  1.00  0.00     0.010 A 
ATOM     96  C   UNL A   1      42.929  37.727  43.609  1.00  0.00     0.010 A 
ATOM     97  C   UNL A   1      41.709  40.197  44.089  1.00  0.00     0.020 A 
ATOM     98  C   UNL A   1      43.304  38.478  44.726  1.00  0.00     0.020 A 
ATOM     99  C   UNL A   1      42.700  39.716  44.951  1.00  0.00     0.054 A 
BRANCH  99 100
ATOM    100  S   UNL A   1      43.158  40.711  46.397  1.00  0.00     0.124 S 
ATOM    101  O   UNL A   1      42.377  41.928  46.189  1.00  0.00    -0.237 OA
ATOM    102  O   UNL A   1      42.731  39.872  47.514  1.00  0.00    -0.237 OA
ATOM    103  O   UNL A   1      44.605  40.871  46.263  1.00  0.00    -0.744 OA
ENDBRANCH  99 100
ENDBRANCH  73  94
ENDBRANCH  47  48
ENDBRANCH  40  42
ENDBRANCH  39  40
ENDBRANCH  38  39
ENDBRANCH  37  38
ENDBRANCH  36  37
ENDBRANCH  35  36
ENDBRANCH  34  35
ENDBRANCH   1  34
TORSDOF 27
ENDMDL
MODEL 3
REMARK VINA RESULT:      -8.1      4.485      7.090
REMARK SMILES COc1ccc(C(=O)N(C)C)cc1NC(=O)[C@H]1[C@@H](C(=O)OCCOCCOCCOCCOC(=O)c2ccc(-c3c4nc(c(-c5ccc(S(=O)(=O)[O-])cc5)c5ccc([nH]5)c(-c5ccc(S(=O)(=O)[O-])cc5)c5nc(c(-c6ccc(S(=O)(=O)[O-])cc6)c6ccc3[nH]6)C=C5)C=C4)cc2)[C@H]2C=C[C@@H]1C2
REMARK SMILES IDX 27 1 26 2 25 3 24 4 23 5 22 6 21 7 19 8 20 9 18 10 17 11
REMARK SMILES IDX 99 12 96 13 98 14 100 15 97 16 15 17 14 18 16 20 13 21 3 22
REMARK SMILES IDX 4 23 5 24 12 25 6 26 2 27 1 28 7 29 8 30 9 31 10 32 11 33
REMARK SMILES IDX 28 34 29 35 30 36 31 37 32 38 33 39 34 40 35 41 36 42 37 43
REMARK SMILES IDX 95 44 38 45 94 46 39 47 40 48 41 49 88 50 42 51 93 52 87 53
REMARK SMILES IDX 89 54 43 55 92 56 86 57 85 58 44 60 74 61 55 62 73 63 56 64
REMARK SMILES IDX 59 65 72 66 90 67 57 68 58 69 71 71 91 72 60 73 45 74 46 75
REMARK SMILES IDX 54 76 47 77 53 78 48 79 49 80 50 81 51 82 52 83 75 84 76 85
REMARK SMILES IDX 84 86 77 87 83 88 78 89 79 90 80 91 81 92 82 93 61 94 62 95
REMARK SMILES IDX 70 96 63 97 69 98 64 99 65 100 66 101 67 102 68 103
REMARK H PARENT 14 19 89 59 59 70
REMARK Flexibility Score: inf
ROOT
ATOM      1  O   UNL A   1      38.700  24.807  27.566  1.00  0.00    -0.377 OA
ENDROOT
BRANCH   1   2
ATOM      2  C   UNL A   1      38.557  24.138  26.334  1.00  0.00     0.188 C 
BRANCH   2   3
ATOM      3  C   UNL A   1      37.313  23.398  25.817  1.00  0.00     0.188 C 
BRANCH   3   4
ATOM      4  O   UNL A   1      36.372  23.998  24.957  1.00  0.00    -0.376 OA
BRANCH   4   5
ATOM      5  C   UNL A   1      35.263  23.326  24.398  1.00  0.00     0.202 C 
BRANCH   5   6
ATOM      6  C   UNL A   1      34.541  23.719  23.105  1.00  0.00     0.261 C 
BRANCH   6   7
ATOM      7  O   UNL A   1      34.272  25.108  22.883  1.00  0.00    -0.463 OA
BRANCH   7   8
ATOM      8  C   UNL A   1      33.192  25.371  22.117  1.00  0.00     0.310 C 
ATOM      9  O   UNL A   1      33.203  25.387  20.888  1.00  0.00    -0.252 OA
BRANCH   8  10
ATOM     10  C   UNL A   1      31.950  25.763  22.872  1.00  0.00     0.119 C 
ATOM     11  C   UNL A   1      31.863  26.693  24.110  1.00  0.00     0.100 C 
ATOM     12  C   UNL A   1      30.714  26.033  24.924  1.00  0.00     0.025 C 
ATOM     13  C   UNL A   1      30.931  24.625  23.190  1.00  0.00     0.027 C 
ATOM     14  C   UNL A   1      31.183  24.708  25.475  1.00  0.00    -0.027 C 
ATOM     15  C   UNL A   1      29.807  25.455  23.824  1.00  0.00     0.017 C 
ATOM     16  C   UNL A   1      31.276  23.860  24.439  1.00  0.00    -0.027 C 
BRANCH  11  17
ATOM     17  C   UNL A   1      32.992  27.126  25.034  1.00  0.00     0.229 C 
ATOM     18  N   UNL A   1      32.907  28.292  25.755  1.00  0.00    -0.323 N 
ATOM     19  H   UNL A   1      33.605  28.374  26.446  1.00  0.00     0.170 HD
ATOM     20  O   UNL A   1      34.002  26.448  25.208  1.00  0.00    -0.274 OA
BRANCH  18  21
ATOM     21  C   UNL A   1      32.031  29.398  25.714  1.00  0.00     0.084 A 
ATOM     22  C   UNL A   1      32.299  30.466  26.586  1.00  0.00     0.142 A 
ATOM     23  C   UNL A   1      31.602  31.673  26.477  1.00  0.00     0.049 A 
ATOM     24  C   UNL A   1      30.639  31.833  25.475  1.00  0.00     0.018 A 
ATOM     25  C   UNL A   1      30.954  29.527  24.837  1.00  0.00     0.044 A 
ATOM     26  C   UNL A   1      30.319  30.759  24.642  1.00  0.00     0.042 A 
BRANCH  22  27
ATOM     27  O   UNL A   1      33.172  30.297  27.630  1.00  0.00    -0.495 OA
ATOM     28  C   UNL A   1      34.286  31.190  27.575  1.00  0.00     0.278 C 
ENDBRANCH  22  27
BRANCH  26  29
ATOM     29  C   UNL A   1      29.248  30.903  23.613  1.00  0.00     0.253 C 
ATOM     30  O   UNL A   1      28.330  31.686  23.849  1.00  0.00    -0.269 OA
ATOM     31  N   UNL A   1      29.303  30.140  22.440  1.00  0.00    -0.345 N 
ATOM     32  C   UNL A   1      30.467  29.426  21.956  1.00  0.00     0.146 C 
ATOM     33  C   UNL A   1      28.135  30.081  21.579  1.00  0.00     0.146 C 
ENDBRANCH  26  29
ENDBRANCH  18  21
ENDBRANCH  11  17
ENDBRANCH   8  10
ENDBRANCH   7   8
ENDBRANCH   6   7
ENDBRANCH   5   6
ENDBRANCH   4   5
ENDBRANCH   3   4
ENDBRANCH   2   3
ENDBRANCH   1   2
BRANCH   1  34
ATOM     34  C   UNL A   1      39.618  25.855  27.676  1.00  0.00     0.188 C 
BRANCH  34  35
ATOM     35  C   UNL A   1      39.036  27.140  28.255  1.00  0.00     0.188 C 
BRANCH  35  36
ATOM     36  O   UNL A   1      39.610  27.495  29.507  1.00  0.00    -0.376 OA
BRANCH  36  37
ATOM     37  C   UNL A   1      38.805  27.298  30.665  1.00  0.00     0.202 C 
BRANCH  37  38
ATOM     38  C   UNL A   1      38.001  28.476  31.251  1.00  0.00     0.261 C 
BRANCH  38  39
ATOM     39  O   UNL A   1      37.922  29.681  30.478  1.00  0.00    -0.460 OA
BRANCH  39  40
ATOM     40  C   UNL A   1      39.039  30.415  30.316  1.00  0.00     0.338 C 
ATOM     41  O   UNL A   1      39.652  30.607  29.281  1.00  0.00    -0.246 OA
BRANCH  40  42
ATOM     42  C   UNL A   1      39.291  31.109  31.596  1.00  0.00     0.060 A 
ATOM     43  C   UNL A   1      38.547  32.257  31.895  1.00  0.00     0.016 A 
ATOM     44  C   UNL A   1      40.230  30.613  32.507  1.00  0.00     0.016 A 
ATOM     45  C   UNL A   1      38.747  32.920  33.105  1.00  0.00     0.010 A 
ATOM     46  C   UNL A   1      40.458  31.301  33.701  1.00  0.00     0.010 A 
ATOM     47  C   UNL A   1      39.737  32.473  33.990  1.00  0.00    -0.014 A 
BRANCH  47  48
ATOM     48  C   UNL A   1      40.175  33.371  35.083  1.00  0.00     0.031 A 
ATOM     49  C   UNL A   1      41.250  34.377  34.768  1.00  0.00     0.074 A 
ATOM     50  C   UNL A   1      39.616  33.329  36.304  1.00  0.00     0.049 A 
ATOM     51  N   UNL A   1      41.787  35.285  35.538  1.00  0.00    -0.248 NA
ATOM     52  C   UNL A   1      41.785  34.353  33.395  1.00  0.00     0.031 C 
ATOM     53  C   UNL A   1      38.542  32.428  36.716  1.00  0.00     0.029 A 
ATOM     54  N   UNL A   1      39.884  34.072  37.428  1.00  0.00    -0.354 N 
ATOM     55  C   UNL A   1      42.722  35.940  34.744  1.00  0.00     0.074 A 
ATOM     56  C   UNL A   1      42.698  35.310  33.444  1.00  0.00     0.031 C 
ATOM     57  C   UNL A   1      38.251  32.661  38.009  1.00  0.00     0.029 A 
ATOM     58  C   UNL A   1      39.136  33.709  38.520  1.00  0.00     0.049 A 
ATOM     59  H   UNL A   1      40.550  34.796  37.447  1.00  0.00     0.167 HD
ATOM     60  C   UNL A   1      43.529  36.977  35.068  1.00  0.00     0.031 A 
ATOM     61  C   UNL A   1      39.175  34.158  39.791  1.00  0.00     0.031 A 
ATOM     62  C   UNL A   1      43.576  37.579  36.371  1.00  0.00     0.049 A 
ATOM     63  C   UNL A   1      40.134  35.265  40.151  1.00  0.00     0.074 A 
ATOM     64  C   UNL A   1      44.352  38.639  36.803  1.00  0.00     0.029 A 
ATOM     65  N   UNL A   1      42.826  37.160  37.461  1.00  0.00    -0.354 N 
ATOM     66  N   UNL A   1      40.981  35.906  39.381  1.00  0.00    -0.248 NA
ATOM     67  C   UNL A   1      40.132  35.720  41.550  1.00  0.00     0.031 C 
ATOM     68  C   UNL A   1      44.116  38.821  38.169  1.00  0.00     0.029 A 
ATOM     69  C   UNL A   1      43.145  37.918  38.573  1.00  0.00     0.049 A 
ATOM     70  H   UNL A   1      42.165  36.430  37.445  1.00  0.00     0.167 HD
ATOM     71  C   UNL A   1      41.597  36.852  40.195  1.00  0.00     0.074 A 
ATOM     72  C   UNL A   1      41.013  36.711  41.513  1.00  0.00     0.031 C 
ATOM     73  C   UNL A   1      42.556  37.760  39.880  1.00  0.00     0.031 A 
BRANCH  60  74
ATOM     74  C   UNL A   1      44.463  37.481  34.000  1.00  0.00    -0.014 A 
ATOM     75  C   UNL A   1      44.072  38.497  33.108  1.00  0.00     0.010 A 
ATOM     76  C   UNL A   1      45.753  36.932  33.893  1.00  0.00     0.010 A 
ATOM     77  C   UNL A   1      44.940  38.922  32.100  1.00  0.00     0.020 A 
ATOM     78  C   UNL A   1      46.634  37.374  32.903  1.00  0.00     0.020 A 
ATOM     79  C   UNL A   1      46.215  38.355  32.000  1.00  0.00     0.054 A 
BRANCH  79  80
ATOM     80  S   UNL A   1      47.325  38.931  30.688  1.00  0.00     0.124 S 
ATOM     81  O   UNL A   1      48.139  37.744  30.439  1.00  0.00    -0.237 OA
ATOM     82  O   UNL A   1      46.398  39.293  29.620  1.00  0.00    -0.237 OA
ATOM     83  O   UNL A   1      48.033  40.054  31.301  1.00  0.00    -0.744 OA
ENDBRANCH  79  80
ENDBRANCH  60  74
BRANCH  61  84
ATOM     84  C   UNL A   1      38.297  33.540  40.822  1.00  0.00    -0.014 A 
ATOM     85  C   UNL A   1      36.962  33.951  40.983  1.00  0.00     0.010 A 
ATOM     86  C   UNL A   1      38.799  32.517  41.648  1.00  0.00     0.010 A 
ATOM     87  C   UNL A   1      36.148  33.354  41.952  1.00  0.00     0.020 A 
ATOM     88  C   UNL A   1      37.983  31.899  42.599  1.00  0.00     0.020 A 
ATOM     89  C   UNL A   1      36.662  32.326  42.749  1.00  0.00     0.054 A 
BRANCH  89  90
ATOM     90  S   UNL A   1      35.567  31.506  43.941  1.00  0.00     0.124 S 
ATOM     91  O   UNL A   1      34.331  31.371  43.177  1.00  0.00    -0.237 OA
ATOM     92  O   UNL A   1      36.281  30.264  44.221  1.00  0.00    -0.237 OA
ATOM     93  O   UNL A   1      35.517  32.448  45.058  1.00  0.00    -0.744 OA
ENDBRANCH  89  90
ENDBRANCH  61  84
BRANCH  73  94
ATOM     94  C   UNL A   1      43.016  38.695  40.967  1.00  0.00    -0.014 A 
ATOM     95  C   UNL A   1      44.101  38.370  41.801  1.00  0.00     0.010 A 
ATOM     96  C   UNL A   1      42.397  39.951  41.106  1.00  0.00     0.010 A 
ATOM     97  C   UNL A   1      44.536  39.272  42.776  1.00  0.00     0.020 A 
ATOM     98  C   UNL A   1      42.848  40.867  42.060  1.00  0.00     0.020 A 
ATOM     99  C   UNL A   1      43.907  40.516  42.898  1.00  0.00     0.054 A 
BRANCH  99 100
ATOM    100  S   UNL A   1      44.521  41.687  44.140  1.00  0.00     0.124 S 
ATOM    101  O   UNL A   1      43.806  41.259  45.340  1.00  0.00    -0.237 OA
ATOM    102  O   UNL A   1      45.959  41.430  44.141  1.00  0.00    -0.237 OA
ATOM    103  O   UNL A   1      44.126  42.990  43.612  1.00  0.00    -0.744 OA
ENDBRANCH  99 100
ENDBRANCH  73  94
ENDBRANCH  47  48
ENDBRANCH  40  42
ENDBRANCH  39  40
ENDBRANCH  38  39
ENDBRANCH  37  38
ENDBRANCH  36  37
ENDBRANCH  35  36
ENDBRANCH  34  35
ENDBRANCH   1  34
TORSDOF 27
ENDMDL
