MODEL 1
REMARK VINA RESULT:      -8.6      0.000      0.000
REMARK SMILES O=C(COc1ccccc1Cl)NCCC(=O)OCCOCCOCCOCCOC(=O)c1ccc(-c2c3nc(c(-c4ccc(S(=O)(=O)[O-])cc4)c4ccc([nH]4)c(-c4ccc(S(=O)(=O)[O-])cc4)c4nc(c(-c5ccc(S(=O)(=O)[O-])cc5)c5ccc2[nH]5)C=C4)C=C3)cc1
REMARK SMILES IDX 22 1 21 2 20 3 19 4 18 5 17 6 15 7 16 8 14 9 13 10 12 11
REMARK SMILES IDX 1 12 2 13 3 15 4 16 5 17 6 18 10 19 7 20 9 21 11 22 8 23
REMARK SMILES IDX 23 24 24 25 25 26 26 27 27 28 28 29 29 30 30 31 31 32 32 33
REMARK SMILES IDX 33 34 91 35 34 36 90 37 35 38 36 39 37 40 84 41 38 42 89 43
REMARK SMILES IDX 83 44 85 45 39 46 88 47 82 48 81 49 40 51 70 52 51 53 69 54
REMARK SMILES IDX 52 55 55 56 68 57 86 58 53 59 54 60 67 62 87 63 56 64 41 65
REMARK SMILES IDX 42 66 50 67 43 68 49 69 44 70 45 71 46 72 47 73 48 74 71 75
REMARK SMILES IDX 72 76 80 77 73 78 79 79 74 80 75 81 76 82 77 83 78 84 57 85
REMARK SMILES IDX 58 86 66 87 59 88 65 89 60 90 61 91 62 92 63 93 64 94
REMARK H PARENT 12 14 85 50 55 61
REMARK Flexibility Score: inf
ROOT
ATOM      1  C   UNL A   1      33.532  28.625  24.297  1.00  0.00     0.188 C 
ENDROOT
BRANCH   1   2
ATOM      2  C   UNL A   1      34.184  28.522  22.908  1.00  0.00     0.188 C 
BRANCH   2   3
ATOM      3  O   UNL A   1      33.789  27.517  21.988  1.00  0.00    -0.376 OA
BRANCH   3   4
ATOM      4  C   UNL A   1      32.425  27.321  21.645  1.00  0.00     0.202 C 
BRANCH   4   5
ATOM      5  C   UNL A   1      31.475  26.393  22.427  1.00  0.00     0.261 C 
BRANCH   5   6
ATOM      6  O   UNL A   1      30.299  26.983  23.003  1.00  0.00    -0.463 OA
BRANCH   6   7
ATOM      7  C   UNL A   1      29.635  26.214  23.890  1.00  0.00     0.307 C 
ATOM      8  O   UNL A   1      28.491  26.441  24.279  1.00  0.00    -0.252 OA
BRANCH   7   9
ATOM      9  C   UNL A   1      30.393  25.010  24.396  1.00  0.00     0.144 C 
BRANCH   9  10
ATOM     10  C   UNL A   1      30.665  24.727  25.867  1.00  0.00     0.127 C 
BRANCH  10  11
ATOM     11  N   UNL A   1      31.846  23.971  26.219  1.00  0.00    -0.353 N 
ATOM     12  O   UNL A   1      30.894  21.919  25.793  1.00  0.00    -0.271 OA
ATOM     13  C   UNL A   1      31.890  22.598  26.038  1.00  0.00     0.257 C 
ATOM     14  H   UNL A   1      32.629  24.438  26.590  1.00  0.00     0.163 HD
BRANCH  13  15
ATOM     15  C   UNL A   1      33.281  21.972  26.163  1.00  0.00     0.329 C 
BRANCH  15  16
ATOM     16  O   UNL A   1      33.870  21.704  24.885  1.00  0.00    -0.482 OA
BRANCH  16  17
ATOM     17  C   UNL A   1      35.215  21.454  24.991  1.00  0.00     0.138 A 
ATOM     18  C   UNL A   1      36.091  22.537  25.118  1.00  0.00     0.048 A 
ATOM     19  C   UNL A   1      35.727  20.157  24.877  1.00  0.00     0.083 A 
ATOM     20  C   UNL A   1      37.470  22.317  25.183  1.00  0.00     0.004 A 
ATOM     21  C   UNL A   1      37.106  19.940  24.964  1.00  0.00     0.024 A 
ATOM     22  Cl  UNL A   1      34.712  18.793  24.589  1.00  0.00    -0.080 Cl
ATOM     23  C   UNL A   1      37.977  21.020  25.119  1.00  0.00     0.002 A 
ENDBRANCH  16  17
ENDBRANCH  15  16
ENDBRANCH  13  15
ENDBRANCH  10  11
ENDBRANCH   9  10
ENDBRANCH   7   9
ENDBRANCH   6   7
ENDBRANCH   5   6
ENDBRANCH   4   5
ENDBRANCH   3   4
ENDBRANCH   2   3
ENDBRANCH   1   2
BRANCH   1  24
ATOM     24  O   UNL A   1      32.401  29.470  24.354  1.00  0.00    -0.377 OA
BRANCH  24  25
ATOM     25  C   UNL A   1      31.521  29.279  25.458  1.00  0.00     0.188 C 
BRANCH  25  26
ATOM     26  C   UNL A   1      32.028  29.644  26.870  1.00  0.00     0.188 C 
BRANCH  26  27
ATOM     27  O   UNL A   1      32.769  30.858  26.925  1.00  0.00    -0.376 OA
BRANCH  27  28
ATOM     28  C   UNL A   1      34.034  30.839  27.574  1.00  0.00     0.202 C 
BRANCH  28  29
ATOM     29  C   UNL A   1      34.748  29.483  27.690  1.00  0.00     0.261 C 
BRANCH  29  30
ATOM     30  O   UNL A   1      36.185  29.511  27.676  1.00  0.00    -0.460 OA
BRANCH  30  31
ATOM     31  C   UNL A   1      36.841  29.556  28.859  1.00  0.00     0.338 C 
ATOM     32  O   UNL A   1      36.350  29.672  29.960  1.00  0.00    -0.246 OA
BRANCH  31  33
ATOM     33  C   UNL A   1      38.259  29.221  28.590  1.00  0.00     0.060 A 
ATOM     34  C   UNL A   1      39.060  28.762  29.644  1.00  0.00     0.016 A 
ATOM     35  C   UNL A   1      38.789  29.336  27.303  1.00  0.00     0.016 A 
ATOM     36  C   UNL A   1      40.396  28.425  29.415  1.00  0.00     0.010 A 
ATOM     37  C   UNL A   1      40.135  29.026  27.083  1.00  0.00     0.010 A 
ATOM     38  C   UNL A   1      40.952  28.583  28.139  1.00  0.00    -0.014 A 
BRANCH  38  39
ATOM     39  C   UNL A   1      42.409  28.399  27.926  1.00  0.00     0.031 A 
ATOM     40  C   UNL A   1      43.331  29.568  28.148  1.00  0.00     0.074 A 
ATOM     41  C   UNL A   1      42.906  27.213  27.523  1.00  0.00     0.049 A 
ATOM     42  N   UNL A   1      44.618  29.658  27.932  1.00  0.00    -0.248 NA
ATOM     43  C   UNL A   1      42.723  30.797  28.684  1.00  0.00     0.031 C 
ATOM     44  C   UNL A   1      42.125  25.994  27.316  1.00  0.00     0.029 A 
ATOM     45  N   UNL A   1      44.190  26.847  27.200  1.00  0.00    -0.354 N 
ATOM     46  C   UNL A   1      44.970  30.956  28.281  1.00  0.00     0.074 A 
ATOM     47  C   UNL A   1      43.763  31.621  28.720  1.00  0.00     0.031 C 
ATOM     48  C   UNL A   1      42.943  25.020  26.879  1.00  0.00     0.029 A 
ATOM     49  C   UNL A   1      44.294  25.557  26.732  1.00  0.00     0.049 A 
ATOM     50  H   UNL A   1      44.962  27.449  27.296  1.00  0.00     0.167 HD
ATOM     51  C   UNL A   1      46.189  31.543  28.232  1.00  0.00     0.031 A 
ATOM     52  C   UNL A   1      45.349  24.899  26.204  1.00  0.00     0.031 A 
ATOM     53  C   UNL A   1      47.389  30.877  27.797  1.00  0.00     0.049 A 
ATOM     54  C   UNL A   1      46.678  25.606  26.089  1.00  0.00     0.074 A 
ATOM     55  C   UNL A   1      48.679  31.379  27.760  1.00  0.00     0.029 A 
ATOM     56  N   UNL A   1      47.448  29.583  27.307  1.00  0.00    -0.354 N 
ATOM     57  N   UNL A   1      47.008  26.814  26.482  1.00  0.00    -0.248 NA
ATOM     58  C   UNL A   1      47.778  24.861  25.457  1.00  0.00     0.031 C 
ATOM     59  C   UNL A   1      49.504  30.416  27.173  1.00  0.00     0.029 A 
ATOM     60  C   UNL A   1      48.743  29.288  26.914  1.00  0.00     0.049 A 
ATOM     61  H   UNL A   1      46.684  28.965  27.248  1.00  0.00     0.167 HD
ATOM     62  C   UNL A   1      48.355  26.962  26.161  1.00  0.00     0.074 A 
ATOM     63  C   UNL A   1      48.786  25.714  25.571  1.00  0.00     0.031 C 
ATOM     64  C   UNL A   1      49.160  28.040  26.330  1.00  0.00     0.031 A 
BRANCH  51  65
ATOM     65  C   UNL A   1      46.300  32.993  28.618  1.00  0.00    -0.014 A 
ATOM     66  C   UNL A   1      46.431  33.390  29.960  1.00  0.00     0.010 A 
ATOM     67  C   UNL A   1      46.393  33.965  27.603  1.00  0.00     0.010 A 
ATOM     68  C   UNL A   1      46.647  34.734  30.280  1.00  0.00     0.020 A 
ATOM     69  C   UNL A   1      46.634  35.305  27.917  1.00  0.00     0.020 A 
ATOM     70  C   UNL A   1      46.756  35.681  29.256  1.00  0.00     0.054 A 
BRANCH  70  71
ATOM     71  S   UNL A   1      47.122  37.402  29.699  1.00  0.00     0.124 S 
ATOM     72  O   UNL A   1      45.783  37.951  29.903  1.00  0.00    -0.237 OA
ATOM     73  O   UNL A   1      47.931  37.254  30.905  1.00  0.00    -0.237 OA
ATOM     74  O   UNL A   1      47.834  37.918  28.533  1.00  0.00    -0.744 OA
ENDBRANCH  70  71
ENDBRANCH  51  65
BRANCH  52  75
ATOM     75  C   UNL A   1      45.187  23.517  25.667  1.00  0.00    -0.014 A 
ATOM     76  C   UNL A   1      45.493  22.392  26.454  1.00  0.00     0.010 A 
ATOM     77  C   UNL A   1      44.779  23.322  24.335  1.00  0.00     0.010 A 
ATOM     78  C   UNL A   1      45.435  21.106  25.907  1.00  0.00     0.020 A 
ATOM     79  C   UNL A   1      44.683  22.037  23.795  1.00  0.00     0.020 A 
ATOM     80  C   UNL A   1      45.033  20.938  24.579  1.00  0.00     0.054 A 
BRANCH  80  81
ATOM     81  S   UNL A   1      44.957  19.262  23.891  1.00  0.00     0.124 S 
ATOM     82  O   UNL A   1      43.912  18.647  24.704  1.00  0.00    -0.237 OA
ATOM     83  O   UNL A   1      44.611  19.511  22.494  1.00  0.00    -0.237 OA
ATOM     84  O   UNL A   1      46.306  18.743  24.108  1.00  0.00    -0.744 OA
ENDBRANCH  80  81
ENDBRANCH  52  75
BRANCH  64  85
ATOM     85  C   UNL A   1      50.598  27.918  25.892  1.00  0.00    -0.014 A 
ATOM     86  C   UNL A   1      51.604  27.543  26.800  1.00  0.00     0.010 A 
ATOM     87  C   UNL A   1      50.935  28.108  24.539  1.00  0.00     0.010 A 
ATOM     88  C   UNL A   1      52.924  27.384  26.368  1.00  0.00     0.020 A 
ATOM     89  C   UNL A   1      52.247  27.918  24.097  1.00  0.00     0.020 A 
ATOM     90  C   UNL A   1      53.236  27.568  25.018  1.00  0.00     0.054 A 
BRANCH  90  91
ATOM     91  S   UNL A   1      54.945  27.296  24.475  1.00  0.00     0.124 S 
ATOM     92  O   UNL A   1      54.982  28.023  23.209  1.00  0.00    -0.237 OA
ATOM     93  O   UNL A   1      55.722  27.888  25.561  1.00  0.00    -0.237 OA
ATOM     94  O   UNL A   1      55.048  25.844  24.363  1.00  0.00    -0.744 OA
ENDBRANCH  90  91
ENDBRANCH  64  85
ENDBRANCH  38  39
ENDBRANCH  31  33
ENDBRANCH  30  31
ENDBRANCH  29  30
ENDBRANCH  28  29
ENDBRANCH  27  28
ENDBRANCH  26  27
ENDBRANCH  25  26
ENDBRANCH  24  25
ENDBRANCH   1  24
TORSDOF 28
ENDMDL
MODEL 2
REMARK VINA RESULT:      -8.2      6.629     12.011
REMARK SMILES O=C(COc1ccccc1Cl)NCCC(=O)OCCOCCOCCOCCOC(=O)c1ccc(-c2c3nc(c(-c4ccc(S(=O)(=O)[O-])cc4)c4ccc([nH]4)c(-c4ccc(S(=O)(=O)[O-])cc4)c4nc(c(-c5ccc(S(=O)(=O)[O-])cc5)c5ccc2[nH]5)C=C4)C=C3)cc1
REMARK SMILES IDX 22 1 21 2 20 3 19 4 18 5 17 6 15 7 16 8 14 9 13 10 12 11
REMARK SMILES IDX 1 12 2 13 3 15 4 16 5 17 6 18 10 19 7 20 9 21 11 22 8 23
REMARK SMILES IDX 23 24 24 25 25 26 26 27 27 28 28 29 29 30 30 31 31 32 32 33
REMARK SMILES IDX 33 34 91 35 34 36 90 37 35 38 36 39 37 40 84 41 38 42 89 43
REMARK SMILES IDX 83 44 85 45 39 46 88 47 82 48 81 49 40 51 70 52 51 53 69 54
REMARK SMILES IDX 52 55 55 56 68 57 86 58 53 59 54 60 67 62 87 63 56 64 41 65
REMARK SMILES IDX 42 66 50 67 43 68 49 69 44 70 45 71 46 72 47 73 48 74 71 75
REMARK SMILES IDX 72 76 80 77 73 78 79 79 74 80 75 81 76 82 77 83 78 84 57 85
REMARK SMILES IDX 58 86 66 87 59 88 65 89 60 90 61 91 62 92 63 93 64 94
REMARK H PARENT 12 14 85 50 55 61
REMARK Flexibility Score: inf
ROOT
ATOM      1  C   UNL A   1      37.071  23.037  25.534  1.00  0.00     0.188 C 
ENDROOT
BRANCH   1   2
ATOM      2  C   UNL A   1      36.620  21.701  24.919  1.00  0.00     0.188 C 
BRANCH   2   3
ATOM      3  O   UNL A   1      35.549  20.962  25.484  1.00  0.00    -0.376 OA
BRANCH   3   4
ATOM      4  C   UNL A   1      34.926  21.366  26.696  1.00  0.00     0.202 C 
BRANCH   4   5
ATOM      5  C   UNL A   1      33.400  21.396  26.899  1.00  0.00     0.261 C 
BRANCH   5   6
ATOM      6  O   UNL A   1      32.591  20.676  25.955  1.00  0.00    -0.463 OA
BRANCH   6   7
ATOM      7  C   UNL A   1      32.006  21.424  24.997  1.00  0.00     0.307 C 
ATOM      8  O   UNL A   1      31.057  22.179  25.197  1.00  0.00    -0.252 OA
BRANCH   7   9
ATOM      9  C   UNL A   1      32.603  21.289  23.617  1.00  0.00     0.144 C 
BRANCH   9  10
ATOM     10  C   UNL A   1      32.161  22.107  22.411  1.00  0.00     0.127 C 
BRANCH  10  11
ATOM     11  N   UNL A   1      32.864  23.334  22.113  1.00  0.00    -0.353 N 
ATOM     12  O   UNL A   1      31.153  24.708  22.809  1.00  0.00    -0.271 OA
ATOM     13  C   UNL A   1      32.322  24.563  22.453  1.00  0.00     0.257 C 
ATOM     14  H   UNL A   1      33.739  23.296  21.663  1.00  0.00     0.163 HD
BRANCH  13  15
ATOM     15  C   UNL A   1      33.288  25.746  22.358  1.00  0.00     0.329 C 
BRANCH  15  16
ATOM     16  O   UNL A   1      34.171  25.816  23.484  1.00  0.00    -0.482 OA
BRANCH  16  17
ATOM     17  C   UNL A   1      33.746  26.743  24.402  1.00  0.00     0.138 A 
ATOM     18  C   UNL A   1      33.199  26.293  25.607  1.00  0.00     0.048 A 
ATOM     19  C   UNL A   1      33.761  28.113  24.115  1.00  0.00     0.083 A 
ATOM     20  C   UNL A   1      32.715  27.212  26.543  1.00  0.00     0.004 A 
ATOM     21  C   UNL A   1      33.297  29.030  25.064  1.00  0.00     0.024 A 
ATOM     22  Cl  UNL A   1      34.302  28.726  22.596  1.00  0.00    -0.080 Cl
ATOM     23  C   UNL A   1      32.776  28.580  26.277  1.00  0.00     0.002 A 
ENDBRANCH  16  17
ENDBRANCH  15  16
ENDBRANCH  13  15
ENDBRANCH  10  11
ENDBRANCH   9  10
ENDBRANCH   7   9
ENDBRANCH   6   7
ENDBRANCH   5   6
ENDBRANCH   4   5
ENDBRANCH   3   4
ENDBRANCH   2   3
ENDBRANCH   1   2
BRANCH   1  24
ATOM     24  O   UNL A   1      38.417  23.062  25.962  1.00  0.00    -0.377 OA
BRANCH  24  25
ATOM     25  C   UNL A   1      39.100  21.813  25.987  1.00  0.00     0.188 C 
BRANCH  25  26
ATOM     26  C   UNL A   1      40.633  21.820  26.176  1.00  0.00     0.188 C 
BRANCH  26  27
ATOM     27  O   UNL A   1      41.165  23.086  26.550  1.00  0.00    -0.376 OA
BRANCH  27  28
ATOM     28  C   UNL A   1      42.106  23.698  25.677  1.00  0.00     0.202 C 
BRANCH  28  29
ATOM     29  C   UNL A   1      43.596  23.524  26.012  1.00  0.00     0.261 C 
BRANCH  29  30
ATOM     30  O   UNL A   1      44.201  24.555  26.810  1.00  0.00    -0.460 OA
BRANCH  30  31
ATOM     31  C   UNL A   1      44.066  25.841  26.412  1.00  0.00     0.338 C 
ATOM     32  O   UNL A   1      44.229  26.279  25.294  1.00  0.00    -0.246 OA
BRANCH  31  33
ATOM     33  C   UNL A   1      43.472  26.593  27.543  1.00  0.00     0.060 A 
ATOM     34  C   UNL A   1      43.847  27.928  27.742  1.00  0.00     0.016 A 
ATOM     35  C   UNL A   1      42.536  25.992  28.387  1.00  0.00     0.016 A 
ATOM     36  C   UNL A   1      43.291  28.664  28.791  1.00  0.00     0.010 A 
ATOM     37  C   UNL A   1      42.003  26.722  29.454  1.00  0.00     0.010 A 
ATOM     38  C   UNL A   1      42.388  28.057  29.674  1.00  0.00    -0.014 A 
BRANCH  38  39
ATOM     39  C   UNL A   1      41.931  28.774  30.890  1.00  0.00     0.031 A 
ATOM     40  C   UNL A   1      40.696  29.631  30.809  1.00  0.00     0.074 A 
ATOM     41  C   UNL A   1      42.613  28.679  32.048  1.00  0.00     0.049 A 
ATOM     42  N   UNL A   1      40.173  30.414  31.717  1.00  0.00    -0.248 NA
ATOM     43  C   UNL A   1      39.952  29.601  29.539  1.00  0.00     0.031 C 
ATOM     44  C   UNL A   1      43.797  27.848  32.268  1.00  0.00     0.029 A 
ATOM     45  N   UNL A   1      42.414  29.304  33.255  1.00  0.00    -0.354 N 
ATOM     46  C   UNL A   1      39.056  30.989  31.122  1.00  0.00     0.074 A 
ATOM     47  C   UNL A   1      38.976  30.468  29.775  1.00  0.00     0.031 C 
ATOM     48  C   UNL A   1      44.232  28.033  33.527  1.00  0.00     0.029 A 
ATOM     49  C   UNL A   1      43.387  29.027  34.187  1.00  0.00     0.049 A 
ATOM     50  H   UNL A   1      41.647  29.893  33.436  1.00  0.00     0.167 HD
ATOM     51  C   UNL A   1      38.181  31.877  31.650  1.00  0.00     0.031 A 
ATOM     52  C   UNL A   1      43.598  29.546  35.415  1.00  0.00     0.031 A 
ATOM     53  C   UNL A   1      38.262  32.391  32.992  1.00  0.00     0.049 A 
ATOM     54  C   UNL A   1      42.649  30.594  35.947  1.00  0.00     0.074 A 
ATOM     55  C   UNL A   1      37.391  33.259  33.629  1.00  0.00     0.029 A 
ATOM     56  N   UNL A   1      39.275  32.106  33.893  1.00  0.00    -0.354 N 
ATOM     57  N   UNL A   1      41.562  31.080  35.395  1.00  0.00    -0.248 NA
ATOM     58  C   UNL A   1      42.958  31.166  37.267  1.00  0.00     0.031 C 
ATOM     59  C   UNL A   1      37.920  33.561  34.887  1.00  0.00     0.029 A 
ATOM     60  C   UNL A   1      39.080  32.824  35.061  1.00  0.00     0.049 A 
ATOM     61  H   UNL A   1      40.021  31.487  33.728  1.00  0.00     0.167 HD
ATOM     62  C   UNL A   1      41.051  31.998  36.309  1.00  0.00     0.074 A 
ATOM     63  C   UNL A   1      41.928  31.978  37.460  1.00  0.00     0.031 C 
ATOM     64  C   UNL A   1      39.958  32.793  36.202  1.00  0.00     0.031 A 
BRANCH  51  65
ATOM     65  C   UNL A   1      37.072  32.395  30.774  1.00  0.00    -0.014 A 
ATOM     66  C   UNL A   1      35.785  31.831  30.805  1.00  0.00     0.010 A 
ATOM     67  C   UNL A   1      37.299  33.544  29.991  1.00  0.00     0.010 A 
ATOM     68  C   UNL A   1      34.746  32.405  30.066  1.00  0.00     0.020 A 
ATOM     69  C   UNL A   1      36.257  34.134  29.271  1.00  0.00     0.020 A 
ATOM     70  C   UNL A   1      34.987  33.558  29.312  1.00  0.00     0.054 A 
BRANCH  70  71
ATOM     71  S   UNL A   1      33.599  34.327  28.432  1.00  0.00     0.124 S 
ATOM     72  O   UNL A   1      33.077  33.206  27.654  1.00  0.00    -0.237 OA
ATOM     73  O   UNL A   1      32.745  34.785  29.524  1.00  0.00    -0.237 OA
ATOM     74  O   UNL A   1      34.228  35.388  27.649  1.00  0.00    -0.744 OA
ENDBRANCH  70  71
ENDBRANCH  51  65
BRANCH  52  75
ATOM     75  C   UNL A   1      44.798  29.151  36.209  1.00  0.00    -0.014 A 
ATOM     76  C   UNL A   1      46.031  29.804  36.033  1.00  0.00     0.010 A 
ATOM     77  C   UNL A   1      44.724  28.071  37.107  1.00  0.00     0.010 A 
ATOM     78  C   UNL A   1      47.173  29.358  36.708  1.00  0.00     0.020 A 
ATOM     79  C   UNL A   1      45.853  27.646  37.812  1.00  0.00     0.020 A 
ATOM     80  C   UNL A   1      47.076  28.279  37.590  1.00  0.00     0.054 A 
BRANCH  80  81
ATOM     81  S   UNL A   1      48.566  27.721  38.461  1.00  0.00     0.124 S 
ATOM     82  O   UNL A   1      48.062  27.496  39.812  1.00  0.00    -0.237 OA
ATOM     83  O   UNL A   1      48.936  26.522  37.712  1.00  0.00    -0.237 OA
ATOM     84  O   UNL A   1      49.487  28.846  38.315  1.00  0.00    -0.744 OA
ENDBRANCH  80  81
ENDBRANCH  52  75
BRANCH  64  85
ATOM     85  C   UNL A   1      39.631  33.697  37.363  1.00  0.00    -0.014 A 
ATOM     86  C   UNL A   1      38.850  33.241  38.439  1.00  0.00     0.010 A 
ATOM     87  C   UNL A   1      40.172  34.995  37.413  1.00  0.00     0.010 A 
ATOM     88  C   UNL A   1      38.597  34.074  39.533  1.00  0.00     0.020 A 
ATOM     89  C   UNL A   1      39.949  35.820  38.519  1.00  0.00     0.020 A 
ATOM     90  C   UNL A   1      39.153  35.357  39.568  1.00  0.00     0.054 A 
BRANCH  90  91
ATOM     91  S   UNL A   1      38.858  36.393  41.027  1.00  0.00     0.124 S 
ATOM     92  O   UNL A   1      38.337  37.620  40.429  1.00  0.00    -0.237 OA
ATOM     93  O   UNL A   1      37.890  35.606  41.787  1.00  0.00    -0.237 OA
ATOM     94  O   UNL A   1      40.177  36.511  41.643  1.00  0.00    -0.744 OA
ENDBRANCH  90  91
ENDBRANCH  64  85
ENDBRANCH  38  39
ENDBRANCH  31  33
ENDBRANCH  30  31
ENDBRANCH  29  30
ENDBRANCH  28  29
ENDBRANCH  27  28
ENDBRANCH  26  27
ENDBRANCH  25  26
ENDBRANCH  24  25
ENDBRANCH   1  24
TORSDOF 28
ENDMDL
MODEL 3
REMARK VINA RESULT:      -8.0      4.415      8.113
REMARK SMILES O=C(COc1ccccc1Cl)NCCC(=O)OCCOCCOCCOCCOC(=O)c1ccc(-c2c3nc(c(-c4ccc(S(=O)(=O)[O-])cc4)c4ccc([nH]4)c(-c4ccc(S(=O)(=O)[O-])cc4)c4nc(c(-c5ccc(S(=O)(=O)[O-])cc5)c5ccc2[nH]5)C=C4)C=C3)cc1
REMARK SMILES IDX 22 1 21 2 20 3 19 4 18 5 17 6 15 7 16 8 14 9 13 10 12 11
REMARK SMILES IDX 1 12 2 13 3 15 4 16 5 17 6 18 10 19 7 20 9 21 11 22 8 23
REMARK SMILES IDX 23 24 24 25 25 26 26 27 27 28 28 29 29 30 30 31 31 32 32 33
REMARK SMILES IDX 33 34 91 35 34 36 90 37 35 38 36 39 37 40 84 41 38 42 89 43
REMARK SMILES IDX 83 44 85 45 39 46 88 47 82 48 81 49 40 51 70 52 51 53 69 54
REMARK SMILES IDX 52 55 55 56 68 57 86 58 53 59 54 60 67 62 87 63 56 64 41 65
REMARK SMILES IDX 42 66 50 67 43 68 49 69 44 70 45 71 46 72 47 73 48 74 71 75
REMARK SMILES IDX 72 76 80 77 73 78 79 79 74 80 75 81 76 82 77 83 78 84 57 85
REMARK SMILES IDX 58 86 66 87 59 88 65 89 60 90 61 91 62 92 63 93 64 94
REMARK H PARENT 12 14 85 50 55 61
REMARK Flexibility Score: inf
ROOT
ATOM      1  C   UNL A   1      33.522  36.364  28.648  1.00  0.00     0.188 C 
ENDROOT
BRANCH   1   2
ATOM      2  C   UNL A   1      32.959  37.566  29.425  1.00  0.00     0.188 C 
BRANCH   2   3
ATOM      3  O   UNL A   1      32.967  37.587  30.843  1.00  0.00    -0.376 OA
BRANCH   3   4
ATOM      4  C   UNL A   1      32.520  36.474  31.604  1.00  0.00     0.202 C 
BRANCH   4   5
ATOM      5  C   UNL A   1      33.432  35.667  32.548  1.00  0.00     0.261 C 
BRANCH   5   6
ATOM      6  O   UNL A   1      33.493  34.245  32.354  1.00  0.00    -0.463 OA
BRANCH   6   7
ATOM      7  C   UNL A   1      34.526  33.618  32.954  1.00  0.00     0.307 C 
ATOM      8  O   UNL A   1      34.533  33.274  34.134  1.00  0.00    -0.252 OA
BRANCH   7   9
ATOM      9  C   UNL A   1      35.717  33.343  32.067  1.00  0.00     0.144 C 
BRANCH   9  10
ATOM     10  C   UNL A   1      37.039  32.771  32.564  1.00  0.00     0.127 C 
BRANCH  10  11
ATOM     11  N   UNL A   1      37.551  33.220  33.837  1.00  0.00    -0.353 N 
ATOM     12  O   UNL A   1      39.403  34.255  32.944  1.00  0.00    -0.271 OA
ATOM     13  C   UNL A   1      38.664  34.043  33.905  1.00  0.00     0.257 C 
ATOM     14  H   UNL A   1      37.104  32.939  34.668  1.00  0.00     0.163 HD
BRANCH  13  15
ATOM     15  C   UNL A   1      38.916  34.682  35.272  1.00  0.00     0.329 C 
BRANCH  15  16
ATOM     16  O   UNL A   1      39.631  35.919  35.168  1.00  0.00    -0.482 OA
BRANCH  16  17
ATOM     17  C   UNL A   1      40.398  36.154  36.282  1.00  0.00     0.138 A 
ATOM     18  C   UNL A   1      39.798  36.061  37.541  1.00  0.00     0.048 A 
ATOM     19  C   UNL A   1      41.728  36.577  36.175  1.00  0.00     0.083 A 
ATOM     20  C   UNL A   1      40.542  36.340  38.692  1.00  0.00     0.004 A 
ATOM     21  C   UNL A   1      42.474  36.833  37.330  1.00  0.00     0.024 A 
ATOM     22  Cl  UNL A   1      42.487  36.837  34.648  1.00  0.00    -0.080 Cl
ATOM     23  C   UNL A   1      41.881  36.713  38.588  1.00  0.00     0.002 A 
ENDBRANCH  16  17
ENDBRANCH  15  16
ENDBRANCH  13  15
ENDBRANCH  10  11
ENDBRANCH   9  10
ENDBRANCH   7   9
ENDBRANCH   6   7
ENDBRANCH   5   6
ENDBRANCH   4   5
ENDBRANCH   3   4
ENDBRANCH   2   3
ENDBRANCH   1   2
BRANCH   1  24
ATOM     24  O   UNL A   1      32.799  35.162  28.818  1.00  0.00    -0.377 OA
BRANCH  24  25
ATOM     25  C   UNL A   1      33.568  33.984  29.038  1.00  0.00     0.188 C 
BRANCH  25  26
ATOM     26  C   UNL A   1      33.864  33.067  27.830  1.00  0.00     0.188 C 
BRANCH  26  27
ATOM     27  O   UNL A   1      34.363  31.783  28.185  1.00  0.00    -0.376 OA
BRANCH  27  28
ATOM     28  C   UNL A   1      34.049  30.687  27.336  1.00  0.00     0.202 C 
BRANCH  28  29
ATOM     29  C   UNL A   1      34.737  29.344  27.632  1.00  0.00     0.261 C 
BRANCH  29  30
ATOM     30  O   UNL A   1      36.173  29.340  27.612  1.00  0.00    -0.460 OA
BRANCH  30  31
ATOM     31  C   UNL A   1      36.835  29.428  28.789  1.00  0.00     0.338 C 
ATOM     32  O   UNL A   1      36.350  29.569  29.890  1.00  0.00    -0.246 OA
BRANCH  31  33
ATOM     33  C   UNL A   1      38.257  29.104  28.521  1.00  0.00     0.060 A 
ATOM     34  C   UNL A   1      39.051  28.615  29.567  1.00  0.00     0.016 A 
ATOM     35  C   UNL A   1      38.796  29.260  27.242  1.00  0.00     0.016 A 
ATOM     36  C   UNL A   1      40.389  28.287  29.337  1.00  0.00     0.010 A 
ATOM     37  C   UNL A   1      40.144  28.960  27.023  1.00  0.00     0.010 A 
ATOM     38  C   UNL A   1      40.954  28.486  28.071  1.00  0.00    -0.014 A 
BRANCH  38  39
ATOM     39  C   UNL A   1      42.413  28.311  27.864  1.00  0.00     0.031 A 
ATOM     40  C   UNL A   1      43.328  29.484  28.099  1.00  0.00     0.074 A 
ATOM     41  C   UNL A   1      42.918  27.131  27.455  1.00  0.00     0.049 A 
ATOM     42  N   UNL A   1      44.615  29.582  27.889  1.00  0.00    -0.248 NA
ATOM     43  C   UNL A   1      42.711  30.706  28.640  1.00  0.00     0.031 C 
ATOM     44  C   UNL A   1      42.145  25.909  27.236  1.00  0.00     0.029 A 
ATOM     45  N   UNL A   1      44.206  26.774  27.136  1.00  0.00    -0.354 N 
ATOM     46  C   UNL A   1      44.958  30.880  28.249  1.00  0.00     0.074 A 
ATOM     47  C   UNL A   1      43.745  31.535  28.686  1.00  0.00     0.031 C 
ATOM     48  C   UNL A   1      42.971  24.943  26.796  1.00  0.00     0.029 A 
ATOM     49  C   UNL A   1      44.320  25.488  26.659  1.00  0.00     0.049 A 
ATOM     50  H   UNL A   1      44.974  27.380  27.239  1.00  0.00     0.167 HD
ATOM     51  C   UNL A   1      46.175  31.474  28.210  1.00  0.00     0.031 A 
ATOM     52  C   UNL A   1      45.380  24.840  26.132  1.00  0.00     0.031 A 
ATOM     53  C   UNL A   1      47.380  30.818  27.776  1.00  0.00     0.049 A 
ATOM     54  C   UNL A   1      46.706  25.555  26.029  1.00  0.00     0.074 A 
ATOM     55  C   UNL A   1      48.667  31.327  27.748  1.00  0.00     0.029 A 
ATOM     56  N   UNL A   1      47.448  29.527  27.277  1.00  0.00    -0.354 N 
ATOM     57  N   UNL A   1      47.028  26.761  26.431  1.00  0.00    -0.248 NA
ATOM     58  C   UNL A   1      47.814  24.820  25.396  1.00  0.00     0.031 C 
ATOM     59  C   UNL A   1      49.501  30.373  27.158  1.00  0.00     0.029 A 
ATOM     60  C   UNL A   1      48.746  29.242  26.888  1.00  0.00     0.049 A 
ATOM     61  H   UNL A   1      46.689  28.906  27.210  1.00  0.00     0.167 HD
ATOM     62  C   UNL A   1      48.375  26.920  26.117  1.00  0.00     0.074 A 
ATOM     63  C   UNL A   1      48.816  25.678  25.521  1.00  0.00     0.031 C 
ATOM     64  C   UNL A   1      49.174  28.000  26.298  1.00  0.00     0.031 A 
BRANCH  51  65
ATOM     65  C   UNL A   1      46.276  32.922  28.606  1.00  0.00    -0.014 A 
ATOM     66  C   UNL A   1      46.195  33.325  29.950  1.00  0.00     0.010 A 
ATOM     67  C   UNL A   1      46.574  33.882  27.619  1.00  0.00     0.010 A 
ATOM     68  C   UNL A   1      46.408  34.662  30.299  1.00  0.00     0.020 A 
ATOM     69  C   UNL A   1      46.811  35.214  27.967  1.00  0.00     0.020 A 
ATOM     70  C   UNL A   1      46.722  35.595  29.306  1.00  0.00     0.054 A 
BRANCH  70  71
ATOM     71  S   UNL A   1      47.075  37.305  29.801  1.00  0.00     0.124 S 
ATOM     72  O   UNL A   1      46.797  37.267  31.235  1.00  0.00    -0.237 OA
ATOM     73  O   UNL A   1      48.481  37.458  29.438  1.00  0.00    -0.237 OA
ATOM     74  O   UNL A   1      46.139  38.097  29.008  1.00  0.00    -0.744 OA
ENDBRANCH  70  71
ENDBRANCH  51  65
BRANCH  52  75
ATOM     75  C   UNL A   1      45.229  23.460  25.585  1.00  0.00    -0.014 A 
ATOM     76  C   UNL A   1      45.575  22.333  26.352  1.00  0.00     0.010 A 
ATOM     77  C   UNL A   1      44.790  23.272  24.262  1.00  0.00     0.010 A 
ATOM     78  C   UNL A   1      45.525  21.052  25.793  1.00  0.00     0.020 A 
ATOM     79  C   UNL A   1      44.702  21.991  23.711  1.00  0.00     0.020 A 
ATOM     80  C   UNL A   1      45.092  20.890  24.474  1.00  0.00     0.054 A 
BRANCH  80  81
ATOM     81  S   UNL A   1      45.027  19.220  23.770  1.00  0.00     0.124 S 
ATOM     82  O   UNL A   1      44.260  19.435  22.548  1.00  0.00    -0.237 OA
ATOM     83  O   UNL A   1      46.442  18.902  23.585  1.00  0.00    -0.237 OA
ATOM     84  O   UNL A   1      44.352  18.440  24.806  1.00  0.00    -0.744 OA
ENDBRANCH  80  81
ENDBRANCH  52  75
BRANCH  64  85
ATOM     85  C   UNL A   1      50.614  27.889  25.866  1.00  0.00    -0.014 A 
ATOM     86  C   UNL A   1      51.016  28.275  24.575  1.00  0.00     0.010 A 
ATOM     87  C   UNL A   1      51.590  27.464  26.786  1.00  0.00     0.010 A 
ATOM     88  C   UNL A   1      52.363  28.216  24.205  1.00  0.00     0.020 A 
ATOM     89  C   UNL A   1      52.941  27.433  26.432  1.00  0.00     0.020 A 
ATOM     90  C   UNL A   1      53.318  27.799  25.138  1.00  0.00     0.054 A 
BRANCH  90  91
ATOM     91  S   UNL A   1      55.064  27.789  24.650  1.00  0.00     0.124 S 
ATOM     92  O   UNL A   1      55.736  28.077  25.914  1.00  0.00    -0.237 OA
ATOM     93  O   UNL A   1      55.244  26.432  24.138  1.00  0.00    -0.237 OA
ATOM     94  O   UNL A   1      55.151  28.844  23.644  1.00  0.00    -0.744 OA
ENDBRANCH  90  91
ENDBRANCH  64  85
ENDBRANCH  38  39
ENDBRANCH  31  33
ENDBRANCH  30  31
ENDBRANCH  29  30
ENDBRANCH  28  29
ENDBRANCH  27  28
ENDBRANCH  26  27
ENDBRANCH  25  26
ENDBRANCH  24  25
ENDBRANCH   1  24
TORSDOF 28
ENDMDL
