MODEL 1
REMARK VINA RESULT:      -9.6      0.000      0.000
REMARK SMILES CS(=O)(=O)c1ccc(N2N=C(C(=O)OCCOCCOCCOCCOC(=O)c3ccc(-c4c5nc(c(-c6ccc(S(=O)(=O)[O-])cc6)c6ccc([nH]6)c(-c6ccc(S(=O)(=O)[O-])cc6)c6nc(c(-c7ccc(S(=O)(=O)[O-])cc7)c7ccc4[nH]7)C=C6)C=C5)cc3)C[C@H]2c2ccco2)cc1
REMARK SMILES IDX 21 1 20 2 19 3 18 4 17 5 16 6 15 7 14 8 12 9 13 10 11 11
REMARK SMILES IDX 9 12 10 13 90 14 89 15 8 16 5 17 6 18 97 19 7 20 96 21 2 22
REMARK SMILES IDX 1 23 3 24 4 25 91 26 92 27 95 28 93 29 94 30 22 31 23 32
REMARK SMILES IDX 24 33 25 34 26 35 27 36 28 37 29 38 30 39 88 40 31 41 87 42
REMARK SMILES IDX 32 43 33 44 34 45 81 46 35 47 86 48 80 49 82 50 36 51 85 52
REMARK SMILES IDX 79 53 78 54 37 56 67 57 48 58 66 59 49 60 52 61 65 62 83 63
REMARK SMILES IDX 50 64 51 65 64 67 84 68 53 69 38 70 39 71 47 72 40 73 46 74
REMARK SMILES IDX 41 75 42 76 43 77 44 78 45 79 68 80 69 81 77 82 70 83 76 84
REMARK SMILES IDX 71 85 72 86 73 87 74 88 75 89 54 90 55 91 63 92 56 93 62 94
REMARK SMILES IDX 57 95 58 96 59 97 60 98 61 99
REMARK H PARENT 82 55 52 66
REMARK Flexibility Score: inf
ROOT
ATOM      1  C   UNL A   1      34.104  32.461  28.192  1.00  0.00     0.188 C 
ENDROOT
BRANCH   1   2
ATOM      2  O   UNL A   1      33.346  31.273  27.936  1.00  0.00    -0.377 OA
BRANCH   2   3
ATOM      3  C   UNL A   1      32.876  31.026  26.621  1.00  0.00     0.188 C 
BRANCH   3   4
ATOM      4  C   UNL A   1      33.299  29.669  26.024  1.00  0.00     0.188 C 
BRANCH   4   5
ATOM      5  O   UNL A   1      32.206  28.906  25.547  1.00  0.00    -0.376 OA
BRANCH   5   6
ATOM      6  C   UNL A   1      31.746  29.042  24.212  1.00  0.00     0.202 C 
BRANCH   6   7
ATOM      7  C   UNL A   1      32.623  28.773  22.975  1.00  0.00     0.261 C 
BRANCH   7   8
ATOM      8  O   UNL A   1      33.673  27.823  23.139  1.00  0.00    -0.459 OA
BRANCH   8   9
ATOM      9  C   UNL A   1      33.589  26.673  22.454  1.00  0.00     0.354 C 
ATOM     10  O   UNL A   1      33.600  26.509  21.251  1.00  0.00    -0.245 OA
BRANCH   9  11
ATOM     11  C   UNL A   1      33.682  25.553  23.459  1.00  0.00     0.148 C 
ATOM     12  N   UNL A   1      33.878  23.601  24.267  1.00  0.00    -0.254 N 
ATOM     13  N   UNL A   1      33.769  24.307  23.102  1.00  0.00    -0.169 NA
ATOM     14  C   UNL A   1      33.506  24.425  25.440  1.00  0.00     0.180 C 
ATOM     15  C   UNL A   1      33.830  25.834  24.922  1.00  0.00     0.101 C 
BRANCH  12  16
ATOM     16  C   UNL A   1      33.700  22.225  24.194  1.00  0.00     0.060 A 
ATOM     17  C   UNL A   1      33.277  19.445  24.113  1.00  0.00     0.067 A 
ATOM     18  C   UNL A   1      32.391  20.304  23.458  1.00  0.00     0.022 A 
ATOM     19  C   UNL A   1      34.361  19.960  24.820  1.00  0.00     0.022 A 
ATOM     20  C   UNL A   1      32.605  21.687  23.503  1.00  0.00     0.029 A 
ATOM     21  C   UNL A   1      34.552  21.342  24.870  1.00  0.00     0.029 A 
BRANCH  17  22
ATOM     22  S   UNL A   1      32.990  17.695  24.015  1.00  0.00     0.175 S 
ATOM     23  C   UNL A   1      34.486  16.903  24.538  1.00  0.00     0.163 C 
ATOM     24  O   UNL A   1      32.820  17.374  22.609  1.00  0.00    -0.224 OA
ATOM     25  O   UNL A   1      31.960  17.380  24.984  1.00  0.00    -0.224 OA
ENDBRANCH  17  22
ENDBRANCH  12  16
BRANCH  14  26
ATOM     26  C   UNL A   1      32.079  24.334  25.912  1.00  0.00     0.128 A 
ATOM     27  C   UNL A   1      31.459  23.621  26.921  1.00  0.00     0.048 A 
ATOM     28  O   UNL A   1      31.146  25.080  25.248  1.00  0.00    -0.467 OA
ATOM     29  C   UNL A   1      30.081  23.939  26.851  1.00  0.00     0.042 A 
ATOM     30  C   UNL A   1      29.947  24.847  25.830  1.00  0.00     0.195 A 
ENDBRANCH  14  26
ENDBRANCH   9  11
ENDBRANCH   8   9
ENDBRANCH   7   8
ENDBRANCH   6   7
ENDBRANCH   5   6
ENDBRANCH   4   5
ENDBRANCH   3   4
ENDBRANCH   2   3
ENDBRANCH   1   2
BRANCH   1  31
ATOM     31  C   UNL A   1      33.466  33.872  28.232  1.00  0.00     0.188 C 
BRANCH  31  32
ATOM     32  O   UNL A   1      34.311  34.896  28.734  1.00  0.00    -0.376 OA
BRANCH  32  33
ATOM     33  C   UNL A   1      33.713  36.091  29.205  1.00  0.00     0.202 C 
BRANCH  33  34
ATOM     34  C   UNL A   1      32.452  35.939  30.066  1.00  0.00     0.261 C 
BRANCH  34  35
ATOM     35  O   UNL A   1      32.589  35.135  31.247  1.00  0.00    -0.460 OA
BRANCH  35  36
ATOM     36  C   UNL A   1      33.293  35.659  32.273  1.00  0.00     0.338 C 
ATOM     37  O   UNL A   1      32.950  36.568  33.013  1.00  0.00    -0.246 OA
BRANCH  36  38
ATOM     38  C   UNL A   1      34.488  34.813  32.473  1.00  0.00     0.060 A 
ATOM     39  C   UNL A   1      34.337  33.534  33.022  1.00  0.00     0.016 A 
ATOM     40  C   UNL A   1      35.752  35.285  32.110  1.00  0.00     0.016 A 
ATOM     41  C   UNL A   1      35.460  32.735  33.245  1.00  0.00     0.010 A 
ATOM     42  C   UNL A   1      36.875  34.491  32.350  1.00  0.00     0.010 A 
ATOM     43  C   UNL A   1      36.739  33.226  32.950  1.00  0.00    -0.014 A 
BRANCH  43  44
ATOM     44  C   UNL A   1      37.944  32.508  33.435  1.00  0.00     0.031 A 
ATOM     45  C   UNL A   1      38.529  32.912  34.762  1.00  0.00     0.074 A 
ATOM     46  C   UNL A   1      38.506  31.515  32.721  1.00  0.00     0.049 A 
ATOM     47  N   UNL A   1      39.606  32.476  35.361  1.00  0.00    -0.248 NA
ATOM     48  C   UNL A   1      37.802  33.952  35.510  1.00  0.00     0.031 C 
ATOM     49  C   UNL A   1      38.008  31.000  31.447  1.00  0.00     0.029 A 
ATOM     50  N   UNL A   1      39.631  30.770  32.970  1.00  0.00    -0.354 N 
ATOM     51  C   UNL A   1      39.694  33.194  36.548  1.00  0.00     0.074 A 
ATOM     52  C   UNL A   1      38.579  34.115  36.570  1.00  0.00     0.031 C 
ATOM     53  C   UNL A   1      38.831  30.026  31.021  1.00  0.00     0.029 A 
ATOM     54  C   UNL A   1      39.934  29.876  31.970  1.00  0.00     0.049 A 
ATOM     55  H   UNL A   1      40.171  30.865  33.788  1.00  0.00     0.167 HD
ATOM     56  C   UNL A   1      40.617  33.094  37.534  1.00  0.00     0.031 A 
ATOM     57  C   UNL A   1      40.992  29.052  31.825  1.00  0.00     0.031 A 
ATOM     58  C   UNL A   1      41.734  32.188  37.500  1.00  0.00     0.049 A 
ATOM     59  C   UNL A   1      42.053  29.017  32.896  1.00  0.00     0.074 A 
ATOM     60  C   UNL A   1      42.717  32.001  38.455  1.00  0.00     0.029 A 
ATOM     61  N   UNL A   1      42.025  31.327  36.453  1.00  0.00    -0.354 N 
ATOM     62  N   UNL A   1      42.110  29.684  34.024  1.00  0.00    -0.248 NA
ATOM     63  C   UNL A   1      43.190  28.111  32.675  1.00  0.00     0.031 C 
ATOM     64  C   UNL A   1      43.639  31.076  37.956  1.00  0.00     0.029 A 
ATOM     65  C   UNL A   1      43.190  30.630  36.724  1.00  0.00     0.049 A 
ATOM     66  H   UNL A   1      41.483  31.226  35.638  1.00  0.00     0.167 HD
ATOM     67  C   UNL A   1      43.270  29.254  34.663  1.00  0.00     0.074 A 
ATOM     68  C   UNL A   1      43.876  28.260  33.801  1.00  0.00     0.031 C 
ATOM     69  C   UNL A   1      43.784  29.641  35.857  1.00  0.00     0.031 A 
BRANCH  56  70
ATOM     70  C   UNL A   1      40.479  34.019  38.714  1.00  0.00    -0.014 A 
ATOM     71  C   UNL A   1      41.096  35.284  38.732  1.00  0.00     0.010 A 
ATOM     72  C   UNL A   1      39.685  33.632  39.809  1.00  0.00     0.010 A 
ATOM     73  C   UNL A   1      40.954  36.125  39.839  1.00  0.00     0.020 A 
ATOM     74  C   UNL A   1      39.515  34.483  40.904  1.00  0.00     0.020 A 
ATOM     75  C   UNL A   1      40.164  35.719  40.918  1.00  0.00     0.054 A 
BRANCH  75  76
ATOM     76  S   UNL A   1      39.977  36.843  42.329  1.00  0.00     0.124 S 
ATOM     77  O   UNL A   1      39.019  36.121  43.163  1.00  0.00    -0.237 OA
ATOM     78  O   UNL A   1      41.337  36.919  42.858  1.00  0.00    -0.237 OA
ATOM     79  O   UNL A   1      39.475  38.075  41.729  1.00  0.00    -0.744 OA
ENDBRANCH  75  76
ENDBRANCH  56  70
BRANCH  57  80
ATOM     80  C   UNL A   1      41.116  28.204  30.605  1.00  0.00    -0.014 A 
ATOM     81  C   UNL A   1      40.027  27.443  30.143  1.00  0.00     0.010 A 
ATOM     82  C   UNL A   1      42.333  28.149  29.900  1.00  0.00     0.010 A 
ATOM     83  C   UNL A   1      40.159  26.632  29.010  1.00  0.00     0.020 A 
ATOM     84  C   UNL A   1      42.459  27.365  28.750  1.00  0.00     0.020 A 
ATOM     85  C   UNL A   1      41.372  26.603  28.318  1.00  0.00     0.054 A 
BRANCH  85  86
ATOM     86  S   UNL A   1      41.501  25.588  26.820  1.00  0.00     0.124 S 
ATOM     87  O   UNL A   1      42.872  25.849  26.393  1.00  0.00    -0.237 OA
ATOM     88  O   UNL A   1      41.240  24.244  27.329  1.00  0.00    -0.237 OA
ATOM     89  O   UNL A   1      40.460  26.129  25.948  1.00  0.00    -0.744 OA
ENDBRANCH  85  86
ENDBRANCH  57  80
BRANCH  69  90
ATOM     90  C   UNL A   1      45.044  28.963  36.332  1.00  0.00    -0.014 A 
ATOM     91  C   UNL A   1      46.254  29.669  36.465  1.00  0.00     0.010 A 
ATOM     92  C   UNL A   1      44.998  27.610  36.715  1.00  0.00     0.010 A 
ATOM     93  C   UNL A   1      47.400  29.023  36.939  1.00  0.00     0.020 A 
ATOM     94  C   UNL A   1      46.132  26.970  37.220  1.00  0.00     0.020 A 
ATOM     95  C   UNL A   1      47.332  27.679  37.316  1.00  0.00     0.054 A 
BRANCH  95  96
ATOM     96  S   UNL A   1      48.821  26.879  37.972  1.00  0.00     0.124 S 
ATOM     97  O   UNL A   1      49.717  26.911  36.818  1.00  0.00    -0.237 OA
ATOM     98  O   UNL A   1      49.192  27.754  39.080  1.00  0.00    -0.237 OA
ATOM     99  O   UNL A   1      48.359  25.549  38.363  1.00  0.00    -0.744 OA
ENDBRANCH  95  96
ENDBRANCH  69  90
ENDBRANCH  43  44
ENDBRANCH  36  38
ENDBRANCH  35  36
ENDBRANCH  34  35
ENDBRANCH  33  34
ENDBRANCH  32  33
ENDBRANCH  31  32
ENDBRANCH   1  31
TORSDOF 26
ENDMDL
MODEL 2
REMARK VINA RESULT:      -8.7      2.106      8.257
REMARK SMILES CS(=O)(=O)c1ccc(N2N=C(C(=O)OCCOCCOCCOCCOC(=O)c3ccc(-c4c5nc(c(-c6ccc(S(=O)(=O)[O-])cc6)c6ccc([nH]6)c(-c6ccc(S(=O)(=O)[O-])cc6)c6nc(c(-c7ccc(S(=O)(=O)[O-])cc7)c7ccc4[nH]7)C=C6)C=C5)cc3)C[C@H]2c2ccco2)cc1
REMARK SMILES IDX 21 1 20 2 19 3 18 4 17 5 16 6 15 7 14 8 12 9 13 10 11 11
REMARK SMILES IDX 9 12 10 13 90 14 89 15 8 16 5 17 6 18 97 19 7 20 96 21 2 22
REMARK SMILES IDX 1 23 3 24 4 25 91 26 92 27 95 28 93 29 94 30 22 31 23 32
REMARK SMILES IDX 24 33 25 34 26 35 27 36 28 37 29 38 30 39 88 40 31 41 87 42
REMARK SMILES IDX 32 43 33 44 34 45 81 46 35 47 86 48 80 49 82 50 36 51 85 52
REMARK SMILES IDX 79 53 78 54 37 56 67 57 48 58 66 59 49 60 52 61 65 62 83 63
REMARK SMILES IDX 50 64 51 65 64 67 84 68 53 69 38 70 39 71 47 72 40 73 46 74
REMARK SMILES IDX 41 75 42 76 43 77 44 78 45 79 68 80 69 81 77 82 70 83 76 84
REMARK SMILES IDX 71 85 72 86 73 87 74 88 75 89 54 90 55 91 63 92 56 93 62 94
REMARK SMILES IDX 57 95 58 96 59 97 60 98 61 99
REMARK H PARENT 82 55 52 66
REMARK Flexibility Score: inf
ROOT
ATOM      1  C   UNL A   1      35.392  31.532  28.739  1.00  0.00     0.188 C 
ENDROOT
BRANCH   1   2
ATOM      2  O   UNL A   1      34.984  30.192  28.441  1.00  0.00    -0.377 OA
BRANCH   2   3
ATOM      3  C   UNL A   1      34.871  29.791  27.085  1.00  0.00     0.188 C 
BRANCH   3   4
ATOM      4  C   UNL A   1      33.445  29.855  26.505  1.00  0.00     0.188 C 
BRANCH   4   5
ATOM      5  O   UNL A   1      32.897  28.579  26.231  1.00  0.00    -0.376 OA
BRANCH   5   6
ATOM      6  C   UNL A   1      31.500  28.349  26.316  1.00  0.00     0.202 C 
BRANCH   6   7
ATOM      7  C   UNL A   1      30.817  27.056  25.831  1.00  0.00     0.261 C 
BRANCH   7   8
ATOM      8  O   UNL A   1      31.641  25.895  25.760  1.00  0.00    -0.459 OA
BRANCH   8   9
ATOM      9  C   UNL A   1      31.050  24.699  25.903  1.00  0.00     0.354 C 
ATOM     10  O   UNL A   1      30.070  24.415  26.562  1.00  0.00    -0.245 OA
BRANCH   9  11
ATOM     11  C   UNL A   1      31.705  23.763  24.919  1.00  0.00     0.148 C 
ATOM     12  N   UNL A   1      32.309  21.966  23.964  1.00  0.00    -0.254 N 
ATOM     13  N   UNL A   1      31.650  22.471  25.050  1.00  0.00    -0.169 NA
ATOM     14  C   UNL A   1      33.110  23.008  23.281  1.00  0.00     0.180 C 
ATOM     15  C   UNL A   1      32.325  24.274  23.657  1.00  0.00     0.101 C 
BRANCH  12  16
ATOM     16  C   UNL A   1      32.648  20.620  23.996  1.00  0.00     0.060 A 
ATOM     17  C   UNL A   1      33.409  17.912  24.012  1.00  0.00     0.067 A 
ATOM     18  C   UNL A   1      34.000  18.807  24.908  1.00  0.00     0.022 A 
ATOM     19  C   UNL A   1      32.456  18.357  23.099  1.00  0.00     0.022 A 
ATOM     20  C   UNL A   1      33.618  20.154  24.894  1.00  0.00     0.029 A 
ATOM     21  C   UNL A   1      32.099  19.707  23.087  1.00  0.00     0.029 A 
BRANCH  17  22
ATOM     22  S   UNL A   1      33.898  16.205  24.072  1.00  0.00     0.175 S 
ATOM     23  C   UNL A   1      35.221  16.096  25.245  1.00  0.00     0.163 C 
ATOM     24  O   UNL A   1      34.465  15.882  22.775  1.00  0.00    -0.224 OA
ATOM     25  O   UNL A   1      32.773  15.462  24.603  1.00  0.00    -0.224 OA
ENDBRANCH  17  22
ENDBRANCH  12  16
BRANCH  14  26
ATOM     26  C   UNL A   1      34.557  23.127  23.680  1.00  0.00     0.128 A 
ATOM     27  C   UNL A   1      35.189  23.465  24.862  1.00  0.00     0.048 A 
ATOM     28  O   UNL A   1      35.499  22.867  22.724  1.00  0.00    -0.467 OA
ATOM     29  C   UNL A   1      36.580  23.425  24.602  1.00  0.00     0.042 A 
ATOM     30  C   UNL A   1      36.716  23.034  23.292  1.00  0.00     0.195 A 
ENDBRANCH  14  26
ENDBRANCH   9  11
ENDBRANCH   8   9
ENDBRANCH   7   8
ENDBRANCH   6   7
ENDBRANCH   5   6
ENDBRANCH   4   5
ENDBRANCH   3   4
ENDBRANCH   2   3
ENDBRANCH   1   2
BRANCH   1  31
ATOM     31  C   UNL A   1      34.650  32.777  28.192  1.00  0.00     0.188 C 
BRANCH  31  32
ATOM     32  O   UNL A   1      35.164  34.023  28.637  1.00  0.00    -0.376 OA
BRANCH  32  33
ATOM     33  C   UNL A   1      34.248  35.018  29.059  1.00  0.00     0.202 C 
BRANCH  33  34
ATOM     34  C   UNL A   1      33.848  35.004  30.540  1.00  0.00     0.261 C 
BRANCH  34  35
ATOM     35  O   UNL A   1      34.882  34.642  31.469  1.00  0.00    -0.460 OA
BRANCH  35  36
ATOM     36  C   UNL A   1      34.772  33.444  32.080  1.00  0.00     0.338 C 
ATOM     37  O   UNL A   1      33.743  32.844  32.343  1.00  0.00    -0.246 OA
BRANCH  36  38
ATOM     38  C   UNL A   1      36.133  32.884  32.214  1.00  0.00     0.060 A 
ATOM     39  C   UNL A   1      36.328  31.736  32.992  1.00  0.00     0.016 A 
ATOM     40  C   UNL A   1      37.211  33.492  31.564  1.00  0.00     0.016 A 
ATOM     41  C   UNL A   1      37.612  31.213  33.153  1.00  0.00     0.010 A 
ATOM     42  C   UNL A   1      38.496  32.977  31.742  1.00  0.00     0.010 A 
ATOM     43  C   UNL A   1      38.709  31.856  32.564  1.00  0.00    -0.014 A 
BRANCH  43  44
ATOM     44  C   UNL A   1      40.091  31.479  32.952  1.00  0.00     0.031 A 
ATOM     45  C   UNL A   1      40.868  30.574  32.033  1.00  0.00     0.074 A 
ATOM     46  C   UNL A   1      40.650  31.931  34.089  1.00  0.00     0.049 A 
ATOM     47  N   UNL A   1      42.060  30.061  32.188  1.00  0.00    -0.248 NA
ATOM     48  C   UNL A   1      40.206  30.193  30.773  1.00  0.00     0.031 C 
ATOM     49  C   UNL A   1      40.021  32.848  35.037  1.00  0.00     0.029 A 
ATOM     50  N   UNL A   1      41.879  31.666  34.640  1.00  0.00    -0.354 N 
ATOM     51  C   UNL A   1      42.288  29.289  31.054  1.00  0.00     0.074 A 
ATOM     52  C   UNL A   1      41.098  29.376  30.235  1.00  0.00     0.031 C 
ATOM     53  C   UNL A   1      40.867  33.063  36.061  1.00  0.00     0.029 A 
ATOM     54  C   UNL A   1      42.078  32.269  35.860  1.00  0.00     0.049 A 
ATOM     55  H   UNL A   1      42.555  31.098  34.204  1.00  0.00     0.167 HD
ATOM     56  C   UNL A   1      43.389  28.575  30.721  1.00  0.00     0.031 A 
ATOM     57  C   UNL A   1      43.108  32.171  36.725  1.00  0.00     0.031 A 
ATOM     58  C   UNL A   1      44.564  28.478  31.546  1.00  0.00     0.049 A 
ATOM     59  C   UNL A   1      44.290  31.303  36.372  1.00  0.00     0.074 A 
ATOM     60  C   UNL A   1      45.738  27.790  31.291  1.00  0.00     0.029 A 
ATOM     61  N   UNL A   1      44.711  29.073  32.789  1.00  0.00    -0.354 N 
ATOM     62  N   UNL A   1      44.502  30.599  35.286  1.00  0.00    -0.248 NA
ATOM     63  C   UNL A   1      45.375  31.222  37.361  1.00  0.00     0.031 C 
ATOM     64  C   UNL A   1      46.567  27.915  32.410  1.00  0.00     0.029 A 
ATOM     65  C   UNL A   1      45.943  28.743  33.329  1.00  0.00     0.049 A 
ATOM     66  H   UNL A   1      44.040  29.647  33.224  1.00  0.00     0.167 HD
ATOM     67  C   UNL A   1      45.757  30.019  35.446  1.00  0.00     0.074 A 
ATOM     68  C   UNL A   1      46.262  30.466  36.728  1.00  0.00     0.031 C 
ATOM     69  C   UNL A   1      46.434  29.196  34.607  1.00  0.00     0.031 A 
BRANCH  56  70
ATOM     70  C   UNL A   1      43.357  27.808  29.424  1.00  0.00    -0.014 A 
ATOM     71  C   UNL A   1      43.634  28.433  28.195  1.00  0.00     0.010 A 
ATOM     72  C   UNL A   1      43.080  26.429  29.442  1.00  0.00     0.010 A 
ATOM     73  C   UNL A   1      43.597  27.701  27.005  1.00  0.00     0.020 A 
ATOM     74  C   UNL A   1      43.073  25.687  28.258  1.00  0.00     0.020 A 
ATOM     75  C   UNL A   1      43.316  26.332  27.044  1.00  0.00     0.054 A 
BRANCH  75  76
ATOM     76  S   UNL A   1      43.301  25.403  25.487  1.00  0.00     0.124 S 
ATOM     77  O   UNL A   1      42.440  26.235  24.649  1.00  0.00    -0.237 OA
ATOM     78  O   UNL A   1      44.713  25.385  25.113  1.00  0.00    -0.237 OA
ATOM     79  O   UNL A   1      42.741  24.107  25.861  1.00  0.00    -0.744 OA
ENDBRANCH  75  76
ENDBRANCH  56  70
BRANCH  57  80
ATOM     80  C   UNL A   1      43.062  32.899  38.026  1.00  0.00    -0.014 A 
ATOM     81  C   UNL A   1      42.553  32.278  39.181  1.00  0.00     0.010 A 
ATOM     82  C   UNL A   1      43.524  34.226  38.113  1.00  0.00     0.010 A 
ATOM     83  C   UNL A   1      42.492  32.975  40.392  1.00  0.00     0.020 A 
ATOM     84  C   UNL A   1      43.494  34.915  39.328  1.00  0.00     0.020 A 
ATOM     85  C   UNL A   1      42.968  34.287  40.459  1.00  0.00     0.054 A 
BRANCH  85  86
ATOM     86  S   UNL A   1      42.931  35.151  42.054  1.00  0.00     0.124 S 
ATOM     87  O   UNL A   1      41.497  35.275  42.300  1.00  0.00    -0.237 OA
ATOM     88  O   UNL A   1      43.646  34.226  42.929  1.00  0.00    -0.237 OA
ATOM     89  O   UNL A   1      43.630  36.405  41.781  1.00  0.00    -0.744 OA
ENDBRANCH  85  86
ENDBRANCH  57  80
BRANCH  69  90
ATOM     90  C   UNL A   1      47.816  28.754  35.020  1.00  0.00    -0.014 A 
ATOM     91  C   UNL A   1      48.960  29.498  34.678  1.00  0.00     0.010 A 
ATOM     92  C   UNL A   1      47.962  27.606  35.820  1.00  0.00     0.010 A 
ATOM     93  C   UNL A   1      50.225  29.082  35.102  1.00  0.00     0.020 A 
ATOM     94  C   UNL A   1      49.221  27.205  36.273  1.00  0.00     0.020 A 
ATOM     95  C   UNL A   1      50.348  27.940  35.899  1.00  0.00     0.054 A 
BRANCH  95  96
ATOM     96  S   UNL A   1      51.997  27.449  36.474  1.00  0.00     0.124 S 
ATOM     97  O   UNL A   1      52.509  28.698  37.033  1.00  0.00    -0.237 OA
ATOM     98  O   UNL A   1      51.698  26.401  37.446  1.00  0.00    -0.237 OA
ATOM     99  O   UNL A   1      52.667  26.990  35.259  1.00  0.00    -0.744 OA
ENDBRANCH  95  96
ENDBRANCH  69  90
ENDBRANCH  43  44
ENDBRANCH  36  38
ENDBRANCH  35  36
ENDBRANCH  34  35
ENDBRANCH  33  34
ENDBRANCH  32  33
ENDBRANCH  31  32
ENDBRANCH   1  31
TORSDOF 26
ENDMDL
MODEL 3
REMARK VINA RESULT:      -8.7      3.111      8.339
REMARK SMILES CS(=O)(=O)c1ccc(N2N=C(C(=O)OCCOCCOCCOCCOC(=O)c3ccc(-c4c5nc(c(-c6ccc(S(=O)(=O)[O-])cc6)c6ccc([nH]6)c(-c6ccc(S(=O)(=O)[O-])cc6)c6nc(c(-c7ccc(S(=O)(=O)[O-])cc7)c7ccc4[nH]7)C=C6)C=C5)cc3)C[C@H]2c2ccco2)cc1
REMARK SMILES IDX 21 1 20 2 19 3 18 4 17 5 16 6 15 7 14 8 12 9 13 10 11 11
REMARK SMILES IDX 9 12 10 13 90 14 89 15 8 16 5 17 6 18 97 19 7 20 96 21 2 22
REMARK SMILES IDX 1 23 3 24 4 25 91 26 92 27 95 28 93 29 94 30 22 31 23 32
REMARK SMILES IDX 24 33 25 34 26 35 27 36 28 37 29 38 30 39 88 40 31 41 87 42
REMARK SMILES IDX 32 43 33 44 34 45 81 46 35 47 86 48 80 49 82 50 36 51 85 52
REMARK SMILES IDX 79 53 78 54 37 56 67 57 48 58 66 59 49 60 52 61 65 62 83 63
REMARK SMILES IDX 50 64 51 65 64 67 84 68 53 69 38 70 39 71 47 72 40 73 46 74
REMARK SMILES IDX 41 75 42 76 43 77 44 78 45 79 68 80 69 81 77 82 70 83 76 84
REMARK SMILES IDX 71 85 72 86 73 87 74 88 75 89 54 90 55 91 63 92 56 93 62 94
REMARK SMILES IDX 57 95 58 96 59 97 60 98 61 99
REMARK H PARENT 82 55 52 66
REMARK Flexibility Score: inf
ROOT
ATOM      1  C   UNL A   1      35.423  30.282  28.290  1.00  0.00     0.188 C 
ENDROOT
BRANCH   1   2
ATOM      2  O   UNL A   1      35.025  29.079  27.623  1.00  0.00    -0.377 OA
BRANCH   2   3
ATOM      3  C   UNL A   1      34.554  29.155  26.287  1.00  0.00     0.188 C 
BRANCH   3   4
ATOM      4  C   UNL A   1      33.113  28.653  26.077  1.00  0.00     0.188 C 
BRANCH   4   5
ATOM      5  O   UNL A   1      32.953  27.897  24.890  1.00  0.00    -0.376 OA
BRANCH   5   6
ATOM      6  C   UNL A   1      31.913  28.188  23.971  1.00  0.00     0.202 C 
BRANCH   6   7
ATOM      7  C   UNL A   1      31.713  27.434  22.643  1.00  0.00     0.261 C 
BRANCH   7   8
ATOM      8  O   UNL A   1      31.762  26.011  22.710  1.00  0.00    -0.459 OA
BRANCH   8   9
ATOM      9  C   UNL A   1      32.892  25.405  22.318  1.00  0.00     0.354 C 
ATOM     10  O   UNL A   1      33.617  25.690  21.387  1.00  0.00    -0.245 OA
BRANCH   9  11
ATOM     11  C   UNL A   1      33.242  24.394  23.381  1.00  0.00     0.148 C 
ATOM     12  N   UNL A   1      33.813  22.564  24.291  1.00  0.00    -0.254 N 
ATOM     13  N   UNL A   1      33.504  23.153  23.097  1.00  0.00    -0.169 NA
ATOM     14  C   UNL A   1      33.400  23.406  25.437  1.00  0.00     0.180 C 
ATOM     15  C   UNL A   1      33.451  24.805  24.804  1.00  0.00     0.101 C 
BRANCH  12  16
ATOM     16  C   UNL A   1      33.857  21.176  24.320  1.00  0.00     0.060 A 
ATOM     17  C   UNL A   1      34.004  18.366  24.308  1.00  0.00     0.067 A 
ATOM     18  C   UNL A   1      35.018  19.115  24.910  1.00  0.00     0.022 A 
ATOM     19  C   UNL A   1      32.927  19.006  23.698  1.00  0.00     0.022 A 
ATOM     20  C   UNL A   1      34.941  20.513  24.912  1.00  0.00     0.029 A 
ATOM     21  C   UNL A   1      32.872  20.401  23.693  1.00  0.00     0.029 A 
BRANCH  17  22
ATOM     22  S   UNL A   1      34.121  16.594  24.346  1.00  0.00     0.175 S 
ATOM     23  C   UNL A   1      32.747  16.014  25.303  1.00  0.00     0.163 C 
ATOM     24  O   UNL A   1      35.319  16.267  25.097  1.00  0.00    -0.224 OA
ATOM     25  O   UNL A   1      33.941  16.129  22.985  1.00  0.00    -0.224 OA
ENDBRANCH  17  22
ENDBRANCH  12  16
BRANCH  14  26
ATOM     26  C   UNL A   1      32.046  23.129  26.035  1.00  0.00     0.128 A 
ATOM     27  C   UNL A   1      30.803  22.877  25.487  1.00  0.00     0.048 A 
ATOM     28  O   UNL A   1      31.950  23.114  27.399  1.00  0.00    -0.467 OA
ATOM     29  C   UNL A   1      29.908  22.720  26.574  1.00  0.00     0.042 A 
ATOM     30  C   UNL A   1      30.661  22.851  27.714  1.00  0.00     0.195 A 
ENDBRANCH  14  26
ENDBRANCH   9  11
ENDBRANCH   8   9
ENDBRANCH   7   8
ENDBRANCH   6   7
ENDBRANCH   5   6
ENDBRANCH   4   5
ENDBRANCH   3   4
ENDBRANCH   2   3
ENDBRANCH   1   2
BRANCH   1  31
ATOM     31  C   UNL A   1      35.103  31.694  27.739  1.00  0.00     0.188 C 
BRANCH  31  32
ATOM     32  O   UNL A   1      35.735  32.762  28.427  1.00  0.00    -0.376 OA
BRANCH  32  33
ATOM     33  C   UNL A   1      35.009  33.963  28.619  1.00  0.00     0.202 C 
BRANCH  33  34
ATOM     34  C   UNL A   1      34.505  34.244  30.042  1.00  0.00     0.261 C 
BRANCH  34  35
ATOM     35  O   UNL A   1      35.511  34.313  31.064  1.00  0.00    -0.460 OA
BRANCH  35  36
ATOM     36  C   UNL A   1      35.156  33.926  32.308  1.00  0.00     0.338 C 
ATOM     37  O   UNL A   1      34.028  33.688  32.710  1.00  0.00    -0.246 OA
BRANCH  36  38
ATOM     38  C   UNL A   1      36.397  33.653  33.062  1.00  0.00     0.060 A 
ATOM     39  C   UNL A   1      36.356  32.773  34.150  1.00  0.00     0.016 A 
ATOM     40  C   UNL A   1      37.596  34.264  32.687  1.00  0.00     0.016 A 
ATOM     41  C   UNL A   1      37.513  32.529  34.892  1.00  0.00     0.010 A 
ATOM     42  C   UNL A   1      38.748  34.032  33.441  1.00  0.00     0.010 A 
ATOM     43  C   UNL A   1      38.706  33.190  34.568  1.00  0.00    -0.014 A 
BRANCH  43  44
ATOM     44  C   UNL A   1      39.856  33.156  35.505  1.00  0.00     0.031 A 
ATOM     45  C   UNL A   1      40.711  31.918  35.540  1.00  0.00     0.074 A 
ATOM     46  C   UNL A   1      40.143  34.200  36.304  1.00  0.00     0.049 A 
ATOM     47  N   UNL A   1      41.725  31.632  36.314  1.00  0.00    -0.248 NA
ATOM     48  C   UNL A   1      40.370  30.858  34.575  1.00  0.00     0.031 C 
ATOM     49  C   UNL A   1      39.423  35.472  36.330  1.00  0.00     0.029 A 
ATOM     50  N   UNL A   1      41.121  34.346  37.257  1.00  0.00    -0.354 N 
ATOM     51  C   UNL A   1      42.137  30.358  35.939  1.00  0.00     0.074 A 
ATOM     52  C   UNL A   1      41.244  29.914  34.891  1.00  0.00     0.031 C 
ATOM     53  C   UNL A   1      39.978  36.267  37.262  1.00  0.00     0.029 A 
ATOM     54  C   UNL A   1      41.066  35.548  37.924  1.00  0.00     0.049 A 
ATOM     55  H   UNL A   1      41.797  33.657  37.445  1.00  0.00     0.167 HD
ATOM     56  C   UNL A   1      43.168  29.624  36.420  1.00  0.00     0.031 A 
ATOM     57  C   UNL A   1      41.793  36.003  38.964  1.00  0.00     0.031 A 
ATOM     58  C   UNL A   1      44.043  30.062  37.474  1.00  0.00     0.049 A 
ATOM     59  C   UNL A   1      42.883  35.135  39.541  1.00  0.00     0.074 A 
ATOM     60  C   UNL A   1      45.126  29.397  38.024  1.00  0.00     0.029 A 
ATOM     61  N   UNL A   1      43.931  31.269  38.147  1.00  0.00    -0.354 N 
ATOM     62  N   UNL A   1      43.277  33.943  39.160  1.00  0.00    -0.248 NA
ATOM     63  C   UNL A   1      43.631  35.678  40.684  1.00  0.00     0.031 C 
ATOM     64  C   UNL A   1      45.626  30.173  39.074  1.00  0.00     0.029 A 
ATOM     65  C   UNL A   1      44.905  31.355  39.129  1.00  0.00     0.049 A 
ATOM     66  H   UNL A   1      43.260  31.962  37.956  1.00  0.00     0.167 HD
ATOM     67  C   UNL A   1      44.339  33.608  39.995  1.00  0.00     0.074 A 
ATOM     68  C   UNL A   1      44.534  34.729  40.891  1.00  0.00     0.031 C 
ATOM     69  C   UNL A   1      45.089  32.478  40.015  1.00  0.00     0.031 A 
BRANCH  56  70
ATOM     70  C   UNL A   1      43.378  28.250  35.837  1.00  0.00    -0.014 A 
ATOM     71  C   UNL A   1      44.148  28.056  34.675  1.00  0.00     0.010 A 
ATOM     72  C   UNL A   1      42.825  27.131  36.485  1.00  0.00     0.010 A 
ATOM     73  C   UNL A   1      44.327  26.773  34.153  1.00  0.00     0.020 A 
ATOM     74  C   UNL A   1      43.029  25.843  35.983  1.00  0.00     0.020 A 
ATOM     75  C   UNL A   1      43.766  25.674  34.809  1.00  0.00     0.054 A 
BRANCH  75  76
ATOM     76  S   UNL A   1      44.039  24.018  34.122  1.00  0.00     0.124 S 
ATOM     77  O   UNL A   1      42.790  23.342  34.464  1.00  0.00    -0.237 OA
ATOM     78  O   UNL A   1      44.235  24.292  32.700  1.00  0.00    -0.237 OA
ATOM     79  O   UNL A   1      45.221  23.537  34.830  1.00  0.00    -0.744 OA
ENDBRANCH  75  76
ENDBRANCH  56  70
BRANCH  57  80
ATOM     80  C   UNL A   1      41.501  37.344  39.549  1.00  0.00    -0.014 A 
ATOM     81  C   UNL A   1      40.322  37.569  40.281  1.00  0.00     0.010 A 
ATOM     82  C   UNL A   1      42.404  38.409  39.366  1.00  0.00     0.010 A 
ATOM     83  C   UNL A   1      40.045  38.836  40.807  1.00  0.00     0.020 A 
ATOM     84  C   UNL A   1      42.146  39.667  39.917  1.00  0.00     0.020 A 
ATOM     85  C   UNL A   1      40.961  39.874  40.626  1.00  0.00     0.054 A 
BRANCH  85  86
ATOM     86  S   UNL A   1      40.607  41.493  41.365  1.00  0.00     0.124 S 
ATOM     87  O   UNL A   1      40.467  42.342  40.186  1.00  0.00    -0.237 OA
ATOM     88  O   UNL A   1      39.377  41.235  42.110  1.00  0.00    -0.237 OA
ATOM     89  O   UNL A   1      41.782  41.758  42.191  1.00  0.00    -0.744 OA
ENDBRANCH  85  86
ENDBRANCH  57  80
BRANCH  69  90
ATOM     90  C   UNL A   1      46.223  32.405  41.007  1.00  0.00    -0.014 A 
ATOM     91  C   UNL A   1      46.047  31.844  42.285  1.00  0.00     0.010 A 
ATOM     92  C   UNL A   1      47.503  32.848  40.626  1.00  0.00     0.010 A 
ATOM     93  C   UNL A   1      47.124  31.759  43.173  1.00  0.00     0.020 A 
ATOM     94  C   UNL A   1      48.588  32.734  41.498  1.00  0.00     0.020 A 
ATOM     95  C   UNL A   1      48.388  32.202  42.774  1.00  0.00     0.054 A 
BRANCH  95  96
ATOM     96  S   UNL A   1      49.777  32.037  43.929  1.00  0.00     0.124 S 
ATOM     97  O   UNL A   1      49.271  31.044  44.873  1.00  0.00    -0.237 OA
ATOM     98  O   UNL A   1      50.861  31.585  43.062  1.00  0.00    -0.237 OA
ATOM     99  O   UNL A   1      49.940  33.385  44.471  1.00  0.00    -0.744 OA
ENDBRANCH  95  96
ENDBRANCH  69  90
ENDBRANCH  43  44
ENDBRANCH  36  38
ENDBRANCH  35  36
ENDBRANCH  34  35
ENDBRANCH  33  34
ENDBRANCH  32  33
ENDBRANCH  31  32
ENDBRANCH   1  31
TORSDOF 26
ENDMDL
