MODEL 1
REMARK VINA RESULT:      -9.8      0.000      0.000
REMARK SMILES COc1cccc(-c2nn(-c3cc4c(cc3C(N)=O)OCO4)cc2C(=O)OCCOCCOCCOCCOC(=O)c2ccc(-c3c4nc(c(-c5ccc(S(=O)(=O)[O-])cc5)c5ccc([nH]5)c(-c5ccc(S(=O)(=O)[O-])cc5)c5nc(c(-c6ccc(S(=O)(=O)[O-])cc6)c6ccc3[nH]6)C=C5)C=C4)cc2)c1
REMARK SMILES IDX 34 1 33 2 32 3 31 4 30 5 29 6 28 7 27 8 25 9 26 10 24 11
REMARK SMILES IDX 8 12 9 13 10 14 23 15 7 16 3 17 4 18 102 19 5 20 6 21 2 22
REMARK SMILES IDX 1 23 11 24 12 25 16 26 13 27 15 28 14 29 22 30 20 31 21 32
REMARK SMILES IDX 17 33 18 34 19 35 35 38 36 39 37 40 38 41 39 42 40 43 41 44
REMARK SMILES IDX 42 45 43 46 101 47 44 48 100 49 45 50 46 51 47 52 94 53
REMARK SMILES IDX 48 54 99 55 93 56 95 57 49 58 98 59 92 60 91 61 50 63 80 64
REMARK SMILES IDX 61 65 79 66 62 67 65 68 78 69 96 70 63 71 64 72 77 74 97 75
REMARK SMILES IDX 66 76 51 77 52 78 60 79 53 80 59 81 54 82 55 83 56 84 57 85
REMARK SMILES IDX 58 86 81 87 82 88 90 89 83 90 89 91 84 92 85 93 86 94 87 95
REMARK SMILES IDX 88 96 67 97 68 98 76 99 69 100 75 101 70 102 71 103 72 104
REMARK SMILES IDX 73 105 74 106
REMARK H PARENT 18 36 18 37 95 62 65 73
REMARK Flexibility Score: inf
ROOT
ATOM      1  C   UNL A   1      37.179  21.872  25.319  1.00  0.00     0.188 C 
ENDROOT
BRANCH   1   2
ATOM      2  O   UNL A   1      36.265  22.713  24.621  1.00  0.00    -0.377 OA
BRANCH   2   3
ATOM      3  C   UNL A   1      35.134  23.199  25.316  1.00  0.00     0.188 C 
BRANCH   3   4
ATOM      4  C   UNL A   1      34.885  24.717  25.184  1.00  0.00     0.188 C 
BRANCH   4   5
ATOM      5  O   UNL A   1      34.104  25.331  26.186  1.00  0.00    -0.376 OA
BRANCH   5   6
ATOM      6  C   UNL A   1      33.660  26.670  26.106  1.00  0.00     0.202 C 
BRANCH   6   7
ATOM      7  C   UNL A   1      33.954  27.676  24.981  1.00  0.00     0.261 C 
BRANCH   7   8
ATOM      8  O   UNL A   1      32.878  28.438  24.452  1.00  0.00    -0.460 OA
BRANCH   8   9
ATOM      9  C   UNL A   1      32.429  28.094  23.215  1.00  0.00     0.342 C 
ATOM     10  O   UNL A   1      32.715  28.685  22.175  1.00  0.00    -0.246 OA
BRANCH   9  11
ATOM     11  C   UNL A   1      31.670  26.871  23.268  1.00  0.00     0.106 A 
ATOM     12  C   UNL A   1      30.270  26.642  23.394  1.00  0.00     0.107 A 
ATOM     13  N   UNL A   1      30.000  25.324  23.456  1.00  0.00    -0.167 NA
ATOM     14  N   UNL A   1      31.230  24.758  23.553  1.00  0.00    -0.239 N 
ATOM     15  C   UNL A   1      32.195  25.609  23.086  1.00  0.00     0.131 A 
BRANCH  12  16
ATOM     16  C   UNL A   1      29.210  27.643  23.361  1.00  0.00     0.007 A 
ATOM     17  C   UNL A   1      28.457  29.879  22.810  1.00  0.00     0.119 A 
ATOM     18  C   UNL A   1      27.144  29.499  23.104  1.00  0.00     0.046 A 
ATOM     19  C   UNL A   1      29.489  28.945  22.930  1.00  0.00     0.056 A 
ATOM     20  C   UNL A   1      26.859  28.207  23.541  1.00  0.00     0.005 A 
ATOM     21  C   UNL A   1      27.897  27.288  23.695  1.00  0.00     0.011 A 
BRANCH  17  22
ATOM     22  O   UNL A   1      28.601  31.189  22.440  1.00  0.00    -0.497 OA
ATOM     23  C   UNL A   1      28.575  31.457  21.044  1.00  0.00     0.278 C 
ENDBRANCH  17  22
ENDBRANCH  12  16
BRANCH  14  24
ATOM     24  C   UNL A   1      31.439  23.445  24.036  1.00  0.00     0.081 A 
ATOM     25  C   UNL A   1      31.767  22.445  23.102  1.00  0.00     0.079 A 
ATOM     26  C   UNL A   1      31.324  23.142  25.430  1.00  0.00     0.069 A 
ATOM     27  C   UNL A   1      32.045  21.189  23.593  1.00  0.00     0.167 A 
ATOM     28  C   UNL A   1      31.734  21.879  25.882  1.00  0.00     0.066 A 
ATOM     29  C   UNL A   1      32.061  20.929  24.942  1.00  0.00     0.166 A 
ATOM     30  O   UNL A   1      32.305  20.074  22.859  1.00  0.00    -0.454 OA
ATOM     31  O   UNL A   1      32.341  19.628  25.223  1.00  0.00    -0.454 OA
ATOM     32  C   UNL A   1      32.306  19.068  23.895  1.00  0.00     0.468 C 
BRANCH  26  33
ATOM     33  C   UNL A   1      30.516  24.004  26.370  1.00  0.00     0.251 C 
ATOM     34  N   UNL A   1      29.319  23.544  26.842  1.00  0.00    -0.366 N 
ATOM     35  O   UNL A   1      30.826  25.151  26.667  1.00  0.00    -0.269 OA
ATOM     36  H   UNL A   1      29.025  22.628  26.631  1.00  0.00     0.159 HD
ATOM     37  H   UNL A   1      28.751  24.128  27.393  1.00  0.00     0.159 HD
ENDBRANCH  26  33
ENDBRANCH  14  24
ENDBRANCH   9  11
ENDBRANCH   8   9
ENDBRANCH   7   8
ENDBRANCH   6   7
ENDBRANCH   5   6
ENDBRANCH   4   5
ENDBRANCH   3   4
ENDBRANCH   2   3
ENDBRANCH   1   2
BRANCH   1  38
ATOM     38  C   UNL A   1      38.494  22.392  25.973  1.00  0.00     0.188 C 
BRANCH  38  39
ATOM     39  O   UNL A   1      39.378  21.405  26.481  1.00  0.00    -0.376 OA
BRANCH  39  40
ATOM     40  C   UNL A   1      40.692  21.688  26.924  1.00  0.00     0.202 C 
BRANCH  40  41
ATOM     41  C   UNL A   1      41.805  20.756  26.458  1.00  0.00     0.261 C 
BRANCH  41  42
ATOM     42  O   UNL A   1      43.080  21.354  26.522  1.00  0.00    -0.460 OA
BRANCH  42  43
ATOM     43  C   UNL A   1      43.758  21.326  25.363  1.00  0.00     0.338 C 
ATOM     44  O   UNL A   1      43.947  20.356  24.641  1.00  0.00    -0.246 OA
BRANCH  43  45
ATOM     45  C   UNL A   1      44.345  22.648  25.152  1.00  0.00     0.060 A 
ATOM     46  C   UNL A   1      45.736  22.675  25.195  1.00  0.00     0.016 A 
ATOM     47  C   UNL A   1      43.545  23.771  25.422  1.00  0.00     0.016 A 
ATOM     48  C   UNL A   1      46.303  23.702  25.897  1.00  0.00     0.010 A 
ATOM     49  C   UNL A   1      44.110  24.786  26.139  1.00  0.00     0.010 A 
ATOM     50  C   UNL A   1      45.453  24.656  26.468  1.00  0.00    -0.014 A 
BRANCH  50  51
ATOM     51  C   UNL A   1      46.035  25.544  27.433  1.00  0.00     0.031 A 
ATOM     52  C   UNL A   1      45.375  25.441  28.739  1.00  0.00     0.074 A 
ATOM     53  C   UNL A   1      47.086  26.330  27.147  1.00  0.00     0.049 A 
ATOM     54  N   UNL A   1      44.544  26.278  29.259  1.00  0.00    -0.248 NA
ATOM     55  C   UNL A   1      45.466  24.148  29.434  1.00  0.00     0.031 C 
ATOM     56  C   UNL A   1      47.980  26.292  25.988  1.00  0.00     0.029 A 
ATOM     57  N   UNL A   1      47.650  27.271  27.938  1.00  0.00    -0.354 N 
ATOM     58  C   UNL A   1      44.179  25.712  30.468  1.00  0.00     0.074 A 
ATOM     59  C   UNL A   1      44.579  24.328  30.411  1.00  0.00     0.031 C 
ATOM     60  C   UNL A   1      49.111  26.973  26.291  1.00  0.00     0.029 A 
ATOM     61  C   UNL A   1      48.954  27.588  27.601  1.00  0.00     0.049 A 
ATOM     62  H   UNL A   1      47.173  27.695  28.689  1.00  0.00     0.167 HD
ATOM     63  C   UNL A   1      43.842  26.483  31.535  1.00  0.00     0.031 A 
ATOM     64  C   UNL A   1      49.852  28.193  28.421  1.00  0.00     0.031 A 
ATOM     65  C   UNL A   1      43.561  27.842  31.151  1.00  0.00     0.049 A 
ATOM     66  C   UNL A   1      49.069  28.873  29.495  1.00  0.00     0.074 A 
ATOM     67  C   UNL A   1      42.655  28.428  30.286  1.00  0.00     0.029 A 
ATOM     68  N   UNL A   1      44.552  28.777  31.355  1.00  0.00    -0.354 N 
ATOM     69  N   UNL A   1      48.262  29.875  29.268  1.00  0.00    -0.248 NA
ATOM     70  C   UNL A   1      48.793  28.129  30.720  1.00  0.00     0.031 C 
ATOM     71  C   UNL A   1      43.382  29.475  29.647  1.00  0.00     0.029 A 
ATOM     72  C   UNL A   1      44.663  29.514  30.202  1.00  0.00     0.049 A 
ATOM     73  H   UNL A   1      45.082  28.895  32.176  1.00  0.00     0.167 HD
ATOM     74  C   UNL A   1      47.147  29.635  30.063  1.00  0.00     0.074 A 
ATOM     75  C   UNL A   1      47.569  28.592  30.998  1.00  0.00     0.031 C 
ATOM     76  C   UNL A   1      45.904  30.084  29.712  1.00  0.00     0.031 A 
BRANCH  63  77
ATOM     77  C   UNL A   1      44.194  26.090  32.942  1.00  0.00    -0.014 A 
ATOM     78  C   UNL A   1      45.537  26.159  33.352  1.00  0.00     0.010 A 
ATOM     79  C   UNL A   1      43.295  25.402  33.787  1.00  0.00     0.010 A 
ATOM     80  C   UNL A   1      45.963  25.520  34.523  1.00  0.00     0.020 A 
ATOM     81  C   UNL A   1      43.698  24.808  34.978  1.00  0.00     0.020 A 
ATOM     82  C   UNL A   1      45.040  24.839  35.319  1.00  0.00     0.054 A 
BRANCH  82  83
ATOM     83  S   UNL A   1      45.616  23.926  36.767  1.00  0.00     0.124 S 
ATOM     84  O   UNL A   1      45.424  22.542  36.342  1.00  0.00    -0.237 OA
ATOM     85  O   UNL A   1      47.002  24.371  36.880  1.00  0.00    -0.237 OA
ATOM     86  O   UNL A   1      44.730  24.383  37.835  1.00  0.00    -0.744 OA
ENDBRANCH  82  83
ENDBRANCH  63  77
BRANCH  64  87
ATOM     87  C   UNL A   1      51.292  27.840  28.550  1.00  0.00    -0.014 A 
ATOM     88  C   UNL A   1      51.735  26.882  29.479  1.00  0.00     0.010 A 
ATOM     89  C   UNL A   1      52.217  28.269  27.572  1.00  0.00     0.010 A 
ATOM     90  C   UNL A   1      53.033  26.342  29.402  1.00  0.00     0.020 A 
ATOM     91  C   UNL A   1      53.512  27.746  27.495  1.00  0.00     0.020 A 
ATOM     92  C   UNL A   1      53.909  26.766  28.398  1.00  0.00     0.054 A 
BRANCH  92  93
ATOM     93  S   UNL A   1      55.521  25.952  28.198  1.00  0.00     0.124 S 
ATOM     94  O   UNL A   1      55.226  24.915  27.214  1.00  0.00    -0.237 OA
ATOM     95  O   UNL A   1      56.373  27.042  27.732  1.00  0.00    -0.237 OA
ATOM     96  O   UNL A   1      55.829  25.461  29.540  1.00  0.00    -0.744 OA
ENDBRANCH  92  93
ENDBRANCH  64  87
BRANCH  76  97
ATOM     97  C   UNL A   1      45.777  31.063  28.564  1.00  0.00    -0.014 A 
ATOM     98  C   UNL A   1      45.798  30.684  27.207  1.00  0.00     0.010 A 
ATOM     99  C   UNL A   1      45.444  32.392  28.878  1.00  0.00     0.010 A 
ATOM    100  C   UNL A   1      45.515  31.617  26.195  1.00  0.00     0.020 A 
ATOM    101  C   UNL A   1      45.144  33.321  27.878  1.00  0.00     0.020 A 
ATOM    102  C   UNL A   1      45.190  32.932  26.540  1.00  0.00     0.054 A 
BRANCH 102 103
ATOM    103  S   UNL A   1      44.777  34.123  25.233  1.00  0.00     0.124 S 
ATOM    104  O   UNL A   1      43.745  34.941  25.863  1.00  0.00    -0.237 OA
ATOM    105  O   UNL A   1      46.052  34.795  24.991  1.00  0.00    -0.237 OA
ATOM    106  O   UNL A   1      44.310  33.284  24.130  1.00  0.00    -0.744 OA
ENDBRANCH 102 103
ENDBRANCH  76  97
ENDBRANCH  50  51
ENDBRANCH  43  45
ENDBRANCH  42  43
ENDBRANCH  41  42
ENDBRANCH  40  41
ENDBRANCH  39  40
ENDBRANCH  38  39
ENDBRANCH   1  38
TORSDOF 27
ENDMDL
MODEL 2
REMARK VINA RESULT:      -9.5      2.973      6.298
REMARK SMILES COc1cccc(-c2nn(-c3cc4c(cc3C(N)=O)OCO4)cc2C(=O)OCCOCCOCCOCCOC(=O)c2ccc(-c3c4nc(c(-c5ccc(S(=O)(=O)[O-])cc5)c5ccc([nH]5)c(-c5ccc(S(=O)(=O)[O-])cc5)c5nc(c(-c6ccc(S(=O)(=O)[O-])cc6)c6ccc3[nH]6)C=C5)C=C4)cc2)c1
REMARK SMILES IDX 34 1 33 2 32 3 31 4 30 5 29 6 28 7 27 8 25 9 26 10 24 11
REMARK SMILES IDX 8 12 9 13 10 14 23 15 7 16 3 17 4 18 102 19 5 20 6 21 2 22
REMARK SMILES IDX 1 23 11 24 12 25 16 26 13 27 15 28 14 29 22 30 20 31 21 32
REMARK SMILES IDX 17 33 18 34 19 35 35 38 36 39 37 40 38 41 39 42 40 43 41 44
REMARK SMILES IDX 42 45 43 46 101 47 44 48 100 49 45 50 46 51 47 52 94 53
REMARK SMILES IDX 48 54 99 55 93 56 95 57 49 58 98 59 92 60 91 61 50 63 80 64
REMARK SMILES IDX 61 65 79 66 62 67 65 68 78 69 96 70 63 71 64 72 77 74 97 75
REMARK SMILES IDX 66 76 51 77 52 78 60 79 53 80 59 81 54 82 55 83 56 84 57 85
REMARK SMILES IDX 58 86 81 87 82 88 90 89 83 90 89 91 84 92 85 93 86 94 87 95
REMARK SMILES IDX 88 96 67 97 68 98 76 99 69 100 75 101 70 102 71 103 72 104
REMARK SMILES IDX 73 105 74 106
REMARK H PARENT 18 36 18 37 95 62 65 73
REMARK Flexibility Score: inf
ROOT
ATOM      1  C   UNL A   1      39.306  21.564  26.030  1.00  0.00     0.188 C 
ENDROOT
BRANCH   1   2
ATOM      2  O   UNL A   1      38.134  20.755  26.027  1.00  0.00    -0.377 OA
BRANCH   2   3
ATOM      3  C   UNL A   1      37.196  20.934  24.985  1.00  0.00     0.188 C 
BRANCH   3   4
ATOM      4  C   UNL A   1      35.766  21.292  25.444  1.00  0.00     0.188 C 
BRANCH   4   5
ATOM      5  O   UNL A   1      35.590  21.626  26.803  1.00  0.00    -0.376 OA
BRANCH   5   6
ATOM      6  C   UNL A   1      34.320  21.737  27.412  1.00  0.00     0.202 C 
BRANCH   6   7
ATOM      7  C   UNL A   1      33.247  22.801  27.128  1.00  0.00     0.261 C 
BRANCH   7   8
ATOM      8  O   UNL A   1      33.662  24.136  26.878  1.00  0.00    -0.460 OA
BRANCH   8   9
ATOM      9  C   UNL A   1      34.008  24.445  25.600  1.00  0.00     0.342 C 
ATOM     10  O   UNL A   1      35.134  24.309  25.125  1.00  0.00    -0.246 OA
BRANCH   9  11
ATOM     11  C   UNL A   1      32.851  24.841  24.837  1.00  0.00     0.106 A 
ATOM     12  C   UNL A   1      32.061  24.124  23.894  1.00  0.00     0.107 A 
ATOM     13  N   UNL A   1      31.096  24.909  23.378  1.00  0.00    -0.167 NA
ATOM     14  N   UNL A   1      31.405  26.141  23.858  1.00  0.00    -0.239 N 
ATOM     15  C   UNL A   1      32.191  26.044  24.974  1.00  0.00     0.131 A 
BRANCH  12  16
ATOM     16  C   UNL A   1      32.158  22.707  23.563  1.00  0.00     0.007 A 
ATOM     17  C   UNL A   1      32.147  20.388  24.262  1.00  0.00     0.119 A 
ATOM     18  C   UNL A   1      32.138  19.994  22.920  1.00  0.00     0.046 A 
ATOM     19  C   UNL A   1      32.146  21.748  24.582  1.00  0.00     0.056 A 
ATOM     20  C   UNL A   1      32.157  20.943  21.901  1.00  0.00     0.005 A 
ATOM     21  C   UNL A   1      32.194  22.299  22.223  1.00  0.00     0.011 A 
BRANCH  17  22
ATOM     22  O   UNL A   1      32.177  19.354  25.158  1.00  0.00    -0.497 OA
ATOM     23  C   UNL A   1      32.503  18.073  24.634  1.00  0.00     0.278 C 
ENDBRANCH  17  22
ENDBRANCH  12  16
BRANCH  14  24
ATOM     24  C   UNL A   1      30.923  27.338  23.280  1.00  0.00     0.081 A 
ATOM     25  C   UNL A   1      29.530  27.496  23.157  1.00  0.00     0.079 A 
ATOM     26  C   UNL A   1      31.821  28.359  22.834  1.00  0.00     0.069 A 
ATOM     27  C   UNL A   1      29.071  28.697  22.665  1.00  0.00     0.167 A 
ATOM     28  C   UNL A   1      31.295  29.603  22.455  1.00  0.00     0.066 A 
ATOM     29  C   UNL A   1      29.928  29.726  22.360  1.00  0.00     0.166 A 
ATOM     30  O   UNL A   1      27.777  29.018  22.399  1.00  0.00    -0.454 OA
ATOM     31  O   UNL A   1      29.282  30.820  21.874  1.00  0.00    -0.454 OA
ATOM     32  C   UNL A   1      27.950  30.287  21.732  1.00  0.00     0.468 C 
BRANCH  26  33
ATOM     33  C   UNL A   1      33.258  28.059  22.479  1.00  0.00     0.251 C 
ATOM     34  N   UNL A   1      34.250  28.871  22.950  1.00  0.00    -0.366 N 
ATOM     35  O   UNL A   1      33.589  27.172  21.702  1.00  0.00    -0.269 OA
ATOM     36  H   UNL A   1      34.035  29.600  23.576  1.00  0.00     0.159 HD
ATOM     37  H   UNL A   1      35.180  28.729  22.662  1.00  0.00     0.159 HD
ENDBRANCH  26  33
ENDBRANCH  14  24
ENDBRANCH   9  11
ENDBRANCH   8   9
ENDBRANCH   7   8
ENDBRANCH   6   7
ENDBRANCH   5   6
ENDBRANCH   4   5
ENDBRANCH   3   4
ENDBRANCH   2   3
ENDBRANCH   1   2
BRANCH   1  38
ATOM     38  C   UNL A   1      39.303  23.077  26.400  1.00  0.00     0.188 C 
BRANCH  38  39
ATOM     39  O   UNL A   1      40.565  23.660  26.682  1.00  0.00    -0.376 OA
BRANCH  39  40
ATOM     40  C   UNL A   1      41.552  23.900  25.697  1.00  0.00     0.202 C 
BRANCH  40  41
ATOM     41  C   UNL A   1      42.666  22.870  25.555  1.00  0.00     0.261 C 
BRANCH  41  42
ATOM     42  O   UNL A   1      43.402  23.022  24.361  1.00  0.00    -0.460 OA
BRANCH  42  43
ATOM     43  C   UNL A   1      44.516  22.275  24.304  1.00  0.00     0.338 C 
ATOM     44  O   UNL A   1      44.633  21.159  23.814  1.00  0.00    -0.246 OA
BRANCH  43  45
ATOM     45  C   UNL A   1      45.567  22.974  25.042  1.00  0.00     0.060 A 
ATOM     46  C   UNL A   1      45.776  22.503  26.334  1.00  0.00     0.016 A 
ATOM     47  C   UNL A   1      45.894  24.279  24.635  1.00  0.00     0.016 A 
ATOM     48  C   UNL A   1      45.931  23.449  27.308  1.00  0.00     0.010 A 
ATOM     49  C   UNL A   1      46.029  25.225  25.610  1.00  0.00     0.010 A 
ATOM     50  C   UNL A   1      45.913  24.795  26.926  1.00  0.00    -0.014 A 
BRANCH  50  51
ATOM     51  C   UNL A   1      45.780  25.764  27.978  1.00  0.00     0.031 A 
ATOM     52  C   UNL A   1      44.398  26.239  28.111  1.00  0.00     0.074 A 
ATOM     53  C   UNL A   1      46.814  26.133  28.752  1.00  0.00     0.049 A 
ATOM     54  N   UNL A   1      43.927  27.376  27.729  1.00  0.00    -0.248 NA
ATOM     55  C   UNL A   1      43.383  25.246  28.493  1.00  0.00     0.031 C 
ATOM     56  C   UNL A   1      48.134  25.514  28.886  1.00  0.00     0.029 A 
ATOM     57  N   UNL A   1      46.830  27.099  29.697  1.00  0.00    -0.354 N 
ATOM     58  C   UNL A   1      42.579  27.323  28.037  1.00  0.00     0.074 A 
ATOM     59  C   UNL A   1      42.266  25.936  28.275  1.00  0.00     0.031 C 
ATOM     60  C   UNL A   1      48.700  25.949  30.038  1.00  0.00     0.029 A 
ATOM     61  C   UNL A   1      47.839  26.959  30.635  1.00  0.00     0.049 A 
ATOM     62  H   UNL A   1      46.181  27.840  29.716  1.00  0.00     0.167 HD
ATOM     63  C   UNL A   1      41.885  28.446  28.361  1.00  0.00     0.031 A 
ATOM     64  C   UNL A   1      47.857  27.543  31.861  1.00  0.00     0.031 A 
ATOM     65  C   UNL A   1      42.591  29.644  27.987  1.00  0.00     0.049 A 
ATOM     66  C   UNL A   1      46.910  28.696  31.807  1.00  0.00     0.074 A 
ATOM     67  C   UNL A   1      43.074  30.140  26.791  1.00  0.00     0.029 A 
ATOM     68  N   UNL A   1      43.270  30.316  28.980  1.00  0.00    -0.354 N 
ATOM     69  N   UNL A   1      47.103  29.746  31.055  1.00  0.00    -0.248 NA
ATOM     70  C   UNL A   1      45.521  28.462  32.189  1.00  0.00     0.031 C 
ATOM     71  C   UNL A   1      44.336  30.719  27.116  1.00  0.00     0.029 A 
ATOM     72  C   UNL A   1      44.521  30.607  28.496  1.00  0.00     0.049 A 
ATOM     73  H   UNL A   1      42.921  30.545  29.872  1.00  0.00     0.167 HD
ATOM     74  C   UNL A   1      45.854  30.052  30.526  1.00  0.00     0.074 A 
ATOM     75  C   UNL A   1      44.906  29.279  31.328  1.00  0.00     0.031 C 
ATOM     76  C   UNL A   1      45.719  30.667  29.311  1.00  0.00     0.031 A 
BRANCH  63  77
ATOM     77  C   UNL A   1      40.789  28.433  29.389  1.00  0.00    -0.014 A 
ATOM     78  C   UNL A   1      39.457  28.580  28.966  1.00  0.00     0.010 A 
ATOM     79  C   UNL A   1      41.043  28.549  30.774  1.00  0.00     0.010 A 
ATOM     80  C   UNL A   1      38.443  28.887  29.881  1.00  0.00     0.020 A 
ATOM     81  C   UNL A   1      40.036  28.803  31.698  1.00  0.00     0.020 A 
ATOM     82  C   UNL A   1      38.745  29.008  31.239  1.00  0.00     0.054 A 
BRANCH  82  83
ATOM     83  S   UNL A   1      37.453  29.512  32.397  1.00  0.00     0.124 S 
ATOM     84  O   UNL A   1      38.029  30.721  32.978  1.00  0.00    -0.237 OA
ATOM     85  O   UNL A   1      36.309  29.713  31.513  1.00  0.00    -0.237 OA
ATOM     86  O   UNL A   1      37.343  28.371  33.303  1.00  0.00    -0.744 OA
ENDBRANCH  82  83
ENDBRANCH  63  77
BRANCH  64  87
ATOM     87  C   UNL A   1      48.299  26.898  33.128  1.00  0.00    -0.014 A 
ATOM     88  C   UNL A   1      49.423  27.360  33.836  1.00  0.00     0.010 A 
ATOM     89  C   UNL A   1      47.458  25.972  33.783  1.00  0.00     0.010 A 
ATOM     90  C   UNL A   1      49.666  26.949  35.160  1.00  0.00     0.020 A 
ATOM     91  C   UNL A   1      47.697  25.549  35.095  1.00  0.00     0.020 A 
ATOM     92  C   UNL A   1      48.790  26.058  35.788  1.00  0.00     0.054 A 
BRANCH  92  93
ATOM     93  S   UNL A   1      49.011  25.656  37.547  1.00  0.00     0.124 S 
ATOM     94  O   UNL A   1      49.309  24.228  37.505  1.00  0.00    -0.237 OA
ATOM     95  O   UNL A   1      50.119  26.524  37.934  1.00  0.00    -0.237 OA
ATOM     96  O   UNL A   1      47.721  26.002  38.143  1.00  0.00    -0.744 OA
ENDBRANCH  92  93
ENDBRANCH  64  87
BRANCH  76  97
ATOM     97  C   UNL A   1      46.950  31.240  28.641  1.00  0.00    -0.014 A 
ATOM     98  C   UNL A   1      47.944  30.453  28.026  1.00  0.00     0.010 A 
ATOM     99  C   UNL A   1      47.007  32.635  28.473  1.00  0.00     0.010 A 
ATOM    100  C   UNL A   1      48.977  31.051  27.283  1.00  0.00     0.020 A 
ATOM    101  C   UNL A   1      48.021  33.234  27.721  1.00  0.00     0.020 A 
ATOM    102  C   UNL A   1      49.007  32.440  27.136  1.00  0.00     0.054 A 
BRANCH 102 103
ATOM    103  S   UNL A   1      50.314  33.207  26.136  1.00  0.00     0.124 S 
ATOM    104  O   UNL A   1      49.567  34.136  25.294  1.00  0.00    -0.237 OA
ATOM    105  O   UNL A   1      51.176  33.822  27.143  1.00  0.00    -0.237 OA
ATOM    106  O   UNL A   1      50.916  32.078  25.426  1.00  0.00    -0.744 OA
ENDBRANCH 102 103
ENDBRANCH  76  97
ENDBRANCH  50  51
ENDBRANCH  43  45
ENDBRANCH  42  43
ENDBRANCH  41  42
ENDBRANCH  40  41
ENDBRANCH  39  40
ENDBRANCH  38  39
ENDBRANCH   1  38
TORSDOF 27
ENDMDL
MODEL 3
REMARK VINA RESULT:      -9.4      4.305      7.688
REMARK SMILES COc1cccc(-c2nn(-c3cc4c(cc3C(N)=O)OCO4)cc2C(=O)OCCOCCOCCOCCOC(=O)c2ccc(-c3c4nc(c(-c5ccc(S(=O)(=O)[O-])cc5)c5ccc([nH]5)c(-c5ccc(S(=O)(=O)[O-])cc5)c5nc(c(-c6ccc(S(=O)(=O)[O-])cc6)c6ccc3[nH]6)C=C5)C=C4)cc2)c1
REMARK SMILES IDX 34 1 33 2 32 3 31 4 30 5 29 6 28 7 27 8 25 9 26 10 24 11
REMARK SMILES IDX 8 12 9 13 10 14 23 15 7 16 3 17 4 18 102 19 5 20 6 21 2 22
REMARK SMILES IDX 1 23 11 24 12 25 16 26 13 27 15 28 14 29 22 30 20 31 21 32
REMARK SMILES IDX 17 33 18 34 19 35 35 38 36 39 37 40 38 41 39 42 40 43 41 44
REMARK SMILES IDX 42 45 43 46 101 47 44 48 100 49 45 50 46 51 47 52 94 53
REMARK SMILES IDX 48 54 99 55 93 56 95 57 49 58 98 59 92 60 91 61 50 63 80 64
REMARK SMILES IDX 61 65 79 66 62 67 65 68 78 69 96 70 63 71 64 72 77 74 97 75
REMARK SMILES IDX 66 76 51 77 52 78 60 79 53 80 59 81 54 82 55 83 56 84 57 85
REMARK SMILES IDX 58 86 81 87 82 88 90 89 83 90 89 91 84 92 85 93 86 94 87 95
REMARK SMILES IDX 88 96 67 97 68 98 76 99 69 100 75 101 70 102 71 103 72 104
REMARK SMILES IDX 73 105 74 106
REMARK H PARENT 18 36 18 37 95 62 65 73
REMARK Flexibility Score: inf
ROOT
ATOM      1  C   UNL A   1      42.587  21.678  27.094  1.00  0.00     0.188 C 
ENDROOT
BRANCH   1   2
ATOM      2  O   UNL A   1      41.371  22.275  27.535  1.00  0.00    -0.377 OA
BRANCH   2   3
ATOM      3  C   UNL A   1      40.151  21.649  27.190  1.00  0.00     0.188 C 
BRANCH   3   4
ATOM      4  C   UNL A   1      39.559  22.070  25.827  1.00  0.00     0.188 C 
BRANCH   4   5
ATOM      5  O   UNL A   1      38.158  21.987  25.680  1.00  0.00    -0.376 OA
BRANCH   5   6
ATOM      6  C   UNL A   1      37.299  23.096  25.841  1.00  0.00     0.202 C 
BRANCH   6   7
ATOM      7  C   UNL A   1      36.018  23.398  25.047  1.00  0.00     0.261 C 
BRANCH   7   8
ATOM      8  O   UNL A   1      34.892  22.550  25.224  1.00  0.00    -0.460 OA
BRANCH   8   9
ATOM      9  C   UNL A   1      33.881  23.022  26.001  1.00  0.00     0.342 C 
ATOM     10  O   UNL A   1      33.958  23.219  27.212  1.00  0.00    -0.246 OA
BRANCH   9  11
ATOM     11  C   UNL A   1      32.739  23.376  25.195  1.00  0.00     0.106 A 
ATOM     12  C   UNL A   1      32.006  22.629  24.230  1.00  0.00     0.107 A 
ATOM     13  N   UNL A   1      31.035  23.379  23.674  1.00  0.00    -0.167 NA
ATOM     14  N   UNL A   1      31.289  24.623  24.156  1.00  0.00    -0.239 N 
ATOM     15  C   UNL A   1      32.037  24.558  25.300  1.00  0.00     0.131 A 
BRANCH  12  16
ATOM     16  C   UNL A   1      32.159  21.214  23.913  1.00  0.00     0.007 A 
ATOM     17  C   UNL A   1      32.267  18.905  24.638  1.00  0.00     0.119 A 
ATOM     18  C   UNL A   1      32.248  18.494  23.301  1.00  0.00     0.046 A 
ATOM     19  C   UNL A   1      32.212  20.267  24.942  1.00  0.00     0.056 A 
ATOM     20  C   UNL A   1      32.203  19.431  22.271  1.00  0.00     0.005 A 
ATOM     21  C   UNL A   1      32.186  20.792  22.577  1.00  0.00     0.011 A 
BRANCH  17  22
ATOM     22  O   UNL A   1      32.362  17.885  25.545  1.00  0.00    -0.497 OA
ATOM     23  C   UNL A   1      33.574  17.141  25.533  1.00  0.00     0.278 C 
ENDBRANCH  17  22
ENDBRANCH  12  16
BRANCH  14  24
ATOM     24  C   UNL A   1      30.790  25.801  23.552  1.00  0.00     0.081 A 
ATOM     25  C   UNL A   1      29.498  26.229  23.912  1.00  0.00     0.079 A 
ATOM     26  C   UNL A   1      31.572  26.537  22.607  1.00  0.00     0.069 A 
ATOM     27  C   UNL A   1      29.055  27.418  23.377  1.00  0.00     0.167 A 
ATOM     28  C   UNL A   1      31.119  27.797  22.190  1.00  0.00     0.066 A 
ATOM     29  C   UNL A   1      29.856  28.190  22.572  1.00  0.00     0.166 A 
ATOM     30  O   UNL A   1      27.820  27.963  23.535  1.00  0.00    -0.454 OA
ATOM     31  O   UNL A   1      29.231  29.316  22.133  1.00  0.00    -0.454 OA
ATOM     32  C   UNL A   1      27.891  29.059  22.599  1.00  0.00     0.468 C 
BRANCH  26  33
ATOM     33  C   UNL A   1      32.695  25.895  21.829  1.00  0.00     0.251 C 
ATOM     34  N   UNL A   1      32.520  24.647  21.302  1.00  0.00    -0.366 N 
ATOM     35  O   UNL A   1      33.809  26.393  21.718  1.00  0.00    -0.269 OA
ATOM     36  H   UNL A   1      31.643  24.204  21.366  1.00  0.00     0.159 HD
ATOM     37  H   UNL A   1      33.271  24.190  20.860  1.00  0.00     0.159 HD
ENDBRANCH  26  33
ENDBRANCH  14  24
ENDBRANCH   9  11
ENDBRANCH   8   9
ENDBRANCH   7   8
ENDBRANCH   6   7
ENDBRANCH   5   6
ENDBRANCH   4   5
ENDBRANCH   3   4
ENDBRANCH   2   3
ENDBRANCH   1   2
BRANCH   1  38
ATOM     38  C   UNL A   1      43.842  22.498  26.674  1.00  0.00     0.188 C 
BRANCH  38  39
ATOM     39  O   UNL A   1      43.636  23.513  25.703  1.00  0.00    -0.376 OA
BRANCH  39  40
ATOM     40  C   UNL A   1      43.950  24.876  25.919  1.00  0.00     0.202 C 
BRANCH  40  41
ATOM     41  C   UNL A   1      43.234  25.587  27.062  1.00  0.00     0.261 C 
BRANCH  41  42
ATOM     42  O   UNL A   1      41.854  25.299  27.105  1.00  0.00    -0.460 OA
BRANCH  42  43
ATOM     43  C   UNL A   1      41.102  26.097  26.330  1.00  0.00     0.338 C 
ATOM     44  O   UNL A   1      41.087  26.136  25.107  1.00  0.00    -0.246 OA
BRANCH  43  45
ATOM     45  C   UNL A   1      40.370  27.014  27.202  1.00  0.00     0.060 A 
ATOM     46  C   UNL A   1      40.547  28.361  26.900  1.00  0.00     0.016 A 
ATOM     47  C   UNL A   1      40.004  26.552  28.478  1.00  0.00     0.016 A 
ATOM     48  C   UNL A   1      40.753  29.199  27.960  1.00  0.00     0.010 A 
ATOM     49  C   UNL A   1      40.229  27.386  29.535  1.00  0.00     0.010 A 
ATOM     50  C   UNL A   1      40.724  28.651  29.247  1.00  0.00    -0.014 A 
BRANCH  50  51
ATOM     51  C   UNL A   1      41.227  29.473  30.311  1.00  0.00     0.031 A 
ATOM     52  C   UNL A   1      40.152  29.957  31.184  1.00  0.00     0.074 A 
ATOM     53  C   UNL A   1      42.538  29.713  30.477  1.00  0.00     0.049 A 
ATOM     54  N   UNL A   1      39.652  31.144  31.219  1.00  0.00    -0.248 NA
ATOM     55  C   UNL A   1      39.388  28.943  31.928  1.00  0.00     0.031 C 
ATOM     56  C   UNL A   1      43.685  29.054  29.849  1.00  0.00     0.029 A 
ATOM     57  N   UNL A   1      43.116  30.545  31.373  1.00  0.00    -0.354 N 
ATOM     58  C   UNL A   1      38.647  31.079  32.168  1.00  0.00     0.074 A 
ATOM     59  C   UNL A   1      38.380  29.680  32.388  1.00  0.00     0.031 C 
ATOM     60  C   UNL A   1      44.792  29.320  30.584  1.00  0.00     0.029 A 
ATOM     61  C   UNL A   1      44.444  30.259  31.639  1.00  0.00     0.049 A 
ATOM     62  H   UNL A   1      42.633  31.290  31.800  1.00  0.00     0.167 HD
ATOM     63  C   UNL A   1      38.314  32.164  32.917  1.00  0.00     0.031 A 
ATOM     64  C   UNL A   1      45.132  30.673  32.734  1.00  0.00     0.031 A 
ATOM     65  C   UNL A   1      38.834  33.386  32.359  1.00  0.00     0.049 A 
ATOM     66  C   UNL A   1      44.393  31.843  33.295  1.00  0.00     0.074 A 
ATOM     67  C   UNL A   1      38.686  34.027  31.143  1.00  0.00     0.029 A 
ATOM     68  N   UNL A   1      39.978  33.904  32.926  1.00  0.00    -0.354 N 
ATOM     69  N   UNL A   1      44.268  32.980  32.663  1.00  0.00    -0.248 NA
ATOM     70  C   UNL A   1      43.375  31.590  34.309  1.00  0.00     0.031 C 
ATOM     71  C   UNL A   1      39.982  34.530  30.832  1.00  0.00     0.029 A 
ATOM     72  C   UNL A   1      40.831  34.230  31.900  1.00  0.00     0.049 A 
ATOM     73  H   UNL A   1      40.151  34.020  33.888  1.00  0.00     0.167 HD
ATOM     74  C   UNL A   1      42.955  33.380  32.887  1.00  0.00     0.074 A 
ATOM     75  C   UNL A   1      42.482  32.528  33.977  1.00  0.00     0.031 C 
ATOM     76  C   UNL A   1      42.277  34.155  31.985  1.00  0.00     0.031 A 
BRANCH  63  77
ATOM     77  C   UNL A   1      37.894  32.037  34.354  1.00  0.00    -0.014 A 
ATOM     78  C   UNL A   1      37.151  33.076  34.940  1.00  0.00     0.010 A 
ATOM     79  C   UNL A   1      38.432  31.059  35.221  1.00  0.00     0.010 A 
ATOM     80  C   UNL A   1      37.006  33.159  36.330  1.00  0.00     0.020 A 
ATOM     81  C   UNL A   1      38.251  31.104  36.599  1.00  0.00     0.020 A 
ATOM     82  C   UNL A   1      37.569  32.177  37.148  1.00  0.00     0.054 A 
BRANCH  82  83
ATOM     83  S   UNL A   1      37.471  32.351  38.944  1.00  0.00     0.124 S 
ATOM     84  O   UNL A   1      37.327  30.962  39.369  1.00  0.00    -0.237 OA
ATOM     85  O   UNL A   1      38.748  32.984  39.260  1.00  0.00    -0.237 OA
ATOM     86  O   UNL A   1      36.295  33.194  39.142  1.00  0.00    -0.744 OA
ENDBRANCH  82  83
ENDBRANCH  63  77
BRANCH  64  87
ATOM     87  C   UNL A   1      46.097  29.856  33.519  1.00  0.00    -0.014 A 
ATOM     88  C   UNL A   1      46.976  30.444  34.446  1.00  0.00     0.010 A 
ATOM     89  C   UNL A   1      45.981  28.448  33.541  1.00  0.00     0.010 A 
ATOM     90  C   UNL A   1      47.672  29.659  35.386  1.00  0.00     0.020 A 
ATOM     91  C   UNL A   1      46.676  27.660  34.464  1.00  0.00     0.020 A 
ATOM     92  C   UNL A   1      47.504  28.271  35.399  1.00  0.00     0.054 A 
BRANCH  92  93
ATOM     93  S   UNL A   1      48.271  27.277  36.713  1.00  0.00     0.124 S 
ATOM     94  O   UNL A   1      48.012  25.913  36.263  1.00  0.00    -0.237 OA
ATOM     95  O   UNL A   1      49.665  27.707  36.664  1.00  0.00    -0.237 OA
ATOM     96  O   UNL A   1      47.545  27.679  37.917  1.00  0.00    -0.744 OA
ENDBRANCH  92  93
ENDBRANCH  64  87
BRANCH  76  97
ATOM     97  C   UNL A   1      43.042  34.786  30.841  1.00  0.00    -0.014 A 
ATOM     98  C   UNL A   1      43.081  34.253  29.537  1.00  0.00     0.010 A 
ATOM     99  C   UNL A   1      43.594  36.061  31.055  1.00  0.00     0.010 A 
ATOM    100  C   UNL A   1      43.676  34.969  28.485  1.00  0.00     0.020 A 
ATOM    101  C   UNL A   1      44.171  36.787  30.009  1.00  0.00     0.020 A 
ATOM    102  C   UNL A   1      44.217  36.234  28.730  1.00  0.00     0.054 A 
BRANCH 102 103
ATOM    103  S   UNL A   1      44.941  37.179  27.358  1.00  0.00     0.124 S 
ATOM    104  O   UNL A   1      43.761  37.659  26.645  1.00  0.00    -0.237 OA
ATOM    105  O   UNL A   1      45.722  38.205  28.046  1.00  0.00    -0.237 OA
ATOM    106  O   UNL A   1      45.738  36.188  26.635  1.00  0.00    -0.744 OA
ENDBRANCH 102 103
ENDBRANCH  76  97
ENDBRANCH  50  51
ENDBRANCH  43  45
ENDBRANCH  42  43
ENDBRANCH  41  42
ENDBRANCH  40  41
ENDBRANCH  39  40
ENDBRANCH  38  39
ENDBRANCH   1  38
TORSDOF 27
ENDMDL
