MODEL 1
REMARK VINA RESULT:      -7.0      0.000      0.000
REMARK SMILES CC(C)C[N@@H+](C1CC1)[C@@H](C)c1ccc(C(=O)OCCOCCOCCOCCOC(=O)c2ccc(-c3c4nc(c(-c5ccc(S(=O)(=O)[O-])cc5)c5ccc([nH]5)c(-c5ccc(S(=O)(=O)[O-])cc5)c5nc(c(-c6ccc(S(=O)(=O)[O-])cc6)c6ccc3[nH]6)C=C5)C=C4)cc2)o1
REMARK SMILES IDX 22 1 21 2 20 3 19 4 18 5 17 6 15 7 16 8 14 9 11 10 12 11
REMARK SMILES IDX 92 12 13 13 9 14 10 15 5 16 4 18 2 19 1 20 3 21 6 22 7 23
REMARK SMILES IDX 8 24 23 25 24 26 25 27 26 28 27 29 28 30 29 31 30 32 31 33
REMARK SMILES IDX 32 34 33 35 91 36 34 37 90 38 35 39 36 40 37 41 84 42 38 43
REMARK SMILES IDX 89 44 83 45 85 46 39 47 88 48 82 49 81 50 40 52 70 53 51 54
REMARK SMILES IDX 69 55 52 56 55 57 68 58 86 59 53 60 54 61 67 63 87 64 56 65
REMARK SMILES IDX 41 66 42 67 50 68 43 69 49 70 44 71 45 72 46 73 47 74 48 75
REMARK SMILES IDX 71 76 72 77 80 78 73 79 79 80 74 81 75 82 76 83 77 84 78 85
REMARK SMILES IDX 57 86 58 87 66 88 59 89 65 90 60 91 61 92 62 93 63 94 64 95
REMARK H PARENT 5 17 85 51 55 62
REMARK Flexibility Score: inf
ROOT
ATOM      1  C   UNL A   1      34.256  34.242  28.335  1.00  0.00     0.188 C 
ENDROOT
BRANCH   1   2
ATOM      2  C   UNL A   1      32.980  33.470  27.962  1.00  0.00     0.188 C 
BRANCH   2   3
ATOM      3  O   UNL A   1      33.269  32.155  27.487  1.00  0.00    -0.376 OA
BRANCH   3   4
ATOM      4  C   UNL A   1      32.183  31.394  26.984  1.00  0.00     0.202 C 
BRANCH   4   5
ATOM      5  C   UNL A   1      32.523  29.917  26.756  1.00  0.00     0.261 C 
BRANCH   5   6
ATOM      6  O   UNL A   1      31.432  29.074  26.353  1.00  0.00    -0.457 OA
BRANCH   6   7
ATOM      7  C   UNL A   1      31.406  28.593  25.082  1.00  0.00     0.374 C 
ATOM      8  O   UNL A   1      30.602  28.927  24.219  1.00  0.00    -0.242 OA
BRANCH   7   9
ATOM      9  C   UNL A   1      32.519  27.695  24.912  1.00  0.00     0.212 A 
ATOM     10  C   UNL A   1      33.677  25.839  25.229  1.00  0.00     0.162 A 
ATOM     11  C   UNL A   1      34.400  26.616  24.344  1.00  0.00     0.053 A 
ATOM     12  O   UNL A   1      32.544  26.512  25.606  1.00  0.00    -0.448 OA
ATOM     13  C   UNL A   1      33.636  27.777  24.101  1.00  0.00     0.059 A 
BRANCH  10  14
ATOM     14  C   UNL A   1      33.948  24.511  25.898  1.00  0.00     0.248 C 
ATOM     15  C   UNL A   1      35.413  24.127  25.635  1.00  0.00     0.084 C 
BRANCH  14  16
ATOM     16  N   UNL A   1      32.951  23.460  25.577  1.00  0.00    -0.324 N 
ATOM     17  H   UNL A   1      32.549  23.916  24.758  1.00  0.00     0.348 HD
BRANCH  16  18
ATOM     18  C   UNL A   1      33.455  22.167  25.081  1.00  0.00     0.265 C 
BRANCH  18  19
ATOM     19  C   UNL A   1      33.095  21.849  23.605  1.00  0.00     0.038 C 
ATOM     20  C   UNL A   1      32.246  20.588  23.454  1.00  0.00     0.013 C 
ATOM     21  C   UNL A   1      32.318  23.026  23.001  1.00  0.00     0.013 C 
ENDBRANCH  18  19
ENDBRANCH  16  18
BRANCH  16  22
ATOM     22  C   UNL A   1      31.815  23.284  26.527  1.00  0.00     0.185 C 
ATOM     23  C   UNL A   1      30.517  24.033  26.306  1.00  0.00     0.071 C 
ATOM     24  C   UNL A   1      30.536  22.537  26.242  1.00  0.00     0.071 C 
ENDBRANCH  16  22
ENDBRANCH  14  16
ENDBRANCH  10  14
ENDBRANCH   7   9
ENDBRANCH   6   7
ENDBRANCH   5   6
ENDBRANCH   4   5
ENDBRANCH   3   4
ENDBRANCH   2   3
ENDBRANCH   1   2
BRANCH   1  25
ATOM     25  O   UNL A   1      35.371  33.490  28.814  1.00  0.00    -0.377 OA
BRANCH  25  26
ATOM     26  C   UNL A   1      35.172  32.825  30.060  1.00  0.00     0.188 C 
BRANCH  26  27
ATOM     27  C   UNL A   1      35.184  33.803  31.251  1.00  0.00     0.188 C 
BRANCH  27  28
ATOM     28  O   UNL A   1      33.980  33.763  32.015  1.00  0.00    -0.376 OA
BRANCH  28  29
ATOM     29  C   UNL A   1      34.102  33.369  33.377  1.00  0.00     0.202 C 
BRANCH  29  30
ATOM     30  C   UNL A   1      35.342  33.848  34.149  1.00  0.00     0.261 C 
BRANCH  30  31
ATOM     31  O   UNL A   1      36.283  32.827  34.526  1.00  0.00    -0.460 OA
BRANCH  31  32
ATOM     32  C   UNL A   1      37.184  33.115  35.488  1.00  0.00     0.338 C 
ATOM     33  O   UNL A   1      36.992  33.717  36.529  1.00  0.00    -0.246 OA
BRANCH  32  34
ATOM     34  C   UNL A   1      38.429  32.396  35.151  1.00  0.00     0.060 A 
ATOM     35  C   UNL A   1      38.452  30.997  35.234  1.00  0.00     0.016 A 
ATOM     36  C   UNL A   1      39.561  33.101  34.734  1.00  0.00     0.016 A 
ATOM     37  C   UNL A   1      39.623  30.302  34.929  1.00  0.00     0.010 A 
ATOM     38  C   UNL A   1      40.737  32.406  34.449  1.00  0.00     0.010 A 
ATOM     39  C   UNL A   1      40.781  31.008  34.576  1.00  0.00    -0.014 A 
BRANCH  39  40
ATOM     40  C   UNL A   1      42.089  30.311  34.544  1.00  0.00     0.031 A 
ATOM     41  C   UNL A   1      42.484  29.611  33.272  1.00  0.00     0.074 A 
ATOM     42  C   UNL A   1      42.905  30.294  35.611  1.00  0.00     0.049 A 
ATOM     43  N   UNL A   1      43.559  28.916  33.009  1.00  0.00    -0.248 NA
ATOM     44  C   UNL A   1      41.536  29.710  32.149  1.00  0.00     0.031 C 
ATOM     45  C   UNL A   1      42.648  30.961  36.886  1.00  0.00     0.029 A 
ATOM     46  N   UNL A   1      44.119  29.679  35.789  1.00  0.00    -0.354 N 
ATOM     47  C   UNL A   1      43.417  28.493  31.692  1.00  0.00     0.074 A 
ATOM     48  C   UNL A   1      42.140  28.984  31.221  1.00  0.00     0.031 C 
ATOM     49  C   UNL A   1      43.676  30.714  37.720  1.00  0.00     0.029 A 
ATOM     50  C   UNL A   1      44.644  29.849  37.047  1.00  0.00     0.049 A 
ATOM     51  H   UNL A   1      44.571  29.165  35.081  1.00  0.00     0.167 HD
ATOM     52  C   UNL A   1      44.273  27.763  30.939  1.00  0.00     0.031 A 
ATOM     53  C   UNL A   1      45.770  29.348  37.595  1.00  0.00     0.031 A 
ATOM     54  C   UNL A   1      45.525  27.247  31.417  1.00  0.00     0.049 A 
ATOM     55  C   UNL A   1      46.671  28.472  36.764  1.00  0.00     0.074 A 
ATOM     56  C   UNL A   1      46.468  26.502  30.731  1.00  0.00     0.029 A 
ATOM     57  N   UNL A   1      46.004  27.409  32.709  1.00  0.00    -0.354 N 
ATOM     58  N   UNL A   1      46.541  28.107  35.510  1.00  0.00    -0.248 NA
ATOM     59  C   UNL A   1      47.875  27.944  37.422  1.00  0.00     0.031 C 
ATOM     60  C   UNL A   1      47.492  26.169  31.624  1.00  0.00     0.029 A 
ATOM     61  C   UNL A   1      47.215  26.754  32.850  1.00  0.00     0.049 A 
ATOM     62  H   UNL A   1      45.548  27.914  33.420  1.00  0.00     0.167 HD
ATOM     63  C   UNL A   1      47.658  27.329  35.222  1.00  0.00     0.074 A 
ATOM     64  C   UNL A   1      48.458  27.283  36.429  1.00  0.00     0.031 C 
ATOM     65  C   UNL A   1      47.996  26.713  34.061  1.00  0.00     0.031 A 
BRANCH  52  66
ATOM     66  C   UNL A   1      43.846  27.449  29.531  1.00  0.00    -0.014 A 
ATOM     67  C   UNL A   1      44.159  28.315  28.467  1.00  0.00     0.010 A 
ATOM     68  C   UNL A   1      43.119  26.274  29.269  1.00  0.00     0.010 A 
ATOM     69  C   UNL A   1      43.707  28.036  27.174  1.00  0.00     0.020 A 
ATOM     70  C   UNL A   1      42.689  25.979  27.973  1.00  0.00     0.020 A 
ATOM     71  C   UNL A   1      42.968  26.873  26.937  1.00  0.00     0.054 A 
BRANCH  71  72
ATOM     72  S   UNL A   1      42.390  26.535  25.253  1.00  0.00     0.124 S 
ATOM     73  O   UNL A   1      43.295  25.467  24.834  1.00  0.00    -0.237 OA
ATOM     74  O   UNL A   1      41.002  26.133  25.463  1.00  0.00    -0.237 OA
ATOM     75  O   UNL A   1      42.568  27.809  24.563  1.00  0.00    -0.744 OA
ENDBRANCH  71  72
ENDBRANCH  52  66
BRANCH  53  76
ATOM     76  C   UNL A   1      46.107  29.660  39.012  1.00  0.00    -0.014 A 
ATOM     77  C   UNL A   1      46.909  30.769  39.330  1.00  0.00     0.010 A 
ATOM     78  C   UNL A   1      45.614  28.851  40.052  1.00  0.00     0.010 A 
ATOM     79  C   UNL A   1      47.214  31.062  40.663  1.00  0.00     0.020 A 
ATOM     80  C   UNL A   1      45.897  29.154  41.386  1.00  0.00     0.020 A 
ATOM     81  C   UNL A   1      46.703  30.256  41.683  1.00  0.00     0.054 A 
BRANCH  81  82
ATOM     82  S   UNL A   1      47.050  30.698  43.409  1.00  0.00     0.124 S 
ATOM     83  O   UNL A   1      46.154  31.829  43.620  1.00  0.00    -0.237 OA
ATOM     84  O   UNL A   1      46.704  29.472  44.125  1.00  0.00    -0.237 OA
ATOM     85  O   UNL A   1      48.476  31.019  43.398  1.00  0.00    -0.744 OA
ENDBRANCH  81  82
ENDBRANCH  53  76
BRANCH  65  86
ATOM     86  C   UNL A   1      49.298  25.958  34.025  1.00  0.00    -0.014 A 
ATOM     87  C   UNL A   1      50.506  26.602  33.703  1.00  0.00     0.010 A 
ATOM     88  C   UNL A   1      49.319  24.596  34.382  1.00  0.00     0.010 A 
ATOM     89  C   UNL A   1      51.708  25.889  33.712  1.00  0.00     0.020 A 
ATOM     90  C   UNL A   1      50.523  23.889  34.417  1.00  0.00     0.020 A 
ATOM     91  C   UNL A   1      51.709  24.538  34.069  1.00  0.00     0.054 A 
BRANCH  91  92
ATOM     92  S   UNL A   1      53.289  23.647  34.119  1.00  0.00     0.124 S 
ATOM     93  O   UNL A   1      53.956  24.275  35.255  1.00  0.00    -0.237 OA
ATOM     94  O   UNL A   1      52.872  22.261  34.321  1.00  0.00    -0.237 OA
ATOM     95  O   UNL A   1      53.885  23.926  32.814  1.00  0.00    -0.744 OA
ENDBRANCH  91  92
ENDBRANCH  65  86
ENDBRANCH  39  40
ENDBRANCH  32  34
ENDBRANCH  31  32
ENDBRANCH  30  31
ENDBRANCH  29  30
ENDBRANCH  28  29
ENDBRANCH  27  28
ENDBRANCH  26  27
ENDBRANCH  25  26
ENDBRANCH   1  25
TORSDOF 28
ENDMDL
MODEL 2
REMARK VINA RESULT:      -6.2      6.234      9.851
REMARK SMILES CC(C)C[N@@H+](C1CC1)[C@@H](C)c1ccc(C(=O)OCCOCCOCCOCCOC(=O)c2ccc(-c3c4nc(c(-c5ccc(S(=O)(=O)[O-])cc5)c5ccc([nH]5)c(-c5ccc(S(=O)(=O)[O-])cc5)c5nc(c(-c6ccc(S(=O)(=O)[O-])cc6)c6ccc3[nH]6)C=C5)C=C4)cc2)o1
REMARK SMILES IDX 22 1 21 2 20 3 19 4 18 5 17 6 15 7 16 8 14 9 11 10 12 11
REMARK SMILES IDX 92 12 13 13 9 14 10 15 5 16 4 18 2 19 1 20 3 21 6 22 7 23
REMARK SMILES IDX 8 24 23 25 24 26 25 27 26 28 27 29 28 30 29 31 30 32 31 33
REMARK SMILES IDX 32 34 33 35 91 36 34 37 90 38 35 39 36 40 37 41 84 42 38 43
REMARK SMILES IDX 89 44 83 45 85 46 39 47 88 48 82 49 81 50 40 52 70 53 51 54
REMARK SMILES IDX 69 55 52 56 55 57 68 58 86 59 53 60 54 61 67 63 87 64 56 65
REMARK SMILES IDX 41 66 42 67 50 68 43 69 49 70 44 71 45 72 46 73 47 74 48 75
REMARK SMILES IDX 71 76 72 77 80 78 73 79 79 80 74 81 75 82 76 83 77 84 78 85
REMARK SMILES IDX 57 86 58 87 66 88 59 89 65 90 60 91 61 92 62 93 63 94 64 95
REMARK H PARENT 5 17 85 51 55 62
REMARK Flexibility Score: inf
ROOT
ATOM      1  C   UNL A   1      44.029  39.948  28.278  1.00  0.00     0.188 C 
ENDROOT
BRANCH   1   2
ATOM      2  C   UNL A   1      43.780  38.941  27.144  1.00  0.00     0.188 C 
BRANCH   2   3
ATOM      3  O   UNL A   1      44.313  37.651  27.445  1.00  0.00    -0.376 OA
BRANCH   3   4
ATOM      4  C   UNL A   1      43.587  36.525  26.978  1.00  0.00     0.202 C 
BRANCH   4   5
ATOM      5  C   UNL A   1      44.478  35.340  26.592  1.00  0.00     0.261 C 
BRANCH   5   6
ATOM      6  O   UNL A   1      43.856  34.045  26.624  1.00  0.00    -0.457 OA
BRANCH   6   7
ATOM      7  C   UNL A   1      44.246  33.104  25.724  1.00  0.00     0.374 C 
ATOM      8  O   UNL A   1      44.516  33.322  24.549  1.00  0.00    -0.242 OA
BRANCH   7   9
ATOM      9  C   UNL A   1      44.357  31.840  26.408  1.00  0.00     0.212 A 
ATOM     10  C   UNL A   1      43.819  29.747  26.872  1.00  0.00     0.162 A 
ATOM     11  C   UNL A   1      44.900  30.070  27.671  1.00  0.00     0.053 A 
ATOM     12  O   UNL A   1      43.463  30.840  26.125  1.00  0.00    -0.448 OA
ATOM     13  C   UNL A   1      45.276  31.388  27.336  1.00  0.00     0.059 A 
BRANCH  10  14
ATOM     14  C   UNL A   1      42.946  28.518  26.761  1.00  0.00     0.248 C 
ATOM     15  C   UNL A   1      41.737  28.863  25.876  1.00  0.00     0.084 C 
BRANCH  14  16
ATOM     16  N   UNL A   1      42.619  27.891  28.064  1.00  0.00    -0.324 N 
ATOM     17  H   UNL A   1      43.193  28.502  28.644  1.00  0.00     0.348 HD
BRANCH  16  18
ATOM     18  C   UNL A   1      41.248  28.059  28.580  1.00  0.00     0.265 C 
BRANCH  18  19
ATOM     19  C   UNL A   1      41.139  28.885  29.888  1.00  0.00     0.038 C 
ATOM     20  C   UNL A   1      40.621  28.070  31.071  1.00  0.00     0.013 C 
ATOM     21  C   UNL A   1      42.519  29.446  30.258  1.00  0.00     0.013 C 
ENDBRANCH  18  19
ENDBRANCH  16  18
BRANCH  16  22
ATOM     22  C   UNL A   1      43.138  26.515  28.309  1.00  0.00     0.185 C 
ATOM     23  C   UNL A   1      44.512  26.317  28.915  1.00  0.00     0.071 C 
ATOM     24  C   UNL A   1      43.295  25.860  29.659  1.00  0.00     0.071 C 
ENDBRANCH  16  22
ENDBRANCH  14  16
ENDBRANCH  10  14
ENDBRANCH   7   9
ENDBRANCH   6   7
ENDBRANCH   5   6
ENDBRANCH   4   5
ENDBRANCH   3   4
ENDBRANCH   2   3
ENDBRANCH   1   2
BRANCH   1  25
ATOM     25  O   UNL A   1      43.118  39.949  29.377  1.00  0.00    -0.377 OA
BRANCH  25  26
ATOM     26  C   UNL A   1      42.951  41.203  30.034  1.00  0.00     0.188 C 
BRANCH  26  27
ATOM     27  C   UNL A   1      41.571  41.327  30.710  1.00  0.00     0.188 C 
BRANCH  27  28
ATOM     28  O   UNL A   1      41.655  41.424  32.131  1.00  0.00    -0.376 OA
BRANCH  28  29
ATOM     29  C   UNL A   1      42.666  42.278  32.654  1.00  0.00     0.202 C 
BRANCH  29  30
ATOM     30  C   UNL A   1      42.399  42.954  34.008  1.00  0.00     0.261 C 
BRANCH  30  31
ATOM     31  O   UNL A   1      43.091  42.397  35.138  1.00  0.00    -0.460 OA
BRANCH  31  32
ATOM     32  C   UNL A   1      44.426  42.218  35.042  1.00  0.00     0.338 C 
ATOM     33  O   UNL A   1      45.296  43.063  35.139  1.00  0.00    -0.246 OA
BRANCH  32  34
ATOM     34  C   UNL A   1      44.670  40.762  34.992  1.00  0.00     0.060 A 
ATOM     35  C   UNL A   1      45.051  40.177  33.777  1.00  0.00     0.016 A 
ATOM     36  C   UNL A   1      44.542  39.984  36.146  1.00  0.00     0.016 A 
ATOM     37  C   UNL A   1      45.274  38.801  33.709  1.00  0.00     0.010 A 
ATOM     38  C   UNL A   1      44.747  38.606  36.071  1.00  0.00     0.010 A 
ATOM     39  C   UNL A   1      45.082  38.006  34.847  1.00  0.00    -0.014 A 
BRANCH  39  40
ATOM     40  C   UNL A   1      45.024  36.531  34.716  1.00  0.00     0.031 A 
ATOM     41  C   UNL A   1      43.678  35.893  34.507  1.00  0.00     0.074 A 
ATOM     42  C   UNL A   1      46.132  35.773  34.784  1.00  0.00     0.049 A 
ATOM     43  N   UNL A   1      43.369  34.628  34.392  1.00  0.00    -0.248 NA
ATOM     44  C   UNL A   1      42.527  36.808  34.420  1.00  0.00     0.031 C 
ATOM     45  C   UNL A   1      47.494  36.275  34.950  1.00  0.00     0.029 A 
ATOM     46  N   UNL A   1      46.279  34.409  34.727  1.00  0.00    -0.354 N 
ATOM     47  C   UNL A   1      41.990  34.594  34.219  1.00  0.00     0.074 A 
ATOM     48  C   UNL A   1      41.519  35.962  34.275  1.00  0.00     0.031 C 
ATOM     49  C   UNL A   1      48.341  35.230  34.987  1.00  0.00     0.029 A 
ATOM     50  C   UNL A   1      47.577  33.988  34.878  1.00  0.00     0.049 A 
ATOM     51  H   UNL A   1      45.523  33.792  34.590  1.00  0.00     0.167 HD
ATOM     52  C   UNL A   1      41.184  33.523  34.028  1.00  0.00     0.031 A 
ATOM     53  C   UNL A   1      48.086  32.740  34.937  1.00  0.00     0.031 A 
ATOM     54  C   UNL A   1      41.648  32.163  34.007  1.00  0.00     0.049 A 
ATOM     55  C   UNL A   1      47.162  31.557  34.801  1.00  0.00     0.074 A 
ATOM     56  C   UNL A   1      40.914  31.006  33.812  1.00  0.00     0.029 A 
ATOM     57  N   UNL A   1      42.965  31.775  34.201  1.00  0.00    -0.354 N 
ATOM     58  N   UNL A   1      45.865  31.541  34.605  1.00  0.00    -0.248 NA
ATOM     59  C   UNL A   1      47.774  30.224  34.889  1.00  0.00     0.031 C 
ATOM     60  C   UNL A   1      41.780  29.916  33.942  1.00  0.00     0.029 A 
ATOM     61  C   UNL A   1      43.063  30.395  34.161  1.00  0.00     0.049 A 
ATOM     62  H   UNL A   1      43.719  32.391  34.347  1.00  0.00     0.167 HD
ATOM     63  C   UNL A   1      45.509  30.198  34.521  1.00  0.00     0.074 A 
ATOM     64  C   UNL A   1      46.729  29.433  34.678  1.00  0.00     0.031 C 
ATOM     65  C   UNL A   1      44.285  29.648  34.325  1.00  0.00     0.031 A 
BRANCH  52  66
ATOM     66  C   UNL A   1      39.713  33.793  33.874  1.00  0.00    -0.014 A 
ATOM     67  C   UNL A   1      38.848  33.764  34.984  1.00  0.00     0.010 A 
ATOM     68  C   UNL A   1      39.187  34.074  32.601  1.00  0.00     0.010 A 
ATOM     69  C   UNL A   1      37.476  33.962  34.814  1.00  0.00     0.020 A 
ATOM     70  C   UNL A   1      37.818  34.299  32.431  1.00  0.00     0.020 A 
ATOM     71  C   UNL A   1      36.968  34.221  33.537  1.00  0.00     0.054 A 
BRANCH  71  72
ATOM     72  S   UNL A   1      35.183  34.471  33.342  1.00  0.00     0.124 S 
ATOM     73  O   UNL A   1      35.039  34.479  31.888  1.00  0.00    -0.237 OA
ATOM     74  O   UNL A   1      34.619  33.308  34.021  1.00  0.00    -0.237 OA
ATOM     75  O   UNL A   1      34.939  35.751  33.999  1.00  0.00    -0.744 OA
ENDBRANCH  71  72
ENDBRANCH  52  66
BRANCH  53  76
ATOM     76  C   UNL A   1      49.548  32.545  35.141  1.00  0.00    -0.014 A 
ATOM     77  C   UNL A   1      50.083  32.444  36.436  1.00  0.00     0.010 A 
ATOM     78  C   UNL A   1      50.410  32.447  34.033  1.00  0.00     0.010 A 
ATOM     79  C   UNL A   1      51.456  32.250  36.621  1.00  0.00     0.020 A 
ATOM     80  C   UNL A   1      51.780  32.230  34.214  1.00  0.00     0.020 A 
ATOM     81  C   UNL A   1      52.295  32.140  35.509  1.00  0.00     0.054 A 
BRANCH  81  82
ATOM     82  S   UNL A   1      54.062  31.815  35.771  1.00  0.00     0.124 S 
ATOM     83  O   UNL A   1      54.625  32.122  34.461  1.00  0.00    -0.237 OA
ATOM     84  O   UNL A   1      54.399  32.750  36.841  1.00  0.00    -0.237 OA
ATOM     85  O   UNL A   1      54.096  30.406  36.154  1.00  0.00    -0.744 OA
ENDBRANCH  81  82
ENDBRANCH  53  76
BRANCH  65  86
ATOM     86  C   UNL A   1      44.200  28.147  34.240  1.00  0.00    -0.014 A 
ATOM     87  C   UNL A   1      44.418  27.472  33.026  1.00  0.00     0.010 A 
ATOM     88  C   UNL A   1      43.960  27.400  35.408  1.00  0.00     0.010 A 
ATOM     89  C   UNL A   1      44.371  26.076  32.978  1.00  0.00     0.020 A 
ATOM     90  C   UNL A   1      43.939  26.003  35.368  1.00  0.00     0.020 A 
ATOM     91  C   UNL A   1      44.132  25.351  34.149  1.00  0.00     0.054 A 
BRANCH  91  92
ATOM     92  S   UNL A   1      44.123  23.538  34.070  1.00  0.00     0.124 S 
ATOM     93  O   UNL A   1      44.009  23.297  32.635  1.00  0.00    -0.237 OA
ATOM     94  O   UNL A   1      45.408  23.182  34.667  1.00  0.00    -0.237 OA
ATOM     95  O   UNL A   1      42.952  23.163  34.860  1.00  0.00    -0.744 OA
ENDBRANCH  91  92
ENDBRANCH  65  86
ENDBRANCH  39  40
ENDBRANCH  32  34
ENDBRANCH  31  32
ENDBRANCH  30  31
ENDBRANCH  29  30
ENDBRANCH  28  29
ENDBRANCH  27  28
ENDBRANCH  26  27
ENDBRANCH  25  26
ENDBRANCH   1  25
TORSDOF 28
ENDMDL
MODEL 3
REMARK VINA RESULT:      -6.2      8.414     10.613
REMARK SMILES CC(C)C[N@@H+](C1CC1)[C@@H](C)c1ccc(C(=O)OCCOCCOCCOCCOC(=O)c2ccc(-c3c4nc(c(-c5ccc(S(=O)(=O)[O-])cc5)c5ccc([nH]5)c(-c5ccc(S(=O)(=O)[O-])cc5)c5nc(c(-c6ccc(S(=O)(=O)[O-])cc6)c6ccc3[nH]6)C=C5)C=C4)cc2)o1
REMARK SMILES IDX 22 1 21 2 20 3 19 4 18 5 17 6 15 7 16 8 14 9 11 10 12 11
REMARK SMILES IDX 92 12 13 13 9 14 10 15 5 16 4 18 2 19 1 20 3 21 6 22 7 23
REMARK SMILES IDX 8 24 23 25 24 26 25 27 26 28 27 29 28 30 29 31 30 32 31 33
REMARK SMILES IDX 32 34 33 35 91 36 34 37 90 38 35 39 36 40 37 41 84 42 38 43
REMARK SMILES IDX 89 44 83 45 85 46 39 47 88 48 82 49 81 50 40 52 70 53 51 54
REMARK SMILES IDX 69 55 52 56 55 57 68 58 86 59 53 60 54 61 67 63 87 64 56 65
REMARK SMILES IDX 41 66 42 67 50 68 43 69 49 70 44 71 45 72 46 73 47 74 48 75
REMARK SMILES IDX 71 76 72 77 80 78 73 79 79 80 74 81 75 82 76 83 77 84 78 85
REMARK SMILES IDX 57 86 58 87 66 88 59 89 65 90 60 91 61 92 62 93 63 94 64 95
REMARK H PARENT 5 17 85 51 55 62
REMARK Flexibility Score: inf
ROOT
ATOM      1  C   UNL A   1      34.865  34.602  33.712  1.00  0.00     0.188 C 
ENDROOT
BRANCH   1   2
ATOM      2  C   UNL A   1      33.695  34.746  32.725  1.00  0.00     0.188 C 
BRANCH   2   3
ATOM      3  O   UNL A   1      33.775  33.801  31.657  1.00  0.00    -0.376 OA
BRANCH   3   4
ATOM      4  C   UNL A   1      34.639  34.116  30.577  1.00  0.00     0.202 C 
BRANCH   4   5
ATOM      5  C   UNL A   1      33.941  34.106  29.212  1.00  0.00     0.261 C 
BRANCH   5   6
ATOM      6  O   UNL A   1      33.787  32.820  28.592  1.00  0.00    -0.457 OA
BRANCH   6   7
ATOM      7  C   UNL A   1      34.809  32.319  27.849  1.00  0.00     0.374 C 
ATOM      8  O   UNL A   1      35.845  32.916  27.584  1.00  0.00    -0.242 OA
BRANCH   7   9
ATOM      9  C   UNL A   1      34.494  30.956  27.502  1.00  0.00     0.212 A 
ATOM     10  C   UNL A   1      33.284  29.330  26.621  1.00  0.00     0.162 A 
ATOM     11  C   UNL A   1      34.422  28.745  27.144  1.00  0.00     0.053 A 
ATOM     12  O   UNL A   1      33.309  30.678  26.871  1.00  0.00    -0.448 OA
ATOM     13  C   UNL A   1      35.218  29.789  27.660  1.00  0.00     0.059 A 
BRANCH  10  14
ATOM     14  C   UNL A   1      32.044  28.772  25.960  1.00  0.00     0.248 C 
ATOM     15  C   UNL A   1      31.445  27.700  26.885  1.00  0.00     0.084 C 
BRANCH  14  16
ATOM     16  N   UNL A   1      32.249  28.351  24.553  1.00  0.00    -0.324 N 
ATOM     17  H   UNL A   1      33.086  28.906  24.378  1.00  0.00     0.348 HD
BRANCH  16  18
ATOM     18  C   UNL A   1      32.661  26.957  24.308  1.00  0.00     0.265 C 
BRANCH  18  19
ATOM     19  C   UNL A   1      32.534  26.487  22.835  1.00  0.00     0.038 C 
ATOM     20  C   UNL A   1      33.625  27.053  21.929  1.00  0.00     0.013 C 
ATOM     21  C   UNL A   1      32.607  24.955  22.775  1.00  0.00     0.013 C 
ENDBRANCH  18  19
ENDBRANCH  16  18
BRANCH  16  22
ATOM     22  C   UNL A   1      31.250  28.817  23.549  1.00  0.00     0.185 C 
ATOM     23  C   UNL A   1      29.805  28.375  23.653  1.00  0.00     0.071 C 
ATOM     24  C   UNL A   1      30.155  29.824  23.799  1.00  0.00     0.071 C 
ENDBRANCH  16  22
ENDBRANCH  14  16
ENDBRANCH  10  14
ENDBRANCH   7   9
ENDBRANCH   6   7
ENDBRANCH   5   6
ENDBRANCH   4   5
ENDBRANCH   3   4
ENDBRANCH   2   3
ENDBRANCH   1   2
BRANCH   1  25
ATOM     25  O   UNL A   1      35.072  33.325  34.314  1.00  0.00    -0.377 OA
BRANCH  25  26
ATOM     26  C   UNL A   1      36.406  32.825  34.249  1.00  0.00     0.188 C 
BRANCH  26  27
ATOM     27  C   UNL A   1      37.304  33.680  33.333  1.00  0.00     0.188 C 
BRANCH  27  28
ATOM     28  O   UNL A   1      38.622  33.150  33.195  1.00  0.00    -0.376 OA
BRANCH  28  29
ATOM     29  C   UNL A   1      38.895  31.934  33.882  1.00  0.00     0.202 C 
BRANCH  29  30
ATOM     30  C   UNL A   1      39.643  30.833  33.113  1.00  0.00     0.261 C 
BRANCH  30  31
ATOM     31  O   UNL A   1      40.406  31.268  31.974  1.00  0.00    -0.460 OA
BRANCH  31  32
ATOM     32  C   UNL A   1      41.360  30.443  31.493  1.00  0.00     0.338 C 
ATOM     33  O   UNL A   1      41.334  29.227  31.447  1.00  0.00    -0.246 OA
BRANCH  32  34
ATOM     34  C   UNL A   1      42.381  31.287  30.842  1.00  0.00     0.060 A 
ATOM     35  C   UNL A   1      42.530  31.225  29.450  1.00  0.00     0.016 A 
ATOM     36  C   UNL A   1      43.172  32.153  31.603  1.00  0.00     0.016 A 
ATOM     37  C   UNL A   1      43.497  32.009  28.819  1.00  0.00     0.010 A 
ATOM     38  C   UNL A   1      44.152  32.920  30.973  1.00  0.00     0.010 A 
ATOM     39  C   UNL A   1      44.340  32.827  29.584  1.00  0.00    -0.014 A 
BRANCH  39  40
ATOM     40  C   UNL A   1      45.548  33.424  28.968  1.00  0.00     0.031 A 
ATOM     41  C   UNL A   1      46.658  32.500  28.551  1.00  0.00     0.074 A 
ATOM     42  C   UNL A   1      45.663  34.750  28.784  1.00  0.00     0.049 A 
ATOM     43  N   UNL A   1      47.818  32.783  28.019  1.00  0.00    -0.248 NA
ATOM     44  C   UNL A   1      46.428  31.061  28.768  1.00  0.00     0.031 C 
ATOM     45  C   UNL A   1      44.645  35.745  29.116  1.00  0.00     0.029 A 
ATOM     46  N   UNL A   1      46.703  35.489  28.276  1.00  0.00    -0.354 N 
ATOM     47  C   UNL A   1      48.455  31.561  27.837  1.00  0.00     0.074 A 
ATOM     48  C   UNL A   1      47.567  30.537  28.344  1.00  0.00     0.031 C 
ATOM     49  C   UNL A   1      45.115  36.968  28.807  1.00  0.00     0.029 A 
ATOM     50  C   UNL A   1      46.475  36.843  28.285  1.00  0.00     0.049 A 
ATOM     51  H   UNL A   1      47.535  35.084  27.938  1.00  0.00     0.167 HD
ATOM     52  C   UNL A   1      49.670  31.310  27.295  1.00  0.00     0.031 A 
ATOM     53  C   UNL A   1      47.279  37.864  27.926  1.00  0.00     0.031 A 
ATOM     54  C   UNL A   1      50.566  32.329  26.823  1.00  0.00     0.049 A 
ATOM     55  C   UNL A   1      48.659  37.568  27.399  1.00  0.00     0.074 A 
ATOM     56  C   UNL A   1      51.816  32.179  26.250  1.00  0.00     0.029 A 
ATOM     57  N   UNL A   1      50.313  33.692  26.883  1.00  0.00    -0.354 N 
ATOM     58  N   UNL A   1      49.236  36.406  27.202  1.00  0.00    -0.248 NA
ATOM     59  C   UNL A   1      49.495  38.723  27.040  1.00  0.00     0.031 C 
ATOM     60  C   UNL A   1      52.341  33.454  26.013  1.00  0.00     0.029 A 
ATOM     61  C   UNL A   1      51.395  34.396  26.385  1.00  0.00     0.049 A 
ATOM     62  H   UNL A   1      49.486  34.098  27.231  1.00  0.00     0.167 HD
ATOM     63  C   UNL A   1      50.492  36.689  26.672  1.00  0.00     0.074 A 
ATOM     64  C   UNL A   1      50.587  38.131  26.571  1.00  0.00     0.031 C 
ATOM     65  C   UNL A   1      51.476  35.833  26.297  1.00  0.00     0.031 A 
BRANCH  52  66
ATOM     66  C   UNL A   1      50.107  29.872  27.232  1.00  0.00    -0.014 A 
ATOM     67  C   UNL A   1      50.780  29.269  28.310  1.00  0.00     0.010 A 
ATOM     68  C   UNL A   1      49.844  29.116  26.076  1.00  0.00     0.010 A 
ATOM     69  C   UNL A   1      51.227  27.949  28.213  1.00  0.00     0.020 A 
ATOM     70  C   UNL A   1      50.267  27.787  25.986  1.00  0.00     0.020 A 
ATOM     71  C   UNL A   1      50.974  27.218  27.048  1.00  0.00     0.054 A 
BRANCH  71  72
ATOM     72  S   UNL A   1      51.567  25.508  26.944  1.00  0.00     0.124 S 
ATOM     73  O   UNL A   1      52.894  25.614  27.546  1.00  0.00    -0.237 OA
ATOM     74  O   UNL A   1      50.578  24.776  27.731  1.00  0.00    -0.237 OA
ATOM     75  O   UNL A   1      51.554  25.223  25.512  1.00  0.00    -0.744 OA
ENDBRANCH  71  72
ENDBRANCH  52  66
BRANCH  53  76
ATOM     76  C   UNL A   1      46.801  39.267  28.061  1.00  0.00    -0.014 A 
ATOM     77  C   UNL A   1      47.124  40.029  29.197  1.00  0.00     0.010 A 
ATOM     78  C   UNL A   1      46.028  39.853  27.042  1.00  0.00     0.010 A 
ATOM     79  C   UNL A   1      46.679  41.350  29.314  1.00  0.00     0.020 A 
ATOM     80  C   UNL A   1      45.602  41.181  27.144  1.00  0.00     0.020 A 
ATOM     81  C   UNL A   1      45.925  41.919  28.284  1.00  0.00     0.054 A 
BRANCH  81  82
ATOM     82  S   UNL A   1      45.422  43.658  28.423  1.00  0.00     0.124 S 
ATOM     83  O   UNL A   1      44.408  43.599  29.469  1.00  0.00    -0.237 OA
ATOM     84  O   UNL A   1      46.672  44.320  28.788  1.00  0.00    -0.237 OA
ATOM     85  O   UNL A   1      44.927  43.977  27.086  1.00  0.00    -0.744 OA
ENDBRANCH  81  82
ENDBRANCH  53  76
BRANCH  65  86
ATOM     86  C   UNL A   1      52.732  36.425  25.716  1.00  0.00    -0.014 A 
ATOM     87  C   UNL A   1      53.855  36.688  26.519  1.00  0.00     0.010 A 
ATOM     88  C   UNL A   1      52.808  36.662  24.330  1.00  0.00     0.010 A 
ATOM     89  C   UNL A   1      55.023  37.203  25.951  1.00  0.00     0.020 A 
ATOM     90  C   UNL A   1      53.984  37.152  23.756  1.00  0.00     0.020 A 
ATOM     91  C   UNL A   1      55.080  37.432  24.573  1.00  0.00     0.054 A 
BRANCH  91  92
ATOM     92  S   UNL A   1      56.624  38.056  23.853  1.00  0.00     0.124 S 
ATOM     93  O   UNL A   1      56.874  39.249  24.656  1.00  0.00    -0.237 OA
ATOM     94  O   UNL A   1      57.552  36.947  24.068  1.00  0.00    -0.237 OA
ATOM     95  O   UNL A   1      56.277  38.306  22.456  1.00  0.00    -0.744 OA
ENDBRANCH  91  92
ENDBRANCH  65  86
ENDBRANCH  39  40
ENDBRANCH  32  34
ENDBRANCH  31  32
ENDBRANCH  30  31
ENDBRANCH  29  30
ENDBRANCH  28  29
ENDBRANCH  27  28
ENDBRANCH  26  27
ENDBRANCH  25  26
ENDBRANCH   1  25
TORSDOF 28
ENDMDL
