MODEL 1
REMARK VINA RESULT:      -8.9      0.000      0.000
REMARK SMILES CCCc1nc(C[N@H+]2CCCC[C@@H]2C(=O)OCCOCCOCCOCCOC(=O)c2ccc(-c3c4nc(c(-c5ccc(S(=O)(=O)[O-])cc5)c5ccc([nH]5)c(-c5ccc(S(=O)(=O)[O-])cc5)c5nc(c(-c6ccc(S(=O)(=O)[O-])cc6)c6ccc3[nH]6)C=C5)C=C4)cc2)cs1
REMARK SMILES IDX 21 1 20 2 19 3 18 4 17 5 16 6 14 7 15 8 13 9 8 10 9 11 10 13
REMARK SMILES IDX 12 14 11 15 7 16 6 17 4 18 5 19 92 20 91 21 3 22 2 23 1 24
REMARK SMILES IDX 22 25 23 26 24 27 25 28 26 29 27 30 28 31 29 32 30 33 31 34
REMARK SMILES IDX 32 35 90 36 33 37 89 38 34 39 35 40 36 41 83 42 37 43 88 44
REMARK SMILES IDX 82 45 84 46 38 47 87 48 81 49 80 50 39 52 69 53 50 54 68 55
REMARK SMILES IDX 51 56 54 57 67 58 85 59 52 60 53 61 66 63 86 64 55 65 40 66
REMARK SMILES IDX 41 67 49 68 42 69 48 70 43 71 44 72 45 73 46 74 47 75 70 76
REMARK SMILES IDX 71 77 79 78 72 79 78 80 73 81 74 82 75 83 76 84 77 85 56 86
REMARK SMILES IDX 57 87 65 88 58 89 64 90 59 91 60 92 61 93 62 94 63 95
REMARK H PARENT 8 12 84 51 54 62
REMARK Flexibility Score: inf
ROOT
ATOM      1  C   UNL A   1      36.019  22.289  24.188  1.00  0.00     0.188 C 
ENDROOT
BRANCH   1   2
ATOM      2  C   UNL A   1      35.204  21.391  25.126  1.00  0.00     0.188 C 
BRANCH   2   3
ATOM      3  O   UNL A   1      33.882  21.789  25.392  1.00  0.00    -0.376 OA
BRANCH   3   4
ATOM      4  C   UNL A   1      33.475  23.096  25.756  1.00  0.00     0.202 C 
BRANCH   4   5
ATOM      5  C   UNL A   1      32.650  24.130  24.953  1.00  0.00     0.261 C 
BRANCH   5   6
ATOM      6  O   UNL A   1      32.863  24.284  23.553  1.00  0.00    -0.459 OA
BRANCH   6   7
ATOM      7  C   UNL A   1      33.251  25.532  23.225  1.00  0.00     0.364 C 
ATOM      8  O   UNL A   1      33.771  25.780  22.137  1.00  0.00    -0.245 OA
BRANCH   7   9
ATOM      9  C   UNL A   1      32.914  26.634  24.260  1.00  0.00     0.295 C 
ATOM     10  N   UNL A   1      31.945  27.611  23.704  1.00  0.00    -0.318 N 
ATOM     11  C   UNL A   1      31.461  28.569  24.705  1.00  0.00     0.263 C 
ATOM     12  H   UNL A   1      32.501  28.126  23.021  1.00  0.00     0.349 HD
ATOM     13  C   UNL A   1      32.604  29.298  25.415  1.00  0.00     0.062 C 
ATOM     14  C   UNL A   1      34.103  27.380  24.891  1.00  0.00     0.078 C 
ATOM     15  C   UNL A   1      33.604  28.313  25.998  1.00  0.00     0.013 C 
BRANCH  10  16
ATOM     16  C   UNL A   1      30.834  27.032  22.922  1.00  0.00     0.321 C 
BRANCH  16  17
ATOM     17  C   UNL A   1      29.585  27.873  22.822  1.00  0.00     0.106 A 
ATOM     18  C   UNL A   1      28.593  29.706  22.061  1.00  0.00     0.093 A 
ATOM     19  N   UNL A   1      29.678  28.974  21.997  1.00  0.00    -0.240 NA
ATOM     20  S   UNL A   1      27.315  29.051  22.985  1.00  0.00    -0.127 S 
ATOM     21  C   UNL A   1      28.326  27.722  23.379  1.00  0.00     0.096 A 
BRANCH  18  22
ATOM     22  C   UNL A   1      28.502  31.038  21.404  1.00  0.00     0.067 C 
BRANCH  22  23
ATOM     23  C   UNL A   1      28.467  32.170  22.441  1.00  0.00     0.004 C 
ATOM     24  C   UNL A   1      29.054  31.804  23.804  1.00  0.00     0.004 C 
ENDBRANCH  22  23
ENDBRANCH  18  22
ENDBRANCH  16  17
ENDBRANCH  10  16
ENDBRANCH   7   9
ENDBRANCH   6   7
ENDBRANCH   5   6
ENDBRANCH   4   5
ENDBRANCH   3   4
ENDBRANCH   2   3
ENDBRANCH   1   2
BRANCH   1  25
ATOM     25  O   UNL A   1      37.416  22.310  24.387  1.00  0.00    -0.377 OA
BRANCH  25  26
ATOM     26  C   UNL A   1      37.968  21.995  25.660  1.00  0.00     0.188 C 
BRANCH  26  27
ATOM     27  C   UNL A   1      38.873  22.995  26.410  1.00  0.00     0.188 C 
BRANCH  27  28
ATOM     28  O   UNL A   1      40.042  22.431  26.976  1.00  0.00    -0.376 OA
BRANCH  28  29
ATOM     29  C   UNL A   1      41.046  21.951  26.097  1.00  0.00     0.202 C 
BRANCH  29  30
ATOM     30  C   UNL A   1      42.415  22.650  26.126  1.00  0.00     0.261 C 
BRANCH  30  31
ATOM     31  O   UNL A   1      42.515  23.848  26.912  1.00  0.00    -0.460 OA
BRANCH  31  32
ATOM     32  C   UNL A   1      42.344  25.036  26.296  1.00  0.00     0.338 C 
ATOM     33  O   UNL A   1      42.364  25.250  25.095  1.00  0.00    -0.246 OA
BRANCH  32  34
ATOM     34  C   UNL A   1      41.917  26.018  27.315  1.00  0.00     0.060 A 
ATOM     35  C   UNL A   1      42.645  27.207  27.467  1.00  0.00     0.016 A 
ATOM     36  C   UNL A   1      40.803  25.764  28.118  1.00  0.00     0.016 A 
ATOM     37  C   UNL A   1      42.293  28.121  28.459  1.00  0.00     0.010 A 
ATOM     38  C   UNL A   1      40.466  26.670  29.127  1.00  0.00     0.010 A 
ATOM     39  C   UNL A   1      41.236  27.830  29.330  1.00  0.00    -0.014 A 
BRANCH  39  40
ATOM     40  C   UNL A   1      41.086  28.600  30.588  1.00  0.00     0.031 A 
ATOM     41  C   UNL A   1      40.007  29.649  30.648  1.00  0.00     0.074 A 
ATOM     42  C   UNL A   1      41.868  28.371  31.658  1.00  0.00     0.049 A 
ATOM     43  N   UNL A   1      39.720  30.494  31.602  1.00  0.00    -0.248 NA
ATOM     44  C   UNL A   1      39.136  29.758  29.465  1.00  0.00     0.031 C 
ATOM     45  C   UNL A   1      42.904  27.344  31.749  1.00  0.00     0.029 A 
ATOM     46  N   UNL A   1      41.910  29.002  32.877  1.00  0.00    -0.354 N 
ATOM     47  C   UNL A   1      38.649  31.244  31.131  1.00  0.00     0.074 A 
ATOM     48  C   UNL A   1      38.357  30.776  29.795  1.00  0.00     0.031 C 
ATOM     49  C   UNL A   1      43.487  27.421  32.958  1.00  0.00     0.029 A 
ATOM     50  C   UNL A   1      42.895  28.528  33.710  1.00  0.00     0.049 A 
ATOM     51  H   UNL A   1      41.292  29.725  33.131  1.00  0.00     0.167 HD
ATOM     52  C   UNL A   1      37.966  32.234  31.755  1.00  0.00     0.031 A 
ATOM     53  C   UNL A   1      43.290  28.957  34.926  1.00  0.00     0.031 A 
ATOM     54  C   UNL A   1      38.273  32.710  33.076  1.00  0.00     0.049 A 
ATOM     55  C   UNL A   1      42.577  30.123  35.566  1.00  0.00     0.074 A 
ATOM     56  C   UNL A   1      37.641  33.704  33.801  1.00  0.00     0.029 A 
ATOM     57  N   UNL A   1      39.308  32.234  33.868  1.00  0.00    -0.354 N 
ATOM     58  N   UNL A   1      41.557  30.816  35.115  1.00  0.00    -0.248 NA
ATOM     59  C   UNL A   1      43.064  30.558  36.881  1.00  0.00     0.031 C 
ATOM     60  C   UNL A   1      38.334  33.875  35.003  1.00  0.00     0.029 A 
ATOM     61  C   UNL A   1      39.351  32.934  35.061  1.00  0.00     0.049 A 
ATOM     62  H   UNL A   1      39.921  31.505  33.618  1.00  0.00     0.167 HD
ATOM     63  C   UNL A   1      41.260  31.746  36.107  1.00  0.00     0.074 A 
ATOM     64  C   UNL A   1      42.200  31.519  37.186  1.00  0.00     0.031 C 
ATOM     65  C   UNL A   1      40.293  32.697  36.127  1.00  0.00     0.031 A 
BRANCH  52  66
ATOM     66  C   UNL A   1      36.851  32.896  30.988  1.00  0.00    -0.014 A 
ATOM     67  C   UNL A   1      37.113  33.841  29.978  1.00  0.00     0.010 A 
ATOM     68  C   UNL A   1      35.516  32.553  31.269  1.00  0.00     0.010 A 
ATOM     69  C   UNL A   1      36.061  34.462  29.300  1.00  0.00     0.020 A 
ATOM     70  C   UNL A   1      34.462  33.147  30.571  1.00  0.00     0.020 A 
ATOM     71  C   UNL A   1      34.741  34.112  29.602  1.00  0.00     0.054 A 
BRANCH  71  72
ATOM     72  S   UNL A   1      33.397  34.925  28.697  1.00  0.00     0.124 S 
ATOM     73  O   UNL A   1      32.784  33.800  27.993  1.00  0.00    -0.237 OA
ATOM     74  O   UNL A   1      32.594  35.504  29.772  1.00  0.00    -0.237 OA
ATOM     75  O   UNL A   1      34.085  35.892  27.845  1.00  0.00    -0.744 OA
ENDBRANCH  71  72
ENDBRANCH  52  66
BRANCH  53  76
ATOM     76  C   UNL A   1      44.431  28.292  35.617  1.00  0.00    -0.014 A 
ATOM     77  C   UNL A   1      45.743  28.770  35.462  1.00  0.00     0.010 A 
ATOM     78  C   UNL A   1      44.207  27.169  36.437  1.00  0.00     0.010 A 
ATOM     79  C   UNL A   1      46.811  28.134  36.103  1.00  0.00     0.020 A 
ATOM     80  C   UNL A   1      45.267  26.550  37.105  1.00  0.00     0.020 A 
ATOM     81  C   UNL A   1      46.565  27.032  36.926  1.00  0.00     0.054 A 
BRANCH  81  82
ATOM     82  S   UNL A   1      47.961  26.261  37.794  1.00  0.00     0.124 S 
ATOM     83  O   UNL A   1      47.297  25.600  38.913  1.00  0.00    -0.237 OA
ATOM     84  O   UNL A   1      48.514  25.377  36.772  1.00  0.00    -0.237 OA
ATOM     85  O   UNL A   1      48.809  27.396  38.152  1.00  0.00    -0.744 OA
ENDBRANCH  81  82
ENDBRANCH  53  76
BRANCH  65  86
ATOM     86  C   UNL A   1      40.165  33.541  37.370  1.00  0.00    -0.014 A 
ATOM     87  C   UNL A   1      39.424  33.107  38.483  1.00  0.00     0.010 A 
ATOM     88  C   UNL A   1      40.856  34.766  37.447  1.00  0.00     0.010 A 
ATOM     89  C   UNL A   1      39.350  33.896  39.635  1.00  0.00     0.020 A 
ATOM     90  C   UNL A   1      40.812  35.542  38.607  1.00  0.00     0.020 A 
ATOM     91  C   UNL A   1      40.048  35.107  39.691  1.00  0.00     0.054 A 
BRANCH  91  92
ATOM     92  S   UNL A   1      39.971  36.089  41.215  1.00  0.00     0.124 S 
ATOM     93  O   UNL A   1      39.935  35.054  42.243  1.00  0.00    -0.237 OA
ATOM     94  O   UNL A   1      41.204  36.871  41.151  1.00  0.00    -0.237 OA
ATOM     95  O   UNL A   1      38.741  36.864  41.067  1.00  0.00    -0.744 OA
ENDBRANCH  91  92
ENDBRANCH  65  86
ENDBRANCH  39  40
ENDBRANCH  32  34
ENDBRANCH  31  32
ENDBRANCH  30  31
ENDBRANCH  29  30
ENDBRANCH  28  29
ENDBRANCH  27  28
ENDBRANCH  26  27
ENDBRANCH  25  26
ENDBRANCH   1  25
TORSDOF 27
ENDMDL
MODEL 2
REMARK VINA RESULT:      -8.8      1.909      8.360
REMARK SMILES CCCc1nc(C[N@H+]2CCCC[C@@H]2C(=O)OCCOCCOCCOCCOC(=O)c2ccc(-c3c4nc(c(-c5ccc(S(=O)(=O)[O-])cc5)c5ccc([nH]5)c(-c5ccc(S(=O)(=O)[O-])cc5)c5nc(c(-c6ccc(S(=O)(=O)[O-])cc6)c6ccc3[nH]6)C=C5)C=C4)cc2)cs1
REMARK SMILES IDX 21 1 20 2 19 3 18 4 17 5 16 6 14 7 15 8 13 9 8 10 9 11 10 13
REMARK SMILES IDX 12 14 11 15 7 16 6 17 4 18 5 19 92 20 91 21 3 22 2 23 1 24
REMARK SMILES IDX 22 25 23 26 24 27 25 28 26 29 27 30 28 31 29 32 30 33 31 34
REMARK SMILES IDX 32 35 90 36 33 37 89 38 34 39 35 40 36 41 83 42 37 43 88 44
REMARK SMILES IDX 82 45 84 46 38 47 87 48 81 49 80 50 39 52 69 53 50 54 68 55
REMARK SMILES IDX 51 56 54 57 67 58 85 59 52 60 53 61 66 63 86 64 55 65 40 66
REMARK SMILES IDX 41 67 49 68 42 69 48 70 43 71 44 72 45 73 46 74 47 75 70 76
REMARK SMILES IDX 71 77 79 78 72 79 78 80 73 81 74 82 75 83 76 84 77 85 56 86
REMARK SMILES IDX 57 87 65 88 58 89 64 90 59 91 60 92 61 93 62 94 63 95
REMARK H PARENT 8 12 84 51 54 62
REMARK Flexibility Score: inf
ROOT
ATOM      1  C   UNL A   1      36.148  22.179  24.560  1.00  0.00     0.188 C 
ENDROOT
BRANCH   1   2
ATOM      2  C   UNL A   1      35.681  21.029  25.458  1.00  0.00     0.188 C 
BRANCH   2   3
ATOM      3  O   UNL A   1      35.010  21.383  26.642  1.00  0.00    -0.376 OA
BRANCH   3   4
ATOM      4  C   UNL A   1      34.712  22.705  27.054  1.00  0.00     0.202 C 
BRANCH   4   5
ATOM      5  C   UNL A   1      33.487  23.589  26.719  1.00  0.00     0.261 C 
BRANCH   5   6
ATOM      6  O   UNL A   1      32.235  23.348  27.356  1.00  0.00    -0.459 OA
BRANCH   6   7
ATOM      7  C   UNL A   1      31.317  22.841  26.509  1.00  0.00     0.364 C 
ATOM      8  O   UNL A   1      30.122  22.801  26.803  1.00  0.00    -0.245 OA
BRANCH   7   9
ATOM      9  C   UNL A   1      31.849  22.406  25.122  1.00  0.00     0.295 C 
ATOM     10  N   UNL A   1      31.037  22.995  24.028  1.00  0.00    -0.318 N 
ATOM     11  C   UNL A   1      31.609  22.756  22.698  1.00  0.00     0.263 C 
ATOM     12  H   UNL A   1      30.159  22.479  24.088  1.00  0.00     0.349 HD
ATOM     13  C   UNL A   1      31.865  21.271  22.430  1.00  0.00     0.062 C 
ATOM     14  C   UNL A   1      32.022  20.894  24.887  1.00  0.00     0.078 C 
ATOM     15  C   UNL A   1      32.702  20.652  23.537  1.00  0.00     0.013 C 
BRANCH  10  16
ATOM     16  C   UNL A   1      30.653  24.409  24.211  1.00  0.00     0.321 C 
BRANCH  16  17
ATOM     17  C   UNL A   1      31.764  25.421  24.065  1.00  0.00     0.106 A 
ATOM     18  C   UNL A   1      32.723  27.293  24.768  1.00  0.00     0.093 A 
ATOM     19  N   UNL A   1      31.807  26.397  25.038  1.00  0.00    -0.240 NA
ATOM     20  S   UNL A   1      33.714  26.954  23.420  1.00  0.00    -0.127 S 
ATOM     21  C   UNL A   1      32.793  25.533  23.144  1.00  0.00     0.096 A 
BRANCH  18  22
ATOM     22  C   UNL A   1      32.859  28.544  25.563  1.00  0.00     0.067 C 
BRANCH  22  23
ATOM     23  C   UNL A   1      32.937  28.243  27.067  1.00  0.00     0.004 C 
ATOM     24  C   UNL A   1      31.582  28.142  27.767  1.00  0.00     0.004 C 
ENDBRANCH  22  23
ENDBRANCH  18  22
ENDBRANCH  16  17
ENDBRANCH  10  16
ENDBRANCH   7   9
ENDBRANCH   6   7
ENDBRANCH   5   6
ENDBRANCH   4   5
ENDBRANCH   3   4
ENDBRANCH   2   3
ENDBRANCH   1   2
BRANCH   1  25
ATOM     25  O   UNL A   1      37.518  22.514  24.619  1.00  0.00    -0.377 OA
BRANCH  25  26
ATOM     26  C   UNL A   1      38.372  21.890  25.572  1.00  0.00     0.188 C 
BRANCH  26  27
ATOM     27  C   UNL A   1      39.178  22.722  26.591  1.00  0.00     0.188 C 
BRANCH  27  28
ATOM     28  O   UNL A   1      40.283  22.048  27.168  1.00  0.00    -0.376 OA
BRANCH  28  29
ATOM     29  C   UNL A   1      41.272  21.520  26.298  1.00  0.00     0.202 C 
BRANCH  29  30
ATOM     30  C   UNL A   1      42.669  22.160  26.333  1.00  0.00     0.261 C 
BRANCH  30  31
ATOM     31  O   UNL A   1      42.798  23.394  27.057  1.00  0.00    -0.460 OA
BRANCH  31  32
ATOM     32  C   UNL A   1      42.818  24.548  26.359  1.00  0.00     0.338 C 
ATOM     33  O   UNL A   1      43.055  24.684  25.169  1.00  0.00    -0.246 OA
BRANCH  32  34
ATOM     34  C   UNL A   1      42.293  25.617  27.235  1.00  0.00     0.060 A 
ATOM     35  C   UNL A   1      42.926  26.869  27.241  1.00  0.00     0.016 A 
ATOM     36  C   UNL A   1      41.183  25.383  28.049  1.00  0.00     0.016 A 
ATOM     37  C   UNL A   1      42.482  27.873  28.100  1.00  0.00     0.010 A 
ATOM     38  C   UNL A   1      40.755  26.382  28.927  1.00  0.00     0.010 A 
ATOM     39  C   UNL A   1      41.430  27.614  28.987  1.00  0.00    -0.014 A 
BRANCH  39  40
ATOM     40  C   UNL A   1      41.192  28.527  30.132  1.00  0.00     0.031 A 
ATOM     41  C   UNL A   1      42.079  28.384  31.342  1.00  0.00     0.074 A 
ATOM     42  C   UNL A   1      40.234  29.469  30.102  1.00  0.00     0.049 A 
ATOM     43  N   UNL A   1      42.031  29.011  32.487  1.00  0.00    -0.248 NA
ATOM     44  C   UNL A   1      43.165  27.393  31.242  1.00  0.00     0.031 C 
ATOM     45  C   UNL A   1      39.353  29.750  28.971  1.00  0.00     0.029 A 
ATOM     46  N   UNL A   1      39.840  30.363  31.067  1.00  0.00    -0.354 N 
ATOM     47  C   UNL A   1      43.066  28.483  33.249  1.00  0.00     0.074 A 
ATOM     48  C   UNL A   1      43.706  27.463  32.448  1.00  0.00     0.031 C 
ATOM     49  C   UNL A   1      38.514  30.745  29.309  1.00  0.00     0.029 A 
ATOM     50  C   UNL A   1      38.770  31.141  30.694  1.00  0.00     0.049 A 
ATOM     51  H   UNL A   1      40.282  30.441  31.943  1.00  0.00     0.167 HD
ATOM     52  C   UNL A   1      43.454  28.818  34.503  1.00  0.00     0.031 A 
ATOM     53  C   UNL A   1      38.063  32.048  31.398  1.00  0.00     0.031 A 
ATOM     54  C   UNL A   1      42.803  29.819  35.303  1.00  0.00     0.049 A 
ATOM     55  C   UNL A   1      38.452  32.341  32.826  1.00  0.00     0.074 A 
ATOM     56  C   UNL A   1      43.119  30.238  36.582  1.00  0.00     0.029 A 
ATOM     57  N   UNL A   1      41.694  30.552  34.904  1.00  0.00    -0.354 N 
ATOM     58  N   UNL A   1      39.442  31.843  33.532  1.00  0.00    -0.248 NA
ATOM     59  C   UNL A   1      37.633  33.322  33.551  1.00  0.00     0.031 C 
ATOM     60  C   UNL A   1      42.161  31.175  36.984  1.00  0.00     0.029 A 
ATOM     61  C   UNL A   1      41.295  31.398  35.924  1.00  0.00     0.049 A 
ATOM     62  H   UNL A   1      41.256  30.481  34.025  1.00  0.00     0.167 HD
ATOM     63  C   UNL A   1      39.384  32.477  34.770  1.00  0.00     0.074 A 
ATOM     64  C   UNL A   1      38.270  33.402  34.712  1.00  0.00     0.031 C 
ATOM     65  C   UNL A   1      40.183  32.314  35.853  1.00  0.00     0.031 A 
BRANCH  52  66
ATOM     66  C   UNL A   1      44.609  28.055  35.098  1.00  0.00    -0.014 A 
ATOM     67  C   UNL A   1      44.411  26.857  35.810  1.00  0.00     0.010 A 
ATOM     68  C   UNL A   1      45.921  28.535  34.925  1.00  0.00     0.010 A 
ATOM     69  C   UNL A   1      45.495  26.182  36.377  1.00  0.00     0.020 A 
ATOM     70  C   UNL A   1      47.011  27.846  35.461  1.00  0.00     0.020 A 
ATOM     71  C   UNL A   1      46.789  26.683  36.200  1.00  0.00     0.054 A 
BRANCH  71  72
ATOM     72  S   UNL A   1      48.178  25.779  36.935  1.00  0.00     0.124 S 
ATOM     73  O   UNL A   1      47.868  24.398  36.568  1.00  0.00    -0.237 OA
ATOM     74  O   UNL A   1      49.333  26.363  36.257  1.00  0.00    -0.237 OA
ATOM     75  O   UNL A   1      48.075  26.081  38.360  1.00  0.00    -0.744 OA
ENDBRANCH  71  72
ENDBRANCH  52  66
BRANCH  53  76
ATOM     76  C   UNL A   1      36.900  32.738  30.771  1.00  0.00    -0.014 A 
ATOM     77  C   UNL A   1      37.094  33.771  29.839  1.00  0.00     0.010 A 
ATOM     78  C   UNL A   1      35.585  32.362  31.107  1.00  0.00     0.010 A 
ATOM     79  C   UNL A   1      35.999  34.422  29.262  1.00  0.00     0.020 A 
ATOM     80  C   UNL A   1      34.488  32.989  30.510  1.00  0.00     0.020 A 
ATOM     81  C   UNL A   1      34.702  34.023  29.597  1.00  0.00     0.054 A 
BRANCH  81  82
ATOM     82  S   UNL A   1      33.300  34.844  28.790  1.00  0.00     0.124 S 
ATOM     83  O   UNL A   1      33.943  35.980  28.140  1.00  0.00    -0.237 OA
ATOM     84  O   UNL A   1      32.800  33.802  27.897  1.00  0.00    -0.237 OA
ATOM     85  O   UNL A   1      32.413  35.179  29.903  1.00  0.00    -0.744 OA
ENDBRANCH  81  82
ENDBRANCH  53  76
BRANCH  65  86
ATOM     86  C   UNL A   1      39.919  33.183  37.057  1.00  0.00    -0.014 A 
ATOM     87  C   UNL A   1      39.002  32.804  38.053  1.00  0.00     0.010 A 
ATOM     88  C   UNL A   1      40.655  34.373  37.224  1.00  0.00     0.010 A 
ATOM     89  C   UNL A   1      38.802  33.615  39.176  1.00  0.00     0.020 A 
ATOM     90  C   UNL A   1      40.483  35.168  38.359  1.00  0.00     0.020 A 
ATOM     91  C   UNL A   1      39.546  34.790  39.322  1.00  0.00     0.054 A 
BRANCH  91  92
ATOM     92  S   UNL A   1      39.300  35.799  40.810  1.00  0.00     0.124 S 
ATOM     93  O   UNL A   1      39.117  37.133  40.247  1.00  0.00    -0.237 OA
ATOM     94  O   UNL A   1      38.110  35.198  41.408  1.00  0.00    -0.237 OA
ATOM     95  O   UNL A   1      40.535  35.607  41.567  1.00  0.00    -0.744 OA
ENDBRANCH  91  92
ENDBRANCH  65  86
ENDBRANCH  39  40
ENDBRANCH  32  34
ENDBRANCH  31  32
ENDBRANCH  30  31
ENDBRANCH  29  30
ENDBRANCH  28  29
ENDBRANCH  27  28
ENDBRANCH  26  27
ENDBRANCH  25  26
ENDBRANCH   1  25
TORSDOF 27
ENDMDL
MODEL 3
REMARK VINA RESULT:      -8.1      1.744      8.259
REMARK SMILES CCCc1nc(C[N@H+]2CCCC[C@@H]2C(=O)OCCOCCOCCOCCOC(=O)c2ccc(-c3c4nc(c(-c5ccc(S(=O)(=O)[O-])cc5)c5ccc([nH]5)c(-c5ccc(S(=O)(=O)[O-])cc5)c5nc(c(-c6ccc(S(=O)(=O)[O-])cc6)c6ccc3[nH]6)C=C5)C=C4)cc2)cs1
REMARK SMILES IDX 21 1 20 2 19 3 18 4 17 5 16 6 14 7 15 8 13 9 8 10 9 11 10 13
REMARK SMILES IDX 12 14 11 15 7 16 6 17 4 18 5 19 92 20 91 21 3 22 2 23 1 24
REMARK SMILES IDX 22 25 23 26 24 27 25 28 26 29 27 30 28 31 29 32 30 33 31 34
REMARK SMILES IDX 32 35 90 36 33 37 89 38 34 39 35 40 36 41 83 42 37 43 88 44
REMARK SMILES IDX 82 45 84 46 38 47 87 48 81 49 80 50 39 52 69 53 50 54 68 55
REMARK SMILES IDX 51 56 54 57 67 58 85 59 52 60 53 61 66 63 86 64 55 65 40 66
REMARK SMILES IDX 41 67 49 68 42 69 48 70 43 71 44 72 45 73 46 74 47 75 70 76
REMARK SMILES IDX 71 77 79 78 72 79 78 80 73 81 74 82 75 83 76 84 77 85 56 86
REMARK SMILES IDX 57 87 65 88 58 89 64 90 59 91 60 92 61 93 62 94 63 95
REMARK H PARENT 8 12 84 51 54 62
REMARK Flexibility Score: inf
ROOT
ATOM      1  C   UNL A   1      34.894  21.424  24.616  1.00  0.00     0.188 C 
ENDROOT
BRANCH   1   2
ATOM      2  C   UNL A   1      34.576  20.994  26.052  1.00  0.00     0.188 C 
BRANCH   2   3
ATOM      3  O   UNL A   1      34.721  21.971  27.052  1.00  0.00    -0.376 OA
BRANCH   3   4
ATOM      4  C   UNL A   1      34.702  23.372  26.842  1.00  0.00     0.202 C 
BRANCH   4   5
ATOM      5  C   UNL A   1      33.614  24.255  26.187  1.00  0.00     0.261 C 
BRANCH   5   6
ATOM      6  O   UNL A   1      32.235  23.988  26.427  1.00  0.00    -0.459 OA
BRANCH   6   7
ATOM      7  C   UNL A   1      31.519  23.914  25.287  1.00  0.00     0.364 C 
ATOM      8  O   UNL A   1      30.311  23.681  25.299  1.00  0.00    -0.245 OA
BRANCH   7   9
ATOM      9  C   UNL A   1      32.294  24.234  23.985  1.00  0.00     0.295 C 
ATOM     10  N   UNL A   1      31.755  25.451  23.327  1.00  0.00    -0.318 N 
ATOM     11  C   UNL A   1      32.569  25.894  22.189  1.00  0.00     0.263 C 
ATOM     12  H   UNL A   1      30.854  25.139  22.965  1.00  0.00     0.349 HD
ATOM     13  C   UNL A   1      32.785  24.783  21.159  1.00  0.00     0.062 C 
ATOM     14  C   UNL A   1      32.421  23.098  22.955  1.00  0.00     0.078 C 
ATOM     15  C   UNL A   1      33.344  23.530  21.814  1.00  0.00     0.013 C 
BRANCH  10  16
ATOM     16  C   UNL A   1      31.426  26.571  24.232  1.00  0.00     0.321 C 
BRANCH  16  17
ATOM     17  C   UNL A   1      30.264  27.440  23.816  1.00  0.00     0.106 A 
ATOM     18  C   UNL A   1      29.461  29.471  23.432  1.00  0.00     0.093 A 
ATOM     19  N   UNL A   1      30.547  28.782  23.679  1.00  0.00    -0.240 NA
ATOM     20  S   UNL A   1      28.044  28.552  23.180  1.00  0.00    -0.127 S 
ATOM     21  C   UNL A   1      28.951  27.130  23.498  1.00  0.00     0.096 A 
BRANCH  18  22
ATOM     22  C   UNL A   1      29.460  30.960  23.414  1.00  0.00     0.067 C 
BRANCH  22  23
ATOM     23  C   UNL A   1      29.055  31.501  22.035  1.00  0.00     0.004 C 
ATOM     24  C   UNL A   1      27.827  30.826  21.422  1.00  0.00     0.004 C 
ENDBRANCH  22  23
ENDBRANCH  18  22
ENDBRANCH  16  17
ENDBRANCH  10  16
ENDBRANCH   7   9
ENDBRANCH   6   7
ENDBRANCH   5   6
ENDBRANCH   4   5
ENDBRANCH   3   4
ENDBRANCH   2   3
ENDBRANCH   1   2
BRANCH   1  25
ATOM     25  O   UNL A   1      36.259  21.489  24.262  1.00  0.00    -0.377 OA
BRANCH  25  26
ATOM     26  C   UNL A   1      37.265  21.123  25.200  1.00  0.00     0.188 C 
BRANCH  26  27
ATOM     27  C   UNL A   1      38.187  22.183  25.838  1.00  0.00     0.188 C 
BRANCH  27  28
ATOM     28  O   UNL A   1      39.307  21.657  26.530  1.00  0.00    -0.376 OA
BRANCH  28  29
ATOM     29  C   UNL A   1      40.022  20.589  25.931  1.00  0.00     0.202 C 
BRANCH  29  30
ATOM     30  C   UNL A   1      41.546  20.552  26.126  1.00  0.00     0.261 C 
BRANCH  30  31
ATOM     31  O   UNL A   1      42.149  21.701  26.743  1.00  0.00    -0.460 OA
BRANCH  31  32
ATOM     32  C   UNL A   1      42.434  22.769  25.970  1.00  0.00     0.338 C 
ATOM     33  O   UNL A   1      42.743  22.760  24.789  1.00  0.00    -0.246 OA
BRANCH  32  34
ATOM     34  C   UNL A   1      42.106  23.987  26.741  1.00  0.00     0.060 A 
ATOM     35  C   UNL A   1      42.895  25.134  26.576  1.00  0.00     0.016 A 
ATOM     36  C   UNL A   1      41.025  23.994  27.625  1.00  0.00     0.016 A 
ATOM     37  C   UNL A   1      42.637  26.276  27.334  1.00  0.00     0.010 A 
ATOM     38  C   UNL A   1      40.783  25.130  28.401  1.00  0.00     0.010 A 
ATOM     39  C   UNL A   1      41.615  26.259  28.290  1.00  0.00    -0.014 A 
BRANCH  39  40
ATOM     40  C   UNL A   1      41.566  27.313  29.333  1.00  0.00     0.031 A 
ATOM     41  C   UNL A   1      42.591  27.260  30.435  1.00  0.00     0.074 A 
ATOM     42  C   UNL A   1      40.656  28.302  29.302  1.00  0.00     0.049 A 
ATOM     43  N   UNL A   1      42.718  28.020  31.491  1.00  0.00    -0.248 NA
ATOM     44  C   UNL A   1      43.610  26.201  30.330  1.00  0.00     0.031 C 
ATOM     45  C   UNL A   1      39.653  28.499  28.258  1.00  0.00     0.029 A 
ATOM     46  N   UNL A   1      40.428  29.325  30.188  1.00  0.00    -0.354 N 
ATOM     47  C   UNL A   1      43.816  27.523  32.182  1.00  0.00     0.074 A 
ATOM     48  C   UNL A   1      44.302  26.379  31.444  1.00  0.00     0.031 C 
ATOM     49  C   UNL A   1      38.909  29.576  28.569  1.00  0.00     0.029 A 
ATOM     50  C   UNL A   1      39.356  30.117  29.852  1.00  0.00     0.049 A 
ATOM     51  H   UNL A   1      40.981  29.478  30.988  1.00  0.00     0.167 HD
ATOM     52  C   UNL A   1      44.375  27.979  33.329  1.00  0.00     0.031 A 
ATOM     53  C   UNL A   1      38.786  31.142  30.518  1.00  0.00     0.031 A 
ATOM     54  C   UNL A   1      43.876  29.106  34.071  1.00  0.00     0.049 A 
ATOM     55  C   UNL A   1      39.366  31.576  31.842  1.00  0.00     0.074 A 
ATOM     56  C   UNL A   1      44.371  29.652  35.241  1.00  0.00     0.029 A 
ATOM     57  N   UNL A   1      42.760  29.852  33.720  1.00  0.00    -0.354 N 
ATOM     58  N   UNL A   1      40.414  31.107  32.479  1.00  0.00    -0.248 NA
ATOM     59  C   UNL A   1      38.691  32.684  32.531  1.00  0.00     0.031 C 
ATOM     60  C   UNL A   1      43.516  30.686  35.635  1.00  0.00     0.029 A 
ATOM     61  C   UNL A   1      42.533  30.835  34.668  1.00  0.00     0.049 A 
ATOM     62  H   UNL A   1      42.212  29.705  32.916  1.00  0.00     0.167 HD
ATOM     63  C   UNL A   1      40.542  31.884  33.627  1.00  0.00     0.074 A 
ATOM     64  C   UNL A   1      39.473  32.861  33.589  1.00  0.00     0.031 C 
ATOM     65  C   UNL A   1      41.464  31.802  34.618  1.00  0.00     0.031 A 
BRANCH  52  66
ATOM     66  C   UNL A   1      45.560  27.223  33.871  1.00  0.00    -0.014 A 
ATOM     67  C   UNL A   1      45.398  26.076  34.670  1.00  0.00     0.010 A 
ATOM     68  C   UNL A   1      46.862  27.658  33.560  1.00  0.00     0.010 A 
ATOM     69  C   UNL A   1      46.512  25.408  35.184  1.00  0.00     0.020 A 
ATOM     70  C   UNL A   1      47.979  26.974  34.044  1.00  0.00     0.020 A 
ATOM     71  C   UNL A   1      47.797  25.862  34.869  1.00  0.00     0.054 A 
BRANCH  71  72
ATOM     72  S   UNL A   1      49.224  24.968  35.540  1.00  0.00     0.124 S 
ATOM     73  O   UNL A   1      48.580  23.890  36.288  1.00  0.00    -0.237 OA
ATOM     74  O   UNL A   1      49.937  24.555  34.333  1.00  0.00    -0.237 OA
ATOM     75  O   UNL A   1      49.909  25.967  36.356  1.00  0.00    -0.744 OA
ENDBRANCH  71  72
ENDBRANCH  52  66
BRANCH  53  76
ATOM     76  C   UNL A   1      37.586  31.822  29.955  1.00  0.00    -0.014 A 
ATOM     77  C   UNL A   1      36.297  31.308  30.176  1.00  0.00     0.010 A 
ATOM     78  C   UNL A   1      37.728  32.995  29.188  1.00  0.00     0.010 A 
ATOM     79  C   UNL A   1      35.176  31.943  29.634  1.00  0.00     0.020 A 
ATOM     80  C   UNL A   1      36.608  33.651  28.671  1.00  0.00     0.020 A 
ATOM     81  C   UNL A   1      35.338  33.115  28.890  1.00  0.00     0.054 A 
BRANCH  81  82
ATOM     82  S   UNL A   1      33.862  33.954  28.249  1.00  0.00     0.124 S 
ATOM     83  O   UNL A   1      33.134  32.856  27.623  1.00  0.00    -0.237 OA
ATOM     84  O   UNL A   1      33.262  34.502  29.463  1.00  0.00    -0.237 OA
ATOM     85  O   UNL A   1      34.407  34.950  27.328  1.00  0.00    -0.744 OA
ENDBRANCH  81  82
ENDBRANCH  53  76
BRANCH  65  86
ATOM     86  C   UNL A   1      41.394  32.821  35.727  1.00  0.00    -0.014 A 
ATOM     87  C   UNL A   1      40.701  32.564  36.923  1.00  0.00     0.010 A 
ATOM     88  C   UNL A   1      42.094  34.036  35.592  1.00  0.00     0.010 A 
ATOM     89  C   UNL A   1      40.682  33.515  37.948  1.00  0.00     0.020 A 
ATOM     90  C   UNL A   1      42.105  34.975  36.626  1.00  0.00     0.020 A 
ATOM     91  C   UNL A   1      41.387  34.713  37.794  1.00  0.00     0.054 A 
BRANCH  91  92
ATOM     92  S   UNL A   1      41.383  35.910  39.158  1.00  0.00     0.124 S 
ATOM     93  O   UNL A   1      39.975  35.925  39.545  1.00  0.00    -0.237 OA
ATOM     94  O   UNL A   1      42.295  35.297  40.121  1.00  0.00    -0.237 OA
ATOM     95  O   UNL A   1      41.872  37.141  38.541  1.00  0.00    -0.744 OA
ENDBRANCH  91  92
ENDBRANCH  65  86
ENDBRANCH  39  40
ENDBRANCH  32  34
ENDBRANCH  31  32
ENDBRANCH  30  31
ENDBRANCH  29  30
ENDBRANCH  28  29
ENDBRANCH  27  28
ENDBRANCH  26  27
ENDBRANCH  25  26
ENDBRANCH   1  25
TORSDOF 27
ENDMDL
