MODEL 1
REMARK VINA RESULT:      -9.2      0.000      0.000
REMARK SMILES O=C(OCCOCCOCCOCCOC(=O)c1nccnc1C(=O)Nc1n[nH]c2ncccc12)c1ccc(-c2c3nc(c(-c4ccc(S(=O)(=O)[O-])cc4)c4ccc([nH]4)c(-c4ccc(S(=O)(=O)[O-])cc4)c4nc(c(-c5ccc(S(=O)(=O)[O-])cc5)c5ccc2[nH]5)C=C4)C=C3)cc1
REMARK SMILES IDX 8 1 7 2 6 3 5 4 4 5 3 6 2 7 1 8 36 9 37 10 95 11 38 12 94 13
REMARK SMILES IDX 39 14 40 15 41 16 88 17 42 18 93 19 87 20 89 21 43 22 92 23
REMARK SMILES IDX 86 24 85 25 44 27 74 28 55 29 73 30 56 31 59 32 72 33 90 34
REMARK SMILES IDX 57 35 58 36 71 38 91 39 60 40 45 41 46 42 54 43 47 44 53 45
REMARK SMILES IDX 48 46 49 47 50 48 51 49 52 50 75 51 76 52 84 53 77 54 83 55
REMARK SMILES IDX 78 56 79 57 80 58 81 59 82 60 61 61 62 62 70 63 63 64 69 65
REMARK SMILES IDX 64 66 65 67 66 68 67 69 68 70 9 71 10 72 11 73 12 74 13 75
REMARK SMILES IDX 14 76 15 77 16 78 17 79 18 80 19 81 23 82 20 83 22 84 21 85
REMARK SMILES IDX 24 86 25 87 26 88 27 90 28 91 35 92 29 93 30 94 34 95 31 97
REMARK SMILES IDX 33 98 32 99
REMARK H PARENT 89 26 59 37 26 89 29 96
REMARK Flexibility Score: inf
ROOT
ATOM      1  C   UNL A   1      43.298  22.609  25.893  1.00  0.00     0.188 C 
ENDROOT
BRANCH   1   2
ATOM      2  C   UNL A   1      43.193  23.930  25.165  1.00  0.00     0.188 C 
BRANCH   2   3
ATOM      3  O   UNL A   1      44.303  24.078  24.295  1.00  0.00    -0.376 OA
BRANCH   3   4
ATOM      4  C   UNL A   1      45.128  22.951  24.088  1.00  0.00     0.202 C 
BRANCH   4   5
ATOM      5  C   UNL A   1      46.582  23.411  24.216  1.00  0.00     0.261 C 
BRANCH   5   6
ATOM      6  O   UNL A   1      46.722  24.772  24.695  1.00  0.00    -0.460 OA
BRANCH   6   7
ATOM      7  C   UNL A   1      47.137  25.165  25.928  1.00  0.00     0.338 C 
ATOM      8  O   UNL A   1      47.620  24.318  26.683  1.00  0.00    -0.246 OA
BRANCH   7   9
ATOM      9  C   UNL A   1      47.159  26.608  26.369  1.00  0.00     0.060 A 
ATOM     10  C   UNL A   1      47.761  27.097  27.534  1.00  0.00     0.016 A 
ATOM     11  C   UNL A   1      46.549  27.545  25.509  1.00  0.00     0.016 A 
ATOM     12  C   UNL A   1      47.738  28.450  27.858  1.00  0.00     0.010 A 
ATOM     13  C   UNL A   1      46.468  28.901  25.852  1.00  0.00     0.010 A 
ATOM     14  C   UNL A   1      47.019  29.337  27.061  1.00  0.00    -0.014 A 
BRANCH  14  15
ATOM     15  C   UNL A   1      46.528  30.559  27.727  1.00  0.00     0.031 A 
ATOM     16  C   UNL A   1      47.357  31.800  27.512  1.00  0.00     0.074 A 
ATOM     17  C   UNL A   1      45.336  30.601  28.344  1.00  0.00     0.049 A 
ATOM     18  N   UNL A   1      47.128  33.030  27.884  1.00  0.00    -0.248 NA
ATOM     19  C   UNL A   1      48.602  31.632  26.735  1.00  0.00     0.031 C 
ATOM     20  C   UNL A   1      44.411  29.475  28.480  1.00  0.00     0.029 A 
ATOM     21  N   UNL A   1      44.685  31.647  28.940  1.00  0.00    -0.354 N 
ATOM     22  C   UNL A   1      48.194  33.772  27.383  1.00  0.00     0.074 A 
ATOM     23  C   UNL A   1      49.070  32.865  26.685  1.00  0.00     0.031 C 
ATOM     24  C   UNL A   1      43.302  29.898  29.115  1.00  0.00     0.029 A 
ATOM     25  C   UNL A   1      43.456  31.311  29.457  1.00  0.00     0.049 A 
ATOM     26  H   UNL A   1      45.061  32.554  28.995  1.00  0.00     0.167 HD
ATOM     27  C   UNL A   1      48.433  35.095  27.510  1.00  0.00     0.031 A 
ATOM     28  C   UNL A   1      42.575  32.069  30.140  1.00  0.00     0.031 A 
ATOM     29  C   UNL A   1      47.585  35.968  28.269  1.00  0.00     0.049 A 
ATOM     30  C   UNL A   1      42.923  33.518  30.379  1.00  0.00     0.074 A 
ATOM     31  C   UNL A   1      47.763  37.303  28.568  1.00  0.00     0.029 A 
ATOM     32  N   UNL A   1      46.397  35.569  28.864  1.00  0.00    -0.354 N 
ATOM     33  N   UNL A   1      43.962  34.200  29.948  1.00  0.00    -0.248 NA
ATOM     34  C   UNL A   1      41.988  34.300  31.197  1.00  0.00     0.031 C 
ATOM     35  C   UNL A   1      46.702  37.701  29.388  1.00  0.00     0.029 A 
ATOM     36  C   UNL A   1      45.835  36.628  29.548  1.00  0.00     0.049 A 
ATOM     37  H   UNL A   1      46.010  34.664  28.807  1.00  0.00     0.167 HD
ATOM     38  C   UNL A   1      43.792  35.496  30.423  1.00  0.00     0.074 A 
ATOM     39  C   UNL A   1      42.544  35.504  31.162  1.00  0.00     0.031 C 
ATOM     40  C   UNL A   1      44.587  36.584  30.267  1.00  0.00     0.031 A 
BRANCH  27  41
ATOM     41  C   UNL A   1      49.706  35.614  26.905  1.00  0.00    -0.014 A 
ATOM     42  C   UNL A   1      50.905  35.662  27.642  1.00  0.00     0.010 A 
ATOM     43  C   UNL A   1      49.684  36.133  25.598  1.00  0.00     0.010 A 
ATOM     44  C   UNL A   1      52.044  36.264  27.097  1.00  0.00     0.020 A 
ATOM     45  C   UNL A   1      50.826  36.716  25.043  1.00  0.00     0.020 A 
ATOM     46  C   UNL A   1      51.994  36.797  25.806  1.00  0.00     0.054 A 
BRANCH  46  47
ATOM     47  S   UNL A   1      53.476  37.595  25.128  1.00  0.00     0.124 S 
ATOM     48  O   UNL A   1      54.546  36.861  25.799  1.00  0.00    -0.237 OA
ATOM     49  O   UNL A   1      53.347  37.347  23.694  1.00  0.00    -0.237 OA
ATOM     50  O   UNL A   1      53.332  38.992  25.531  1.00  0.00    -0.744 OA
ENDBRANCH  46  47
ENDBRANCH  27  41
BRANCH  28  51
ATOM     51  C   UNL A   1      41.317  31.476  30.678  1.00  0.00    -0.014 A 
ATOM     52  C   UNL A   1      40.085  31.659  30.025  1.00  0.00     0.010 A 
ATOM     53  C   UNL A   1      41.344  30.732  31.873  1.00  0.00     0.010 A 
ATOM     54  C   UNL A   1      38.906  31.128  30.565  1.00  0.00     0.020 A 
ATOM     55  C   UNL A   1      40.174  30.178  32.402  1.00  0.00     0.020 A 
ATOM     56  C   UNL A   1      38.959  30.392  31.752  1.00  0.00     0.054 A 
BRANCH  56  57
ATOM     57  S   UNL A   1      37.426  29.683  32.422  1.00  0.00     0.124 S 
ATOM     58  O   UNL A   1      37.928  28.851  33.511  1.00  0.00    -0.237 OA
ATOM     59  O   UNL A   1      36.677  30.870  32.823  1.00  0.00    -0.237 OA
ATOM     60  O   UNL A   1      36.863  28.955  31.286  1.00  0.00    -0.744 OA
ENDBRANCH  56  57
ENDBRANCH  28  51
BRANCH  40  61
ATOM     61  C   UNL A   1      44.109  37.874  30.871  1.00  0.00    -0.014 A 
ATOM     62  C   UNL A   1      44.321  38.165  32.229  1.00  0.00     0.010 A 
ATOM     63  C   UNL A   1      43.506  38.836  30.042  1.00  0.00     0.010 A 
ATOM     64  C   UNL A   1      43.906  39.389  32.756  1.00  0.00     0.020 A 
ATOM     65  C   UNL A   1      43.114  40.070  30.560  1.00  0.00     0.020 A 
ATOM     66  C   UNL A   1      43.303  40.332  31.918  1.00  0.00     0.054 A 
BRANCH  66  67
ATOM     67  S   UNL A   1      42.812  41.933  32.614  1.00  0.00     0.124 S 
ATOM     68  O   UNL A   1      44.065  42.407  33.195  1.00  0.00    -0.237 OA
ATOM     69  O   UNL A   1      42.345  42.665  31.441  1.00  0.00    -0.237 OA
ATOM     70  O   UNL A   1      41.771  41.584  33.578  1.00  0.00    -0.744 OA
ENDBRANCH  66  67
ENDBRANCH  40  61
ENDBRANCH  14  15
ENDBRANCH   7   9
ENDBRANCH   6   7
ENDBRANCH   5   6
ENDBRANCH   4   5
ENDBRANCH   3   4
ENDBRANCH   2   3
ENDBRANCH   1   2
BRANCH   1  71
ATOM     71  O   UNL A   1      42.229  22.425  26.814  1.00  0.00    -0.377 OA
BRANCH  71  72
ATOM     72  C   UNL A   1      41.898  21.103  27.229  1.00  0.00     0.188 C 
BRANCH  72  73
ATOM     73  C   UNL A   1      40.432  20.718  26.965  1.00  0.00     0.188 C 
BRANCH  73  74
ATOM     74  O   UNL A   1      39.787  21.642  26.059  1.00  0.00    -0.376 OA
BRANCH  74  75
ATOM     75  C   UNL A   1      38.623  21.117  25.395  1.00  0.00     0.202 C 
BRANCH  75  76
ATOM     76  C   UNL A   1      37.628  22.247  24.985  1.00  0.00     0.261 C 
BRANCH  76  77
ATOM     77  O   UNL A   1      36.311  21.779  24.561  1.00  0.00    -0.458 OA
BRANCH  77  78
ATOM     78  C   UNL A   1      35.417  22.635  23.962  1.00  0.00     0.359 C 
ATOM     79  O   UNL A   1      35.536  23.119  22.855  1.00  0.00    -0.244 OA
BRANCH  78  80
ATOM     80  C   UNL A   1      34.226  22.873  24.858  1.00  0.00     0.179 A 
ATOM     81  N   UNL A   1      34.503  22.934  26.204  1.00  0.00    -0.245 NA
ATOM     82  C   UNL A   1      32.899  22.948  24.414  1.00  0.00     0.161 A 
ATOM     83  C   UNL A   1      33.441  23.035  27.039  1.00  0.00     0.132 A 
ATOM     84  N   UNL A   1      31.834  23.051  25.282  1.00  0.00    -0.247 NA
ATOM     85  C   UNL A   1      32.136  23.089  26.590  1.00  0.00     0.132 A 
BRANCH  82  86
ATOM     86  C   UNL A   1      32.410  22.772  23.021  1.00  0.00     0.278 C 
ATOM     87  O   UNL A   1      31.860  21.722  22.697  1.00  0.00    -0.267 OA
ATOM     88  N   UNL A   1      32.752  23.735  22.071  1.00  0.00    -0.303 N 
ATOM     89  H   UNL A   1      33.042  23.482  21.165  1.00  0.00     0.172 HD
BRANCH  88  90
ATOM     90  C   UNL A   1      32.667  25.052  22.454  1.00  0.00     0.164 A 
ATOM     91  N   UNL A   1      33.589  25.837  21.910  1.00  0.00    -0.155 NA
ATOM     92  C   UNL A   1      31.550  25.789  22.948  1.00  0.00     0.063 A 
ATOM     93  N   UNL A   1      32.889  26.948  21.670  1.00  0.00    -0.259 N 
ATOM     94  C   UNL A   1      31.658  26.983  22.262  1.00  0.00     0.157 A 
ATOM     95  C   UNL A   1      30.380  25.603  23.698  1.00  0.00     0.017 A 
ATOM     96  H   UNL A   1      33.231  27.683  21.112  1.00  0.00     0.192 HD
ATOM     97  N   UNL A   1      30.726  27.950  22.134  1.00  0.00    -0.237 NA
ATOM     98  C   UNL A   1      29.416  26.622  23.669  1.00  0.00     0.021 A 
ATOM     99  C   UNL A   1      29.618  27.726  22.857  1.00  0.00     0.113 A 
ENDBRANCH  88  90
ENDBRANCH  82  86
ENDBRANCH  78  80
ENDBRANCH  77  78
ENDBRANCH  76  77
ENDBRANCH  75  76
ENDBRANCH  74  75
ENDBRANCH  73  74
ENDBRANCH  72  73
ENDBRANCH  71  72
ENDBRANCH   1  71
TORSDOF 25
ENDMDL
MODEL 2
REMARK VINA RESULT:      -8.9      5.521      9.407
REMARK SMILES O=C(OCCOCCOCCOCCOC(=O)c1nccnc1C(=O)Nc1n[nH]c2ncccc12)c1ccc(-c2c3nc(c(-c4ccc(S(=O)(=O)[O-])cc4)c4ccc([nH]4)c(-c4ccc(S(=O)(=O)[O-])cc4)c4nc(c(-c5ccc(S(=O)(=O)[O-])cc5)c5ccc2[nH]5)C=C4)C=C3)cc1
REMARK SMILES IDX 8 1 7 2 6 3 5 4 4 5 3 6 2 7 1 8 36 9 37 10 95 11 38 12 94 13
REMARK SMILES IDX 39 14 40 15 41 16 88 17 42 18 93 19 87 20 89 21 43 22 92 23
REMARK SMILES IDX 86 24 85 25 44 27 74 28 55 29 73 30 56 31 59 32 72 33 90 34
REMARK SMILES IDX 57 35 58 36 71 38 91 39 60 40 45 41 46 42 54 43 47 44 53 45
REMARK SMILES IDX 48 46 49 47 50 48 51 49 52 50 75 51 76 52 84 53 77 54 83 55
REMARK SMILES IDX 78 56 79 57 80 58 81 59 82 60 61 61 62 62 70 63 63 64 69 65
REMARK SMILES IDX 64 66 65 67 66 68 67 69 68 70 9 71 10 72 11 73 12 74 13 75
REMARK SMILES IDX 14 76 15 77 16 78 17 79 18 80 19 81 23 82 20 83 22 84 21 85
REMARK SMILES IDX 24 86 25 87 26 88 27 90 28 91 35 92 29 93 30 94 34 95 31 97
REMARK SMILES IDX 33 98 32 99
REMARK H PARENT 89 26 59 37 26 89 29 96
REMARK Flexibility Score: inf
ROOT
ATOM      1  C   UNL A   1      46.073  21.436  24.417  1.00  0.00     0.188 C 
ENDROOT
BRANCH   1   2
ATOM      2  C   UNL A   1      46.482  22.754  25.036  1.00  0.00     0.188 C 
BRANCH   2   3
ATOM      3  O   UNL A   1      46.197  23.808  24.132  1.00  0.00    -0.376 OA
BRANCH   3   4
ATOM      4  C   UNL A   1      47.027  24.949  24.175  1.00  0.00     0.202 C 
BRANCH   4   5
ATOM      5  C   UNL A   1      47.890  24.848  25.435  1.00  0.00     0.261 C 
BRANCH   5   6
ATOM      6  O   UNL A   1      49.062  25.703  25.409  1.00  0.00    -0.460 OA
BRANCH   6   7
ATOM      7  C   UNL A   1      49.092  27.037  25.152  1.00  0.00     0.338 C 
ATOM      8  O   UNL A   1      49.734  27.434  24.178  1.00  0.00    -0.246 OA
BRANCH   7   9
ATOM      9  C   UNL A   1      48.269  28.042  25.921  1.00  0.00     0.060 A 
ATOM     10  C   UNL A   1      48.759  28.930  26.886  1.00  0.00     0.016 A 
ATOM     11  C   UNL A   1      46.895  28.111  25.611  1.00  0.00     0.016 A 
ATOM     12  C   UNL A   1      47.925  29.830  27.543  1.00  0.00     0.010 A 
ATOM     13  C   UNL A   1      46.034  28.971  26.306  1.00  0.00     0.010 A 
ATOM     14  C   UNL A   1      46.552  29.791  27.314  1.00  0.00    -0.014 A 
BRANCH  14  15
ATOM     15  C   UNL A   1      45.695  30.288  28.408  1.00  0.00     0.031 A 
ATOM     16  C   UNL A   1      45.508  29.348  29.572  1.00  0.00     0.074 A 
ATOM     17  C   UNL A   1      45.252  31.555  28.441  1.00  0.00     0.049 A 
ATOM     18  N   UNL A   1      44.898  29.541  30.709  1.00  0.00    -0.248 NA
ATOM     19  C   UNL A   1      46.128  28.013  29.445  1.00  0.00     0.031 C 
ATOM     20  C   UNL A   1      45.502  32.569  27.417  1.00  0.00     0.029 A 
ATOM     21  N   UNL A   1      44.524  32.212  29.397  1.00  0.00    -0.354 N 
ATOM     22  C   UNL A   1      45.068  28.360  31.425  1.00  0.00     0.074 A 
ATOM     23  C   UNL A   1      45.831  27.455  30.603  1.00  0.00     0.031 C 
ATOM     24  C   UNL A   1      44.941  33.729  27.808  1.00  0.00     0.029 A 
ATOM     25  C   UNL A   1      44.268  33.527  29.089  1.00  0.00     0.049 A 
ATOM     26  H   UNL A   1      44.213  31.784  30.226  1.00  0.00     0.167 HD
ATOM     27  C   UNL A   1      44.610  28.048  32.657  1.00  0.00     0.031 A 
ATOM     28  C   UNL A   1      43.554  34.446  29.770  1.00  0.00     0.031 A 
ATOM     29  C   UNL A   1      43.793  28.936  33.430  1.00  0.00     0.049 A 
ATOM     30  C   UNL A   1      42.945  34.034  31.089  1.00  0.00     0.074 A 
ATOM     31  C   UNL A   1      43.174  28.710  34.643  1.00  0.00     0.029 A 
ATOM     32  N   UNL A   1      43.469  30.228  33.040  1.00  0.00    -0.354 N 
ATOM     33  N   UNL A   1      43.064  32.894  31.734  1.00  0.00    -0.248 NA
ATOM     34  C   UNL A   1      42.103  35.025  31.769  1.00  0.00     0.031 C 
ATOM     35  C   UNL A   1      42.435  29.853  34.964  1.00  0.00     0.029 A 
ATOM     36  C   UNL A   1      42.643  30.810  33.979  1.00  0.00     0.049 A 
ATOM     37  H   UNL A   1      43.784  30.666  32.215  1.00  0.00     0.167 HD
ATOM     38  C   UNL A   1      42.333  33.041  32.907  1.00  0.00     0.074 A 
ATOM     39  C   UNL A   1      41.786  34.384  32.887  1.00  0.00     0.031 C 
ATOM     40  C   UNL A   1      42.127  32.154  33.913  1.00  0.00     0.031 A 
BRANCH  27  41
ATOM     41  C   UNL A   1      44.904  26.661  33.157  1.00  0.00    -0.014 A 
ATOM     42  C   UNL A   1      44.021  25.591  32.918  1.00  0.00     0.010 A 
ATOM     43  C   UNL A   1      46.048  26.443  33.944  1.00  0.00     0.010 A 
ATOM     44  C   UNL A   1      44.255  24.340  33.501  1.00  0.00     0.020 A 
ATOM     45  C   UNL A   1      46.296  25.190  34.509  1.00  0.00     0.020 A 
ATOM     46  C   UNL A   1      45.386  24.152  34.301  1.00  0.00     0.054 A 
BRANCH  46  47
ATOM     47  S   UNL A   1      45.657  22.529  35.065  1.00  0.00     0.124 S 
ATOM     48  O   UNL A   1      47.071  22.295  34.782  1.00  0.00    -0.237 OA
ATOM     49  O   UNL A   1      45.329  22.775  36.467  1.00  0.00    -0.237 OA
ATOM     50  O   UNL A   1      44.727  21.652  34.356  1.00  0.00    -0.744 OA
ENDBRANCH  46  47
ENDBRANCH  27  41
BRANCH  28  51
ATOM     51  C   UNL A   1      43.339  35.812  29.212  1.00  0.00    -0.014 A 
ATOM     52  C   UNL A   1      44.156  36.892  29.589  1.00  0.00     0.010 A 
ATOM     53  C   UNL A   1      42.291  36.043  28.301  1.00  0.00     0.010 A 
ATOM     54  C   UNL A   1      43.917  38.177  29.085  1.00  0.00     0.020 A 
ATOM     55  C   UNL A   1      42.065  37.319  27.774  1.00  0.00     0.020 A 
ATOM     56  C   UNL A   1      42.871  38.382  28.181  1.00  0.00     0.054 A 
BRANCH  56  57
ATOM     57  S   UNL A   1      42.594  40.048  27.512  1.00  0.00     0.124 S 
ATOM     58  O   UNL A   1      43.005  40.895  28.628  1.00  0.00    -0.237 OA
ATOM     59  O   UNL A   1      43.468  40.070  26.343  1.00  0.00    -0.237 OA
ATOM     60  O   UNL A   1      41.163  40.060  27.210  1.00  0.00    -0.744 OA
ENDBRANCH  56  57
ENDBRANCH  28  51
BRANCH  40  61
ATOM     61  C   UNL A   1      41.313  32.624  35.085  1.00  0.00    -0.014 A 
ATOM     62  C   UNL A   1      39.911  32.537  35.080  1.00  0.00     0.010 A 
ATOM     63  C   UNL A   1      41.975  33.090  36.235  1.00  0.00     0.010 A 
ATOM     64  C   UNL A   1      39.180  32.940  36.199  1.00  0.00     0.020 A 
ATOM     65  C   UNL A   1      41.249  33.469  37.364  1.00  0.00     0.020 A 
ATOM     66  C   UNL A   1      39.855  33.406  37.333  1.00  0.00     0.054 A 
BRANCH  66  67
ATOM     67  S   UNL A   1      38.888  33.883  38.790  1.00  0.00     0.124 S 
ATOM     68  O   UNL A   1      37.687  33.066  38.637  1.00  0.00    -0.237 OA
ATOM     69  O   UNL A   1      39.766  33.510  39.896  1.00  0.00    -0.237 OA
ATOM     70  O   UNL A   1      38.690  35.320  38.617  1.00  0.00    -0.744 OA
ENDBRANCH  66  67
ENDBRANCH  40  61
ENDBRANCH  14  15
ENDBRANCH   7   9
ENDBRANCH   6   7
ENDBRANCH   5   6
ENDBRANCH   4   5
ENDBRANCH   3   4
ENDBRANCH   2   3
ENDBRANCH   1   2
BRANCH   1  71
ATOM     71  O   UNL A   1      46.294  20.344  25.301  1.00  0.00    -0.377 OA
BRANCH  71  72
ATOM     72  C   UNL A   1      45.870  19.043  24.908  1.00  0.00     0.188 C 
BRANCH  72  73
ATOM     73  C   UNL A   1      44.349  18.829  25.003  1.00  0.00     0.188 C 
BRANCH  73  74
ATOM     74  O   UNL A   1      43.984  18.085  26.188  1.00  0.00    -0.376 OA
BRANCH  74  75
ATOM     75  C   UNL A   1      42.615  18.249  26.600  1.00  0.00     0.202 C 
BRANCH  75  76
ATOM     76  C   UNL A   1      41.961  19.511  25.957  1.00  0.00     0.261 C 
BRANCH  76  77
ATOM     77  O   UNL A   1      41.699  20.606  26.889  1.00  0.00    -0.458 OA
BRANCH  77  78
ATOM     78  C   UNL A   1      42.347  21.812  26.761  1.00  0.00     0.359 C 
ATOM     79  O   UNL A   1      43.484  21.963  26.362  1.00  0.00    -0.244 OA
BRANCH  78  80
ATOM     80  C   UNL A   1      41.437  22.950  27.155  1.00  0.00     0.179 A 
ATOM     81  N   UNL A   1      40.340  23.135  26.346  1.00  0.00    -0.245 NA
ATOM     82  C   UNL A   1      41.689  23.843  28.205  1.00  0.00     0.161 A 
ATOM     83  C   UNL A   1      39.567  24.217  26.608  1.00  0.00     0.132 A 
ATOM     84  N   UNL A   1      40.888  24.936  28.453  1.00  0.00    -0.247 NA
ATOM     85  C   UNL A   1      39.836  25.100  27.635  1.00  0.00     0.132 A 
BRANCH  82  86
ATOM     86  C   UNL A   1      42.884  23.870  29.089  1.00  0.00     0.278 C 
ATOM     87  O   UNL A   1      43.067  22.959  29.894  1.00  0.00    -0.267 OA
ATOM     88  N   UNL A   1      43.670  25.023  29.106  1.00  0.00    -0.303 N 
ATOM     89  H   UNL A   1      44.013  25.398  29.950  1.00  0.00     0.172 HD
BRANCH  88  90
ATOM     90  C   UNL A   1      43.946  25.612  27.896  1.00  0.00     0.164 A 
ATOM     91  N   UNL A   1      44.516  24.800  27.014  1.00  0.00    -0.155 NA
ATOM     92  C   UNL A   1      43.353  26.752  27.279  1.00  0.00     0.063 A 
ATOM     93  N   UNL A   1      43.923  25.176  25.879  1.00  0.00    -0.259 N 
ATOM     94  C   UNL A   1      43.210  26.337  25.969  1.00  0.00     0.157 A 
ATOM     95  C   UNL A   1      42.751  27.974  27.617  1.00  0.00     0.017 A 
ATOM     96  H   UNL A   1      43.993  24.659  25.045  1.00  0.00     0.192 HD
ATOM     97  N   UNL A   1      42.465  26.908  24.999  1.00  0.00    -0.237 NA
ATOM     98  C   UNL A   1      42.039  28.650  26.617  1.00  0.00     0.021 A 
ATOM     99  C   UNL A   1      41.896  28.065  25.369  1.00  0.00     0.113 A 
ENDBRANCH  88  90
ENDBRANCH  82  86
ENDBRANCH  78  80
ENDBRANCH  77  78
ENDBRANCH  76  77
ENDBRANCH  75  76
ENDBRANCH  74  75
ENDBRANCH  73  74
ENDBRANCH  72  73
ENDBRANCH  71  72
ENDBRANCH   1  71
TORSDOF 25
ENDMDL
MODEL 3
REMARK VINA RESULT:      -8.9      5.426      9.142
REMARK SMILES O=C(OCCOCCOCCOCCOC(=O)c1nccnc1C(=O)Nc1n[nH]c2ncccc12)c1ccc(-c2c3nc(c(-c4ccc(S(=O)(=O)[O-])cc4)c4ccc([nH]4)c(-c4ccc(S(=O)(=O)[O-])cc4)c4nc(c(-c5ccc(S(=O)(=O)[O-])cc5)c5ccc2[nH]5)C=C4)C=C3)cc1
REMARK SMILES IDX 8 1 7 2 6 3 5 4 4 5 3 6 2 7 1 8 36 9 37 10 95 11 38 12 94 13
REMARK SMILES IDX 39 14 40 15 41 16 88 17 42 18 93 19 87 20 89 21 43 22 92 23
REMARK SMILES IDX 86 24 85 25 44 27 74 28 55 29 73 30 56 31 59 32 72 33 90 34
REMARK SMILES IDX 57 35 58 36 71 38 91 39 60 40 45 41 46 42 54 43 47 44 53 45
REMARK SMILES IDX 48 46 49 47 50 48 51 49 52 50 75 51 76 52 84 53 77 54 83 55
REMARK SMILES IDX 78 56 79 57 80 58 81 59 82 60 61 61 62 62 70 63 63 64 69 65
REMARK SMILES IDX 64 66 65 67 66 68 67 69 68 70 9 71 10 72 11 73 12 74 13 75
REMARK SMILES IDX 14 76 15 77 16 78 17 79 18 80 19 81 23 82 20 83 22 84 21 85
REMARK SMILES IDX 24 86 25 87 26 88 27 90 28 91 35 92 29 93 30 94 34 95 31 97
REMARK SMILES IDX 33 98 32 99
REMARK H PARENT 89 26 59 37 26 89 29 96
REMARK Flexibility Score: inf
ROOT
ATOM      1  C   UNL A   1      43.589  22.993  24.687  1.00  0.00     0.188 C 
ENDROOT
BRANCH   1   2
ATOM      2  C   UNL A   1      43.910  24.454  24.904  1.00  0.00     0.188 C 
BRANCH   2   3
ATOM      3  O   UNL A   1      45.279  24.684  24.614  1.00  0.00    -0.376 OA
BRANCH   3   4
ATOM      4  C   UNL A   1      46.155  23.578  24.670  1.00  0.00     0.202 C 
BRANCH   4   5
ATOM      5  C   UNL A   1      47.529  24.050  24.189  1.00  0.00     0.261 C 
BRANCH   5   6
ATOM      6  O   UNL A   1      47.592  25.472  23.911  1.00  0.00    -0.460 OA
BRANCH   6   7
ATOM      7  C   UNL A   1      48.284  26.410  24.611  1.00  0.00     0.338 C 
ATOM      8  O   UNL A   1      49.505  26.475  24.458  1.00  0.00    -0.246 OA
BRANCH   7   9
ATOM      9  C   UNL A   1      47.614  27.461  25.463  1.00  0.00     0.060 A 
ATOM     10  C   UNL A   1      48.225  28.189  26.491  1.00  0.00     0.016 A 
ATOM     11  C   UNL A   1      46.267  27.755  25.168  1.00  0.00     0.016 A 
ATOM     12  C   UNL A   1      47.530  29.147  27.222  1.00  0.00     0.010 A 
ATOM     13  C   UNL A   1      45.539  28.675  25.935  1.00  0.00     0.010 A 
ATOM     14  C   UNL A   1      46.167  29.328  27.000  1.00  0.00    -0.014 A 
BRANCH  14  15
ATOM     15  C   UNL A   1      45.387  29.858  28.136  1.00  0.00     0.031 A 
ATOM     16  C   UNL A   1      45.304  28.964  29.347  1.00  0.00     0.074 A 
ATOM     17  C   UNL A   1      44.927  31.119  28.153  1.00  0.00     0.049 A 
ATOM     18  N   UNL A   1      44.779  29.196  30.519  1.00  0.00    -0.248 NA
ATOM     19  C   UNL A   1      45.934  27.634  29.226  1.00  0.00     0.031 C 
ATOM     20  C   UNL A   1      45.083  32.095  27.073  1.00  0.00     0.029 A 
ATOM     21  N   UNL A   1      44.263  31.806  29.134  1.00  0.00    -0.354 N 
ATOM     22  C   UNL A   1      45.022  28.046  31.266  1.00  0.00     0.074 A 
ATOM     23  C   UNL A   1      45.734  27.119  30.425  1.00  0.00     0.031 C 
ATOM     24  C   UNL A   1      44.535  33.262  27.459  1.00  0.00     0.029 A 
ATOM     25  C   UNL A   1      43.963  33.104  28.794  1.00  0.00     0.049 A 
ATOM     26  H   UNL A   1      44.023  31.407  30.001  1.00  0.00     0.167 HD
ATOM     27  C   UNL A   1      44.663  27.779  32.541  1.00  0.00     0.031 A 
ATOM     28  C   UNL A   1      43.289  34.040  29.491  1.00  0.00     0.031 A 
ATOM     29  C   UNL A   1      43.892  28.687  33.338  1.00  0.00     0.049 A 
ATOM     30  C   UNL A   1      42.788  33.674  30.868  1.00  0.00     0.074 A 
ATOM     31  C   UNL A   1      43.371  28.503  34.603  1.00  0.00     0.029 A 
ATOM     32  N   UNL A   1      43.520  29.958  32.923  1.00  0.00    -0.354 N 
ATOM     33  N   UNL A   1      42.974  32.563  31.546  1.00  0.00    -0.248 NA
ATOM     34  C   UNL A   1      41.984  34.681  31.571  1.00  0.00     0.031 C 
ATOM     35  C   UNL A   1      42.640  29.649  34.933  1.00  0.00     0.029 A 
ATOM     36  C   UNL A   1      42.758  30.567  33.899  1.00  0.00     0.049 A 
ATOM     37  H   UNL A   1      43.764  30.366  32.059  1.00  0.00     0.167 HD
ATOM     38  C   UNL A   1      42.331  32.748  32.766  1.00  0.00     0.074 A 
ATOM     39  C   UNL A   1      41.763  34.082  32.734  1.00  0.00     0.031 C 
ATOM     40  C   UNL A   1      42.216  31.900  33.819  1.00  0.00     0.031 A 
BRANCH  27  41
ATOM     41  C   UNL A   1      45.017  26.418  33.072  1.00  0.00    -0.014 A 
ATOM     42  C   UNL A   1      44.123  25.336  32.972  1.00  0.00     0.010 A 
ATOM     43  C   UNL A   1      46.236  26.241  33.749  1.00  0.00     0.010 A 
ATOM     44  C   UNL A   1      44.423  24.114  33.584  1.00  0.00     0.020 A 
ATOM     45  C   UNL A   1      46.549  25.015  34.342  1.00  0.00     0.020 A 
ATOM     46  C   UNL A   1      45.630  23.966  34.274  1.00  0.00     0.054 A 
BRANCH  46  47
ATOM     47  S   UNL A   1      45.990  22.381  35.081  1.00  0.00     0.124 S 
ATOM     48  O   UNL A   1      45.863  21.442  33.969  1.00  0.00    -0.237 OA
ATOM     49  O   UNL A   1      47.346  22.577  35.586  1.00  0.00    -0.237 OA
ATOM     50  O   UNL A   1      44.956  22.273  36.108  1.00  0.00    -0.744 OA
ENDBRANCH  46  47
ENDBRANCH  27  41
BRANCH  28  51
ATOM     51  C   UNL A   1      43.010  35.379  28.897  1.00  0.00    -0.014 A 
ATOM     52  C   UNL A   1      41.981  35.561  27.956  1.00  0.00     0.010 A 
ATOM     53  C   UNL A   1      43.796  36.489  29.263  1.00  0.00     0.010 A 
ATOM     54  C   UNL A   1      41.758  36.818  27.379  1.00  0.00     0.020 A 
ATOM     55  C   UNL A   1      43.558  37.751  28.710  1.00  0.00     0.020 A 
ATOM     56  C   UNL A   1      42.550  37.905  27.759  1.00  0.00     0.054 A 
BRANCH  56  57
ATOM     57  S   UNL A   1      42.226  39.535  27.025  1.00  0.00     0.124 S 
ATOM     58  O   UNL A   1      43.498  39.831  26.372  1.00  0.00    -0.237 OA
ATOM     59  O   UNL A   1      41.103  39.264  26.132  1.00  0.00    -0.237 OA
ATOM     60  O   UNL A   1      41.906  40.371  28.180  1.00  0.00    -0.744 OA
ENDBRANCH  56  57
ENDBRANCH  28  51
BRANCH  40  61
ATOM     61  C   UNL A   1      41.486  32.407  35.030  1.00  0.00    -0.014 A 
ATOM     62  C   UNL A   1      42.143  33.171  36.009  1.00  0.00     0.010 A 
ATOM     63  C   UNL A   1      40.104  32.175  35.143  1.00  0.00     0.010 A 
ATOM     64  C   UNL A   1      41.432  33.667  37.103  1.00  0.00     0.020 A 
ATOM     65  C   UNL A   1      39.386  32.691  36.221  1.00  0.00     0.020 A 
ATOM     66  C   UNL A   1      40.058  33.422  37.203  1.00  0.00     0.054 A 
BRANCH  66  67
ATOM     67  S   UNL A   1      39.147  34.113  38.609  1.00  0.00     0.124 S 
ATOM     68  O   UNL A   1      39.594  35.503  38.605  1.00  0.00    -0.237 OA
ATOM     69  O   UNL A   1      37.753  33.899  38.226  1.00  0.00    -0.237 OA
ATOM     70  O   UNL A   1      39.605  33.314  39.743  1.00  0.00    -0.744 OA
ENDBRANCH  66  67
ENDBRANCH  40  61
ENDBRANCH  14  15
ENDBRANCH   7   9
ENDBRANCH   6   7
ENDBRANCH   5   6
ENDBRANCH   4   5
ENDBRANCH   3   4
ENDBRANCH   2   3
ENDBRANCH   1   2
BRANCH   1  71
ATOM     71  O   UNL A   1      43.031  22.395  25.851  1.00  0.00    -0.377 OA
BRANCH  71  72
ATOM     72  C   UNL A   1      42.889  20.979  25.897  1.00  0.00     0.188 C 
BRANCH  72  73
ATOM     73  C   UNL A   1      41.523  20.508  26.428  1.00  0.00     0.188 C 
BRANCH  73  74
ATOM     74  O   UNL A   1      40.475  21.457  26.133  1.00  0.00    -0.376 OA
BRANCH  74  75
ATOM     75  C   UNL A   1      40.065  22.265  27.253  1.00  0.00     0.202 C 
BRANCH  75  76
ATOM     76  C   UNL A   1      39.438  23.617  26.796  1.00  0.00     0.261 C 
BRANCH  76  77
ATOM     77  O   UNL A   1      40.318  24.776  26.926  1.00  0.00    -0.458 OA
BRANCH  77  78
ATOM     78  C   UNL A   1      40.007  25.807  27.781  1.00  0.00     0.359 C 
ATOM     79  O   UNL A   1      39.290  25.722  28.757  1.00  0.00    -0.244 OA
BRANCH  78  80
ATOM     80  C   UNL A   1      40.712  27.076  27.365  1.00  0.00     0.179 A 
ATOM     81  N   UNL A   1      41.140  27.111  26.058  1.00  0.00    -0.245 NA
ATOM     82  C   UNL A   1      41.014  28.137  28.228  1.00  0.00     0.161 A 
ATOM     83  C   UNL A   1      41.873  28.189  25.689  1.00  0.00     0.132 A 
ATOM     84  N   UNL A   1      41.761  29.224  27.830  1.00  0.00    -0.247 NA
ATOM     85  C   UNL A   1      42.180  29.220  26.554  1.00  0.00     0.132 A 
BRANCH  82  86
ATOM     86  C   UNL A   1      40.746  28.206  29.689  1.00  0.00     0.278 C 
ATOM     87  O   UNL A   1      41.631  27.903  30.486  1.00  0.00    -0.267 OA
ATOM     88  N   UNL A   1      39.437  28.441  30.113  1.00  0.00    -0.303 N 
ATOM     89  H   UNL A   1      39.042  27.939  30.862  1.00  0.00     0.172 HD
BRANCH  88  90
ATOM     90  C   UNL A   1      38.723  29.404  29.441  1.00  0.00     0.164 A 
ATOM     91  N   UNL A   1      37.617  28.954  28.860  1.00  0.00    -0.155 NA
ATOM     92  C   UNL A   1      38.705  30.818  29.619  1.00  0.00     0.063 A 
ATOM     93  N   UNL A   1      36.770  29.963  29.076  1.00  0.00    -0.259 N 
ATOM     94  C   UNL A   1      37.357  31.109  29.532  1.00  0.00     0.157 A 
ATOM     95  C   UNL A   1      39.546  31.868  30.016  1.00  0.00     0.017 A 
ATOM     96  H   UNL A   1      35.801  29.888  28.920  1.00  0.00     0.192 HD
ATOM     97  N   UNL A   1      36.734  32.251  29.889  1.00  0.00    -0.237 NA
ATOM     98  C   UNL A   1      38.954  33.104  30.313  1.00  0.00     0.021 A 
ATOM     99  C   UNL A   1      37.574  33.223  30.275  1.00  0.00     0.113 A 
ENDBRANCH  88  90
ENDBRANCH  82  86
ENDBRANCH  78  80
ENDBRANCH  77  78
ENDBRANCH  76  77
ENDBRANCH  75  76
ENDBRANCH  74  75
ENDBRANCH  73  74
ENDBRANCH  72  73
ENDBRANCH  71  72
ENDBRANCH   1  71
TORSDOF 25
ENDMDL
