MODEL 1
REMARK VINA RESULT:      -9.3      0.000      0.000
REMARK SMILES N#Cc1cc(F)ccc1N1[C@@H]2CC[C@H]1C[C@H](CC(=O)OCCOCCOCCOCCOC(=O)c1ccc(-c3c4nc(c(-c5ccc(S(=O)(=O)[O-])cc5)c5ccc([nH]5)c(-c5ccc(S(=O)(=O)[O-])cc5)c5nc(c(-c6ccc(S(=O)(=O)[O-])cc6)c6ccc3[nH]6)C=C5)C=C4)cc1)C2
REMARK SMILES IDX 26 1 25 2 24 3 23 4 22 5 21 6 20 7 18 8 19 9 17 10 16 11
REMARK SMILES IDX 10 12 11 13 14 14 12 15 95 16 13 17 15 18 9 19 3 20 4 21
REMARK SMILES IDX 5 22 8 23 6 24 7 25 2 26 1 27 27 28 28 29 29 30 30 31 31 32
REMARK SMILES IDX 32 33 33 34 34 35 35 36 36 37 94 38 37 39 93 40 38 41 39 42
REMARK SMILES IDX 40 43 87 44 41 45 92 46 86 47 88 48 42 49 91 50 85 51 84 52
REMARK SMILES IDX 43 54 73 55 54 56 72 57 55 58 58 59 71 60 89 61 56 62 57 63
REMARK SMILES IDX 70 65 90 66 59 67 44 68 45 69 53 70 46 71 52 72 47 73 48 74
REMARK SMILES IDX 49 75 50 76 51 77 74 78 75 79 83 80 76 81 82 82 77 83 78 84
REMARK SMILES IDX 79 85 80 86 81 87 60 88 61 89 69 90 62 91 68 92 63 93 64 94
REMARK SMILES IDX 65 95 66 96 67 97
REMARK H PARENT 88 53 58 64
REMARK Flexibility Score: inf
ROOT
ATOM      1  O   UNL A   1      42.116  19.546  26.906  1.00  0.00    -0.377 OA
ENDROOT
BRANCH   1   2
ATOM      2  C   UNL A   1      41.542  20.603  27.654  1.00  0.00     0.188 C 
BRANCH   2   3
ATOM      3  C   UNL A   1      40.992  21.832  26.925  1.00  0.00     0.188 C 
BRANCH   3   4
ATOM      4  O   UNL A   1      39.653  22.178  27.180  1.00  0.00    -0.376 OA
BRANCH   4   5
ATOM      5  C   UNL A   1      38.751  22.455  26.120  1.00  0.00     0.202 C 
BRANCH   5   6
ATOM      6  C   UNL A   1      38.011  21.411  25.256  1.00  0.00     0.261 C 
BRANCH   6   7
ATOM      7  O   UNL A   1      36.584  21.494  25.160  1.00  0.00    -0.463 OA
BRANCH   7   8
ATOM      8  C   UNL A   1      36.108  22.506  24.401  1.00  0.00     0.306 C 
ATOM      9  O   UNL A   1      36.487  22.745  23.256  1.00  0.00    -0.252 OA
BRANCH   8  10
ATOM     10  C   UNL A   1      34.982  23.310  25.014  1.00  0.00     0.126 C 
BRANCH  10  11
ATOM     11  C   UNL A   1      33.695  23.681  24.260  1.00  0.00     0.004 C 
ATOM     12  N   UNL A   1      31.840  25.881  24.072  1.00  0.00    -0.364 N 
ATOM     13  C   UNL A   1      32.683  25.622  22.909  1.00  0.00     0.083 C 
ATOM     14  C   UNL A   1      31.299  24.589  24.488  1.00  0.00     0.083 C 
ATOM     15  C   UNL A   1      31.822  24.653  22.089  1.00  0.00     0.027 C 
ATOM     16  C   UNL A   1      33.965  24.978  23.449  1.00  0.00     0.029 C 
ATOM     17  C   UNL A   1      30.888  23.992  23.115  1.00  0.00     0.027 C 
ATOM     18  C   UNL A   1      32.405  23.719  25.109  1.00  0.00     0.029 C 
BRANCH  12  19
ATOM     19  C   UNL A   1      31.969  27.091  24.705  1.00  0.00     0.055 A 
ATOM     20  C   UNL A   1      31.347  28.306  24.354  1.00  0.00     0.078 A 
ATOM     21  C   UNL A   1      31.326  29.383  25.261  1.00  0.00     0.060 A 
ATOM     22  C   UNL A   1      31.950  29.278  26.491  1.00  0.00     0.124 A 
ATOM     23  C   UNL A   1      32.653  27.060  25.943  1.00  0.00     0.030 A 
ATOM     24  F   UNL A   1      31.857  30.287  27.366  1.00  0.00    -0.207 F 
ATOM     25  C   UNL A   1      32.642  28.133  26.833  1.00  0.00     0.041 A 
BRANCH  20  26
ATOM     26  C   UNL A   1      30.607  28.533  23.150  1.00  0.00     0.101 C 
ATOM     27  N   UNL A   1      29.902  28.720  22.248  1.00  0.00    -0.192 NA
ENDBRANCH  20  26
ENDBRANCH  12  19
ENDBRANCH  10  11
ENDBRANCH   8  10
ENDBRANCH   7   8
ENDBRANCH   6   7
ENDBRANCH   5   6
ENDBRANCH   4   5
ENDBRANCH   3   4
ENDBRANCH   2   3
ENDBRANCH   1   2
BRANCH   1  28
ATOM     28  C   UNL A   1      43.157  19.808  25.968  1.00  0.00     0.188 C 
BRANCH  28  29
ATOM     29  C   UNL A   1      43.185  21.130  25.177  1.00  0.00     0.188 C 
BRANCH  29  30
ATOM     30  O   UNL A   1      44.188  22.045  25.577  1.00  0.00    -0.376 OA
BRANCH  30  31
ATOM     31  C   UNL A   1      44.457  23.169  24.754  1.00  0.00     0.202 C 
BRANCH  31  32
ATOM     32  C   UNL A   1      44.068  24.574  25.245  1.00  0.00     0.261 C 
BRANCH  32  33
ATOM     33  O   UNL A   1      42.876  24.680  26.041  1.00  0.00    -0.460 OA
BRANCH  33  34
ATOM     34  C   UNL A   1      42.158  25.820  25.950  1.00  0.00     0.338 C 
ATOM     35  O   UNL A   1      41.538  26.223  24.984  1.00  0.00    -0.246 OA
BRANCH  34  36
ATOM     36  C   UNL A   1      42.098  26.421  27.300  1.00  0.00     0.060 A 
ATOM     37  C   UNL A   1      41.110  25.994  28.196  1.00  0.00     0.016 A 
ATOM     38  C   UNL A   1      43.005  27.416  27.669  1.00  0.00     0.016 A 
ATOM     39  C   UNL A   1      40.998  26.592  29.452  1.00  0.00     0.010 A 
ATOM     40  C   UNL A   1      42.879  28.029  28.919  1.00  0.00     0.010 A 
ATOM     41  C   UNL A   1      41.852  27.646  29.801  1.00  0.00    -0.014 A 
BRANCH  41  42
ATOM     42  C   UNL A   1      41.552  28.474  30.996  1.00  0.00     0.031 A 
ATOM     43  C   UNL A   1      40.400  29.442  30.926  1.00  0.00     0.074 A 
ATOM     44  C   UNL A   1      42.269  28.357  32.129  1.00  0.00     0.049 A 
ATOM     45  N   UNL A   1      39.981  30.298  31.819  1.00  0.00    -0.248 NA
ATOM     46  C   UNL A   1      39.618  29.443  29.677  1.00  0.00     0.031 C 
ATOM     47  C   UNL A   1      43.365  27.413  32.344  1.00  0.00     0.029 A 
ATOM     48  N   UNL A   1      42.178  29.044  33.314  1.00  0.00    -0.354 N 
ATOM     49  C   UNL A   1      38.901  30.954  31.236  1.00  0.00     0.074 A 
ATOM     50  C   UNL A   1      38.747  30.413  29.904  1.00  0.00     0.031 C 
ATOM     51  C   UNL A   1      43.845  27.580  33.589  1.00  0.00     0.029 A 
ATOM     52  C   UNL A   1      43.122  28.671  34.241  1.00  0.00     0.049 A 
ATOM     53  H   UNL A   1      41.501  29.739  33.483  1.00  0.00     0.167 HD
ATOM     54  C   UNL A   1      38.110  31.918  31.762  1.00  0.00     0.031 A 
ATOM     55  C   UNL A   1      43.383  29.168  35.468  1.00  0.00     0.031 A 
ATOM     56  C   UNL A   1      38.277  32.460  33.086  1.00  0.00     0.049 A 
ATOM     57  C   UNL A   1      42.545  30.305  35.997  1.00  0.00     0.074 A 
ATOM     58  C   UNL A   1      37.515  33.427  33.719  1.00  0.00     0.029 A 
ATOM     59  N   UNL A   1      39.278  32.094  33.973  1.00  0.00    -0.354 N 
ATOM     60  N   UNL A   1      41.516  30.901  35.443  1.00  0.00    -0.248 NA
ATOM     61  C   UNL A   1      42.903  30.831  37.323  1.00  0.00     0.031 C 
ATOM     62  C   UNL A   1      38.102  33.700  34.958  1.00  0.00     0.029 A 
ATOM     63  C   UNL A   1      39.177  32.843  35.133  1.00  0.00     0.049 A 
ATOM     64  H   UNL A   1      39.959  31.404  33.803  1.00  0.00     0.167 HD
ATOM     65  C   UNL A   1      41.080  31.845  36.369  1.00  0.00     0.074 A 
ATOM     66  C   UNL A   1      41.950  31.731  37.521  1.00  0.00     0.031 C 
ATOM     67  C   UNL A   1      40.049  32.722  36.276  1.00  0.00     0.031 A 
BRANCH  54  68
ATOM     68  C   UNL A   1      37.021  32.487  30.889  1.00  0.00    -0.014 A 
ATOM     69  C   UNL A   1      37.268  33.546  29.997  1.00  0.00     0.010 A 
ATOM     70  C   UNL A   1      35.734  31.917  30.932  1.00  0.00     0.010 A 
ATOM     71  C   UNL A   1      36.240  34.047  29.193  1.00  0.00     0.020 A 
ATOM     72  C   UNL A   1      34.713  32.393  30.106  1.00  0.00     0.020 A 
ATOM     73  C   UNL A   1      34.969  33.466  29.251  1.00  0.00     0.054 A 
BRANCH  73  74
ATOM     74  S   UNL A   1      33.665  34.116  28.172  1.00  0.00     0.124 S 
ATOM     75  O   UNL A   1      34.427  34.954  27.249  1.00  0.00    -0.237 OA
ATOM     76  O   UNL A   1      33.095  32.901  27.593  1.00  0.00    -0.237 OA
ATOM     77  O   UNL A   1      32.784  34.840  29.085  1.00  0.00    -0.744 OA
ENDBRANCH  73  74
ENDBRANCH  54  68
BRANCH  55  78
ATOM     78  C   UNL A   1      44.493  28.599  36.285  1.00  0.00    -0.014 A 
ATOM     79  C   UNL A   1      45.793  29.127  36.191  1.00  0.00     0.010 A 
ATOM     80  C   UNL A   1      44.258  27.520  37.158  1.00  0.00     0.010 A 
ATOM     81  C   UNL A   1      46.837  28.580  36.941  1.00  0.00     0.020 A 
ATOM     82  C   UNL A   1      45.292  26.992  37.935  1.00  0.00     0.020 A 
ATOM     83  C   UNL A   1      46.579  27.519  37.813  1.00  0.00     0.054 A 
BRANCH  83  84
ATOM     84  S   UNL A   1      47.942  26.864  38.816  1.00  0.00     0.124 S 
ATOM     85  O   UNL A   1      47.229  26.122  39.851  1.00  0.00    -0.237 OA
ATOM     86  O   UNL A   1      48.678  26.054  37.850  1.00  0.00    -0.237 OA
ATOM     87  O   UNL A   1      48.638  28.064  39.274  1.00  0.00    -0.744 OA
ENDBRANCH  83  84
ENDBRANCH  55  78
BRANCH  67  88
ATOM     88  C   UNL A   1      39.766  33.601  37.468  1.00  0.00    -0.014 A 
ATOM     89  C   UNL A   1      39.022  33.136  38.568  1.00  0.00     0.010 A 
ATOM     90  C   UNL A   1      40.312  34.898  37.514  1.00  0.00     0.010 A 
ATOM     91  C   UNL A   1      38.800  33.965  39.672  1.00  0.00     0.020 A 
ATOM     92  C   UNL A   1      40.123  35.716  38.631  1.00  0.00     0.020 A 
ATOM     93  C   UNL A   1      39.354  35.248  39.698  1.00  0.00     0.054 A 
BRANCH  93  94
ATOM     94  S   UNL A   1      39.089  36.284  41.162  1.00  0.00     0.124 S 
ATOM     95  O   UNL A   1      40.279  35.997  41.958  1.00  0.00    -0.237 OA
ATOM     96  O   UNL A   1      39.022  37.628  40.593  1.00  0.00    -0.237 OA
ATOM     97  O   UNL A   1      37.832  35.787  41.718  1.00  0.00    -0.744 OA
ENDBRANCH  93  94
ENDBRANCH  67  88
ENDBRANCH  41  42
ENDBRANCH  34  36
ENDBRANCH  33  34
ENDBRANCH  32  33
ENDBRANCH  31  32
ENDBRANCH  30  31
ENDBRANCH  29  30
ENDBRANCH  28  29
ENDBRANCH   1  28
TORSDOF 26
ENDMDL
MODEL 2
REMARK VINA RESULT:      -8.5      1.877      8.177
REMARK SMILES N#Cc1cc(F)ccc1N1[C@@H]2CC[C@H]1C[C@H](CC(=O)OCCOCCOCCOCCOC(=O)c1ccc(-c3c4nc(c(-c5ccc(S(=O)(=O)[O-])cc5)c5ccc([nH]5)c(-c5ccc(S(=O)(=O)[O-])cc5)c5nc(c(-c6ccc(S(=O)(=O)[O-])cc6)c6ccc3[nH]6)C=C5)C=C4)cc1)C2
REMARK SMILES IDX 26 1 25 2 24 3 23 4 22 5 21 6 20 7 18 8 19 9 17 10 16 11
REMARK SMILES IDX 10 12 11 13 14 14 12 15 95 16 13 17 15 18 9 19 3 20 4 21
REMARK SMILES IDX 5 22 8 23 6 24 7 25 2 26 1 27 27 28 28 29 29 30 30 31 31 32
REMARK SMILES IDX 32 33 33 34 34 35 35 36 36 37 94 38 37 39 93 40 38 41 39 42
REMARK SMILES IDX 40 43 87 44 41 45 92 46 86 47 88 48 42 49 91 50 85 51 84 52
REMARK SMILES IDX 43 54 73 55 54 56 72 57 55 58 58 59 71 60 89 61 56 62 57 63
REMARK SMILES IDX 70 65 90 66 59 67 44 68 45 69 53 70 46 71 52 72 47 73 48 74
REMARK SMILES IDX 49 75 50 76 51 77 74 78 75 79 83 80 76 81 82 82 77 83 78 84
REMARK SMILES IDX 79 85 80 86 81 87 60 88 61 89 69 90 62 91 68 92 63 93 64 94
REMARK SMILES IDX 65 95 66 96 67 97
REMARK H PARENT 88 53 58 64
REMARK Flexibility Score: inf
ROOT
ATOM      1  O   UNL A   1      42.088  19.082  26.979  1.00  0.00    -0.377 OA
ENDROOT
BRANCH   1   2
ATOM      2  C   UNL A   1      42.093  20.497  27.023  1.00  0.00     0.188 C 
BRANCH   2   3
ATOM      3  C   UNL A   1      41.081  21.283  26.186  1.00  0.00     0.188 C 
BRANCH   3   4
ATOM      4  O   UNL A   1      39.755  21.314  26.653  1.00  0.00    -0.376 OA
BRANCH   4   5
ATOM      5  C   UNL A   1      39.139  22.535  27.033  1.00  0.00     0.202 C 
BRANCH   5   6
ATOM      6  C   UNL A   1      38.920  23.766  26.127  1.00  0.00     0.261 C 
BRANCH   6   7
ATOM      7  O   UNL A   1      37.807  23.758  25.224  1.00  0.00    -0.463 OA
BRANCH   7   8
ATOM      8  C   UNL A   1      36.681  23.174  25.690  1.00  0.00     0.306 C 
ATOM      9  O   UNL A   1      36.060  23.565  26.677  1.00  0.00    -0.252 OA
BRANCH   8  10
ATOM     10  C   UNL A   1      36.147  22.026  24.860  1.00  0.00     0.126 C 
BRANCH  10  11
ATOM     11  C   UNL A   1      34.844  22.099  24.048  1.00  0.00     0.004 C 
ATOM     12  N   UNL A   1      32.601  23.874  23.687  1.00  0.00    -0.364 N 
ATOM     13  C   UNL A   1      33.525  23.736  22.566  1.00  0.00     0.083 C 
ATOM     14  C   UNL A   1      32.309  22.520  24.153  1.00  0.00     0.083 C 
ATOM     15  C   UNL A   1      32.907  22.579  21.772  1.00  0.00     0.027 C 
ATOM     16  C   UNL A   1      34.886  23.385  23.179  1.00  0.00     0.029 C 
ATOM     17  C   UNL A   1      32.080  21.792  22.801  1.00  0.00     0.027 C 
ATOM     18  C   UNL A   1      33.539  21.917  24.853  1.00  0.00     0.029 C 
BRANCH  12  19
ATOM     19  C   UNL A   1      32.463  25.113  24.260  1.00  0.00     0.055 A 
ATOM     20  C   UNL A   1      32.126  25.398  25.599  1.00  0.00     0.078 A 
ATOM     21  C   UNL A   1      32.318  26.692  26.120  1.00  0.00     0.060 A 
ATOM     22  C   UNL A   1      32.802  27.709  25.317  1.00  0.00     0.124 A 
ATOM     23  C   UNL A   1      32.884  26.202  23.463  1.00  0.00     0.030 A 
ATOM     24  F   UNL A   1      33.044  28.913  25.850  1.00  0.00    -0.207 F 
ATOM     25  C   UNL A   1      33.060  27.485  23.979  1.00  0.00     0.041 A 
BRANCH  20  26
ATOM     26  C   UNL A   1      31.684  24.434  26.560  1.00  0.00     0.101 C 
ATOM     27  N   UNL A   1      31.251  23.603  27.245  1.00  0.00    -0.192 NA
ENDBRANCH  20  26
ENDBRANCH  12  19
ENDBRANCH  10  11
ENDBRANCH   8  10
ENDBRANCH   7   8
ENDBRANCH   6   7
ENDBRANCH   5   6
ENDBRANCH   4   5
ENDBRANCH   3   4
ENDBRANCH   2   3
ENDBRANCH   1   2
BRANCH   1  28
ATOM     28  C   UNL A   1      43.067  18.379  26.219  1.00  0.00     0.188 C 
BRANCH  28  29
ATOM     29  C   UNL A   1      43.815  19.077  25.067  1.00  0.00     0.188 C 
BRANCH  29  30
ATOM     30  O   UNL A   1      45.079  19.612  25.411  1.00  0.00    -0.376 OA
BRANCH  30  31
ATOM     31  C   UNL A   1      45.683  20.556  24.541  1.00  0.00     0.202 C 
BRANCH  31  32
ATOM     32  C   UNL A   1      45.727  22.038  24.950  1.00  0.00     0.261 C 
BRANCH  32  33
ATOM     33  O   UNL A   1      44.839  22.452  26.002  1.00  0.00    -0.460 OA
BRANCH  33  34
ATOM     34  C   UNL A   1      43.981  23.461  25.740  1.00  0.00     0.338 C 
ATOM     35  O   UNL A   1      43.265  23.582  24.764  1.00  0.00    -0.246 OA
BRANCH  34  36
ATOM     36  C   UNL A   1      43.918  24.320  26.942  1.00  0.00     0.060 A 
ATOM     37  C   UNL A   1      43.142  23.912  28.035  1.00  0.00     0.016 A 
ATOM     38  C   UNL A   1      44.611  25.531  26.980  1.00  0.00     0.016 A 
ATOM     39  C   UNL A   1      43.021  24.736  29.154  1.00  0.00     0.010 A 
ATOM     40  C   UNL A   1      44.471  26.366  28.093  1.00  0.00     0.010 A 
ATOM     41  C   UNL A   1      43.647  25.989  29.168  1.00  0.00    -0.014 A 
BRANCH  41  42
ATOM     42  C   UNL A   1      43.285  26.983  30.210  1.00  0.00     0.031 A 
ATOM     43  C   UNL A   1      44.154  27.084  31.436  1.00  0.00     0.074 A 
ATOM     44  C   UNL A   1      42.223  27.796  30.064  1.00  0.00     0.049 A 
ATOM     45  N   UNL A   1      44.011  27.838  32.493  1.00  0.00    -0.248 NA
ATOM     46  C   UNL A   1      45.343  26.216  31.472  1.00  0.00     0.031 C 
ATOM     47  C   UNL A   1      41.343  27.840  28.897  1.00  0.00     0.029 A 
ATOM     48  N   UNL A   1      41.705  28.743  30.913  1.00  0.00    -0.354 N 
ATOM     49  C   UNL A   1      45.077  27.522  33.329  1.00  0.00     0.074 A 
ATOM     50  C   UNL A   1      45.844  26.491  32.666  1.00  0.00     0.031 C 
ATOM     51  C   UNL A   1      40.393  28.769  29.104  1.00  0.00     0.029 A 
ATOM     52  C   UNL A   1      40.570  29.352  30.433  1.00  0.00     0.049 A 
ATOM     53  H   UNL A   1      42.108  28.965  31.783  1.00  0.00     0.167 HD
ATOM     54  C   UNL A   1      45.390  28.044  34.539  1.00  0.00     0.031 A 
ATOM     55  C   UNL A   1      39.757  30.262  31.009  1.00  0.00     0.031 A 
ATOM     56  C   UNL A   1      44.616  29.063  35.198  1.00  0.00     0.049 A 
ATOM     57  C   UNL A   1      40.076  30.762  32.397  1.00  0.00     0.074 A 
ATOM     58  C   UNL A   1      44.860  29.672  36.417  1.00  0.00     0.029 A 
ATOM     59  N   UNL A   1      43.444  29.615  34.704  1.00  0.00    -0.354 N 
ATOM     60  N   UNL A   1      41.098  30.468  33.166  1.00  0.00    -0.248 NA
ATOM     61  C   UNL A   1      39.133  31.721  32.989  1.00  0.00     0.031 C 
ATOM     62  C   UNL A   1      43.795  30.534  36.694  1.00  0.00     0.029 A 
ATOM     63  C   UNL A   1      42.932  30.528  35.609  1.00  0.00     0.049 A 
ATOM     64  H   UNL A   1      43.036  29.390  33.836  1.00  0.00     0.167 HD
ATOM     65  C   UNL A   1      40.940  31.237  34.316  1.00  0.00     0.074 A 
ATOM     66  C   UNL A   1      39.732  32.015  34.134  1.00  0.00     0.031 C 
ATOM     67  C   UNL A   1      41.728  31.298  35.419  1.00  0.00     0.031 A 
BRANCH  54  68
ATOM     68  C   UNL A   1      46.595  27.488  35.253  1.00  0.00    -0.014 A 
ATOM     69  C   UNL A   1      47.872  28.058  35.100  1.00  0.00     0.010 A 
ATOM     70  C   UNL A   1      46.436  26.399  36.130  1.00  0.00     0.010 A 
ATOM     71  C   UNL A   1      48.970  27.526  35.782  1.00  0.00     0.020 A 
ATOM     72  C   UNL A   1      47.524  25.885  36.839  1.00  0.00     0.020 A 
ATOM     73  C   UNL A   1      48.789  26.444  36.650  1.00  0.00     0.054 A 
BRANCH  73  74
ATOM     74  S   UNL A   1      50.226  25.797  37.546  1.00  0.00     0.124 S 
ATOM     75  O   UNL A   1      49.597  25.131  38.684  1.00  0.00    -0.237 OA
ATOM     76  O   UNL A   1      50.843  24.911  36.561  1.00  0.00    -0.237 OA
ATOM     77  O   UNL A   1      51.000  26.992  37.875  1.00  0.00    -0.744 OA
ENDBRANCH  73  74
ENDBRANCH  54  68
BRANCH  55  78
ATOM     78  C   UNL A   1      38.556  30.760  30.281  1.00  0.00    -0.014 A 
ATOM     79  C   UNL A   1      38.576  32.014  29.644  1.00  0.00     0.010 A 
ATOM     80  C   UNL A   1      37.381  29.987  30.225  1.00  0.00     0.010 A 
ATOM     81  C   UNL A   1      37.442  32.490  28.980  1.00  0.00     0.020 A 
ATOM     82  C   UNL A   1      36.257  30.445  29.534  1.00  0.00     0.020 A 
ATOM     83  C   UNL A   1      36.291  31.700  28.923  1.00  0.00     0.054 A 
BRANCH  83  84
ATOM     84  S   UNL A   1      34.853  32.318  28.006  1.00  0.00     0.124 S 
ATOM     85  O   UNL A   1      35.427  33.430  27.254  1.00  0.00    -0.237 OA
ATOM     86  O   UNL A   1      34.463  31.154  27.216  1.00  0.00    -0.237 OA
ATOM     87  O   UNL A   1      33.912  32.695  29.058  1.00  0.00    -0.744 OA
ENDBRANCH  83  84
ENDBRANCH  55  78
BRANCH  67  88
ATOM     88  C   UNL A   1      41.341  32.272  36.504  1.00  0.00    -0.014 A 
ATOM     89  C   UNL A   1      42.088  33.439  36.748  1.00  0.00     0.010 A 
ATOM     90  C   UNL A   1      40.169  32.044  37.251  1.00  0.00     0.010 A 
ATOM     91  C   UNL A   1      41.688  34.339  37.741  1.00  0.00     0.020 A 
ATOM     92  C   UNL A   1      39.748  32.958  38.219  1.00  0.00     0.020 A 
ATOM     93  C   UNL A   1      40.519  34.094  38.469  1.00  0.00     0.054 A 
BRANCH  93  94
ATOM     94  S   UNL A   1      40.001  35.300  39.719  1.00  0.00     0.124 S 
ATOM     95  O   UNL A   1      41.245  35.540  40.446  1.00  0.00    -0.237 OA
ATOM     96  O   UNL A   1      39.523  36.416  38.907  1.00  0.00    -0.237 OA
ATOM     97  O   UNL A   1      38.965  34.598  40.473  1.00  0.00    -0.744 OA
ENDBRANCH  93  94
ENDBRANCH  67  88
ENDBRANCH  41  42
ENDBRANCH  34  36
ENDBRANCH  33  34
ENDBRANCH  32  33
ENDBRANCH  31  32
ENDBRANCH  30  31
ENDBRANCH  29  30
ENDBRANCH  28  29
ENDBRANCH   1  28
TORSDOF 26
ENDMDL
MODEL 3
REMARK VINA RESULT:      -8.3      6.664      7.617
REMARK SMILES N#Cc1cc(F)ccc1N1[C@@H]2CC[C@H]1C[C@H](CC(=O)OCCOCCOCCOCCOC(=O)c1ccc(-c3c4nc(c(-c5ccc(S(=O)(=O)[O-])cc5)c5ccc([nH]5)c(-c5ccc(S(=O)(=O)[O-])cc5)c5nc(c(-c6ccc(S(=O)(=O)[O-])cc6)c6ccc3[nH]6)C=C5)C=C4)cc1)C2
REMARK SMILES IDX 26 1 25 2 24 3 23 4 22 5 21 6 20 7 18 8 19 9 17 10 16 11
REMARK SMILES IDX 10 12 11 13 14 14 12 15 95 16 13 17 15 18 9 19 3 20 4 21
REMARK SMILES IDX 5 22 8 23 6 24 7 25 2 26 1 27 27 28 28 29 29 30 30 31 31 32
REMARK SMILES IDX 32 33 33 34 34 35 35 36 36 37 94 38 37 39 93 40 38 41 39 42
REMARK SMILES IDX 40 43 87 44 41 45 92 46 86 47 88 48 42 49 91 50 85 51 84 52
REMARK SMILES IDX 43 54 73 55 54 56 72 57 55 58 58 59 71 60 89 61 56 62 57 63
REMARK SMILES IDX 70 65 90 66 59 67 44 68 45 69 53 70 46 71 52 72 47 73 48 74
REMARK SMILES IDX 49 75 50 76 51 77 74 78 75 79 83 80 76 81 82 82 77 83 78 84
REMARK SMILES IDX 79 85 80 86 81 87 60 88 61 89 69 90 62 91 68 92 63 93 64 94
REMARK SMILES IDX 65 95 66 96 67 97
REMARK H PARENT 88 53 58 64
REMARK Flexibility Score: inf
ROOT
ATOM      1  O   UNL A   1      42.664  21.198  26.997  1.00  0.00    -0.377 OA
ENDROOT
BRANCH   1   2
ATOM      2  C   UNL A   1      42.191  22.531  27.071  1.00  0.00     0.188 C 
BRANCH   2   3
ATOM      3  C   UNL A   1      40.858  22.897  26.413  1.00  0.00     0.188 C 
BRANCH   3   4
ATOM      4  O   UNL A   1      40.024  21.832  26.029  1.00  0.00    -0.376 OA
BRANCH   4   5
ATOM      5  C   UNL A   1      38.612  21.967  26.031  1.00  0.00     0.202 C 
BRANCH   5   6
ATOM      6  C   UNL A   1      37.666  21.682  24.845  1.00  0.00     0.261 C 
BRANCH   6   7
ATOM      7  O   UNL A   1      36.691  22.673  24.498  1.00  0.00    -0.463 OA
BRANCH   7   8
ATOM      8  C   UNL A   1      36.385  23.558  25.473  1.00  0.00     0.306 C 
ATOM      9  O   UNL A   1      37.139  24.455  25.849  1.00  0.00    -0.252 OA
BRANCH   8  10
ATOM     10  C   UNL A   1      34.988  23.448  26.041  1.00  0.00     0.126 C 
BRANCH  10  11
ATOM     11  C   UNL A   1      33.731  23.949  25.311  1.00  0.00     0.004 C 
ATOM     12  N   UNL A   1      32.246  26.395  24.962  1.00  0.00    -0.364 N 
ATOM     13  C   UNL A   1      32.960  25.881  23.798  1.00  0.00     0.083 C 
ATOM     14  C   UNL A   1      31.532  25.261  25.545  1.00  0.00     0.083 C 
ATOM     15  C   UNL A   1      31.904  24.990  23.132  1.00  0.00     0.027 C 
ATOM     16  C   UNL A   1      34.154  25.092  24.347  1.00  0.00     0.029 C 
ATOM     17  C   UNL A   1      30.943  24.603  24.268  1.00  0.00     0.027 C 
ATOM     18  C   UNL A   1      32.521  24.288  26.208  1.00  0.00     0.029 C 
BRANCH  12  19
ATOM     19  C   UNL A   1      32.608  27.625  25.449  1.00  0.00     0.055 A 
ATOM     20  C   UNL A   1      31.979  28.861  25.192  1.00  0.00     0.078 A 
ATOM     21  C   UNL A   1      32.264  29.984  25.991  1.00  0.00     0.060 A 
ATOM     22  C   UNL A   1      33.194  29.902  27.013  1.00  0.00     0.124 A 
ATOM     23  C   UNL A   1      33.600  27.613  26.456  1.00  0.00     0.030 A 
ATOM     24  F   UNL A   1      33.398  30.962  27.806  1.00  0.00    -0.207 F 
ATOM     25  C   UNL A   1      33.890  28.731  27.237  1.00  0.00     0.041 A 
BRANCH  20  26
ATOM     26  C   UNL A   1      30.952  29.074  24.217  1.00  0.00     0.101 C 
ATOM     27  N   UNL A   1      30.036  29.213  23.519  1.00  0.00    -0.192 NA
ENDBRANCH  20  26
ENDBRANCH  12  19
ENDBRANCH  10  11
ENDBRANCH   8  10
ENDBRANCH   7   8
ENDBRANCH   6   7
ENDBRANCH   5   6
ENDBRANCH   4   5
ENDBRANCH   3   4
ENDBRANCH   2   3
ENDBRANCH   1   2
BRANCH   1  28
ATOM     28  C   UNL A   1      43.531  20.797  25.939  1.00  0.00     0.188 C 
BRANCH  28  29
ATOM     29  C   UNL A   1      44.123  21.841  24.973  1.00  0.00     0.188 C 
BRANCH  29  30
ATOM     30  O   UNL A   1      45.524  22.018  25.069  1.00  0.00    -0.376 OA
BRANCH  30  31
ATOM     31  C   UNL A   1      46.134  23.064  24.329  1.00  0.00     0.202 C 
BRANCH  31  32
ATOM     32  C   UNL A   1      46.630  24.319  25.068  1.00  0.00     0.261 C 
BRANCH  32  33
ATOM     33  O   UNL A   1      47.215  25.360  24.267  1.00  0.00    -0.460 OA
BRANCH  33  34
ATOM     34  C   UNL A   1      48.234  26.067  24.801  1.00  0.00     0.338 C 
ATOM     35  O   UNL A   1      49.419  25.949  24.553  1.00  0.00    -0.246 OA
BRANCH  34  36
ATOM     36  C   UNL A   1      47.649  27.151  25.618  1.00  0.00     0.060 A 
ATOM     37  C   UNL A   1      46.807  28.090  25.008  1.00  0.00     0.016 A 
ATOM     38  C   UNL A   1      47.946  27.248  26.979  1.00  0.00     0.016 A 
ATOM     39  C   UNL A   1      46.293  29.156  25.747  1.00  0.00     0.010 A 
ATOM     40  C   UNL A   1      47.448  28.328  27.713  1.00  0.00     0.010 A 
ATOM     41  C   UNL A   1      46.650  29.307  27.093  1.00  0.00    -0.014 A 
BRANCH  41  42
ATOM     42  C   UNL A   1      46.356  30.580  27.797  1.00  0.00     0.031 A 
ATOM     43  C   UNL A   1      45.070  30.689  28.572  1.00  0.00     0.074 A 
ATOM     44  C   UNL A   1      47.220  31.612  27.770  1.00  0.00     0.049 A 
ATOM     45  N   UNL A   1      44.578  31.710  29.223  1.00  0.00    -0.248 NA
ATOM     46  C   UNL A   1      44.225  29.483  28.618  1.00  0.00     0.031 C 
ATOM     47  C   UNL A   1      48.525  31.608  27.109  1.00  0.00     0.029 A 
ATOM     48  N   UNL A   1      47.122  32.868  28.315  1.00  0.00    -0.354 N 
ATOM     49  C   UNL A   1      43.360  31.278  29.737  1.00  0.00     0.074 A 
ATOM     50  C   UNL A   1      43.176  29.912  29.302  1.00  0.00     0.031 C 
ATOM     51  C   UNL A   1      49.107  32.806  27.290  1.00  0.00     0.029 A 
ATOM     52  C   UNL A   1      48.199  33.675  28.038  1.00  0.00     0.049 A 
ATOM     53  H   UNL A   1      46.352  33.162  28.854  1.00  0.00     0.167 HD
ATOM     54  C   UNL A   1      42.474  31.958  30.504  1.00  0.00     0.031 A 
ATOM     55  C   UNL A   1      48.418  34.972  28.338  1.00  0.00     0.031 A 
ATOM     56  C   UNL A   1      42.658  33.323  30.924  1.00  0.00     0.049 A 
ATOM     57  C   UNL A   1      47.374  35.735  29.115  1.00  0.00     0.074 A 
ATOM     58  C   UNL A   1      41.827  34.095  31.718  1.00  0.00     0.029 A 
ATOM     59  N   UNL A   1      43.736  34.122  30.577  1.00  0.00    -0.354 N 
ATOM     60  N   UNL A   1      46.237  35.309  29.611  1.00  0.00    -0.248 NA
ATOM     61  C   UNL A   1      47.650  37.155  29.377  1.00  0.00     0.031 C 
ATOM     62  C   UNL A   1      42.365  35.383  31.786  1.00  0.00     0.029 A 
ATOM     63  C   UNL A   1      43.574  35.390  31.108  1.00  0.00     0.049 A 
ATOM     64  H   UNL A   1      44.504  33.831  30.033  1.00  0.00     0.167 HD
ATOM     65  C   UNL A   1      45.681  36.399  30.277  1.00  0.00     0.074 A 
ATOM     66  C   UNL A   1      46.613  37.497  30.129  1.00  0.00     0.031 C 
ATOM     67  C   UNL A   1      44.508  36.479  30.955  1.00  0.00     0.031 A 
BRANCH  54  68
ATOM     68  C   UNL A   1      41.201  31.254  30.897  1.00  0.00    -0.014 A 
ATOM     69  C   UNL A   1      41.135  30.428  32.034  1.00  0.00     0.010 A 
ATOM     70  C   UNL A   1      40.034  31.461  30.137  1.00  0.00     0.010 A 
ATOM     71  C   UNL A   1      39.938  29.794  32.380  1.00  0.00     0.020 A 
ATOM     72  C   UNL A   1      38.828  30.857  30.498  1.00  0.00     0.020 A 
ATOM     73  C   UNL A   1      38.791  30.015  31.611  1.00  0.00     0.054 A 
BRANCH  73  74
ATOM     74  S   UNL A   1      37.244  29.206  32.103  1.00  0.00     0.124 S 
ATOM     75  O   UNL A   1      37.734  28.035  32.826  1.00  0.00    -0.237 OA
ATOM     76  O   UNL A   1      36.599  30.227  32.925  1.00  0.00    -0.237 OA
ATOM     77  O   UNL A   1      36.580  28.921  30.834  1.00  0.00    -0.744 OA
ENDBRANCH  73  74
ENDBRANCH  54  68
BRANCH  55  78
ATOM     78  C   UNL A   1      49.676  35.640  27.899  1.00  0.00    -0.014 A 
ATOM     79  C   UNL A   1      50.773  35.742  28.774  1.00  0.00     0.010 A 
ATOM     80  C   UNL A   1      49.785  36.183  26.606  1.00  0.00     0.010 A 
ATOM     81  C   UNL A   1      51.945  36.387  28.370  1.00  0.00     0.020 A 
ATOM     82  C   UNL A   1      50.967  36.799  26.186  1.00  0.00     0.020 A 
ATOM     83  C   UNL A   1      52.037  36.907  27.076  1.00  0.00     0.054 A 
BRANCH  83  84
ATOM     84  S   UNL A   1      53.590  37.689  26.559  1.00  0.00     0.124 S 
ATOM     85  O   UNL A   1      53.997  36.847  25.438  1.00  0.00    -0.237 OA
ATOM     86  O   UNL A   1      53.158  39.040  26.212  1.00  0.00    -0.237 OA
ATOM     87  O   UNL A   1      54.433  37.597  27.748  1.00  0.00    -0.744 OA
ENDBRANCH  83  84
ENDBRANCH  55  78
BRANCH  67  88
ATOM     88  C   UNL A   1      44.180  37.784  31.634  1.00  0.00    -0.014 A 
ATOM     89  C   UNL A   1      44.345  37.958  33.020  1.00  0.00     0.010 A 
ATOM     90  C   UNL A   1      43.756  38.879  30.857  1.00  0.00     0.010 A 
ATOM     91  C   UNL A   1      44.060  39.189  33.618  1.00  0.00     0.020 A 
ATOM     92  C   UNL A   1      43.504  40.120  31.445  1.00  0.00     0.020 A 
ATOM     93  C   UNL A   1      43.643  40.264  32.826  1.00  0.00     0.054 A 
BRANCH  93  94
ATOM     94  S   UNL A   1      43.323  41.861  33.621  1.00  0.00     0.124 S 
ATOM     95  O   UNL A   1      43.854  42.803  32.638  1.00  0.00    -0.237 OA
ATOM     96  O   UNL A   1      41.870  41.859  33.767  1.00  0.00    -0.237 OA
ATOM     97  O   UNL A   1      44.069  41.783  34.875  1.00  0.00    -0.744 OA
ENDBRANCH  93  94
ENDBRANCH  67  88
ENDBRANCH  41  42
ENDBRANCH  34  36
ENDBRANCH  33  34
ENDBRANCH  32  33
ENDBRANCH  31  32
ENDBRANCH  30  31
ENDBRANCH  29  30
ENDBRANCH  28  29
ENDBRANCH   1  28
TORSDOF 26
ENDMDL
