MODEL 1
REMARK VINA RESULT:      -9.7      0.000      0.000
REMARK SMILES CCc1cccc(C)c1Nc1ccccc1CC(=O)OCCOCCOCCOCCOC(=O)c1ccc(-c2c3nc(c(-c4ccc(S(=O)(=O)[O-])cc4)c4ccc([nH]4)c(-c4ccc(S(=O)(=O)[O-])cc4)c4nc(c(-c5ccc(S(=O)(=O)[O-])cc5)c5ccc2[nH]5)C=C4)C=C3)cc1
REMARK SMILES IDX 25 1 24 2 23 3 22 4 21 5 20 6 18 7 19 8 17 9 16 10 11 11
REMARK SMILES IDX 12 12 13 13 15 14 14 15 10 16 9 18 3 19 4 20 5 21 7 22 6 23
REMARK SMILES IDX 8 24 2 25 1 26 26 27 27 28 28 29 29 30 30 31 31 32 32 33
REMARK SMILES IDX 33 34 34 35 35 36 36 37 94 38 37 39 93 40 38 41 39 42 40 43
REMARK SMILES IDX 87 44 41 45 92 46 86 47 88 48 42 49 91 50 85 51 84 52 43 54
REMARK SMILES IDX 73 55 54 56 72 57 55 58 58 59 71 60 89 61 56 62 57 63 70 65
REMARK SMILES IDX 90 66 59 67 44 68 45 69 53 70 46 71 52 72 47 73 48 74 49 75
REMARK SMILES IDX 50 76 51 77 74 78 75 79 83 80 76 81 82 82 77 83 78 84 79 85
REMARK SMILES IDX 80 86 81 87 60 88 61 89 69 90 62 91 68 92 63 93 64 94 65 95
REMARK SMILES IDX 66 96 67 97
REMARK H PARENT 10 17 88 53 58 64
REMARK Flexibility Score: inf
ROOT
ATOM      1  C   UNL A   1      33.024  28.805  25.451  1.00  0.00     0.188 C 
ENDROOT
BRANCH   1   2
ATOM      2  C   UNL A   1      32.047  27.355  24.230  1.00  0.00     0.188 C 
BRANCH   2   3
ATOM      3  O   UNL A   1      32.837  25.500  24.603  1.00  0.00    -0.376 OA
BRANCH   3   4
ATOM      4  C   UNL A   1      34.580  25.014  25.362  1.00  0.00     0.202 C 
BRANCH   4   5
ATOM      5  C   UNL A   1      35.372  23.044  25.543  1.00  0.00     0.261 C 
BRANCH   5   6
ATOM      6  O   UNL A   1      37.009  23.066  26.699  1.00  0.00    -0.463 OA
BRANCH   6   7
ATOM      7  C   UNL A   1      38.742  23.530  26.426  1.00  0.00     0.310 C 
ATOM      8  O   UNL A   1      39.519  22.581  26.213  1.00  0.00    -0.252 OA
BRANCH   7   9
ATOM      9  C   UNL A   1      39.917  25.125  26.452  1.00  0.00     0.160 C 
BRANCH   9  10
ATOM     10  C   UNL A   1      40.581  26.645  27.454  1.00  0.00    -0.013 A 
ATOM     11  C   UNL A   1      41.349  26.948  29.010  1.00  0.00     0.042 A 
ATOM     12  C   UNL A   1      41.423  28.326  29.415  1.00  0.00     0.026 A 
ATOM     13  C   UNL A   1      41.223  29.331  28.423  1.00  0.00     0.002 A 
ATOM     14  C   UNL A   1      40.315  27.799  26.669  1.00  0.00     0.006 A 
ATOM     15  C   UNL A   1      40.723  29.076  27.114  1.00  0.00     0.000 A 
BRANCH  11  16
ATOM     16  N   UNL A   1      43.010  26.346  29.606  1.00  0.00    -0.355 N 
ATOM     17  H   UNL A   1      43.610  27.015  30.008  1.00  0.00     0.167 HD
BRANCH  16  18
ATOM     18  C   UNL A   1      43.676  24.498  29.507  1.00  0.00     0.045 A 
ATOM     19  C   UNL A   1      44.535  24.881  27.996  1.00  0.00    -0.024 A 
ATOM     20  C   UNL A   1      46.018  25.581  28.031  1.00  0.00     0.006 A 
ATOM     21  C   UNL A   1      46.740  25.921  29.410  1.00  0.00     0.001 A 
ATOM     22  C   UNL A   1      44.701  24.297  31.168  1.00  0.00    -0.027 A 
ATOM     23  C   UNL A   1      46.157  25.344  31.062  1.00  0.00     0.005 A 
ATOM     24  C   UNL A   1      44.510  24.149  32.784  1.00  0.00     0.046 C 
BRANCH  19  25
ATOM     25  C   UNL A   1      43.929  25.124  26.632  1.00  0.00     0.034 C 
ATOM     26  C   UNL A   1      44.348  24.076  25.621  1.00  0.00     0.009 C 
ENDBRANCH  19  25
ENDBRANCH  16  18
ENDBRANCH  11  16
ENDBRANCH   9  10
ENDBRANCH   7   9
ENDBRANCH   6   7
ENDBRANCH   5   6
ENDBRANCH   4   5
ENDBRANCH   3   4
ENDBRANCH   2   3
ENDBRANCH   1   2
BRANCH   1  27
ATOM     27  O   UNL A   1      34.453  28.440  26.266  1.00  0.00    -0.377 OA
BRANCH  27  28
ATOM     28  C   UNL A   1      35.472  29.341  26.856  1.00  0.00     0.188 C 
BRANCH  28  29
ATOM     29  C   UNL A   1      36.577  28.903  27.853  1.00  0.00     0.188 C 
BRANCH  29  30
ATOM     30  O   UNL A   1      36.446  29.200  29.229  1.00  0.00    -0.376 OA
BRANCH  30  31
ATOM     31  C   UNL A   1      36.850  30.472  29.625  1.00  0.00     0.202 C 
BRANCH  31  32
ATOM     32  C   UNL A   1      35.618  31.288  29.457  1.00  0.00     0.261 C 
BRANCH  32  33
ATOM     33  O   UNL A   1      35.501  32.286  30.575  1.00  0.00    -0.460 OA
BRANCH  33  34
ATOM     34  C   UNL A   1      36.317  32.739  31.607  1.00  0.00     0.338 C 
ATOM     35  O   UNL A   1      36.110  32.240  32.719  1.00  0.00    -0.246 OA
BRANCH  34  36
ATOM     36  C   UNL A   1      37.631  33.565  31.525  1.00  0.00     0.060 A 
ATOM     37  C   UNL A   1      38.253  33.935  30.310  1.00  0.00     0.016 A 
ATOM     38  C   UNL A   1      38.235  34.161  32.617  1.00  0.00     0.016 A 
ATOM     39  C   UNL A   1      39.593  34.577  30.241  1.00  0.00     0.010 A 
ATOM     40  C   UNL A   1      39.572  34.715  32.543  1.00  0.00     0.010 A 
ATOM     41  C   UNL A   1      40.443  34.692  31.413  1.00  0.00    -0.014 A 
BRANCH  41  42
ATOM     42  C   UNL A   1      42.325  34.345  31.620  1.00  0.00     0.031 A 
ATOM     43  C   UNL A   1      42.568  34.770  29.988  1.00  0.00     0.074 A 
ATOM     44  C   UNL A   1      43.278  33.291  32.804  1.00  0.00     0.049 A 
ATOM     45  N   UNL A   1      43.358  34.200  29.136  1.00  0.00    -0.248 NA
ATOM     46  C   UNL A   1      41.662  35.633  29.178  1.00  0.00     0.031 C 
ATOM     47  C   UNL A   1      44.916  32.778  33.105  1.00  0.00     0.029 A 
ATOM     48  N   UNL A   1      42.884  32.224  33.832  1.00  0.00    -0.354 N 
ATOM     49  C   UNL A   1      43.595  35.127  28.158  1.00  0.00     0.074 A 
ATOM     50  C   UNL A   1      42.344  35.798  28.044  1.00  0.00     0.031 C 
ATOM     51  C   UNL A   1      45.091  31.874  34.075  1.00  0.00     0.029 A 
ATOM     52  C   UNL A   1      43.827  31.298  34.278  1.00  0.00     0.049 A 
ATOM     53  H   UNL A   1      41.964  32.193  34.178  1.00  0.00     0.167 HD
ATOM     54  C   UNL A   1      44.885  35.379  27.790  1.00  0.00     0.031 A 
ATOM     55  C   UNL A   1      43.561  29.985  34.055  1.00  0.00     0.031 A 
ATOM     56  C   UNL A   1      45.864  34.338  28.341  1.00  0.00     0.049 A 
ATOM     57  C   UNL A   1      44.156  29.710  32.588  1.00  0.00     0.074 A 
ATOM     58  C   UNL A   1      47.122  34.333  28.938  1.00  0.00     0.029 A 
ATOM     59  N   UNL A   1      45.370  33.059  28.682  1.00  0.00    -0.354 N 
ATOM     60  N   UNL A   1      44.751  30.617  31.819  1.00  0.00    -0.248 NA
ATOM     61  C   UNL A   1      44.213  28.413  31.930  1.00  0.00     0.031 C 
ATOM     62  C   UNL A   1      47.299  33.085  29.681  1.00  0.00     0.029 A 
ATOM     63  C   UNL A   1      46.184  32.271  29.495  1.00  0.00     0.049 A 
ATOM     64  H   UNL A   1      44.496  32.740  28.363  1.00  0.00     0.167 HD
ATOM     65  C   UNL A   1      45.207  30.132  30.620  1.00  0.00     0.074 A 
ATOM     66  C   UNL A   1      44.815  28.718  30.757  1.00  0.00     0.031 C 
ATOM     67  C   UNL A   1      45.855  30.817  29.590  1.00  0.00     0.031 A 
BRANCH  54  68
ATOM     68  C   UNL A   1      45.225  36.748  27.156  1.00  0.00    -0.014 A 
ATOM     69  C   UNL A   1      46.444  36.917  26.489  1.00  0.00     0.010 A 
ATOM     70  C   UNL A   1      44.416  37.923  27.204  1.00  0.00     0.010 A 
ATOM     71  C   UNL A   1      46.807  38.127  25.860  1.00  0.00     0.020 A 
ATOM     72  C   UNL A   1      44.750  39.135  26.563  1.00  0.00     0.020 A 
ATOM     73  C   UNL A   1      45.942  39.219  25.868  1.00  0.00     0.054 A 
BRANCH  73  74
ATOM     74  S   UNL A   1      46.373  40.693  24.904  1.00  0.00     0.124 S 
ATOM     75  O   UNL A   1      47.298  41.394  25.790  1.00  0.00    -0.237 OA
ATOM     76  O   UNL A   1      46.969  40.115  23.702  1.00  0.00    -0.237 OA
ATOM     77  O   UNL A   1      45.091  41.366  24.693  1.00  0.00    -0.744 OA
ENDBRANCH  73  74
ENDBRANCH  54  68
BRANCH  55  78
ATOM     78  C   UNL A   1      42.219  29.754  34.804  1.00  0.00    -0.014 A 
ATOM     79  C   UNL A   1      42.142  30.360  36.118  1.00  0.00     0.010 A 
ATOM     80  C   UNL A   1      40.981  29.555  34.164  1.00  0.00     0.010 A 
ATOM     81  C   UNL A   1      40.948  30.894  36.662  1.00  0.00     0.020 A 
ATOM     82  C   UNL A   1      39.776  30.080  34.721  1.00  0.00     0.020 A 
ATOM     83  C   UNL A   1      39.766  30.760  35.950  1.00  0.00     0.054 A 
BRANCH  83  84
ATOM     84  S   UNL A   1      38.235  31.591  36.523  1.00  0.00     0.124 S 
ATOM     85  O   UNL A   1      37.571  31.916  35.268  1.00  0.00    -0.237 OA
ATOM     86  O   UNL A   1      37.568  30.579  37.336  1.00  0.00    -0.237 OA
ATOM     87  O   UNL A   1      38.766  32.725  37.276  1.00  0.00    -0.744 OA
ENDBRANCH  83  84
ENDBRANCH  55  78
BRANCH  67  88
ATOM     88  C   UNL A   1      46.238  30.088  28.316  1.00  0.00    -0.014 A 
ATOM     89  C   UNL A   1      47.565  29.884  27.947  1.00  0.00     0.010 A 
ATOM     90  C   UNL A   1      45.240  29.684  27.389  1.00  0.00     0.010 A 
ATOM     91  C   UNL A   1      47.871  29.149  26.804  1.00  0.00     0.020 A 
ATOM     92  C   UNL A   1      45.533  29.024  26.208  1.00  0.00     0.020 A 
ATOM     93  C   UNL A   1      46.853  28.717  25.950  1.00  0.00     0.054 A 
BRANCH  93  94
ATOM     94  S   UNL A   1      47.287  27.803  24.465  1.00  0.00     0.124 S 
ATOM     95  O   UNL A   1      46.709  28.635  23.411  1.00  0.00    -0.237 OA
ATOM     96  O   UNL A   1      48.745  27.798  24.536  1.00  0.00    -0.237 OA
ATOM     97  O   UNL A   1      46.646  26.504  24.650  1.00  0.00    -0.744 OA
ENDBRANCH  93  94
ENDBRANCH  67  88
ENDBRANCH  41  42
ENDBRANCH  34  36
ENDBRANCH  33  34
ENDBRANCH  32  33
ENDBRANCH  31  32
ENDBRANCH  30  31
ENDBRANCH  29  30
ENDBRANCH  28  29
ENDBRANCH  27  28
ENDBRANCH   1  27
TORSDOF 27
ENDMDL
MODEL 2
REMARK VINA RESULT:      -9.6      3.332     10.157
REMARK SMILES CCc1cccc(C)c1Nc1ccccc1CC(=O)OCCOCCOCCOCCOC(=O)c1ccc(-c2c3nc(c(-c4ccc(S(=O)(=O)[O-])cc4)c4ccc([nH]4)c(-c4ccc(S(=O)(=O)[O-])cc4)c4nc(c(-c5ccc(S(=O)(=O)[O-])cc5)c5ccc2[nH]5)C=C4)C=C3)cc1
REMARK SMILES IDX 25 1 24 2 23 3 22 4 21 5 20 6 18 7 19 8 17 9 16 10 11 11
REMARK SMILES IDX 12 12 13 13 15 14 14 15 10 16 9 18 3 19 4 20 5 21 7 22 6 23
REMARK SMILES IDX 8 24 2 25 1 26 26 27 27 28 28 29 29 30 30 31 31 32 32 33
REMARK SMILES IDX 33 34 34 35 35 36 36 37 94 38 37 39 93 40 38 41 39 42 40 43
REMARK SMILES IDX 87 44 41 45 92 46 86 47 88 48 42 49 91 50 85 51 84 52 43 54
REMARK SMILES IDX 73 55 54 56 72 57 55 58 58 59 71 60 89 61 56 62 57 63 70 65
REMARK SMILES IDX 90 66 59 67 44 68 45 69 53 70 46 71 52 72 47 73 48 74 49 75
REMARK SMILES IDX 50 76 51 77 74 78 75 79 83 80 76 81 82 82 77 83 78 84 79 85
REMARK SMILES IDX 80 86 81 87 60 88 61 89 69 90 62 91 68 92 63 93 64 94 65 95
REMARK SMILES IDX 66 96 67 97
REMARK H PARENT 10 17 88 53 58 64
REMARK Flexibility Score: inf
ROOT
ATOM      1  C   UNL A   1      34.401  28.970  27.221  1.00  0.00     0.188 C 
ENDROOT
BRANCH   1   2
ATOM      2  C   UNL A   1      33.043  30.453  26.509  1.00  0.00     0.188 C 
BRANCH   2   3
ATOM      3  O   UNL A   1      31.355  29.543  25.783  1.00  0.00    -0.376 OA
BRANCH   3   4
ATOM      4  C   UNL A   1      31.132  27.750  25.018  1.00  0.00     0.202 C 
BRANCH   4   5
ATOM      5  C   UNL A   1      29.655  27.157  23.600  1.00  0.00     0.261 C 
BRANCH   5   6
ATOM      6  O   UNL A   1      29.724  25.173  23.327  1.00  0.00    -0.463 OA
BRANCH   6   7
ATOM      7  C   UNL A   1      31.063  23.948  23.297  1.00  0.00     0.310 C 
ATOM      8  O   UNL A   1      32.082  24.289  22.668  1.00  0.00    -0.252 OA
BRANCH   7   9
ATOM      9  C   UNL A   1      31.446  22.091  23.874  1.00  0.00     0.160 C 
BRANCH   9  10
ATOM     10  C   UNL A   1      32.789  20.761  24.302  1.00  0.00    -0.013 A 
ATOM     11  C   UNL A   1      34.482  20.725  24.783  1.00  0.00     0.042 A 
ATOM     12  C   UNL A   1      35.119  19.436  24.737  1.00  0.00     0.026 A 
ATOM     13  C   UNL A   1      34.291  18.278  24.672  1.00  0.00     0.002 A 
ATOM     14  C   UNL A   1      32.174  19.491  24.131  1.00  0.00     0.006 A 
ATOM     15  C   UNL A   1      32.892  18.307  24.411  1.00  0.00     0.000 A 
BRANCH  11  16
ATOM     16  N   UNL A   1      35.248  21.409  26.340  1.00  0.00    -0.355 N 
ATOM     17  H   UNL A   1      35.171  20.860  27.154  1.00  0.00     0.167 HD
BRANCH  16  18
ATOM     18  C   UNL A   1      36.197  23.124  26.507  1.00  0.00     0.045 A 
ATOM     19  C   UNL A   1      37.545  22.479  25.540  1.00  0.00    -0.024 A 
ATOM     20  C   UNL A   1      37.481  22.494  23.901  1.00  0.00     0.006 A 
ATOM     21  C   UNL A   1      36.227  23.098  23.128  1.00  0.00     0.001 A 
ATOM     22  C   UNL A   1      34.958  24.406  25.690  1.00  0.00    -0.027 A 
ATOM     23  C   UNL A   1      34.876  24.066  23.928  1.00  0.00     0.005 A 
ATOM     24  C   UNL A   1      33.533  25.161  25.954  1.00  0.00     0.046 C 
BRANCH  19  25
ATOM     25  C   UNL A   1      38.570  21.452  25.966  1.00  0.00     0.034 C 
ATOM     26  C   UNL A   1      39.884  22.087  26.377  1.00  0.00     0.009 C 
ENDBRANCH  19  25
ENDBRANCH  16  18
ENDBRANCH  11  16
ENDBRANCH   9  10
ENDBRANCH   7   9
ENDBRANCH   6   7
ENDBRANCH   5   6
ENDBRANCH   4   5
ENDBRANCH   3   4
ENDBRANCH   2   3
ENDBRANCH   1   2
BRANCH   1  27
ATOM     27  O   UNL A   1      35.685  29.375  28.232  1.00  0.00    -0.377 OA
BRANCH  27  28
ATOM     28  C   UNL A   1      37.093  29.703  27.904  1.00  0.00     0.188 C 
BRANCH  28  29
ATOM     29  C   UNL A   1      38.335  29.127  28.632  1.00  0.00     0.188 C 
BRANCH  29  30
ATOM     30  O   UNL A   1      39.632  29.559  28.268  1.00  0.00    -0.376 OA
BRANCH  30  31
ATOM     31  C   UNL A   1      40.678  28.696  28.580  1.00  0.00     0.202 C 
BRANCH  31  32
ATOM     32  C   UNL A   1      40.516  27.593  27.594  1.00  0.00     0.261 C 
BRANCH  32  33
ATOM     33  O   UNL A   1      41.236  27.929  26.318  1.00  0.00    -0.460 OA
BRANCH  33  34
ATOM     34  C   UNL A   1      42.552  27.899  25.871  1.00  0.00     0.338 C 
ATOM     35  O   UNL A   1      42.706  27.840  24.645  1.00  0.00    -0.246 OA
BRANCH  34  36
ATOM     36  C   UNL A   1      43.859  28.210  26.653  1.00  0.00     0.060 A 
ATOM     37  C   UNL A   1      44.117  27.753  27.966  1.00  0.00     0.016 A 
ATOM     38  C   UNL A   1      44.966  28.823  26.092  1.00  0.00     0.016 A 
ATOM     39  C   UNL A   1      45.289  28.193  28.768  1.00  0.00     0.010 A 
ATOM     40  C   UNL A   1      46.063  29.309  26.904  1.00  0.00     0.010 A 
ATOM     41  C   UNL A   1      46.150  29.278  28.327  1.00  0.00    -0.014 A 
BRANCH  41  42
ATOM     42  C   UNL A   1      46.867  30.770  29.309  1.00  0.00     0.031 A 
ATOM     43  C   UNL A   1      45.414  31.620  29.050  1.00  0.00     0.074 A 
ATOM     44  C   UNL A   1      48.599  31.312  29.667  1.00  0.00     0.049 A 
ATOM     45  N   UNL A   1      45.276  32.877  28.775  1.00  0.00    -0.248 NA
ATOM     46  C   UNL A   1      44.093  30.998  28.748  1.00  0.00     0.031 C 
ATOM     47  C   UNL A   1      49.448  32.630  30.428  1.00  0.00     0.029 A 
ATOM     48  N   UNL A   1      49.976  30.888  29.144  1.00  0.00    -0.354 N 
ATOM     49  C   UNL A   1      43.997  33.207  29.131  1.00  0.00     0.074 A 
ATOM     50  C   UNL A   1      43.259  32.038  28.788  1.00  0.00     0.031 C 
ATOM     51  C   UNL A   1      50.782  32.617  30.332  1.00  0.00     0.029 A 
ATOM     52  C   UNL A   1      51.069  31.745  29.269  1.00  0.00     0.049 A 
ATOM     53  H   UNL A   1      50.088  30.008  28.717  1.00  0.00     0.167 HD
ATOM     54  C   UNL A   1      43.795  34.303  29.919  1.00  0.00     0.031 A 
ATOM     55  C   UNL A   1      51.683  32.142  28.125  1.00  0.00     0.031 A 
ATOM     56  C   UNL A   1      45.046  35.178  30.034  1.00  0.00     0.049 A 
ATOM     57  C   UNL A   1      50.860  33.446  27.672  1.00  0.00     0.074 A 
ATOM     58  C   UNL A   1      45.729  35.861  31.038  1.00  0.00     0.029 A 
ATOM     59  N   UNL A   1      46.022  35.101  29.014  1.00  0.00    -0.354 N 
ATOM     60  N   UNL A   1      49.816  33.956  28.318  1.00  0.00    -0.248 NA
ATOM     61  C   UNL A   1      51.194  34.306  26.547  1.00  0.00     0.031 C 
ATOM     62  C   UNL A   1      47.109  36.093  30.612  1.00  0.00     0.029 A 
ATOM     63  C   UNL A   1      47.281  35.622  29.313  1.00  0.00     0.049 A 
ATOM     64  H   UNL A   1      45.824  34.700  28.138  1.00  0.00     0.167 HD
ATOM     65  C   UNL A   1      49.303  35.095  27.753  1.00  0.00     0.074 A 
ATOM     66  C   UNL A   1      50.228  35.250  26.617  1.00  0.00     0.031 C 
ATOM     67  C   UNL A   1      48.211  35.862  28.169  1.00  0.00     0.031 A 
BRANCH  54  68
ATOM     68  C   UNL A   1      42.515  34.374  30.783  1.00  0.00    -0.014 A 
ATOM     69  C   UNL A   1      41.260  34.272  30.169  1.00  0.00     0.010 A 
ATOM     70  C   UNL A   1      42.460  34.572  32.196  1.00  0.00     0.010 A 
ATOM     71  C   UNL A   1      40.052  34.296  30.897  1.00  0.00     0.020 A 
ATOM     72  C   UNL A   1      41.265  34.577  32.944  1.00  0.00     0.020 A 
ATOM     73  C   UNL A   1      40.060  34.411  32.286  1.00  0.00     0.054 A 
BRANCH  73  74
ATOM     74  S   UNL A   1      38.498  34.265  33.193  1.00  0.00     0.124 S 
ATOM     75  O   UNL A   1      38.701  35.168  34.324  1.00  0.00    -0.237 OA
ATOM     76  O   UNL A   1      37.520  34.708  32.202  1.00  0.00    -0.237 OA
ATOM     77  O   UNL A   1      38.422  32.847  33.542  1.00  0.00    -0.744 OA
ENDBRANCH  73  74
ENDBRANCH  54  68
BRANCH  55  78
ATOM     78  C   UNL A   1      52.148  30.805  27.481  1.00  0.00    -0.014 A 
ATOM     79  C   UNL A   1      51.711  30.602  26.115  1.00  0.00     0.010 A 
ATOM     80  C   UNL A   1      53.325  30.122  27.840  1.00  0.00     0.010 A 
ATOM     81  C   UNL A   1      52.487  29.931  25.139  1.00  0.00     0.020 A 
ATOM     82  C   UNL A   1      54.099  29.433  26.859  1.00  0.00     0.020 A 
ATOM     83  C   UNL A   1      53.691  29.355  25.517  1.00  0.00     0.054 A 
BRANCH  83  84
ATOM     84  S   UNL A   1      54.814  28.636  24.259  1.00  0.00     0.124 S 
ATOM     85  O   UNL A   1      54.471  27.221  24.310  1.00  0.00    -0.237 OA
ATOM     86  O   UNL A   1      54.444  29.322  23.024  1.00  0.00    -0.237 OA
ATOM     87  O   UNL A   1      56.130  28.993  24.783  1.00  0.00    -0.744 OA
ENDBRANCH  83  84
ENDBRANCH  55  78
BRANCH  67  88
ATOM     88  C   UNL A   1      47.782  37.073  27.364  1.00  0.00    -0.014 A 
ATOM     89  C   UNL A   1      47.138  36.958  26.135  1.00  0.00     0.010 A 
ATOM     90  C   UNL A   1      48.129  38.383  27.791  1.00  0.00     0.010 A 
ATOM     91  C   UNL A   1      46.699  38.096  25.462  1.00  0.00     0.020 A 
ATOM     92  C   UNL A   1      47.772  39.523  27.091  1.00  0.00     0.020 A 
ATOM     93  C   UNL A   1      47.011  39.368  25.950  1.00  0.00     0.054 A 
BRANCH  93  94
ATOM     94  S   UNL A   1      46.461  40.814  25.038  1.00  0.00     0.124 S 
ATOM     95  O   UNL A   1      45.014  40.773  25.236  1.00  0.00    -0.237 OA
ATOM     96  O   UNL A   1      47.163  41.889  25.735  1.00  0.00    -0.237 OA
ATOM     97  O   UNL A   1      46.907  40.560  23.670  1.00  0.00    -0.744 OA
ENDBRANCH  93  94
ENDBRANCH  67  88
ENDBRANCH  41  42
ENDBRANCH  34  36
ENDBRANCH  33  34
ENDBRANCH  32  33
ENDBRANCH  31  32
ENDBRANCH  30  31
ENDBRANCH  29  30
ENDBRANCH  28  29
ENDBRANCH  27  28
ENDBRANCH   1  27
TORSDOF 27
ENDMDL
MODEL 3
REMARK VINA RESULT:      -9.4      3.992     11.373
REMARK SMILES CCc1cccc(C)c1Nc1ccccc1CC(=O)OCCOCCOCCOCCOC(=O)c1ccc(-c2c3nc(c(-c4ccc(S(=O)(=O)[O-])cc4)c4ccc([nH]4)c(-c4ccc(S(=O)(=O)[O-])cc4)c4nc(c(-c5ccc(S(=O)(=O)[O-])cc5)c5ccc2[nH]5)C=C4)C=C3)cc1
REMARK SMILES IDX 25 1 24 2 23 3 22 4 21 5 20 6 18 7 19 8 17 9 16 10 11 11
REMARK SMILES IDX 12 12 13 13 15 14 14 15 10 16 9 18 3 19 4 20 5 21 7 22 6 23
REMARK SMILES IDX 8 24 2 25 1 26 26 27 27 28 28 29 29 30 30 31 31 32 32 33
REMARK SMILES IDX 33 34 34 35 35 36 36 37 94 38 37 39 93 40 38 41 39 42 40 43
REMARK SMILES IDX 87 44 41 45 92 46 86 47 88 48 42 49 91 50 85 51 84 52 43 54
REMARK SMILES IDX 73 55 54 56 72 57 55 58 58 59 71 60 89 61 56 62 57 63 70 65
REMARK SMILES IDX 90 66 59 67 44 68 45 69 53 70 46 71 52 72 47 73 48 74 49 75
REMARK SMILES IDX 50 76 51 77 74 78 75 79 83 80 76 81 82 82 77 83 78 84 79 85
REMARK SMILES IDX 80 86 81 87 60 88 61 89 69 90 62 91 68 92 63 93 64 94 65 95
REMARK SMILES IDX 66 96 67 97
REMARK H PARENT 10 17 88 53 58 64
REMARK Flexibility Score: inf
ROOT
ATOM      1  C   UNL A   1      46.198  42.712  27.129  1.00  0.00     0.188 C 
ENDROOT
BRANCH   1   2
ATOM      2  C   UNL A   1      48.268  42.247  27.347  1.00  0.00     0.188 C 
BRANCH   2   3
ATOM      3  O   UNL A   1      48.988  43.114  29.060  1.00  0.00    -0.376 OA
BRANCH   3   4
ATOM      4  C   UNL A   1      50.053  42.326  30.507  1.00  0.00     0.202 C 
BRANCH   4   5
ATOM      5  C   UNL A   1      50.998  43.384  32.097  1.00  0.00     0.261 C 
BRANCH   5   6
ATOM      6  O   UNL A   1      51.788  42.089  33.408  1.00  0.00    -0.463 OA
BRANCH   6   7
ATOM      7  C   UNL A   1      51.364  40.404  33.930  1.00  0.00     0.310 C 
ATOM      8  O   UNL A   1      52.126  39.902  34.776  1.00  0.00    -0.252 OA
BRANCH   7   9
ATOM      9  C   UNL A   1      50.078  38.955  33.514  1.00  0.00     0.160 C 
BRANCH   9  10
ATOM     10  C   UNL A   1      48.509  38.403  32.519  1.00  0.00    -0.013 A 
ATOM     11  C   UNL A   1      47.921  38.480  30.861  1.00  0.00     0.042 A 
ATOM     12  C   UNL A   1      46.537  38.141  30.670  1.00  0.00     0.026 A 
ATOM     13  C   UNL A   1      45.865  37.441  31.715  1.00  0.00     0.002 A 
ATOM     14  C   UNL A   1      47.621  37.807  33.455  1.00  0.00     0.006 A 
ATOM     15  C   UNL A   1      46.391  37.261  33.025  1.00  0.00     0.000 A 
BRANCH  11  16
ATOM     16  N   UNL A   1      48.661  37.688  29.343  1.00  0.00    -0.355 N 
ATOM     17  H   UNL A   1      49.558  37.991  29.073  1.00  0.00     0.167 HD
BRANCH  16  18
ATOM     18  C   UNL A   1      47.816  36.303  28.232  1.00  0.00     0.045 A 
ATOM     19  C   UNL A   1      47.562  37.493  26.931  1.00  0.00    -0.024 A 
ATOM     20  C   UNL A   1      48.762  37.837  25.868  1.00  0.00     0.006 A 
ATOM     21  C   UNL A   1      50.177  37.110  25.952  1.00  0.00     0.001 A 
ATOM     22  C   UNL A   1      49.228  34.956  28.037  1.00  0.00    -0.027 A 
ATOM     23  C   UNL A   1      50.539  35.655  27.027  1.00  0.00     0.005 A 
ATOM     24  C   UNL A   1      50.028  33.804  28.875  1.00  0.00     0.046 C 
BRANCH  19  25
ATOM     25  C   UNL A   1      46.569  38.633  26.912  1.00  0.00     0.034 C 
ATOM     26  C   UNL A   1      46.532  39.340  25.572  1.00  0.00     0.009 C 
ENDBRANCH  19  25
ENDBRANCH  16  18
ENDBRANCH  11  16
ENDBRANCH   9  10
ENDBRANCH   7   9
ENDBRANCH   6   7
ENDBRANCH   5   6
ENDBRANCH   4   5
ENDBRANCH   3   4
ENDBRANCH   2   3
ENDBRANCH   1   2
BRANCH   1  27
ATOM     27  O   UNL A   1      45.636  43.606  25.817  1.00  0.00    -0.377 OA
BRANCH  27  28
ATOM     28  C   UNL A   1      45.069  43.152  24.524  1.00  0.00     0.188 C 
BRANCH  28  29
ATOM     29  C   UNL A   1      43.558  42.956  24.235  1.00  0.00     0.188 C 
BRANCH  29  30
ATOM     30  O   UNL A   1      42.973  41.676  24.367  1.00  0.00    -0.376 OA
BRANCH  30  31
ATOM     31  C   UNL A   1      42.826  41.197  25.665  1.00  0.00     0.202 C 
BRANCH  31  32
ATOM     32  C   UNL A   1      41.411  40.739  25.702  1.00  0.00     0.261 C 
BRANCH  32  33
ATOM     33  O   UNL A   1      41.317  39.399  26.375  1.00  0.00    -0.460 OA
BRANCH  33  34
ATOM     34  C   UNL A   1      41.838  38.814  27.525  1.00  0.00     0.338 C 
ATOM     35  O   UNL A   1      41.485  39.319  28.597  1.00  0.00    -0.246 OA
BRANCH  34  36
ATOM     36  C   UNL A   1      42.572  37.453  27.684  1.00  0.00     0.060 A 
ATOM     37  C   UNL A   1      42.234  36.287  26.958  1.00  0.00     0.016 A 
ATOM     38  C   UNL A   1      43.727  37.282  28.426  1.00  0.00     0.016 A 
ATOM     39  C   UNL A   1      42.824  34.952  27.236  1.00  0.00     0.010 A 
ATOM     40  C   UNL A   1      44.242  35.966  28.746  1.00  0.00     0.010 A 
ATOM     41  C   UNL A   1      43.650  34.713  28.408  1.00  0.00    -0.014 A 
BRANCH  41  42
ATOM     42  C   UNL A   1      43.630  33.256  29.665  1.00  0.00     0.031 A 
ATOM     43  C   UNL A   1      44.872  32.496  28.782  1.00  0.00     0.074 A 
ATOM     44  C   UNL A   1      42.330  32.620  30.818  1.00  0.00     0.049 A 
ATOM     45  N   UNL A   1      44.993  31.234  28.520  1.00  0.00    -0.248 NA
ATOM     46  C   UNL A   1      45.828  33.186  27.870  1.00  0.00     0.031 C 
ATOM     47  C   UNL A   1      42.074  31.309  31.937  1.00  0.00     0.029 A 
ATOM     48  N   UNL A   1      40.834  32.899  30.991  1.00  0.00    -0.354 N 
ATOM     49  C   UNL A   1      46.316  31.028  28.242  1.00  0.00     0.074 A 
ATOM     50  C   UNL A   1      46.685  32.217  27.549  1.00  0.00     0.031 C 
ATOM     51  C   UNL A   1      40.856  31.217  32.482  1.00  0.00     0.029 A 
ATOM     52  C   UNL A   1      40.019  31.978  31.649  1.00  0.00     0.049 A 
ATOM     53  H   UNL A   1      40.446  33.731  30.637  1.00  0.00     0.167 HD
ATOM     54  C   UNL A   1      46.973  30.016  28.880  1.00  0.00     0.031 A 
ATOM     55  C   UNL A   1      38.986  31.447  30.945  1.00  0.00     0.031 A 
ATOM     56  C   UNL A   1      46.017  29.064  29.604  1.00  0.00     0.049 A 
ATOM     57  C   UNL A   1      39.631  30.174  30.206  1.00  0.00     0.074 A 
ATOM     58  C   UNL A   1      45.955  28.416  30.835  1.00  0.00     0.029 A 
ATOM     59  N   UNL A   1      44.676  28.988  29.164  1.00  0.00    -0.354 N 
ATOM     60  N   UNL A   1      40.901  29.795  30.300  1.00  0.00    -0.248 NA
ATOM     61  C   UNL A   1      38.900  29.205  29.404  1.00  0.00     0.031 C 
ATOM     62  C   UNL A   1      44.568  28.051  31.120  1.00  0.00     0.029 A 
ATOM     63  C   UNL A   1      43.763  28.403  30.040  1.00  0.00     0.049 A 
ATOM     64  H   UNL A   1      44.400  29.332  28.284  1.00  0.00     0.167 HD
ATOM     65  C   UNL A   1      41.205  28.654  29.602  1.00  0.00     0.074 A 
ATOM     66  C   UNL A   1      39.877  28.342  29.043  1.00  0.00     0.031 C 
ATOM     67  C   UNL A   1      42.436  28.005  29.480  1.00  0.00     0.031 A 
BRANCH  54  68
ATOM     68  C   UNL A   1      48.509  30.108  29.039  1.00  0.00    -0.014 A 
ATOM     69  C   UNL A   1      49.331  29.939  27.918  1.00  0.00     0.010 A 
ATOM     70  C   UNL A   1      49.219  30.324  30.259  1.00  0.00     0.010 A 
ATOM     71  C   UNL A   1      50.736  30.041  27.982  1.00  0.00     0.020 A 
ATOM     72  C   UNL A   1      50.621  30.451  30.341  1.00  0.00     0.020 A 
ATOM     73  C   UNL A   1      51.374  30.333  29.187  1.00  0.00     0.054 A 
BRANCH  73  74
ATOM     74  S   UNL A   1      53.163  30.625  29.190  1.00  0.00     0.124 S 
ATOM     75  O   UNL A   1      53.706  29.271  29.264  1.00  0.00    -0.237 OA
ATOM     76  O   UNL A   1      53.368  31.317  27.920  1.00  0.00    -0.237 OA
ATOM     77  O   UNL A   1      53.386  31.446  30.380  1.00  0.00    -0.744 OA
ENDBRANCH  73  74
ENDBRANCH  54  68
BRANCH  55  78
ATOM     78  C   UNL A   1      38.141  32.690  30.550  1.00  0.00    -0.014 A 
ATOM     79  C   UNL A   1      37.870  32.816  29.132  1.00  0.00     0.010 A 
ATOM     80  C   UNL A   1      37.203  33.310  31.396  1.00  0.00     0.010 A 
ATOM     81  C   UNL A   1      36.664  33.349  28.613  1.00  0.00     0.020 A 
ATOM     82  C   UNL A   1      35.995  33.861  30.870  1.00  0.00     0.020 A 
ATOM     83  C   UNL A   1      35.723  33.863  29.493  1.00  0.00     0.054 A 
BRANCH  83  84
ATOM     84  S   UNL A   1      34.076  34.394  28.885  1.00  0.00     0.124 S 
ATOM     85  O   UNL A   1      33.331  34.568  30.126  1.00  0.00    -0.237 OA
ATOM     86  O   UNL A   1      34.353  35.623  28.148  1.00  0.00    -0.237 OA
ATOM     87  O   UNL A   1      33.675  33.262  28.055  1.00  0.00    -0.744 OA
ENDBRANCH  83  84
ENDBRANCH  55  78
BRANCH  67  88
ATOM     88  C   UNL A   1      42.560  26.768  28.612  1.00  0.00    -0.014 A 
ATOM     89  C   UNL A   1      43.012  25.551  29.115  1.00  0.00     0.010 A 
ATOM     90  C   UNL A   1      42.323  26.842  27.214  1.00  0.00     0.010 A 
ATOM     91  C   UNL A   1      43.045  24.422  28.298  1.00  0.00     0.020 A 
ATOM     92  C   UNL A   1      42.430  25.747  26.373  1.00  0.00     0.020 A 
ATOM     93  C   UNL A   1      42.744  24.527  26.937  1.00  0.00     0.054 A 
BRANCH  93  94
ATOM     94  S   UNL A   1      42.832  23.059  25.906  1.00  0.00     0.124 S 
ATOM     95  O   UNL A   1      43.793  22.230  26.630  1.00  0.00    -0.237 OA
ATOM     96  O   UNL A   1      41.449  22.594  25.934  1.00  0.00    -0.237 OA
ATOM     97  O   UNL A   1      43.297  23.562  24.615  1.00  0.00    -0.744 OA
ENDBRANCH  93  94
ENDBRANCH  67  88
ENDBRANCH  41  42
ENDBRANCH  34  36
ENDBRANCH  33  34
ENDBRANCH  32  33
ENDBRANCH  31  32
ENDBRANCH  30  31
ENDBRANCH  29  30
ENDBRANCH  28  29
ENDBRANCH  27  28
ENDBRANCH   1  27
TORSDOF 27
ENDMDL
