MODEL 1
REMARK VINA RESULT:      -9.9      0.000      0.000
REMARK SMILES C[C@H]1[C@H](C(=O)OCCOCCOCCOCCOC(=O)c2ccc(-c3c4nc(c(-c5ccc(S(=O)(=O)[O-])cc5)c5ccc([nH]5)c(-c5ccc(S(=O)(=O)[O-])cc5)c5nc(c(-c6ccc(S(=O)(=O)[O-])cc6)c6ccc3[nH]6)C=C5)C=C4)cc2)CCN1C(=O)c1ccc2ccccc2c1
REMARK SMILES IDX 13 1 12 2 11 3 10 4 9 5 8 6 7 7 6 8 4 9 5 10 3 11 1 12 2 13
REMARK SMILES IDX 83 14 81 15 82 16 84 17 85 18 86 19 87 20 95 21 88 22 94 23
REMARK SMILES IDX 89 24 93 25 90 26 92 27 91 28 14 29 15 30 16 31 17 32 18 33
REMARK SMILES IDX 19 34 20 35 21 36 22 37 80 38 23 39 79 40 24 41 25 42 26 43
REMARK SMILES IDX 73 44 27 45 78 46 72 47 74 48 28 49 77 50 71 51 70 52 29 54
REMARK SMILES IDX 59 55 40 56 58 57 41 58 44 59 57 60 75 61 42 62 43 63 56 65
REMARK SMILES IDX 76 66 45 67 30 68 31 69 39 70 32 71 38 72 33 73 34 74 35 75
REMARK SMILES IDX 36 76 37 77 60 78 61 79 69 80 62 81 68 82 63 83 64 84 65 85
REMARK SMILES IDX 66 86 67 87 46 88 47 89 55 90 48 91 54 92 49 93 50 94 51 95
REMARK SMILES IDX 52 96 53 97
REMARK H PARENT 74 53 44 64
REMARK Flexibility Score: inf
ROOT
ATOM      1  C   UNL A   1      38.957  21.166  26.068  1.00  0.00     0.188 C 
ENDROOT
BRANCH   1   2
ATOM      2  O   UNL A   1      38.508  22.513  26.087  1.00  0.00    -0.377 OA
BRANCH   2   3
ATOM      3  C   UNL A   1      37.433  22.835  25.234  1.00  0.00     0.188 C 
BRANCH   3   4
ATOM      4  C   UNL A   1      36.411  21.719  24.971  1.00  0.00     0.188 C 
BRANCH   4   5
ATOM      5  O   UNL A   1      35.411  21.390  25.922  1.00  0.00    -0.376 OA
BRANCH   5   6
ATOM      6  C   UNL A   1      34.641  22.402  26.554  1.00  0.00     0.202 C 
BRANCH   6   7
ATOM      7  C   UNL A   1      33.243  22.088  27.121  1.00  0.00     0.261 C 
BRANCH   7   8
ATOM      8  O   UNL A   1      32.107  22.378  26.277  1.00  0.00    -0.463 OA
BRANCH   8   9
ATOM      9  C   UNL A   1      31.986  21.626  25.161  1.00  0.00     0.311 C 
ATOM     10  O   UNL A   1      31.963  20.397  25.158  1.00  0.00    -0.252 OA
BRANCH   9  11
ATOM     11  C   UNL A   1      31.947  22.405  23.855  1.00  0.00     0.123 C 
ATOM     12  C   UNL A   1      30.414  24.328  23.299  1.00  0.00     0.032 C 
ATOM     13  C   UNL A   1      31.809  23.951  23.834  1.00  0.00     0.096 C 
ATOM     14  N   UNL A   1      32.853  24.419  22.919  1.00  0.00    -0.335 N 
ATOM     15  C   UNL A   1      33.234  22.106  23.092  1.00  0.00     0.039 C 
ATOM     16  C   UNL A   1      33.441  23.310  22.201  1.00  0.00     0.121 C 
BRANCH  14  17
ATOM     17  C   UNL A   1      33.300  25.709  22.684  1.00  0.00     0.254 C 
ATOM     18  O   UNL A   1      33.831  26.051  21.629  1.00  0.00    -0.269 OA
BRANCH  17  19
ATOM     19  C   UNL A   1      32.994  26.785  23.651  1.00  0.00     0.040 A 
ATOM     20  C   UNL A   1      32.020  27.709  23.262  1.00  0.00     0.014 A 
ATOM     21  C   UNL A   1      33.749  27.003  24.807  1.00  0.00     0.022 A 
ATOM     22  C   UNL A   1      31.740  28.815  24.064  1.00  0.00     0.009 A 
ATOM     23  C   UNL A   1      33.535  28.170  25.576  1.00  0.00    -0.018 A 
ATOM     24  C   UNL A   1      32.491  29.062  25.218  1.00  0.00    -0.018 A 
ATOM     25  C   UNL A   1      34.363  28.520  26.656  1.00  0.00     0.009 A 
ATOM     26  C   UNL A   1      32.257  30.215  25.984  1.00  0.00     0.009 A 
ATOM     27  C   UNL A   1      34.168  29.718  27.355  1.00  0.00     0.001 A 
ATOM     28  C   UNL A   1      33.099  30.550  27.040  1.00  0.00     0.001 A 
ENDBRANCH  17  19
ENDBRANCH  14  17
ENDBRANCH   9  11
ENDBRANCH   8   9
ENDBRANCH   7   8
ENDBRANCH   6   7
ENDBRANCH   5   6
ENDBRANCH   4   5
ENDBRANCH   3   4
ENDBRANCH   2   3
ENDBRANCH   1   2
BRANCH   1  29
ATOM     29  C   UNL A   1      40.476  20.934  26.166  1.00  0.00     0.188 C 
BRANCH  29  30
ATOM     30  O   UNL A   1      41.175  21.967  26.854  1.00  0.00    -0.376 OA
BRANCH  30  31
ATOM     31  C   UNL A   1      42.401  22.449  26.321  1.00  0.00     0.202 C 
BRANCH  31  32
ATOM     32  C   UNL A   1      42.525  23.946  25.984  1.00  0.00     0.261 C 
BRANCH  32  33
ATOM     33  O   UNL A   1      41.375  24.765  26.239  1.00  0.00    -0.460 OA
BRANCH  33  34
ATOM     34  C   UNL A   1      41.508  26.101  26.119  1.00  0.00     0.338 C 
ATOM     35  O   UNL A   1      41.377  26.764  25.102  1.00  0.00    -0.246 OA
BRANCH  34  36
ATOM     36  C   UNL A   1      41.634  26.668  27.477  1.00  0.00     0.060 A 
ATOM     37  C   UNL A   1      40.623  26.431  28.413  1.00  0.00     0.016 A 
ATOM     38  C   UNL A   1      42.744  27.441  27.821  1.00  0.00     0.016 A 
ATOM     39  C   UNL A   1      40.688  27.023  29.673  1.00  0.00     0.010 A 
ATOM     40  C   UNL A   1      42.811  28.038  29.082  1.00  0.00     0.010 A 
ATOM     41  C   UNL A   1      41.751  27.880  29.991  1.00  0.00    -0.014 A 
BRANCH  41  42
ATOM     42  C   UNL A   1      41.601  28.805  31.143  1.00  0.00     0.031 A 
ATOM     43  C   UNL A   1      40.494  29.828  31.086  1.00  0.00     0.074 A 
ATOM     44  C   UNL A   1      42.367  28.696  32.244  1.00  0.00     0.049 A 
ATOM     45  N   UNL A   1      40.137  30.716  31.977  1.00  0.00    -0.248 NA
ATOM     46  C   UNL A   1      39.680  29.851  29.858  1.00  0.00     0.031 C 
ATOM     47  C   UNL A   1      43.438  27.720  32.438  1.00  0.00     0.029 A 
ATOM     48  N   UNL A   1      42.348  29.413  33.412  1.00  0.00    -0.354 N 
ATOM     49  C   UNL A   1      39.070  31.407  31.413  1.00  0.00     0.074 A 
ATOM     50  C   UNL A   1      38.865  30.867  30.089  1.00  0.00     0.031 C 
ATOM     51  C   UNL A   1      43.969  27.896  33.662  1.00  0.00     0.029 A 
ATOM     52  C   UNL A   1      43.298  29.014  34.323  1.00  0.00     0.049 A 
ATOM     53  H   UNL A   1      41.713  30.146  33.584  1.00  0.00     0.167 HD
ATOM     54  C   UNL A   1      38.312  32.391  31.953  1.00  0.00     0.031 A 
ATOM     55  C   UNL A   1      43.595  29.500  35.545  1.00  0.00     0.031 A 
ATOM     56  C   UNL A   1      38.519  32.930  33.269  1.00  0.00     0.049 A 
ATOM     57  C   UNL A   1      42.781  30.643  36.099  1.00  0.00     0.074 A 
ATOM     58  C   UNL A   1      37.799  33.920  33.916  1.00  0.00     0.029 A 
ATOM     59  N   UNL A   1      39.520  32.528  34.140  1.00  0.00    -0.354 N 
ATOM     60  N   UNL A   1      41.758  31.268  35.563  1.00  0.00    -0.248 NA
ATOM     61  C   UNL A   1      43.150  31.133  37.434  1.00  0.00     0.031 C 
ATOM     62  C   UNL A   1      38.408  34.162  35.151  1.00  0.00     0.029 A 
ATOM     63  C   UNL A   1      39.456  33.270  35.308  1.00  0.00     0.049 A 
ATOM     64  H   UNL A   1      40.179  31.821  33.956  1.00  0.00     0.167 HD
ATOM     65  C   UNL A   1      41.343  32.201  36.511  1.00  0.00     0.074 A 
ATOM     66  C   UNL A   1      42.213  32.043  37.658  1.00  0.00     0.031 C 
ATOM     67  C   UNL A   1      40.332  33.104  36.440  1.00  0.00     0.031 A 
BRANCH  54  68
ATOM     68  C   UNL A   1      37.215  32.971  31.098  1.00  0.00    -0.014 A 
ATOM     69  C   UNL A   1      37.496  33.855  30.039  1.00  0.00     0.010 A 
ATOM     70  C   UNL A   1      35.879  32.605  31.345  1.00  0.00     0.010 A 
ATOM     71  C   UNL A   1      36.459  34.392  29.272  1.00  0.00     0.020 A 
ATOM     72  C   UNL A   1      34.843  33.114  30.558  1.00  0.00     0.020 A 
ATOM     73  C   UNL A   1      35.138  34.018  29.536  1.00  0.00     0.054 A 
BRANCH  73  74
ATOM     74  S   UNL A   1      33.816  34.713  28.507  1.00  0.00     0.124 S 
ATOM     75  O   UNL A   1      34.303  36.069  28.267  1.00  0.00    -0.237 OA
ATOM     76  O   UNL A   1      33.819  33.828  27.345  1.00  0.00    -0.237 OA
ATOM     77  O   UNL A   1      32.631  34.619  29.356  1.00  0.00    -0.744 OA
ENDBRANCH  73  74
ENDBRANCH  54  68
BRANCH  55  78
ATOM     78  C   UNL A   1      44.718  28.916  36.330  1.00  0.00    -0.014 A 
ATOM     79  C   UNL A   1      46.033  29.391  36.176  1.00  0.00     0.010 A 
ATOM     80  C   UNL A   1      44.477  27.864  37.233  1.00  0.00     0.010 A 
ATOM     81  C   UNL A   1      47.086  28.813  36.893  1.00  0.00     0.020 A 
ATOM     82  C   UNL A   1      45.521  27.305  37.975  1.00  0.00     0.020 A 
ATOM     83  C   UNL A   1      46.822  27.776  37.792  1.00  0.00     0.054 A 
BRANCH  83  84
ATOM     84  S   UNL A   1      48.197  27.078  38.748  1.00  0.00     0.124 S 
ATOM     85  O   UNL A   1      49.350  27.439  37.931  1.00  0.00    -0.237 OA
ATOM     86  O   UNL A   1      48.078  27.779  40.025  1.00  0.00    -0.237 OA
ATOM     87  O   UNL A   1      47.887  25.650  38.800  1.00  0.00    -0.744 OA
ENDBRANCH  83  84
ENDBRANCH  55  78
BRANCH  67  88
ATOM     88  C   UNL A   1      40.078  33.959  37.657  1.00  0.00    -0.014 A 
ATOM     89  C   UNL A   1      39.089  33.627  38.600  1.00  0.00     0.010 A 
ATOM     90  C   UNL A   1      40.873  35.101  37.874  1.00  0.00     0.010 A 
ATOM     91  C   UNL A   1      38.862  34.450  39.706  1.00  0.00     0.020 A 
ATOM     92  C   UNL A   1      40.674  35.906  38.999  1.00  0.00     0.020 A 
ATOM     93  C   UNL A   1      39.654  35.587  39.897  1.00  0.00     0.054 A 
BRANCH  93  94
ATOM     94  S   UNL A   1      39.347  36.635  41.345  1.00  0.00     0.124 S 
ATOM     95  O   UNL A   1      38.406  35.823  42.112  1.00  0.00    -0.237 OA
ATOM     96  O   UNL A   1      40.679  36.771  41.928  1.00  0.00    -0.237 OA
ATOM     97  O   UNL A   1      38.793  37.861  40.776  1.00  0.00    -0.744 OA
ENDBRANCH  93  94
ENDBRANCH  67  88
ENDBRANCH  41  42
ENDBRANCH  34  36
ENDBRANCH  33  34
ENDBRANCH  32  33
ENDBRANCH  31  32
ENDBRANCH  30  31
ENDBRANCH  29  30
ENDBRANCH   1  29
TORSDOF 25
ENDMDL
MODEL 2
REMARK VINA RESULT:      -9.7      1.335      2.150
REMARK SMILES C[C@H]1[C@H](C(=O)OCCOCCOCCOCCOC(=O)c2ccc(-c3c4nc(c(-c5ccc(S(=O)(=O)[O-])cc5)c5ccc([nH]5)c(-c5ccc(S(=O)(=O)[O-])cc5)c5nc(c(-c6ccc(S(=O)(=O)[O-])cc6)c6ccc3[nH]6)C=C5)C=C4)cc2)CCN1C(=O)c1ccc2ccccc2c1
REMARK SMILES IDX 13 1 12 2 11 3 10 4 9 5 8 6 7 7 6 8 4 9 5 10 3 11 1 12 2 13
REMARK SMILES IDX 83 14 81 15 82 16 84 17 85 18 86 19 87 20 95 21 88 22 94 23
REMARK SMILES IDX 89 24 93 25 90 26 92 27 91 28 14 29 15 30 16 31 17 32 18 33
REMARK SMILES IDX 19 34 20 35 21 36 22 37 80 38 23 39 79 40 24 41 25 42 26 43
REMARK SMILES IDX 73 44 27 45 78 46 72 47 74 48 28 49 77 50 71 51 70 52 29 54
REMARK SMILES IDX 59 55 40 56 58 57 41 58 44 59 57 60 75 61 42 62 43 63 56 65
REMARK SMILES IDX 76 66 45 67 30 68 31 69 39 70 32 71 38 72 33 73 34 74 35 75
REMARK SMILES IDX 36 76 37 77 60 78 61 79 69 80 62 81 68 82 63 83 64 84 65 85
REMARK SMILES IDX 66 86 67 87 46 88 47 89 55 90 48 91 54 92 49 93 50 94 51 95
REMARK SMILES IDX 52 96 53 97
REMARK H PARENT 74 53 44 64
REMARK Flexibility Score: inf
ROOT
ATOM      1  C   UNL A   1      39.615  21.674  26.349  1.00  0.00     0.188 C 
ENDROOT
BRANCH   1   2
ATOM      2  O   UNL A   1      38.890  22.878  26.551  1.00  0.00    -0.377 OA
BRANCH   2   3
ATOM      3  C   UNL A   1      37.791  23.107  25.699  1.00  0.00     0.188 C 
BRANCH   3   4
ATOM      4  C   UNL A   1      37.062  21.861  25.173  1.00  0.00     0.188 C 
BRANCH   4   5
ATOM      5  O   UNL A   1      35.876  21.380  25.787  1.00  0.00    -0.376 OA
BRANCH   5   6
ATOM      6  C   UNL A   1      35.070  22.232  26.587  1.00  0.00     0.202 C 
BRANCH   6   7
ATOM      7  C   UNL A   1      33.604  21.868  26.892  1.00  0.00     0.261 C 
BRANCH   7   8
ATOM      8  O   UNL A   1      32.600  22.861  26.587  1.00  0.00    -0.463 OA
BRANCH   8   9
ATOM      9  C   UNL A   1      31.648  22.493  25.701  1.00  0.00     0.311 C 
ATOM     10  O   UNL A   1      31.287  21.332  25.519  1.00  0.00    -0.252 OA
BRANCH   9  11
ATOM     11  C   UNL A   1      31.073  23.624  24.861  1.00  0.00     0.123 C 
ATOM     12  C   UNL A   1      30.170  25.819  25.713  1.00  0.00     0.032 C 
ATOM     13  C   UNL A   1      31.418  25.109  25.151  1.00  0.00     0.096 C 
ATOM     14  N   UNL A   1      31.792  25.678  23.854  1.00  0.00    -0.335 N 
ATOM     15  C   UNL A   1      31.491  23.391  23.412  1.00  0.00     0.039 C 
ATOM     16  C   UNL A   1      31.473  24.764  22.781  1.00  0.00     0.121 C 
BRANCH  14  17
ATOM     17  C   UNL A   1      32.369  26.905  23.569  1.00  0.00     0.254 C 
ATOM     18  O   UNL A   1      33.531  27.023  23.183  1.00  0.00    -0.269 OA
BRANCH  17  19
ATOM     19  C   UNL A   1      31.540  28.128  23.557  1.00  0.00     0.040 A 
ATOM     20  C   UNL A   1      31.791  29.058  24.571  1.00  0.00     0.014 A 
ATOM     21  C   UNL A   1      30.436  28.289  22.715  1.00  0.00     0.022 A 
ATOM     22  C   UNL A   1      30.990  30.191  24.702  1.00  0.00     0.009 A 
ATOM     23  C   UNL A   1      29.565  29.387  22.900  1.00  0.00    -0.018 A 
ATOM     24  C   UNL A   1      29.872  30.366  23.879  1.00  0.00    -0.018 A 
ATOM     25  C   UNL A   1      28.360  29.518  22.188  1.00  0.00     0.009 A 
ATOM     26  C   UNL A   1      29.024  31.470  24.060  1.00  0.00     0.009 A 
ATOM     27  C   UNL A   1      27.483  30.580  22.444  1.00  0.00     0.001 A 
ATOM     28  C   UNL A   1      27.828  31.571  23.356  1.00  0.00     0.001 A 
ENDBRANCH  17  19
ENDBRANCH  14  17
ENDBRANCH   9  11
ENDBRANCH   8   9
ENDBRANCH   7   8
ENDBRANCH   6   7
ENDBRANCH   5   6
ENDBRANCH   4   5
ENDBRANCH   3   4
ENDBRANCH   2   3
ENDBRANCH   1   2
BRANCH   1  29
ATOM     29  C   UNL A   1      41.141  21.797  26.186  1.00  0.00     0.188 C 
BRANCH  29  30
ATOM     30  O   UNL A   1      41.634  23.122  26.350  1.00  0.00    -0.376 OA
BRANCH  30  31
ATOM     31  C   UNL A   1      42.833  23.504  25.688  1.00  0.00     0.202 C 
BRANCH  31  32
ATOM     32  C   UNL A   1      42.986  24.961  25.216  1.00  0.00     0.261 C 
BRANCH  32  33
ATOM     33  O   UNL A   1      41.960  25.883  25.613  1.00  0.00    -0.460 OA
BRANCH  33  34
ATOM     34  C   UNL A   1      42.245  27.200  25.587  1.00  0.00     0.338 C 
ATOM     35  O   UNL A   1      42.254  27.930  24.609  1.00  0.00    -0.246 OA
BRANCH  34  36
ATOM     36  C   UNL A   1      42.344  27.670  26.985  1.00  0.00     0.060 A 
ATOM     37  C   UNL A   1      41.508  27.108  27.955  1.00  0.00     0.016 A 
ATOM     38  C   UNL A   1      43.252  28.671  27.332  1.00  0.00     0.016 A 
ATOM     39  C   UNL A   1      41.532  27.594  29.261  1.00  0.00     0.010 A 
ATOM     40  C   UNL A   1      43.277  29.162  28.640  1.00  0.00     0.010 A 
ATOM     41  C   UNL A   1      42.372  28.666  29.593  1.00  0.00    -0.014 A 
BRANCH  41  42
ATOM     42  C   UNL A   1      42.097  29.426  30.839  1.00  0.00     0.031 A 
ATOM     43  C   UNL A   1      40.861  30.290  30.879  1.00  0.00     0.074 A 
ATOM     44  C   UNL A   1      42.871  29.298  31.933  1.00  0.00     0.049 A 
ATOM     45  N   UNL A   1      40.387  31.016  31.857  1.00  0.00    -0.248 NA
ATOM     46  C   UNL A   1      40.052  30.341  29.649  1.00  0.00     0.031 C 
ATOM     47  C   UNL A   1      44.064  28.460  32.034  1.00  0.00     0.029 A 
ATOM     48  N   UNL A   1      42.753  29.870  33.174  1.00  0.00    -0.354 N 
ATOM     49  C   UNL A   1      39.235  31.615  31.358  1.00  0.00     0.074 A 
ATOM     50  C   UNL A   1      39.107  31.206  29.978  1.00  0.00     0.031 C 
ATOM     51  C   UNL A   1      44.566  28.568  33.278  1.00  0.00     0.029 A 
ATOM     52  C   UNL A   1      43.748  29.503  34.049  1.00  0.00     0.049 A 
ATOM     53  H   UNL A   1      42.025  30.487  33.416  1.00  0.00     0.167 HD
ATOM     54  C   UNL A   1      38.351  32.421  31.991  1.00  0.00     0.031 A 
ATOM     55  C   UNL A   1      43.975  29.885  35.322  1.00  0.00     0.031 A 
ATOM     56  C   UNL A   1      38.481  32.831  33.362  1.00  0.00     0.049 A 
ATOM     57  C   UNL A   1      43.013  30.838  35.987  1.00  0.00     0.074 A 
ATOM     58  C   UNL A   1      37.633  33.635  34.104  1.00  0.00     0.029 A 
ATOM     59  N   UNL A   1      39.527  32.473  34.200  1.00  0.00    -0.354 N 
ATOM     60  N   UNL A   1      41.915  31.375  35.508  1.00  0.00    -0.248 NA
ATOM     61  C   UNL A   1      43.312  31.219  37.375  1.00  0.00     0.031 C 
ATOM     62  C   UNL A   1      38.202  33.817  35.368  1.00  0.00     0.029 A 
ATOM     63  C   UNL A   1      39.362  33.063  35.441  1.00  0.00     0.049 A 
ATOM     64  H   UNL A   1      40.276  31.886  33.948  1.00  0.00     0.167 HD
ATOM     65  C   UNL A   1      41.377  32.131  36.547  1.00  0.00     0.074 A 
ATOM     66  C   UNL A   1      42.260  31.963  37.683  1.00  0.00     0.031 C 
ATOM     67  C   UNL A   1      40.252  32.890  36.562  1.00  0.00     0.031 A 
BRANCH  54  68
ATOM     68  C   UNL A   1      37.185  32.940  31.189  1.00  0.00    -0.014 A 
ATOM     69  C   UNL A   1      35.864  32.547  31.473  1.00  0.00     0.010 A 
ATOM     70  C   UNL A   1      37.416  33.857  30.147  1.00  0.00     0.010 A 
ATOM     71  C   UNL A   1      34.801  33.029  30.704  1.00  0.00     0.020 A 
ATOM     72  C   UNL A   1      36.352  34.367  29.398  1.00  0.00     0.020 A 
ATOM     73  C   UNL A   1      35.052  33.937  29.671  1.00  0.00     0.054 A 
BRANCH  73  74
ATOM     74  S   UNL A   1      33.651  34.564  28.706  1.00  0.00     0.124 S 
ATOM     75  O   UNL A   1      32.652  34.801  29.745  1.00  0.00    -0.237 OA
ATOM     76  O   UNL A   1      34.206  35.764  28.082  1.00  0.00    -0.237 OA
ATOM     77  O   UNL A   1      33.345  33.471  27.786  1.00  0.00    -0.744 OA
ENDBRANCH  73  74
ENDBRANCH  54  68
BRANCH  55  78
ATOM     78  C   UNL A   1      45.167  29.373  36.055  1.00  0.00    -0.014 A 
ATOM     79  C   UNL A   1      45.078  28.238  36.881  1.00  0.00     0.010 A 
ATOM     80  C   UNL A   1      46.405  30.033  35.939  1.00  0.00     0.010 A 
ATOM     81  C   UNL A   1      46.195  27.787  37.592  1.00  0.00     0.020 A 
ATOM     82  C   UNL A   1      47.531  29.566  36.622  1.00  0.00     0.020 A 
ATOM     83  C   UNL A   1      47.416  28.451  37.453  1.00  0.00     0.054 A 
BRANCH  83  84
ATOM     84  S   UNL A   1      48.863  27.815  38.344  1.00  0.00     0.124 S 
ATOM     85  O   UNL A   1      49.805  28.923  38.227  1.00  0.00    -0.237 OA
ATOM     86  O   UNL A   1      48.326  27.576  39.682  1.00  0.00    -0.237 OA
ATOM     87  O   UNL A   1      49.219  26.608  37.601  1.00  0.00    -0.744 OA
ENDBRANCH  83  84
ENDBRANCH  55  78
BRANCH  67  88
ATOM     88  C   UNL A   1      39.883  33.561  37.862  1.00  0.00    -0.014 A 
ATOM     89  C   UNL A   1      40.503  34.751  38.281  1.00  0.00     0.010 A 
ATOM     90  C   UNL A   1      38.868  33.001  38.662  1.00  0.00     0.010 A 
ATOM     91  C   UNL A   1      40.155  35.337  39.501  1.00  0.00     0.020 A 
ATOM     92  C   UNL A   1      38.491  33.605  39.864  1.00  0.00     0.020 A 
ATOM     93  C   UNL A   1      39.153  34.758  40.287  1.00  0.00     0.054 A 
BRANCH  93  94
ATOM     94  S   UNL A   1      38.713  35.543  41.862  1.00  0.00     0.124 S 
ATOM     95  O   UNL A   1      39.723  35.000  42.765  1.00  0.00    -0.237 OA
ATOM     96  O   UNL A   1      38.842  36.966  41.555  1.00  0.00    -0.237 OA
ATOM     97  O   UNL A   1      37.347  35.086  42.107  1.00  0.00    -0.744 OA
ENDBRANCH  93  94
ENDBRANCH  67  88
ENDBRANCH  41  42
ENDBRANCH  34  36
ENDBRANCH  33  34
ENDBRANCH  32  33
ENDBRANCH  31  32
ENDBRANCH  30  31
ENDBRANCH  29  30
ENDBRANCH   1  29
TORSDOF 25
ENDMDL
MODEL 3
REMARK VINA RESULT:      -9.4      5.517      9.846
REMARK SMILES C[C@H]1[C@H](C(=O)OCCOCCOCCOCCOC(=O)c2ccc(-c3c4nc(c(-c5ccc(S(=O)(=O)[O-])cc5)c5ccc([nH]5)c(-c5ccc(S(=O)(=O)[O-])cc5)c5nc(c(-c6ccc(S(=O)(=O)[O-])cc6)c6ccc3[nH]6)C=C5)C=C4)cc2)CCN1C(=O)c1ccc2ccccc2c1
REMARK SMILES IDX 13 1 12 2 11 3 10 4 9 5 8 6 7 7 6 8 4 9 5 10 3 11 1 12 2 13
REMARK SMILES IDX 83 14 81 15 82 16 84 17 85 18 86 19 87 20 95 21 88 22 94 23
REMARK SMILES IDX 89 24 93 25 90 26 92 27 91 28 14 29 15 30 16 31 17 32 18 33
REMARK SMILES IDX 19 34 20 35 21 36 22 37 80 38 23 39 79 40 24 41 25 42 26 43
REMARK SMILES IDX 73 44 27 45 78 46 72 47 74 48 28 49 77 50 71 51 70 52 29 54
REMARK SMILES IDX 59 55 40 56 58 57 41 58 44 59 57 60 75 61 42 62 43 63 56 65
REMARK SMILES IDX 76 66 45 67 30 68 31 69 39 70 32 71 38 72 33 73 34 74 35 75
REMARK SMILES IDX 36 76 37 77 60 78 61 79 69 80 62 81 68 82 63 83 64 84 65 85
REMARK SMILES IDX 66 86 67 87 46 88 47 89 55 90 48 91 54 92 49 93 50 94 51 95
REMARK SMILES IDX 52 96 53 97
REMARK H PARENT 74 53 44 64
REMARK Flexibility Score: inf
ROOT
ATOM      1  C   UNL A   1      37.376  23.260  25.344  1.00  0.00     0.188 C 
ENDROOT
BRANCH   1   2
ATOM      2  O   UNL A   1      36.007  23.511  25.625  1.00  0.00    -0.377 OA
BRANCH   2   3
ATOM      3  C   UNL A   1      35.255  22.429  26.127  1.00  0.00     0.188 C 
BRANCH   3   4
ATOM      4  C   UNL A   1      34.853  21.346  25.115  1.00  0.00     0.188 C 
BRANCH   4   5
ATOM      5  O   UNL A   1      33.527  21.251  24.618  1.00  0.00    -0.376 OA
BRANCH   5   6
ATOM      6  C   UNL A   1      32.410  21.393  25.482  1.00  0.00     0.202 C 
BRANCH   6   7
ATOM      7  C   UNL A   1      31.488  22.623  25.381  1.00  0.00     0.261 C 
BRANCH   7   8
ATOM      8  O   UNL A   1      31.229  23.147  24.059  1.00  0.00    -0.463 OA
BRANCH   8   9
ATOM      9  C   UNL A   1      31.874  24.290  23.735  1.00  0.00     0.311 C 
ATOM     10  O   UNL A   1      33.076  24.477  23.909  1.00  0.00    -0.252 OA
BRANCH   9  11
ATOM     11  C   UNL A   1      30.989  25.398  23.185  1.00  0.00     0.123 C 
ATOM     12  C   UNL A   1      28.884  26.303  24.238  1.00  0.00     0.032 C 
ATOM     13  C   UNL A   1      30.406  26.506  24.103  1.00  0.00     0.096 C 
ATOM     14  N   UNL A   1      30.696  27.767  23.417  1.00  0.00    -0.335 N 
ATOM     15  C   UNL A   1      31.779  26.141  22.112  1.00  0.00     0.039 C 
ATOM     16  C   UNL A   1      31.170  27.523  22.072  1.00  0.00     0.121 C 
BRANCH  14  17
ATOM     17  C   UNL A   1      30.571  29.067  23.881  1.00  0.00     0.254 C 
ATOM     18  O   UNL A   1      29.689  29.831  23.496  1.00  0.00    -0.269 OA
BRANCH  17  19
ATOM     19  C   UNL A   1      31.411  29.535  25.004  1.00  0.00     0.040 A 
ATOM     20  C   UNL A   1      31.075  30.777  25.553  1.00  0.00     0.014 A 
ATOM     21  C   UNL A   1      32.589  28.890  25.391  1.00  0.00     0.022 A 
ATOM     22  C   UNL A   1      31.872  31.345  26.546  1.00  0.00     0.009 A 
ATOM     23  C   UNL A   1      33.449  29.504  26.329  1.00  0.00    -0.018 A 
ATOM     24  C   UNL A   1      33.063  30.725  26.939  1.00  0.00    -0.018 A 
ATOM     25  C   UNL A   1      34.716  28.981  26.641  1.00  0.00     0.009 A 
ATOM     26  C   UNL A   1      33.901  31.336  27.885  1.00  0.00     0.009 A 
ATOM     27  C   UNL A   1      35.576  29.650  27.522  1.00  0.00     0.001 A 
ATOM     28  C   UNL A   1      35.158  30.809  28.167  1.00  0.00     0.001 A 
ENDBRANCH  17  19
ENDBRANCH  14  17
ENDBRANCH   9  11
ENDBRANCH   8   9
ENDBRANCH   7   8
ENDBRANCH   6   7
ENDBRANCH   5   6
ENDBRANCH   4   5
ENDBRANCH   3   4
ENDBRANCH   2   3
ENDBRANCH   1   2
BRANCH   1  29
ATOM     29  C   UNL A   1      38.395  23.642  26.433  1.00  0.00     0.188 C 
BRANCH  29  30
ATOM     30  O   UNL A   1      39.281  22.586  26.791  1.00  0.00    -0.376 OA
BRANCH  30  31
ATOM     31  C   UNL A   1      39.174  21.335  26.125  1.00  0.00     0.202 C 
BRANCH  31  32
ATOM     32  C   UNL A   1      40.238  20.257  26.400  1.00  0.00     0.261 C 
BRANCH  32  33
ATOM     33  O   UNL A   1      41.399  20.260  25.558  1.00  0.00    -0.460 OA
BRANCH  33  34
ATOM     34  C   UNL A   1      42.600  20.471  26.132  1.00  0.00     0.338 C 
ATOM     35  O   UNL A   1      43.559  19.715  26.125  1.00  0.00    -0.246 OA
BRANCH  34  36
ATOM     36  C   UNL A   1      42.640  21.871  26.600  1.00  0.00     0.060 A 
ATOM     37  C   UNL A   1      42.480  22.906  25.674  1.00  0.00     0.016 A 
ATOM     38  C   UNL A   1      42.847  22.160  27.949  1.00  0.00     0.016 A 
ATOM     39  C   UNL A   1      42.594  24.233  26.084  1.00  0.00     0.010 A 
ATOM     40  C   UNL A   1      42.964  23.489  28.364  1.00  0.00     0.010 A 
ATOM     41  C   UNL A   1      42.899  24.528  27.420  1.00  0.00    -0.014 A 
BRANCH  41  42
ATOM     42  C   UNL A   1      43.414  25.880  27.751  1.00  0.00     0.031 A 
ATOM     43  C   UNL A   1      44.857  26.183  27.433  1.00  0.00     0.074 A 
ATOM     44  C   UNL A   1      42.613  26.843  28.246  1.00  0.00     0.049 A 
ATOM     45  N   UNL A   1      45.528  27.294  27.590  1.00  0.00    -0.248 NA
ATOM     46  C   UNL A   1      45.650  25.081  26.858  1.00  0.00     0.031 C 
ATOM     47  C   UNL A   1      41.192  26.689  28.553  1.00  0.00     0.029 A 
ATOM     48  N   UNL A   1      42.888  28.149  28.564  1.00  0.00    -0.354 N 
ATOM     49  C   UNL A   1      46.818  27.021  27.147  1.00  0.00     0.074 A 
ATOM     50  C   UNL A   1      46.849  25.631  26.757  1.00  0.00     0.031 C 
ATOM     51  C   UNL A   1      40.717  27.862  29.009  1.00  0.00     0.029 A 
ATOM     52  C   UNL A   1      41.805  28.838  29.055  1.00  0.00     0.049 A 
ATOM     53  H   UNL A   1      43.778  28.555  28.452  1.00  0.00     0.167 HD
ATOM     54  C   UNL A   1      47.880  27.855  27.054  1.00  0.00     0.031 A 
ATOM     55  C   UNL A   1      41.706  30.109  29.497  1.00  0.00     0.031 A 
ATOM     56  C   UNL A   1      47.850  29.238  27.445  1.00  0.00     0.049 A 
ATOM     57  C   UNL A   1      42.921  31.001  29.447  1.00  0.00     0.074 A 
ATOM     58  C   UNL A   1      48.867  30.174  27.379  1.00  0.00     0.029 A 
ATOM     59  N   UNL A   1      46.745  29.885  27.979  1.00  0.00    -0.354 N 
ATOM     60  N   UNL A   1      44.127  30.735  29.001  1.00  0.00    -0.248 NA
ATOM     61  C   UNL A   1      42.755  32.374  29.943  1.00  0.00     0.031 C 
ATOM     62  C   UNL A   1      48.398  31.367  27.936  1.00  0.00     0.029 A 
ATOM     63  C   UNL A   1      47.065  31.199  28.275  1.00  0.00     0.049 A 
ATOM     64  H   UNL A   1      45.865  29.470  28.127  1.00  0.00     0.167 HD
ATOM     65  C   UNL A   1      44.851  31.918  29.133  1.00  0.00     0.074 A 
ATOM     66  C   UNL A   1      43.942  32.902  29.681  1.00  0.00     0.031 C 
ATOM     67  C   UNL A   1      46.149  32.168  28.824  1.00  0.00     0.031 A 
BRANCH  54  68
ATOM     68  C   UNL A   1      49.174  27.278  26.541  1.00  0.00    -0.014 A 
ATOM     69  C   UNL A   1      49.443  27.184  25.163  1.00  0.00     0.010 A 
ATOM     70  C   UNL A   1      50.149  26.842  27.458  1.00  0.00     0.010 A 
ATOM     71  C   UNL A   1      50.644  26.629  24.712  1.00  0.00     0.020 A 
ATOM     72  C   UNL A   1      51.365  26.319  27.011  1.00  0.00     0.020 A 
ATOM     73  C   UNL A   1      51.598  26.200  25.640  1.00  0.00     0.054 A 
BRANCH  73  74
ATOM     74  S   UNL A   1      53.157  25.506  25.026  1.00  0.00     0.124 S 
ATOM     75  O   UNL A   1      53.093  25.835  23.604  1.00  0.00    -0.237 OA
ATOM     76  O   UNL A   1      54.157  26.241  25.796  1.00  0.00    -0.237 OA
ATOM     77  O   UNL A   1      53.052  24.084  25.341  1.00  0.00    -0.744 OA
ENDBRANCH  73  74
ENDBRANCH  54  68
BRANCH  55  78
ATOM     78  C   UNL A   1      40.412  30.616  30.033  1.00  0.00    -0.014 A 
ATOM     79  C   UNL A   1      39.495  31.283  29.200  1.00  0.00     0.010 A 
ATOM     80  C   UNL A   1      40.094  30.443  31.393  1.00  0.00     0.010 A 
ATOM     81  C   UNL A   1      38.298  31.786  29.721  1.00  0.00     0.020 A 
ATOM     82  C   UNL A   1      38.884  30.914  31.910  1.00  0.00     0.020 A 
ATOM     83  C   UNL A   1      37.998  31.593  31.073  1.00  0.00     0.054 A 
BRANCH  83  84
ATOM     84  S   UNL A   1      36.416  32.208  31.713  1.00  0.00     0.124 S 
ATOM     85  O   UNL A   1      35.536  31.063  31.503  1.00  0.00    -0.237 OA
ATOM     86  O   UNL A   1      36.739  32.514  33.104  1.00  0.00    -0.237 OA
ATOM     87  O   UNL A   1      36.138  33.373  30.876  1.00  0.00    -0.744 OA
ENDBRANCH  83  84
ENDBRANCH  55  78
BRANCH  67  88
ATOM     88  C   UNL A   1      46.653  33.575  29.026  1.00  0.00    -0.014 A 
ATOM     89  C   UNL A   1      46.490  34.566  28.042  1.00  0.00     0.010 A 
ATOM     90  C   UNL A   1      47.271  33.918  30.244  1.00  0.00     0.010 A 
ATOM     91  C   UNL A   1      46.986  35.856  28.249  1.00  0.00     0.020 A 
ATOM     92  C   UNL A   1      47.735  35.216  30.469  1.00  0.00     0.020 A 
ATOM     93  C   UNL A   1      47.609  36.172  29.461  1.00  0.00     0.054 A 
BRANCH  93  94
ATOM     94  S   UNL A   1      48.236  37.856  29.709  1.00  0.00     0.124 S 
ATOM     95  O   UNL A   1      48.133  38.008  31.157  1.00  0.00    -0.237 OA
ATOM     96  O   UNL A   1      49.595  37.772  29.180  1.00  0.00    -0.237 OA
ATOM     97  O   UNL A   1      47.320  38.686  28.929  1.00  0.00    -0.744 OA
ENDBRANCH  93  94
ENDBRANCH  67  88
ENDBRANCH  41  42
ENDBRANCH  34  36
ENDBRANCH  33  34
ENDBRANCH  32  33
ENDBRANCH  31  32
ENDBRANCH  30  31
ENDBRANCH  29  30
ENDBRANCH   1  29
TORSDOF 25
ENDMDL
