MODEL 1
REMARK VINA RESULT:      -8.6      0.000      0.000
REMARK SMILES O=C(OCCOCCOCCOCCOC(=O)[C@H]1C[C@](O)(c2ccccc2Cl)[C@@H](c2ccccc2Cl)O1)c1ccc(-c2c3nc(c(-c4ccc(S(=O)(=O)[O-])cc4)c4ccc([nH]4)c(-c4ccc(S(=O)(=O)[O-])cc4)c4nc(c(-c5ccc(S(=O)(=O)[O-])cc5)c5ccc2[nH]5)C=C4)C=C3)cc1
REMARK SMILES IDX 8 1 7 2 6 3 5 4 4 5 3 6 2 7 1 8 38 9 39 10 97 11 40 12 96 13
REMARK SMILES IDX 41 14 42 15 43 16 90 17 44 18 95 19 89 20 91 21 45 22 94 23
REMARK SMILES IDX 88 24 87 25 46 27 76 28 57 29 75 30 58 31 61 32 74 33 92 34
REMARK SMILES IDX 59 35 60 36 73 38 93 39 62 40 47 41 48 42 56 43 49 44 55 45
REMARK SMILES IDX 50 46 51 47 52 48 53 49 54 50 77 51 78 52 86 53 79 54 85 55
REMARK SMILES IDX 80 56 81 57 82 58 83 59 84 60 63 61 64 62 72 63 65 64 71 65
REMARK SMILES IDX 66 66 67 67 68 68 69 69 70 70 9 71 10 72 11 73 12 74 13 75
REMARK SMILES IDX 14 76 15 77 16 78 17 79 18 80 19 81 37 82 20 83 29 84 22 85
REMARK SMILES IDX 23 86 27 87 24 88 26 89 28 90 25 91 21 92 30 94 31 95 35 96
REMARK SMILES IDX 32 97 34 98 36 99 33 100
REMARK H PARENT 91 26 61 37 21 93
REMARK Flexibility Score: inf
ROOT
ATOM      1  C   UNL A   1      44.780  22.600  35.776  1.00  0.00     0.188 C 
ENDROOT
BRANCH   1   2
ATOM      2  C   UNL A   1      46.215  22.768  36.275  1.00  0.00     0.188 C 
BRANCH   2   3
ATOM      3  O   UNL A   1      46.200  23.104  37.660  1.00  0.00    -0.376 OA
BRANCH   3   4
ATOM      4  C   UNL A   1      45.048  23.806  38.113  1.00  0.00     0.202 C 
BRANCH   4   5
ATOM      5  C   UNL A   1      45.367  24.921  39.106  1.00  0.00     0.261 C 
BRANCH   5   6
ATOM      6  O   UNL A   1      46.708  25.410  38.965  1.00  0.00    -0.460 OA
BRANCH   6   7
ATOM      7  C   UNL A   1      47.126  26.432  38.175  1.00  0.00     0.338 C 
ATOM      8  O   UNL A   1      48.334  26.631  38.066  1.00  0.00    -0.246 OA
BRANCH   7   9
ATOM      9  C   UNL A   1      46.203  27.299  37.379  1.00  0.00     0.060 A 
ATOM     10  C   UNL A   1      46.512  28.569  36.886  1.00  0.00     0.016 A 
ATOM     11  C   UNL A   1      44.976  26.731  37.005  1.00  0.00     0.016 A 
ATOM     12  C   UNL A   1      45.623  29.282  36.092  1.00  0.00     0.010 A 
ATOM     13  C   UNL A   1      44.086  27.427  36.180  1.00  0.00     0.010 A 
ATOM     14  C   UNL A   1      44.406  28.715  35.734  1.00  0.00    -0.014 A 
BRANCH  14  15
ATOM     15  C   UNL A   1      43.434  29.532  34.986  1.00  0.00     0.031 A 
ATOM     16  C   UNL A   1      42.691  30.593  35.736  1.00  0.00     0.074 A 
ATOM     17  C   UNL A   1      43.287  29.366  33.658  1.00  0.00     0.049 A 
ATOM     18  N   UNL A   1      41.697  31.338  35.343  1.00  0.00    -0.248 NA
ATOM     19  C   UNL A   1      43.133  30.855  37.120  1.00  0.00     0.031 C 
ATOM     20  C   UNL A   1      44.066  28.440  32.828  1.00  0.00     0.029 A 
ATOM     21  N   UNL A   1      42.440  29.974  32.769  1.00  0.00    -0.354 N 
ATOM     22  C   UNL A   1      41.358  32.115  36.444  1.00  0.00     0.074 A 
ATOM     23  C   UNL A   1      42.263  31.772  37.515  1.00  0.00     0.031 C 
ATOM     24  C   UNL A   1      43.653  28.540  31.554  1.00  0.00     0.029 A 
ATOM     25  C   UNL A   1      42.536  29.476  31.490  1.00  0.00     0.049 A 
ATOM     26  H   UNL A   1      41.821  30.697  33.022  1.00  0.00     0.167 HD
ATOM     27  C   UNL A   1      40.356  33.017  36.546  1.00  0.00     0.031 A 
ATOM     28  C   UNL A   1      41.762  29.708  30.413  1.00  0.00     0.031 A 
ATOM     29  C   UNL A   1      39.478  33.333  35.456  1.00  0.00     0.049 A 
ATOM     30  C   UNL A   1      40.594  30.647  30.581  1.00  0.00     0.074 A 
ATOM     31  C   UNL A   1      38.409  34.208  35.434  1.00  0.00     0.029 A 
ATOM     32  N   UNL A   1      39.572  32.773  34.190  1.00  0.00    -0.354 N 
ATOM     33  N   UNL A   1      40.257  31.359  31.633  1.00  0.00    -0.248 NA
ATOM     34  C   UNL A   1      39.688  30.795  29.436  1.00  0.00     0.031 C 
ATOM     35  C   UNL A   1      37.820  34.131  34.168  1.00  0.00     0.029 A 
ATOM     36  C   UNL A   1      38.555  33.251  33.387  1.00  0.00     0.049 A 
ATOM     37  H   UNL A   1      40.260  32.129  33.906  1.00  0.00     0.167 HD
ATOM     38  C   UNL A   1      39.096  32.034  31.277  1.00  0.00     0.074 A 
ATOM     39  C   UNL A   1      38.811  31.675  29.902  1.00  0.00     0.031 C 
ATOM     40  C   UNL A   1      38.322  32.864  32.019  1.00  0.00     0.031 A 
BRANCH  27  41
ATOM     41  C   UNL A   1      40.111  33.639  37.891  1.00  0.00    -0.014 A 
ATOM     42  C   UNL A   1      40.746  34.829  38.285  1.00  0.00     0.010 A 
ATOM     43  C   UNL A   1      39.206  33.019  38.773  1.00  0.00     0.010 A 
ATOM     44  C   UNL A   1      40.495  35.377  39.547  1.00  0.00     0.020 A 
ATOM     45  C   UNL A   1      38.938  33.573  40.026  1.00  0.00     0.020 A 
ATOM     46  C   UNL A   1      39.592  34.745  40.410  1.00  0.00     0.054 A 
BRANCH  46  47
ATOM     47  S   UNL A   1      39.256  35.498  42.026  1.00  0.00     0.124 S 
ATOM     48  O   UNL A   1      39.790  34.494  42.944  1.00  0.00    -0.237 OA
ATOM     49  O   UNL A   1      40.006  36.749  41.959  1.00  0.00    -0.237 OA
ATOM     50  O   UNL A   1      37.803  35.647  42.044  1.00  0.00    -0.744 OA
ENDBRANCH  46  47
ENDBRANCH  27  41
BRANCH  28  51
ATOM     51  C   UNL A   1      41.980  28.964  29.138  1.00  0.00    -0.014 A 
ATOM     52  C   UNL A   1      41.302  27.763  28.868  1.00  0.00     0.010 A 
ATOM     53  C   UNL A   1      42.908  29.444  28.193  1.00  0.00     0.010 A 
ATOM     54  C   UNL A   1      41.568  27.045  27.695  1.00  0.00     0.020 A 
ATOM     55  C   UNL A   1      43.153  28.749  27.006  1.00  0.00     0.020 A 
ATOM     56  C   UNL A   1      42.496  27.541  26.773  1.00  0.00     0.054 A 
BRANCH  56  57
ATOM     57  S   UNL A   1      42.820  26.603  25.253  1.00  0.00     0.124 S 
ATOM     58  O   UNL A   1      43.070  27.669  24.289  1.00  0.00    -0.237 OA
ATOM     59  O   UNL A   1      43.980  25.795  25.619  1.00  0.00    -0.237 OA
ATOM     60  O   UNL A   1      41.585  25.848  25.048  1.00  0.00    -0.744 OA
ENDBRANCH  56  57
ENDBRANCH  28  51
BRANCH  40  61
ATOM     61  C   UNL A   1      37.105  33.439  31.353  1.00  0.00    -0.014 A 
ATOM     62  C   UNL A   1      37.227  34.210  30.186  1.00  0.00     0.010 A 
ATOM     63  C   UNL A   1      35.828  33.117  31.847  1.00  0.00     0.010 A 
ATOM     64  C   UNL A   1      36.085  34.659  29.523  1.00  0.00     0.020 A 
ATOM     65  C   UNL A   1      34.685  33.543  31.170  1.00  0.00     0.020 A 
ATOM     66  C   UNL A   1      34.822  34.317  30.016  1.00  0.00     0.054 A 
BRANCH  66  67
ATOM     67  S   UNL A   1      33.355  34.840  29.088  1.00  0.00     0.124 S 
ATOM     68  O   UNL A   1      33.173  33.729  28.159  1.00  0.00    -0.237 OA
ATOM     69  O   UNL A   1      32.340  34.961  30.132  1.00  0.00    -0.237 OA
ATOM     70  O   UNL A   1      33.765  36.103  28.477  1.00  0.00    -0.744 OA
ENDBRANCH  66  67
ENDBRANCH  40  61
ENDBRANCH  14  15
ENDBRANCH   7   9
ENDBRANCH   6   7
ENDBRANCH   5   6
ENDBRANCH   4   5
ENDBRANCH   3   4
ENDBRANCH   2   3
ENDBRANCH   1   2
BRANCH   1  71
ATOM     71  O   UNL A   1      44.451  23.391  34.632  1.00  0.00    -0.377 OA
BRANCH  71  72
ATOM     72  C   UNL A   1      45.427  24.342  34.211  1.00  0.00     0.188 C 
BRANCH  72  73
ATOM     73  C   UNL A   1      45.136  25.279  33.010  1.00  0.00     0.188 C 
BRANCH  73  74
ATOM     74  O   UNL A   1      46.096  25.299  31.954  1.00  0.00    -0.376 OA
BRANCH  74  75
ATOM     75  C   UNL A   1      45.557  24.968  30.666  1.00  0.00     0.202 C 
BRANCH  75  76
ATOM     76  C   UNL A   1      44.200  24.265  30.760  1.00  0.00     0.261 C 
BRANCH  76  77
ATOM     77  O   UNL A   1      44.269  23.013  30.064  1.00  0.00    -0.461 OA
BRANCH  77  78
ATOM     78  C   UNL A   1      44.070  22.989  28.726  1.00  0.00     0.335 C 
ATOM     79  O   UNL A   1      44.918  23.261  27.888  1.00  0.00    -0.249 OA
BRANCH  78  80
ATOM     80  C   UNL A   1      42.634  22.511  28.449  1.00  0.00     0.232 C 
ATOM     81  C   UNL A   1      41.892  23.341  27.432  1.00  0.00     0.087 C 
ATOM     82  O   UNL A   1      42.576  21.152  28.033  1.00  0.00    -0.355 OA
ATOM     83  C   UNL A   1      41.468  22.392  26.286  1.00  0.00     0.124 C 
ATOM     84  C   UNL A   1      42.197  21.060  26.649  1.00  0.00     0.187 C 
BRANCH  83  85
ATOM     85  C   UNL A   1      39.927  22.494  26.141  1.00  0.00     0.005 A 
ATOM     86  C   UNL A   1      39.390  23.790  26.404  1.00  0.00     0.008 A 
ATOM     87  C   UNL A   1      38.980  21.507  25.803  1.00  0.00     0.047 A 
ATOM     88  C   UNL A   1      38.024  24.079  26.373  1.00  0.00     0.001 A 
ATOM     89  C   UNL A   1      37.603  21.813  25.748  1.00  0.00     0.021 A 
ATOM     90  Cl  UNL A   1      39.301  19.857  25.425  1.00  0.00    -0.084 Cl
ATOM     91  C   UNL A   1      37.124  23.084  26.039  1.00  0.00     0.002 A 
ENDBRANCH  83  85
BRANCH  83  92
ATOM     92  O   UNL A   1      41.979  22.955  25.064  1.00  0.00    -0.382 OA
ATOM     93  H   UNL A   1      41.525  23.794  24.879  1.00  0.00     0.212 HD
ENDBRANCH  83  92
BRANCH  84  94
ATOM     94  C   UNL A   1      43.435  20.571  25.900  1.00  0.00     0.003 A 
ATOM     95  C   UNL A   1      44.373  21.487  25.392  1.00  0.00     0.008 A 
ATOM     96  C   UNL A   1      43.776  19.201  25.820  1.00  0.00     0.046 A 
ATOM     97  C   UNL A   1      45.628  21.077  24.931  1.00  0.00     0.000 A 
ATOM     98  C   UNL A   1      45.025  18.790  25.333  1.00  0.00     0.021 A 
ATOM     99  Cl  UNL A   1      42.700  17.933  26.300  1.00  0.00    -0.084 Cl
ATOM    100  C   UNL A   1      45.962  19.730  24.917  1.00  0.00     0.002 A 
ENDBRANCH  84  94
ENDBRANCH  78  80
ENDBRANCH  77  78
ENDBRANCH  76  77
ENDBRANCH  75  76
ENDBRANCH  74  75
ENDBRANCH  73  74
ENDBRANCH  72  73
ENDBRANCH  71  72
ENDBRANCH   1  71
TORSDOF 26
ENDMDL
MODEL 2
REMARK VINA RESULT:      -8.2      4.749      8.084
REMARK SMILES O=C(OCCOCCOCCOCCOC(=O)[C@H]1C[C@](O)(c2ccccc2Cl)[C@@H](c2ccccc2Cl)O1)c1ccc(-c2c3nc(c(-c4ccc(S(=O)(=O)[O-])cc4)c4ccc([nH]4)c(-c4ccc(S(=O)(=O)[O-])cc4)c4nc(c(-c5ccc(S(=O)(=O)[O-])cc5)c5ccc2[nH]5)C=C4)C=C3)cc1
REMARK SMILES IDX 8 1 7 2 6 3 5 4 4 5 3 6 2 7 1 8 38 9 39 10 97 11 40 12 96 13
REMARK SMILES IDX 41 14 42 15 43 16 90 17 44 18 95 19 89 20 91 21 45 22 94 23
REMARK SMILES IDX 88 24 87 25 46 27 76 28 57 29 75 30 58 31 61 32 74 33 92 34
REMARK SMILES IDX 59 35 60 36 73 38 93 39 62 40 47 41 48 42 56 43 49 44 55 45
REMARK SMILES IDX 50 46 51 47 52 48 53 49 54 50 77 51 78 52 86 53 79 54 85 55
REMARK SMILES IDX 80 56 81 57 82 58 83 59 84 60 63 61 64 62 72 63 65 64 71 65
REMARK SMILES IDX 66 66 67 67 68 68 69 69 70 70 9 71 10 72 11 73 12 74 13 75
REMARK SMILES IDX 14 76 15 77 16 78 17 79 18 80 19 81 37 82 20 83 29 84 22 85
REMARK SMILES IDX 23 86 27 87 24 88 26 89 28 90 25 91 21 92 30 94 31 95 35 96
REMARK SMILES IDX 32 97 34 98 36 99 33 100
REMARK H PARENT 91 26 61 37 21 93
REMARK Flexibility Score: inf
ROOT
ATOM      1  C   UNL A   1      52.672  19.400  35.606  1.00  0.00     0.188 C 
ENDROOT
BRANCH   1   2
ATOM      2  C   UNL A   1      51.675  19.756  34.503  1.00  0.00     0.188 C 
BRANCH   2   3
ATOM      3  O   UNL A   1      51.574  21.174  34.394  1.00  0.00    -0.376 OA
BRANCH   3   4
ATOM      4  C   UNL A   1      51.835  21.714  33.103  1.00  0.00     0.202 C 
BRANCH   4   5
ATOM      5  C   UNL A   1      52.677  22.987  33.137  1.00  0.00     0.261 C 
BRANCH   5   6
ATOM      6  O   UNL A   1      51.913  24.137  33.526  1.00  0.00    -0.460 OA
BRANCH   6   7
ATOM      7  C   UNL A   1      51.704  25.264  32.798  1.00  0.00     0.338 C 
ATOM      8  O   UNL A   1      52.677  25.948  32.486  1.00  0.00    -0.246 OA
BRANCH   7   9
ATOM      9  C   UNL A   1      50.362  25.695  32.298  1.00  0.00     0.060 A 
ATOM     10  C   UNL A   1      49.163  25.592  33.008  1.00  0.00     0.016 A 
ATOM     11  C   UNL A   1      50.337  26.362  31.064  1.00  0.00     0.016 A 
ATOM     12  C   UNL A   1      47.967  26.083  32.501  1.00  0.00     0.010 A 
ATOM     13  C   UNL A   1      49.144  26.888  30.558  1.00  0.00     0.010 A 
ATOM     14  C   UNL A   1      47.951  26.734  31.273  1.00  0.00    -0.014 A 
BRANCH  14  15
ATOM     15  C   UNL A   1      46.655  27.146  30.705  1.00  0.00     0.031 A 
ATOM     16  C   UNL A   1      46.215  28.559  30.925  1.00  0.00     0.074 A 
ATOM     17  C   UNL A   1      45.940  26.288  29.953  1.00  0.00     0.049 A 
ATOM     18  N   UNL A   1      45.070  29.118  30.653  1.00  0.00    -0.248 NA
ATOM     19  C   UNL A   1      47.204  29.471  31.533  1.00  0.00     0.031 C 
ATOM     20  C   UNL A   1      46.359  24.931  29.584  1.00  0.00     0.029 A 
ATOM     21  N   UNL A   1      44.715  26.429  29.356  1.00  0.00    -0.354 N 
ATOM     22  C   UNL A   1      45.180  30.428  31.104  1.00  0.00     0.074 A 
ATOM     23  C   UNL A   1      46.507  30.592  31.647  1.00  0.00     0.031 C 
ATOM     24  C   UNL A   1      45.403  24.367  28.829  1.00  0.00     0.029 A 
ATOM     25  C   UNL A   1      44.277  25.288  28.725  1.00  0.00     0.049 A 
ATOM     26  H   UNL A   1      44.199  27.267  29.377  1.00  0.00     0.167 HD
ATOM     27  C   UNL A   1      44.235  31.394  31.084  1.00  0.00     0.031 A 
ATOM     28  C   UNL A   1      43.075  25.008  28.185  1.00  0.00     0.031 A 
ATOM     29  C   UNL A   1      42.926  31.193  30.532  1.00  0.00     0.049 A 
ATOM     30  C   UNL A   1      42.009  26.071  28.261  1.00  0.00     0.074 A 
ATOM     31  C   UNL A   1      41.869  32.080  30.471  1.00  0.00     0.029 A 
ATOM     32  N   UNL A   1      42.498  30.009  29.947  1.00  0.00    -0.354 N 
ATOM     33  N   UNL A   1      42.106  27.300  28.716  1.00  0.00    -0.248 NA
ATOM     34  C   UNL A   1      40.670  25.709  27.781  1.00  0.00     0.031 C 
ATOM     35  C   UNL A   1      40.781  31.410  29.901  1.00  0.00     0.029 A 
ATOM     36  C   UNL A   1      41.178  30.126  29.558  1.00  0.00     0.049 A 
ATOM     37  H   UNL A   1      43.054  29.204  29.828  1.00  0.00     0.167 HD
ATOM     38  C   UNL A   1      40.840  27.855  28.581  1.00  0.00     0.074 A 
ATOM     39  C   UNL A   1      40.004  26.841  27.969  1.00  0.00     0.031 C 
ATOM     40  C   UNL A   1      40.396  29.083  28.944  1.00  0.00     0.031 A 
BRANCH  27  41
ATOM     41  C   UNL A   1      44.557  32.699  31.753  1.00  0.00    -0.014 A 
ATOM     42  C   UNL A   1      45.048  33.802  31.032  1.00  0.00     0.010 A 
ATOM     43  C   UNL A   1      44.345  32.826  33.138  1.00  0.00     0.010 A 
ATOM     44  C   UNL A   1      45.340  35.001  31.689  1.00  0.00     0.020 A 
ATOM     45  C   UNL A   1      44.616  34.028  33.795  1.00  0.00     0.020 A 
ATOM     46  C   UNL A   1      45.122  35.106  33.067  1.00  0.00     0.054 A 
BRANCH  46  47
ATOM     47  S   UNL A   1      45.473  36.685  33.890  1.00  0.00     0.124 S 
ATOM     48  O   UNL A   1      44.343  37.506  33.460  1.00  0.00    -0.237 OA
ATOM     49  O   UNL A   1      45.479  36.315  35.302  1.00  0.00    -0.237 OA
ATOM     50  O   UNL A   1      46.770  37.079  33.347  1.00  0.00    -0.744 OA
ENDBRANCH  46  47
ENDBRANCH  27  41
BRANCH  28  51
ATOM     51  C   UNL A   1      42.776  23.648  27.648  1.00  0.00    -0.014 A 
ATOM     52  C   UNL A   1      42.194  22.655  28.454  1.00  0.00     0.010 A 
ATOM     53  C   UNL A   1      43.110  23.328  26.316  1.00  0.00     0.010 A 
ATOM     54  C   UNL A   1      41.980  21.366  27.951  1.00  0.00     0.020 A 
ATOM     55  C   UNL A   1      42.868  22.053  25.800  1.00  0.00     0.020 A 
ATOM     56  C   UNL A   1      42.323  21.072  26.627  1.00  0.00     0.054 A 
BRANCH  56  57
ATOM     57  S   UNL A   1      42.028  19.398  25.988  1.00  0.00     0.124 S 
ATOM     58  O   UNL A   1      42.923  19.353  24.837  1.00  0.00    -0.237 OA
ATOM     59  O   UNL A   1      42.407  18.555  27.119  1.00  0.00    -0.237 OA
ATOM     60  O   UNL A   1      40.601  19.400  25.673  1.00  0.00    -0.744 OA
ENDBRANCH  56  57
ENDBRANCH  28  51
BRANCH  40  61
ATOM     61  C   UNL A   1      38.951  29.392  28.680  1.00  0.00    -0.014 A 
ATOM     62  C   UNL A   1      38.532  29.813  27.407  1.00  0.00     0.010 A 
ATOM     63  C   UNL A   1      37.997  29.161  29.688  1.00  0.00     0.010 A 
ATOM     64  C   UNL A   1      37.175  30.005  27.146  1.00  0.00     0.020 A 
ATOM     65  C   UNL A   1      36.638  29.327  29.421  1.00  0.00     0.020 A 
ATOM     66  C   UNL A   1      36.236  29.755  28.153  1.00  0.00     0.054 A 
BRANCH  66  67
ATOM     67  S   UNL A   1      34.475  29.929  27.763  1.00  0.00     0.124 S 
ATOM     68  O   UNL A   1      33.915  28.714  28.346  1.00  0.00    -0.237 OA
ATOM     69  O   UNL A   1      34.118  31.174  28.440  1.00  0.00    -0.237 OA
ATOM     70  O   UNL A   1      34.449  29.991  26.303  1.00  0.00    -0.744 OA
ENDBRANCH  66  67
ENDBRANCH  40  61
ENDBRANCH  14  15
ENDBRANCH   7   9
ENDBRANCH   6   7
ENDBRANCH   5   6
ENDBRANCH   4   5
ENDBRANCH   3   4
ENDBRANCH   2   3
ENDBRANCH   1   2
BRANCH   1  71
ATOM     71  O   UNL A   1      52.085  19.176  36.890  1.00  0.00    -0.377 OA
BRANCH  71  72
ATOM     72  C   UNL A   1      50.662  19.251  36.963  1.00  0.00     0.188 C 
BRANCH  72  73
ATOM     73  C   UNL A   1      49.961  19.446  38.332  1.00  0.00     0.188 C 
BRANCH  73  74
ATOM     74  O   UNL A   1      48.547  19.253  38.371  1.00  0.00    -0.376 OA
BRANCH  74  75
ATOM     75  C   UNL A   1      47.798  20.259  37.672  1.00  0.00     0.202 C 
BRANCH  75  76
ATOM     76  C   UNL A   1      46.549  19.694  36.991  1.00  0.00     0.261 C 
BRANCH  76  77
ATOM     77  O   UNL A   1      45.880  20.748  36.285  1.00  0.00    -0.461 OA
BRANCH  77  78
ATOM     78  C   UNL A   1      46.113  20.908  34.962  1.00  0.00     0.335 C 
ATOM     79  O   UNL A   1      46.741  20.127  34.262  1.00  0.00    -0.249 OA
BRANCH  78  80
ATOM     80  C   UNL A   1      45.409  22.192  34.489  1.00  0.00     0.232 C 
ATOM     81  C   UNL A   1      44.414  22.751  35.475  1.00  0.00     0.087 C 
ATOM     82  O   UNL A   1      46.322  23.229  34.150  1.00  0.00    -0.355 OA
ATOM     83  C   UNL A   1      44.861  24.195  35.809  1.00  0.00     0.124 C 
ATOM     84  C   UNL A   1      46.251  24.300  35.107  1.00  0.00     0.187 C 
BRANCH  83  85
ATOM     85  C   UNL A   1      43.677  25.139  35.474  1.00  0.00     0.005 A 
ATOM     86  C   UNL A   1      42.394  24.640  35.852  1.00  0.00     0.008 A 
ATOM     87  C   UNL A   1      43.672  26.401  34.848  1.00  0.00     0.047 A 
ATOM     88  C   UNL A   1      41.198  25.316  35.597  1.00  0.00     0.001 A 
ATOM     89  C   UNL A   1      42.462  27.091  34.617  1.00  0.00     0.021 A 
ATOM     90  Cl  UNL A   1      45.043  27.277  34.281  1.00  0.00    -0.084 Cl
ATOM     91  C   UNL A   1      41.232  26.552  34.979  1.00  0.00     0.002 A 
ENDBRANCH  83  85
BRANCH  83  92
ATOM     92  O   UNL A   1      44.986  24.274  37.240  1.00  0.00    -0.382 OA
ATOM     93  H   UNL A   1      45.747  24.833  37.468  1.00  0.00     0.212 HD
ENDBRANCH  83  92
BRANCH  84  94
ATOM     94  C   UNL A   1      47.567  24.266  35.882  1.00  0.00     0.003 A 
ATOM     95  C   UNL A   1      48.459  23.190  35.732  1.00  0.00     0.008 A 
ATOM     96  C   UNL A   1      48.019  25.364  36.650  1.00  0.00     0.046 A 
ATOM     97  C   UNL A   1      49.767  23.243  36.221  1.00  0.00     0.000 A 
ATOM     98  C   UNL A   1      49.323  25.405  37.162  1.00  0.00     0.021 A 
ATOM     99  Cl  UNL A   1      47.019  26.726  37.025  1.00  0.00    -0.084 Cl
ATOM    100  C   UNL A   1      50.207  24.358  36.922  1.00  0.00     0.002 A 
ENDBRANCH  84  94
ENDBRANCH  78  80
ENDBRANCH  77  78
ENDBRANCH  76  77
ENDBRANCH  75  76
ENDBRANCH  74  75
ENDBRANCH  73  74
ENDBRANCH  72  73
ENDBRANCH  71  72
ENDBRANCH   1  71
TORSDOF 26
ENDMDL
MODEL 3
REMARK VINA RESULT:      -8.1      4.637     11.306
REMARK SMILES O=C(OCCOCCOCCOCCOC(=O)[C@H]1C[C@](O)(c2ccccc2Cl)[C@@H](c2ccccc2Cl)O1)c1ccc(-c2c3nc(c(-c4ccc(S(=O)(=O)[O-])cc4)c4ccc([nH]4)c(-c4ccc(S(=O)(=O)[O-])cc4)c4nc(c(-c5ccc(S(=O)(=O)[O-])cc5)c5ccc2[nH]5)C=C4)C=C3)cc1
REMARK SMILES IDX 8 1 7 2 6 3 5 4 4 5 3 6 2 7 1 8 38 9 39 10 97 11 40 12 96 13
REMARK SMILES IDX 41 14 42 15 43 16 90 17 44 18 95 19 89 20 91 21 45 22 94 23
REMARK SMILES IDX 88 24 87 25 46 27 76 28 57 29 75 30 58 31 61 32 74 33 92 34
REMARK SMILES IDX 59 35 60 36 73 38 93 39 62 40 47 41 48 42 56 43 49 44 55 45
REMARK SMILES IDX 50 46 51 47 52 48 53 49 54 50 77 51 78 52 86 53 79 54 85 55
REMARK SMILES IDX 80 56 81 57 82 58 83 59 84 60 63 61 64 62 72 63 65 64 71 65
REMARK SMILES IDX 66 66 67 67 68 68 69 69 70 70 9 71 10 72 11 73 12 74 13 75
REMARK SMILES IDX 14 76 15 77 16 78 17 79 18 80 19 81 37 82 20 83 29 84 22 85
REMARK SMILES IDX 23 86 27 87 24 88 26 89 28 90 25 91 21 92 30 94 31 95 35 96
REMARK SMILES IDX 32 97 34 98 36 99 33 100
REMARK H PARENT 91 26 61 37 21 93
REMARK Flexibility Score: inf
ROOT
ATOM      1  C   UNL A   1      41.222  35.038  28.878  1.00  0.00     0.188 C 
ENDROOT
BRANCH   1   2
ATOM      2  C   UNL A   1      41.981  36.298  28.463  1.00  0.00     0.188 C 
BRANCH   2   3
ATOM      3  O   UNL A   1      43.289  35.940  28.022  1.00  0.00    -0.376 OA
BRANCH   3   4
ATOM      4  C   UNL A   1      43.596  36.266  26.671  1.00  0.00     0.202 C 
BRANCH   4   5
ATOM      5  C   UNL A   1      43.193  35.179  25.678  1.00  0.00     0.261 C 
BRANCH   5   6
ATOM      6  O   UNL A   1      44.326  34.571  25.044  1.00  0.00    -0.460 OA
BRANCH   6   7
ATOM      7  C   UNL A   1      45.381  33.974  25.655  1.00  0.00     0.338 C 
ATOM      8  O   UNL A   1      46.516  34.344  25.359  1.00  0.00    -0.246 OA
BRANCH   7   9
ATOM      9  C   UNL A   1      45.246  32.928  26.716  1.00  0.00     0.060 A 
ATOM     10  C   UNL A   1      44.070  32.622  27.405  1.00  0.00     0.016 A 
ATOM     11  C   UNL A   1      46.368  32.118  26.945  1.00  0.00     0.016 A 
ATOM     12  C   UNL A   1      44.009  31.586  28.327  1.00  0.00     0.010 A 
ATOM     13  C   UNL A   1      46.311  31.052  27.848  1.00  0.00     0.010 A 
ATOM     14  C   UNL A   1      45.129  30.795  28.554  1.00  0.00    -0.014 A 
BRANCH  14  15
ATOM     15  C   UNL A   1      45.075  29.775  29.616  1.00  0.00     0.031 A 
ATOM     16  C   UNL A   1      45.480  30.185  30.997  1.00  0.00     0.074 A 
ATOM     17  C   UNL A   1      44.604  28.542  29.350  1.00  0.00     0.049 A 
ATOM     18  N   UNL A   1      45.653  29.448  32.059  1.00  0.00    -0.248 NA
ATOM     19  C   UNL A   1      45.720  31.625  31.215  1.00  0.00     0.031 C 
ATOM     20  C   UNL A   1      44.069  28.099  28.058  1.00  0.00     0.029 A 
ATOM     21  N   UNL A   1      44.490  27.437  30.151  1.00  0.00    -0.354 N 
ATOM     22  C   UNL A   1      46.074  30.323  33.053  1.00  0.00     0.074 A 
ATOM     23  C   UNL A   1      46.110  31.648  32.480  1.00  0.00     0.031 C 
ATOM     24  C   UNL A   1      43.690  26.815  28.157  1.00  0.00     0.029 A 
ATOM     25  C   UNL A   1      44.024  26.324  29.489  1.00  0.00     0.049 A 
ATOM     26  H   UNL A   1      44.719  27.438  31.108  1.00  0.00     0.167 HD
ATOM     27  C   UNL A   1      46.422  30.028  34.325  1.00  0.00     0.031 A 
ATOM     28  C   UNL A   1      43.942  25.045  29.902  1.00  0.00     0.031 A 
ATOM     29  C   UNL A   1      46.370  28.696  34.858  1.00  0.00     0.049 A 
ATOM     30  C   UNL A   1      44.426  24.727  31.294  1.00  0.00     0.074 A 
ATOM     31  C   UNL A   1      46.719  28.258  36.120  1.00  0.00     0.029 A 
ATOM     32  N   UNL A   1      45.942  27.585  34.144  1.00  0.00    -0.354 N 
ATOM     33  N   UNL A   1      44.853  25.553  32.224  1.00  0.00    -0.248 NA
ATOM     34  C   UNL A   1      44.447  23.313  31.687  1.00  0.00     0.031 C 
ATOM     35  C   UNL A   1      46.556  26.869  36.150  1.00  0.00     0.029 A 
ATOM     36  C   UNL A   1      46.055  26.452  34.925  1.00  0.00     0.049 A 
ATOM     37  H   UNL A   1      45.608  27.603  33.218  1.00  0.00     0.167 HD
ATOM     38  C   UNL A   1      45.197  24.757  33.309  1.00  0.00     0.074 A 
ATOM     39  C   UNL A   1      44.895  23.389  32.933  1.00  0.00     0.031 C 
ATOM     40  C   UNL A   1      45.731  25.114  34.502  1.00  0.00     0.031 A 
BRANCH  27  41
ATOM     41  C   UNL A   1      46.969  31.138  35.174  1.00  0.00    -0.014 A 
ATOM     42  C   UNL A   1      48.335  31.471  35.171  1.00  0.00     0.010 A 
ATOM     43  C   UNL A   1      46.086  31.876  35.984  1.00  0.00     0.010 A 
ATOM     44  C   UNL A   1      48.809  32.511  35.978  1.00  0.00     0.020 A 
ATOM     45  C   UNL A   1      46.552  32.927  36.776  1.00  0.00     0.020 A 
ATOM     46  C   UNL A   1      47.914  33.231  36.776  1.00  0.00     0.054 A 
BRANCH  46  47
ATOM     47  S   UNL A   1      48.549  34.599  37.785  1.00  0.00     0.124 S 
ATOM     48  O   UNL A   1      49.979  34.303  37.829  1.00  0.00    -0.237 OA
ATOM     49  O   UNL A   1      48.174  35.774  37.003  1.00  0.00    -0.237 OA
ATOM     50  O   UNL A   1      47.844  34.450  39.056  1.00  0.00    -0.744 OA
ENDBRANCH  46  47
ENDBRANCH  27  41
BRANCH  28  51
ATOM     51  C   UNL A   1      43.507  23.965  28.969  1.00  0.00    -0.014 A 
ATOM     52  C   UNL A   1      42.269  23.319  29.125  1.00  0.00     0.010 A 
ATOM     53  C   UNL A   1      44.359  23.551  27.925  1.00  0.00     0.010 A 
ATOM     54  C   UNL A   1      41.906  22.264  28.278  1.00  0.00     0.020 A 
ATOM     55  C   UNL A   1      43.987  22.521  27.057  1.00  0.00     0.020 A 
ATOM     56  C   UNL A   1      42.770  21.869  27.252  1.00  0.00     0.054 A 
BRANCH  56  57
ATOM     57  S   UNL A   1      42.278  20.507  26.156  1.00  0.00     0.124 S 
ATOM     58  O   UNL A   1      41.004  20.989  25.631  1.00  0.00    -0.237 OA
ATOM     59  O   UNL A   1      43.379  20.457  25.198  1.00  0.00    -0.237 OA
ATOM     60  O   UNL A   1      42.192  19.359  27.057  1.00  0.00    -0.744 OA
ENDBRANCH  56  57
ENDBRANCH  28  51
BRANCH  40  61
ATOM     61  C   UNL A   1      46.012  24.011  35.482  1.00  0.00    -0.014 A 
ATOM     62  C   UNL A   1      47.166  23.221  35.356  1.00  0.00     0.010 A 
ATOM     63  C   UNL A   1      45.163  23.835  36.589  1.00  0.00     0.010 A 
ATOM     64  C   UNL A   1      47.465  22.262  36.324  1.00  0.00     0.020 A 
ATOM     65  C   UNL A   1      45.475  22.895  37.572  1.00  0.00     0.020 A 
ATOM     66  C   UNL A   1      46.621  22.110  37.429  1.00  0.00     0.054 A 
BRANCH  66  67
ATOM     67  S   UNL A   1      47.078  20.919  38.716  1.00  0.00     0.124 S 
ATOM     68  O   UNL A   1      46.069  19.879  38.539  1.00  0.00    -0.237 OA
ATOM     69  O   UNL A   1      48.440  20.545  38.339  1.00  0.00    -0.237 OA
ATOM     70  O   UNL A   1      46.971  21.689  39.953  1.00  0.00    -0.744 OA
ENDBRANCH  66  67
ENDBRANCH  40  61
ENDBRANCH  14  15
ENDBRANCH   7   9
ENDBRANCH   6   7
ENDBRANCH   5   6
ENDBRANCH   4   5
ENDBRANCH   3   4
ENDBRANCH   2   3
ENDBRANCH   1   2
BRANCH   1  71
ATOM     71  O   UNL A   1      41.503  34.582  30.203  1.00  0.00    -0.377 OA
BRANCH  71  72
ATOM     72  C   UNL A   1      40.393  34.104  30.962  1.00  0.00     0.188 C 
BRANCH  72  73
ATOM     73  C   UNL A   1      38.956  34.583  30.628  1.00  0.00     0.188 C 
BRANCH  73  74
ATOM     74  O   UNL A   1      38.031  34.665  31.712  1.00  0.00    -0.376 OA
BRANCH  74  75
ATOM     75  C   UNL A   1      38.647  34.680  33.009  1.00  0.00     0.202 C 
BRANCH  75  76
ATOM     76  C   UNL A   1      38.160  33.536  33.903  1.00  0.00     0.261 C 
BRANCH  76  77
ATOM     77  O   UNL A   1      37.185  32.763  33.190  1.00  0.00    -0.461 OA
BRANCH  77  78
ATOM     78  C   UNL A   1      37.158  31.421  33.353  1.00  0.00     0.335 C 
ATOM     79  O   UNL A   1      37.719  30.814  34.254  1.00  0.00    -0.249 OA
BRANCH  78  80
ATOM     80  C   UNL A   1      36.264  30.808  32.261  1.00  0.00     0.232 C 
ATOM     81  C   UNL A   1      36.154  31.645  31.011  1.00  0.00     0.087 C 
ATOM     82  O   UNL A   1      36.676  29.501  31.880  1.00  0.00    -0.355 OA
ATOM     83  C   UNL A   1      36.648  30.774  29.831  1.00  0.00     0.124 C 
ATOM     84  C   UNL A   1      37.215  29.507  30.546  1.00  0.00     0.187 C 
BRANCH  83  85
ATOM     85  C   UNL A   1      35.503  30.708  28.787  1.00  0.00     0.005 A 
ATOM     86  C   UNL A   1      35.392  29.459  28.105  1.00  0.00     0.008 A 
ATOM     87  C   UNL A   1      34.569  31.690  28.403  1.00  0.00     0.047 A 
ATOM     88  C   UNL A   1      34.456  29.212  27.098  1.00  0.00     0.001 A 
ATOM     89  C   UNL A   1      33.609  31.425  27.402  1.00  0.00     0.021 A 
ATOM     90  Cl  UNL A   1      34.434  33.288  29.033  1.00  0.00    -0.084 Cl
ATOM     91  C   UNL A   1      33.556  30.200  26.745  1.00  0.00     0.002 A 
ENDBRANCH  83  85
BRANCH  83  92
ATOM     92  O   UNL A   1      37.690  31.515  29.171  1.00  0.00    -0.382 OA
ATOM     93  H   UNL A   1      38.237  30.909  28.645  1.00  0.00     0.212 HD
ENDBRANCH  83  92
BRANCH  84  94
ATOM     94  C   UNL A   1      38.713  29.246  30.691  1.00  0.00     0.003 A 
ATOM     95  C   UNL A   1      39.350  29.405  31.933  1.00  0.00     0.008 A 
ATOM     96  C   UNL A   1      39.485  28.690  29.645  1.00  0.00     0.046 A 
ATOM     97  C   UNL A   1      40.649  28.938  32.160  1.00  0.00     0.000 A 
ATOM     98  C   UNL A   1      40.796  28.245  29.868  1.00  0.00     0.021 A 
ATOM     99  Cl  UNL A   1      38.896  28.518  28.027  1.00  0.00    -0.084 Cl
ATOM    100  C   UNL A   1      41.367  28.341  31.133  1.00  0.00     0.002 A 
ENDBRANCH  84  94
ENDBRANCH  78  80
ENDBRANCH  77  78
ENDBRANCH  76  77
ENDBRANCH  75  76
ENDBRANCH  74  75
ENDBRANCH  73  74
ENDBRANCH  72  73
ENDBRANCH  71  72
ENDBRANCH   1  71
TORSDOF 26
ENDMDL
