MODEL 1
REMARK VINA RESULT:      -9.4      0.000      0.000
REMARK SMILES CCn1cccc1C(=O)N1CC[C@H](C(=O)OCCOCCOCCOCCOC(=O)c2ccc(-c3c4nc(c(-c5ccc(S(=O)(=O)[O-])cc5)c5ccc([nH]5)c(-c5ccc(S(=O)(=O)[O-])cc5)c5nc(c(-c6ccc(S(=O)(=O)[O-])cc6)c6ccc3[nH]6)C=C5)C=C4)cc2)[C@H]1C
REMARK SMILES IDX 22 1 21 2 20 3 19 4 18 5 17 6 16 7 14 8 15 9 13 10 10 11
REMARK SMILES IDX 11 12 91 13 12 14 92 15 8 16 9 17 7 18 3 19 4 20 5 21 6 22
REMARK SMILES IDX 2 23 1 24 23 25 24 26 25 27 26 28 27 29 28 30 29 31 30 32
REMARK SMILES IDX 31 33 32 34 90 35 33 36 89 37 34 38 35 39 36 40 83 41 37 42
REMARK SMILES IDX 88 43 82 44 84 45 38 46 87 47 81 48 80 49 39 51 69 52 50 53
REMARK SMILES IDX 68 54 51 55 54 56 67 57 85 58 52 59 53 60 66 62 86 63 55 64
REMARK SMILES IDX 40 65 41 66 49 67 42 68 48 69 43 70 44 71 45 72 46 73 47 74
REMARK SMILES IDX 70 75 71 76 79 77 72 78 78 79 73 80 74 81 75 82 76 83 77 84
REMARK SMILES IDX 56 85 57 86 65 87 58 88 64 89 59 90 60 91 61 92 62 93 63 94
REMARK H PARENT 84 50 54 61
REMARK Flexibility Score: inf
ROOT
ATOM      1  O   UNL A   1      35.441  33.232  28.270  1.00  0.00    -0.377 OA
ENDROOT
BRANCH   1   2
ATOM      2  C   UNL A   1      34.856  31.939  28.343  1.00  0.00     0.188 C 
BRANCH   2   3
ATOM      3  C   UNL A   1      35.297  30.754  27.459  1.00  0.00     0.188 C 
BRANCH   3   4
ATOM      4  O   UNL A   1      34.218  29.972  26.966  1.00  0.00    -0.376 OA
BRANCH   4   5
ATOM      5  C   UNL A   1      32.938  30.564  27.145  1.00  0.00     0.202 C 
BRANCH   5   6
ATOM      6  C   UNL A   1      31.917  30.029  26.142  1.00  0.00     0.261 C 
BRANCH   6   7
ATOM      7  O   UNL A   1      32.215  28.715  25.628  1.00  0.00    -0.463 OA
BRANCH   7   8
ATOM      8  C   UNL A   1      32.025  28.483  24.308  1.00  0.00     0.311 C 
ATOM      9  O   UNL A   1      32.560  29.132  23.404  1.00  0.00    -0.252 OA
BRANCH   8  10
ATOM     10  C   UNL A   1      31.043  27.341  24.107  1.00  0.00     0.123 C 
ATOM     11  N   UNL A   1      31.886  25.252  23.233  1.00  0.00    -0.334 N 
ATOM     12  C   UNL A   1      31.744  26.202  22.142  1.00  0.00     0.121 C 
ATOM     13  C   UNL A   1      31.617  25.963  24.496  1.00  0.00     0.096 C 
ATOM     14  C   UNL A   1      30.695  27.182  22.629  1.00  0.00     0.039 C 
ATOM     15  C   UNL A   1      30.645  25.177  25.377  1.00  0.00     0.032 C 
BRANCH  11  16
ATOM     16  C   UNL A   1      33.021  24.441  23.191  1.00  0.00     0.270 C 
ATOM     17  O   UNL A   1      34.079  24.910  22.766  1.00  0.00    -0.267 OA
BRANCH  16  18
ATOM     18  C   UNL A   1      32.919  23.060  23.654  1.00  0.00     0.107 A 
ATOM     19  N   UNL A   1      33.257  22.464  24.859  1.00  0.00    -0.344 N 
ATOM     20  C   UNL A   1      33.008  21.109  24.803  1.00  0.00     0.086 A 
ATOM     21  C   UNL A   1      32.491  20.811  23.568  1.00  0.00     0.020 A 
ATOM     22  C   UNL A   1      32.429  22.024  22.856  1.00  0.00     0.033 A 
BRANCH  19  23
ATOM     23  C   UNL A   1      33.852  23.072  26.036  1.00  0.00     0.119 C 
ATOM     24  C   UNL A   1      33.343  22.486  27.338  1.00  0.00     0.027 C 
ENDBRANCH  19  23
ENDBRANCH  16  18
ENDBRANCH  11  16
ENDBRANCH   8  10
ENDBRANCH   7   8
ENDBRANCH   6   7
ENDBRANCH   5   6
ENDBRANCH   4   5
ENDBRANCH   3   4
ENDBRANCH   2   3
ENDBRANCH   1   2
BRANCH   1  25
ATOM     25  C   UNL A   1      34.626  34.347  27.966  1.00  0.00     0.188 C 
BRANCH  25  26
ATOM     26  C   UNL A   1      33.109  34.143  28.112  1.00  0.00     0.188 C 
BRANCH  26  27
ATOM     27  O   UNL A   1      32.528  34.813  29.227  1.00  0.00    -0.376 OA
BRANCH  27  28
ATOM     28  C   UNL A   1      32.895  36.164  29.455  1.00  0.00     0.202 C 
BRANCH  28  29
ATOM     29  C   UNL A   1      32.732  36.645  30.904  1.00  0.00     0.261 C 
BRANCH  29  30
ATOM     30  O   UNL A   1      32.509  35.609  31.863  1.00  0.00    -0.460 OA
BRANCH  30  31
ATOM     31  C   UNL A   1      33.487  35.460  32.746  1.00  0.00     0.338 C 
ATOM     32  O   UNL A   1      33.729  36.158  33.754  1.00  0.00    -0.246 OA
BRANCH  31  33
ATOM     33  C   UNL A   1      34.357  34.374  32.385  1.00  0.00     0.060 A 
ATOM     34  C   UNL A   1      34.427  33.292  33.272  1.00  0.00     0.016 A 
ATOM     35  C   UNL A   1      35.369  34.686  31.472  1.00  0.00     0.016 A 
ATOM     36  C   UNL A   1      35.616  32.610  33.369  1.00  0.00     0.010 A 
ATOM     37  C   UNL A   1      36.573  34.039  31.612  1.00  0.00     0.010 A 
ATOM     38  C   UNL A   1      36.700  33.055  32.602  1.00  0.00    -0.014 A 
BRANCH  38  39
ATOM     39  C   UNL A   1      38.020  32.483  32.873  1.00  0.00     0.031 A 
ATOM     40  C   UNL A   1      38.370  31.375  31.909  1.00  0.00     0.074 A 
ATOM     41  C   UNL A   1      38.683  33.005  33.944  1.00  0.00     0.049 A 
ATOM     42  N   UNL A   1      39.208  30.403  32.067  1.00  0.00    -0.248 NA
ATOM     43  C   UNL A   1      37.630  31.266  30.622  1.00  0.00     0.031 C 
ATOM     44  C   UNL A   1      38.147  34.079  34.813  1.00  0.00     0.029 A 
ATOM     45  N   UNL A   1      39.905  32.760  34.529  1.00  0.00    -0.354 N 
ATOM     46  C   UNL A   1      39.221  29.675  30.868  1.00  0.00     0.074 A 
ATOM     47  C   UNL A   1      38.159  30.183  30.055  1.00  0.00     0.031 C 
ATOM     48  C   UNL A   1      38.993  34.339  35.829  1.00  0.00     0.029 A 
ATOM     49  C   UNL A   1      40.164  33.493  35.709  1.00  0.00     0.049 A 
ATOM     50  H   UNL A   1      40.552  32.119  34.152  1.00  0.00     0.167 HD
ATOM     51  C   UNL A   1      40.188  28.773  30.560  1.00  0.00     0.031 A 
ATOM     52  C   UNL A   1      41.231  33.413  36.559  1.00  0.00     0.031 A 
ATOM     53  C   UNL A   1      41.122  28.633  31.627  1.00  0.00     0.049 A 
ATOM     54  C   UNL A   1      42.208  32.494  35.940  1.00  0.00     0.074 A 
ATOM     55  C   UNL A   1      41.049  28.038  32.860  1.00  0.00     0.029 A 
ATOM     56  N   UNL A   1      42.215  29.468  31.602  1.00  0.00    -0.354 N 
ATOM     57  N   UNL A   1      42.892  32.741  34.864  1.00  0.00    -0.248 NA
ATOM     58  C   UNL A   1      42.394  31.157  36.517  1.00  0.00     0.031 C 
ATOM     59  C   UNL A   1      41.866  28.843  33.687  1.00  0.00     0.029 A 
ATOM     60  C   UNL A   1      42.478  29.828  32.904  1.00  0.00     0.049 A 
ATOM     61  H   UNL A   1      42.715  29.755  30.804  1.00  0.00     0.167 HD
ATOM     62  C   UNL A   1      43.264  31.487  34.440  1.00  0.00     0.074 A 
ATOM     63  C   UNL A   1      43.203  30.629  35.603  1.00  0.00     0.031 C 
ATOM     64  C   UNL A   1      43.067  31.130  33.144  1.00  0.00     0.031 A 
BRANCH  51  65
ATOM     65  C   UNL A   1      40.503  28.143  29.241  1.00  0.00    -0.014 A 
ATOM     66  C   UNL A   1      41.467  27.112  29.235  1.00  0.00     0.010 A 
ATOM     67  C   UNL A   1      40.136  28.715  28.012  1.00  0.00     0.010 A 
ATOM     68  C   UNL A   1      42.129  26.745  28.064  1.00  0.00     0.020 A 
ATOM     69  C   UNL A   1      40.771  28.325  26.826  1.00  0.00     0.020 A 
ATOM     70  C   UNL A   1      41.800  27.383  26.871  1.00  0.00     0.054 A 
BRANCH  70  71
ATOM     71  S   UNL A   1      42.799  27.028  25.403  1.00  0.00     0.124 S 
ATOM     72  O   UNL A   1      42.521  28.185  24.559  1.00  0.00    -0.237 OA
ATOM     73  O   UNL A   1      44.153  26.961  25.948  1.00  0.00    -0.237 OA
ATOM     74  O   UNL A   1      42.265  25.755  24.925  1.00  0.00    -0.744 OA
ENDBRANCH  70  71
ENDBRANCH  51  65
BRANCH  52  75
ATOM     75  C   UNL A   1      41.544  33.912  37.948  1.00  0.00    -0.014 A 
ATOM     76  C   UNL A   1      42.382  34.993  38.255  1.00  0.00     0.010 A 
ATOM     77  C   UNL A   1      40.823  33.360  39.040  1.00  0.00     0.010 A 
ATOM     78  C   UNL A   1      42.387  35.578  39.539  1.00  0.00     0.020 A 
ATOM     79  C   UNL A   1      40.779  33.957  40.303  1.00  0.00     0.020 A 
ATOM     80  C   UNL A   1      41.546  35.088  40.539  1.00  0.00     0.054 A 
BRANCH  80  81
ATOM     81  S   UNL A   1      41.324  35.997  42.092  1.00  0.00     0.124 S 
ATOM     82  O   UNL A   1      39.945  36.463  41.987  1.00  0.00    -0.237 OA
ATOM     83  O   UNL A   1      41.569  34.977  43.110  1.00  0.00    -0.237 OA
ATOM     84  O   UNL A   1      42.346  37.039  42.016  1.00  0.00    -0.744 OA
ENDBRANCH  80  81
ENDBRANCH  52  75
BRANCH  64  85
ATOM     85  C   UNL A   1      43.039  32.291  32.161  1.00  0.00    -0.014 A 
ATOM     86  C   UNL A   1      41.841  32.637  31.509  1.00  0.00     0.010 A 
ATOM     87  C   UNL A   1      44.203  32.992  31.788  1.00  0.00     0.010 A 
ATOM     88  C   UNL A   1      41.809  33.630  30.518  1.00  0.00     0.020 A 
ATOM     89  C   UNL A   1      44.183  33.990  30.801  1.00  0.00     0.020 A 
ATOM     90  C   UNL A   1      42.982  34.301  30.166  1.00  0.00     0.054 A 
BRANCH  90  91
ATOM     91  S   UNL A   1      42.919  35.558  28.855  1.00  0.00     0.124 S 
ATOM     92  O   UNL A   1      41.499  35.895  28.797  1.00  0.00    -0.237 OA
ATOM     93  O   UNL A   1      43.788  36.608  29.381  1.00  0.00    -0.237 OA
ATOM     94  O   UNL A   1      43.433  34.863  27.675  1.00  0.00    -0.744 OA
ENDBRANCH  90  91
ENDBRANCH  64  85
ENDBRANCH  38  39
ENDBRANCH  31  33
ENDBRANCH  30  31
ENDBRANCH  29  30
ENDBRANCH  28  29
ENDBRANCH  27  28
ENDBRANCH  26  27
ENDBRANCH  25  26
ENDBRANCH   1  25
TORSDOF 26
ENDMDL
MODEL 2
REMARK VINA RESULT:      -9.4      1.635      2.216
REMARK SMILES CCn1cccc1C(=O)N1CC[C@H](C(=O)OCCOCCOCCOCCOC(=O)c2ccc(-c3c4nc(c(-c5ccc(S(=O)(=O)[O-])cc5)c5ccc([nH]5)c(-c5ccc(S(=O)(=O)[O-])cc5)c5nc(c(-c6ccc(S(=O)(=O)[O-])cc6)c6ccc3[nH]6)C=C5)C=C4)cc2)[C@H]1C
REMARK SMILES IDX 22 1 21 2 20 3 19 4 18 5 17 6 16 7 14 8 15 9 13 10 10 11
REMARK SMILES IDX 11 12 91 13 12 14 92 15 8 16 9 17 7 18 3 19 4 20 5 21 6 22
REMARK SMILES IDX 2 23 1 24 23 25 24 26 25 27 26 28 27 29 28 30 29 31 30 32
REMARK SMILES IDX 31 33 32 34 90 35 33 36 89 37 34 38 35 39 36 40 83 41 37 42
REMARK SMILES IDX 88 43 82 44 84 45 38 46 87 47 81 48 80 49 39 51 69 52 50 53
REMARK SMILES IDX 68 54 51 55 54 56 67 57 85 58 52 59 53 60 66 62 86 63 55 64
REMARK SMILES IDX 40 65 41 66 49 67 42 68 48 69 43 70 44 71 45 72 46 73 47 74
REMARK SMILES IDX 70 75 71 76 79 77 72 78 78 79 73 80 74 81 75 82 76 83 77 84
REMARK SMILES IDX 56 85 57 86 65 87 58 88 64 89 59 90 60 91 61 92 62 93 63 94
REMARK H PARENT 84 50 54 61
REMARK Flexibility Score: inf
ROOT
ATOM      1  O   UNL A   1      35.045  32.318  27.822  1.00  0.00    -0.377 OA
ENDROOT
BRANCH   1   2
ATOM      2  C   UNL A   1      34.026  31.364  27.552  1.00  0.00     0.188 C 
BRANCH   2   3
ATOM      3  C   UNL A   1      34.306  29.864  27.319  1.00  0.00     0.188 C 
BRANCH   3   4
ATOM      4  O   UNL A   1      33.251  29.179  26.656  1.00  0.00    -0.376 OA
BRANCH   4   5
ATOM      5  C   UNL A   1      32.867  29.759  25.417  1.00  0.00     0.202 C 
BRANCH   5   6
ATOM      6  C   UNL A   1      31.655  29.053  24.809  1.00  0.00     0.261 C 
BRANCH   6   7
ATOM      7  O   UNL A   1      31.803  28.704  23.417  1.00  0.00    -0.463 OA
BRANCH   7   8
ATOM      8  C   UNL A   1      31.445  27.457  23.027  1.00  0.00     0.311 C 
ATOM      9  O   UNL A   1      31.016  27.177  21.904  1.00  0.00    -0.252 OA
BRANCH   8  10
ATOM     10  C   UNL A   1      31.619  26.474  24.173  1.00  0.00     0.123 C 
ATOM     11  N   UNL A   1      32.701  24.363  23.710  1.00  0.00    -0.334 N 
ATOM     12  C   UNL A   1      31.328  24.308  23.237  1.00  0.00     0.121 C 
ATOM     13  C   UNL A   1      32.977  25.742  24.152  1.00  0.00     0.096 C 
ATOM     14  C   UNL A   1      30.599  25.343  24.073  1.00  0.00     0.039 C 
ATOM     15  C   UNL A   1      33.647  25.759  25.526  1.00  0.00     0.032 C 
BRANCH  11  16
ATOM     16  C   UNL A   1      33.653  23.758  22.888  1.00  0.00     0.270 C 
ATOM     17  O   UNL A   1      33.595  23.936  21.670  1.00  0.00    -0.267 OA
BRANCH  16  18
ATOM     18  C   UNL A   1      34.690  22.931  23.500  1.00  0.00     0.107 A 
ATOM     19  N   UNL A   1      34.617  21.871  24.391  1.00  0.00    -0.344 N 
ATOM     20  C   UNL A   1      35.886  21.437  24.712  1.00  0.00     0.086 A 
ATOM     21  C   UNL A   1      36.796  22.197  24.023  1.00  0.00     0.020 A 
ATOM     22  C   UNL A   1      36.053  23.122  23.265  1.00  0.00     0.033 A 
BRANCH  19  23
ATOM     23  C   UNL A   1      33.441  21.280  25.003  1.00  0.00     0.119 C 
ATOM     24  C   UNL A   1      33.144  21.826  26.385  1.00  0.00     0.027 C 
ENDBRANCH  19  23
ENDBRANCH  16  18
ENDBRANCH  11  16
ENDBRANCH   8  10
ENDBRANCH   7   8
ENDBRANCH   6   7
ENDBRANCH   5   6
ENDBRANCH   4   5
ENDBRANCH   3   4
ENDBRANCH   2   3
ENDBRANCH   1   2
BRANCH   1  25
ATOM     25  C   UNL A   1      34.697  33.680  27.973  1.00  0.00     0.188 C 
BRANCH  25  26
ATOM     26  C   UNL A   1      33.195  33.996  28.052  1.00  0.00     0.188 C 
BRANCH  26  27
ATOM     27  O   UNL A   1      32.761  34.488  29.316  1.00  0.00    -0.376 OA
BRANCH  27  28
ATOM     28  C   UNL A   1      32.869  35.882  29.560  1.00  0.00     0.202 C 
BRANCH  28  29
ATOM     29  C   UNL A   1      32.567  36.314  31.001  1.00  0.00     0.261 C 
BRANCH  29  30
ATOM     30  O   UNL A   1      32.641  35.270  31.973  1.00  0.00    -0.460 OA
BRANCH  30  31
ATOM     31  C   UNL A   1      33.733  35.296  32.724  1.00  0.00     0.338 C 
ATOM     32  O   UNL A   1      34.057  36.143  33.585  1.00  0.00    -0.246 OA
BRANCH  31  33
ATOM     33  C   UNL A   1      34.619  34.212  32.398  1.00  0.00     0.060 A 
ATOM     34  C   UNL A   1      34.852  33.257  33.397  1.00  0.00     0.016 A 
ATOM     35  C   UNL A   1      35.500  34.447  31.338  1.00  0.00     0.016 A 
ATOM     36  C   UNL A   1      36.082  32.647  33.434  1.00  0.00     0.010 A 
ATOM     37  C   UNL A   1      36.748  33.877  31.411  1.00  0.00     0.010 A 
ATOM     38  C   UNL A   1      37.045  33.035  32.493  1.00  0.00    -0.014 A 
BRANCH  38  39
ATOM     39  C   UNL A   1      38.417  32.562  32.671  1.00  0.00     0.031 A 
ATOM     40  C   UNL A   1      38.681  31.280  31.919  1.00  0.00     0.074 A 
ATOM     41  C   UNL A   1      39.201  33.315  33.496  1.00  0.00     0.049 A 
ATOM     42  N   UNL A   1      39.583  30.381  32.146  1.00  0.00    -0.248 NA
ATOM     43  C   UNL A   1      37.768  30.883  30.812  1.00  0.00     0.031 C 
ATOM     44  C   UNL A   1      38.742  34.539  34.192  1.00  0.00     0.029 A 
ATOM     45  N   UNL A   1      40.506  33.225  33.923  1.00  0.00    -0.354 N 
ATOM     46  C   UNL A   1      39.459  29.414  31.138  1.00  0.00     0.074 A 
ATOM     47  C   UNL A   1      38.265  29.714  30.410  1.00  0.00     0.031 C 
ATOM     48  C   UNL A   1      39.712  35.027  34.989  1.00  0.00     0.029 A 
ATOM     49  C   UNL A   1      40.897  34.200  34.871  1.00  0.00     0.049 A 
ATOM     50  H   UNL A   1      41.124  32.532  33.595  1.00  0.00     0.167 HD
ATOM     51  C   UNL A   1      40.417  28.487  30.880  1.00  0.00     0.031 A 
ATOM     52  C   UNL A   1      42.078  34.325  35.544  1.00  0.00     0.031 A 
ATOM     53  C   UNL A   1      41.502  28.597  31.797  1.00  0.00     0.049 A 
ATOM     54  C   UNL A   1      43.001  33.315  34.989  1.00  0.00     0.074 A 
ATOM     55  C   UNL A   1      41.641  28.280  33.123  1.00  0.00     0.029 A 
ATOM     56  N   UNL A   1      42.535  29.430  31.430  1.00  0.00    -0.354 N 
ATOM     57  N   UNL A   1      43.507  33.339  33.793  1.00  0.00    -0.248 NA
ATOM     58  C   UNL A   1      43.339  32.137  35.797  1.00  0.00     0.031 C 
ATOM     59  C   UNL A   1      42.526  29.260  33.628  1.00  0.00     0.029 A 
ATOM     60  C   UNL A   1      42.966  30.065  32.572  1.00  0.00     0.049 A 
ATOM     61  H   UNL A   1      42.898  29.548  30.523  1.00  0.00     0.167 HD
ATOM     62  C   UNL A   1      43.879  32.031  33.588  1.00  0.00     0.074 A 
ATOM     63  C   UNL A   1      44.033  31.441  34.900  1.00  0.00     0.031 C 
ATOM     64  C   UNL A   1      43.514  31.401  32.442  1.00  0.00     0.031 A 
BRANCH  51  65
ATOM     65  C   UNL A   1      40.569  27.595  29.690  1.00  0.00    -0.014 A 
ATOM     66  C   UNL A   1      39.457  26.802  29.334  1.00  0.00     0.010 A 
ATOM     67  C   UNL A   1      41.814  27.283  29.120  1.00  0.00     0.010 A 
ATOM     68  C   UNL A   1      39.600  25.669  28.535  1.00  0.00     0.020 A 
ATOM     69  C   UNL A   1      41.958  26.167  28.286  1.00  0.00     0.020 A 
ATOM     70  C   UNL A   1      40.860  25.339  28.045  1.00  0.00     0.054 A 
BRANCH  70  71
ATOM     71  S   UNL A   1      41.058  23.766  27.170  1.00  0.00     0.124 S 
ATOM     72  O   UNL A   1      41.453  22.866  28.249  1.00  0.00    -0.237 OA
ATOM     73  O   UNL A   1      39.724  23.538  26.620  1.00  0.00    -0.237 OA
ATOM     74  O   UNL A   1      42.091  24.054  26.178  1.00  0.00    -0.744 OA
ENDBRANCH  70  71
ENDBRANCH  51  65
BRANCH  52  75
ATOM     75  C   UNL A   1      42.563  35.117  36.733  1.00  0.00    -0.014 A 
ATOM     76  C   UNL A   1      43.878  35.560  36.934  1.00  0.00     0.010 A 
ATOM     77  C   UNL A   1      41.601  35.598  37.661  1.00  0.00     0.010 A 
ATOM     78  C   UNL A   1      44.184  36.536  37.906  1.00  0.00     0.020 A 
ATOM     79  C   UNL A   1      41.878  36.600  38.594  1.00  0.00     0.020 A 
ATOM     80  C   UNL A   1      43.172  37.087  38.693  1.00  0.00     0.054 A 
BRANCH  80  81
ATOM     81  S   UNL A   1      43.493  38.537  39.735  1.00  0.00     0.124 S 
ATOM     82  O   UNL A   1      44.415  38.006  40.733  1.00  0.00    -0.237 OA
ATOM     83  O   UNL A   1      44.065  39.500  38.796  1.00  0.00    -0.237 OA
ATOM     84  O   UNL A   1      42.163  38.889  40.233  1.00  0.00    -0.744 OA
ENDBRANCH  80  81
ENDBRANCH  52  75
BRANCH  64  85
ATOM     85  C   UNL A   1      43.282  32.323  31.254  1.00  0.00    -0.014 A 
ATOM     86  C   UNL A   1      44.373  32.790  30.498  1.00  0.00     0.010 A 
ATOM     87  C   UNL A   1      42.007  32.822  30.924  1.00  0.00     0.010 A 
ATOM     88  C   UNL A   1      44.199  33.726  29.466  1.00  0.00     0.020 A 
ATOM     89  C   UNL A   1      41.819  33.755  29.892  1.00  0.00     0.020 A 
ATOM     90  C   UNL A   1      42.922  34.207  29.170  1.00  0.00     0.054 A 
BRANCH  90  91
ATOM     91  S   UNL A   1      42.731  35.445  27.853  1.00  0.00     0.124 S 
ATOM     92  O   UNL A   1      43.458  36.595  28.381  1.00  0.00    -0.237 OA
ATOM     93  O   UNL A   1      43.353  34.786  26.707  1.00  0.00    -0.237 OA
ATOM     94  O   UNL A   1      41.283  35.629  27.750  1.00  0.00    -0.744 OA
ENDBRANCH  90  91
ENDBRANCH  64  85
ENDBRANCH  38  39
ENDBRANCH  31  33
ENDBRANCH  30  31
ENDBRANCH  29  30
ENDBRANCH  28  29
ENDBRANCH  27  28
ENDBRANCH  26  27
ENDBRANCH  25  26
ENDBRANCH   1  25
TORSDOF 26
ENDMDL
MODEL 3
REMARK VINA RESULT:      -9.1      4.609     10.330
REMARK SMILES CCn1cccc1C(=O)N1CC[C@H](C(=O)OCCOCCOCCOCCOC(=O)c2ccc(-c3c4nc(c(-c5ccc(S(=O)(=O)[O-])cc5)c5ccc([nH]5)c(-c5ccc(S(=O)(=O)[O-])cc5)c5nc(c(-c6ccc(S(=O)(=O)[O-])cc6)c6ccc3[nH]6)C=C5)C=C4)cc2)[C@H]1C
REMARK SMILES IDX 22 1 21 2 20 3 19 4 18 5 17 6 16 7 14 8 15 9 13 10 10 11
REMARK SMILES IDX 11 12 91 13 12 14 92 15 8 16 9 17 7 18 3 19 4 20 5 21 6 22
REMARK SMILES IDX 2 23 1 24 23 25 24 26 25 27 26 28 27 29 28 30 29 31 30 32
REMARK SMILES IDX 31 33 32 34 90 35 33 36 89 37 34 38 35 39 36 40 83 41 37 42
REMARK SMILES IDX 88 43 82 44 84 45 38 46 87 47 81 48 80 49 39 51 69 52 50 53
REMARK SMILES IDX 68 54 51 55 54 56 67 57 85 58 52 59 53 60 66 62 86 63 55 64
REMARK SMILES IDX 40 65 41 66 49 67 42 68 48 69 43 70 44 71 45 72 46 73 47 74
REMARK SMILES IDX 70 75 71 76 79 77 72 78 78 79 73 80 74 81 75 82 76 83 77 84
REMARK SMILES IDX 56 85 57 86 65 87 58 88 64 89 59 90 60 91 61 92 62 93 63 94
REMARK H PARENT 84 50 54 61
REMARK Flexibility Score: inf
ROOT
ATOM      1  O   UNL A   1      31.733  29.625  24.953  1.00  0.00    -0.377 OA
ENDROOT
BRANCH   1   2
ATOM      2  C   UNL A   1      32.577  28.483  24.992  1.00  0.00     0.188 C 
BRANCH   2   3
ATOM      3  C   UNL A   1      32.852  27.586  23.766  1.00  0.00     0.188 C 
BRANCH   3   4
ATOM      4  O   UNL A   1      32.812  26.194  24.052  1.00  0.00    -0.376 OA
BRANCH   4   5
ATOM      5  C   UNL A   1      32.688  25.886  25.434  1.00  0.00     0.202 C 
BRANCH   5   6
ATOM      6  C   UNL A   1      34.052  25.712  26.103  1.00  0.00     0.261 C 
BRANCH   6   7
ATOM      7  O   UNL A   1      34.556  24.361  26.090  1.00  0.00    -0.463 OA
BRANCH   7   8
ATOM      8  C   UNL A   1      35.780  24.138  25.557  1.00  0.00     0.311 C 
ATOM      9  O   UNL A   1      36.842  24.480  26.087  1.00  0.00    -0.252 OA
BRANCH   8  10
ATOM     10  C   UNL A   1      35.655  23.441  24.213  1.00  0.00     0.123 C 
ATOM     11  N   UNL A   1      34.793  21.184  24.173  1.00  0.00    -0.334 N 
ATOM     12  C   UNL A   1      36.182  21.156  24.598  1.00  0.00     0.121 C 
ATOM     13  C   UNL A   1      34.373  22.594  24.078  1.00  0.00     0.096 C 
ATOM     14  C   UNL A   1      36.779  22.426  24.024  1.00  0.00     0.039 C 
ATOM     15  C   UNL A   1      33.653  22.868  22.758  1.00  0.00     0.032 C 
BRANCH  11  16
ATOM     16  C   UNL A   1      33.934  20.310  24.840  1.00  0.00     0.270 C 
ATOM     17  O   UNL A   1      33.552  20.594  25.978  1.00  0.00    -0.267 OA
BRANCH  16  18
ATOM     18  C   UNL A   1      33.514  19.083  24.168  1.00  0.00     0.107 A 
ATOM     19  N   UNL A   1      34.023  17.794  24.199  1.00  0.00    -0.344 N 
ATOM     20  C   UNL A   1      33.299  16.980  23.354  1.00  0.00     0.086 A 
ATOM     21  C   UNL A   1      32.303  17.724  22.776  1.00  0.00     0.020 A 
ATOM     22  C   UNL A   1      32.432  19.031  23.287  1.00  0.00     0.033 A 
BRANCH  19  23
ATOM     23  C   UNL A   1      35.177  17.293  24.924  1.00  0.00     0.119 C 
ATOM     24  C   UNL A   1      35.097  15.810  25.228  1.00  0.00     0.027 C 
ENDBRANCH  19  23
ENDBRANCH  16  18
ENDBRANCH  11  16
ENDBRANCH   8  10
ENDBRANCH   7   8
ENDBRANCH   6   7
ENDBRANCH   5   6
ENDBRANCH   4   5
ENDBRANCH   3   4
ENDBRANCH   2   3
ENDBRANCH   1   2
BRANCH   1  25
ATOM     25  C   UNL A   1      31.806  30.577  25.997  1.00  0.00     0.188 C 
BRANCH  25  26
ATOM     26  C   UNL A   1      33.112  30.603  26.807  1.00  0.00     0.188 C 
BRANCH  26  27
ATOM     27  O   UNL A   1      33.096  31.484  27.926  1.00  0.00    -0.376 OA
BRANCH  27  28
ATOM     28  C   UNL A   1      34.121  32.459  28.019  1.00  0.00     0.202 C 
BRANCH  28  29
ATOM     29  C   UNL A   1      35.425  31.972  28.666  1.00  0.00     0.261 C 
BRANCH  29  30
ATOM     30  O   UNL A   1      35.545  30.553  28.787  1.00  0.00    -0.460 OA
BRANCH  30  31
ATOM     31  C   UNL A   1      36.311  30.152  29.793  1.00  0.00     0.338 C 
ATOM     32  O   UNL A   1      36.282  30.531  30.983  1.00  0.00    -0.246 OA
BRANCH  31  33
ATOM     33  C   UNL A   1      37.302  29.209  29.352  1.00  0.00     0.060 A 
ATOM     34  C   UNL A   1      38.032  28.542  30.344  1.00  0.00     0.016 A 
ATOM     35  C   UNL A   1      37.763  29.382  28.043  1.00  0.00     0.016 A 
ATOM     36  C   UNL A   1      39.332  28.193  30.067  1.00  0.00     0.010 A 
ATOM     37  C   UNL A   1      39.080  29.083  27.789  1.00  0.00     0.010 A 
ATOM     38  C   UNL A   1      39.865  28.552  28.823  1.00  0.00    -0.014 A 
BRANCH  38  39
ATOM     39  C   UNL A   1      41.304  28.391  28.613  1.00  0.00     0.031 A 
ATOM     40  C   UNL A   1      42.077  29.635  28.983  1.00  0.00     0.074 A 
ATOM     41  C   UNL A   1      41.696  27.192  28.096  1.00  0.00     0.049 A 
ATOM     42  N   UNL A   1      43.243  30.012  28.571  1.00  0.00    -0.248 NA
ATOM     43  C   UNL A   1      41.442  30.654  29.862  1.00  0.00     0.031 C 
ATOM     44  C   UNL A   1      40.768  26.090  27.750  1.00  0.00     0.029 A 
ATOM     45  N   UNL A   1      42.913  26.647  27.753  1.00  0.00    -0.354 N 
ATOM     46  C   UNL A   1      43.550  31.201  29.248  1.00  0.00     0.074 A 
ATOM     47  C   UNL A   1      42.369  31.607  29.946  1.00  0.00     0.031 C 
ATOM     48  C   UNL A   1      41.436  25.059  27.196  1.00  0.00     0.029 A 
ATOM     49  C   UNL A   1      42.852  25.367  27.155  1.00  0.00     0.049 A 
ATOM     50  H   UNL A   1      43.765  27.115  27.912  1.00  0.00     0.167 HD
ATOM     51  C   UNL A   1      44.803  31.724  29.295  1.00  0.00     0.031 A 
ATOM     52  C   UNL A   1      43.860  24.610  26.630  1.00  0.00     0.031 A 
ATOM     53  C   UNL A   1      45.716  30.946  28.527  1.00  0.00     0.049 A 
ATOM     54  C   UNL A   1      45.126  25.306  26.936  1.00  0.00     0.074 A 
ATOM     55  C   UNL A   1      45.902  30.785  27.178  1.00  0.00     0.029 A 
ATOM     56  N   UNL A   1      46.365  29.928  29.189  1.00  0.00    -0.354 N 
ATOM     57  N   UNL A   1      45.641  25.440  28.121  1.00  0.00    -0.248 NA
ATOM     58  C   UNL A   1      45.853  25.975  25.849  1.00  0.00     0.031 C 
ATOM     59  C   UNL A   1      46.317  29.440  27.039  1.00  0.00     0.029 A 
ATOM     60  C   UNL A   1      46.462  28.873  28.310  1.00  0.00     0.049 A 
ATOM     61  H   UNL A   1      46.697  29.950  30.114  1.00  0.00     0.167 HD
ATOM     62  C   UNL A   1      46.497  26.504  27.967  1.00  0.00     0.074 A 
ATOM     63  C   UNL A   1      46.804  26.581  26.555  1.00  0.00     0.031 C 
ATOM     64  C   UNL A   1      46.459  27.531  28.856  1.00  0.00     0.031 A 
BRANCH  51  65
ATOM     65  C   UNL A   1      45.344  32.795  30.187  1.00  0.00    -0.014 A 
ATOM     66  C   UNL A   1      45.200  32.606  31.579  1.00  0.00     0.010 A 
ATOM     67  C   UNL A   1      45.691  34.075  29.725  1.00  0.00     0.010 A 
ATOM     68  C   UNL A   1      45.281  33.676  32.468  1.00  0.00     0.020 A 
ATOM     69  C   UNL A   1      45.810  35.148  30.618  1.00  0.00     0.020 A 
ATOM     70  C   UNL A   1      45.550  34.949  31.975  1.00  0.00     0.054 A 
BRANCH  70  71
ATOM     71  S   UNL A   1      45.464  36.351  33.118  1.00  0.00     0.124 S 
ATOM     72  O   UNL A   1      45.208  35.688  34.392  1.00  0.00    -0.237 OA
ATOM     73  O   UNL A   1      46.787  36.955  32.980  1.00  0.00    -0.237 OA
ATOM     74  O   UNL A   1      44.363  37.155  32.592  1.00  0.00    -0.744 OA
ENDBRANCH  70  71
ENDBRANCH  51  65
BRANCH  52  75
ATOM     75  C   UNL A   1      43.945  23.384  25.755  1.00  0.00    -0.014 A 
ATOM     76  C   UNL A   1      44.696  23.276  24.576  1.00  0.00     0.010 A 
ATOM     77  C   UNL A   1      43.352  22.181  26.222  1.00  0.00     0.010 A 
ATOM     78  C   UNL A   1      44.959  22.022  23.985  1.00  0.00     0.020 A 
ATOM     79  C   UNL A   1      43.644  20.927  25.678  1.00  0.00     0.020 A 
ATOM     80  C   UNL A   1      44.475  20.852  24.571  1.00  0.00     0.054 A 
BRANCH  80  81
ATOM     81  S   UNL A   1      45.039  19.226  23.999  1.00  0.00     0.124 S 
ATOM     82  O   UNL A   1      44.292  18.316  24.860  1.00  0.00    -0.237 OA
ATOM     83  O   UNL A   1      44.655  19.219  22.589  1.00  0.00    -0.237 OA
ATOM     84  O   UNL A   1      46.481  19.272  24.236  1.00  0.00    -0.744 OA
ENDBRANCH  80  81
ENDBRANCH  52  75
BRANCH  64  85
ATOM     85  C   UNL A   1      45.948  27.157  30.239  1.00  0.00    -0.014 A 
ATOM     86  C   UNL A   1      46.738  26.371  31.097  1.00  0.00     0.010 A 
ATOM     87  C   UNL A   1      44.649  27.484  30.678  1.00  0.00     0.010 A 
ATOM     88  C   UNL A   1      46.249  25.920  32.333  1.00  0.00     0.020 A 
ATOM     89  C   UNL A   1      44.150  27.043  31.913  1.00  0.00     0.020 A 
ATOM     90  C   UNL A   1      44.955  26.256  32.735  1.00  0.00     0.054 A 
BRANCH  90  91
ATOM     91  S   UNL A   1      44.334  25.630  34.324  1.00  0.00     0.124 S 
ATOM     92  O   UNL A   1      43.341  26.631  34.701  1.00  0.00    -0.237 OA
ATOM     93  O   UNL A   1      43.795  24.322  33.959  1.00  0.00    -0.237 OA
ATOM     94  O   UNL A   1      45.522  25.593  35.176  1.00  0.00    -0.744 OA
ENDBRANCH  90  91
ENDBRANCH  64  85
ENDBRANCH  38  39
ENDBRANCH  31  33
ENDBRANCH  30  31
ENDBRANCH  29  30
ENDBRANCH  28  29
ENDBRANCH  27  28
ENDBRANCH  26  27
ENDBRANCH  25  26
ENDBRANCH   1  25
TORSDOF 26
ENDMDL
