MODEL 1
REMARK VINA RESULT:      -9.5      0.000      0.000
REMARK SMILES C[C@H](C(=O)OCCOCCOCCOCCOC(=O)c1ccc(-c2c3nc(c(-c4ccc(S(=O)(=O)[O-])cc4)c4ccc([nH]4)c(-c4ccc(S(=O)(=O)[O-])cc4)c4nc(c(-c5ccc(S(=O)(=O)[O-])cc5)c5ccc2[nH]5)C=C4)C=C3)cc1)c1ccc2c3cc(Cl)ccc3n(C(=O)c3cocn3)c2c1
REMARK SMILES IDX 11 1 10 2 9 3 8 4 7 5 6 6 5 7 3 8 4 9 2 10 1 11 80 12 81 13
REMARK SMILES IDX 100 14 82 15 99 16 83 17 91 18 84 19 90 20 85 21 89 22 86 23
REMARK SMILES IDX 88 24 87 25 92 26 93 27 94 28 95 29 98 30 96 31 97 32 12 33
REMARK SMILES IDX 13 34 14 35 15 36 16 37 17 38 18 39 19 40 20 41 21 42 79 43
REMARK SMILES IDX 22 44 78 45 23 46 24 47 25 48 72 49 26 50 77 51 71 52 73 53
REMARK SMILES IDX 27 54 76 55 70 56 69 57 28 59 58 60 39 61 57 62 40 63 43 64
REMARK SMILES IDX 56 65 74 66 41 67 42 68 55 70 75 71 44 72 29 73 30 74 38 75
REMARK SMILES IDX 31 76 37 77 32 78 33 79 34 80 35 81 36 82 59 83 60 84 68 85
REMARK SMILES IDX 61 86 67 87 62 88 63 89 64 90 65 91 66 92 45 93 46 94 54 95
REMARK SMILES IDX 47 96 53 97 48 98 49 99 50 100 51 101 52 102
REMARK H PARENT 73 58 43 69
REMARK Flexibility Score: inf
ROOT
ATOM      1  O   UNL A   1      33.574  30.668  26.476  1.00  0.00    -0.377 OA
ENDROOT
BRANCH   1   2
ATOM      2  C   UNL A   1      33.019  29.421  26.125  1.00  0.00     0.188 C 
BRANCH   2   3
ATOM      3  C   UNL A   1      33.725  28.664  24.990  1.00  0.00     0.188 C 
BRANCH   3   4
ATOM      4  O   UNL A   1      33.629  29.109  23.643  1.00  0.00    -0.376 OA
BRANCH   4   5
ATOM      5  C   UNL A   1      33.682  28.166  22.583  1.00  0.00     0.202 C 
BRANCH   5   6
ATOM      6  C   UNL A   1      32.467  27.258  22.285  1.00  0.00     0.261 C 
BRANCH   6   7
ATOM      7  O   UNL A   1      31.150  27.826  22.486  1.00  0.00    -0.463 OA
BRANCH   7   8
ATOM      8  C   UNL A   1      30.427  27.324  23.514  1.00  0.00     0.313 C 
ATOM      9  O   UNL A   1      29.214  27.509  23.614  1.00  0.00    -0.252 OA
BRANCH   8  10
ATOM     10  C   UNL A   1      31.210  26.532  24.586  1.00  0.00     0.126 C 
ATOM     11  C   UNL A   1      30.459  26.803  25.907  1.00  0.00     0.025 C 
BRANCH  10  12
ATOM     12  C   UNL A   1      31.489  25.023  24.398  1.00  0.00    -0.032 A 
ATOM     13  C   UNL A   1      30.748  24.223  23.513  1.00  0.00     0.005 A 
ATOM     14  C   UNL A   1      32.531  24.396  25.118  1.00  0.00     0.032 A 
ATOM     15  C   UNL A   1      31.069  22.880  23.281  1.00  0.00     0.011 A 
ATOM     16  C   UNL A   1      32.864  23.024  24.889  1.00  0.00     0.058 A 
ATOM     17  C   UNL A   1      32.150  22.279  23.954  1.00  0.00     0.008 A 
ATOM     18  N   UNL A   1      33.887  22.191  25.418  1.00  0.00    -0.274 N 
ATOM     19  C   UNL A   1      32.704  20.974  23.912  1.00  0.00     0.009 A 
ATOM     20  C   UNL A   1      33.659  20.882  24.934  1.00  0.00     0.057 A 
ATOM     21  C   UNL A   1      32.397  19.842  23.120  1.00  0.00     0.031 A 
ATOM     22  C   UNL A   1      34.163  19.610  25.286  1.00  0.00     0.029 A 
ATOM     23  C   UNL A   1      32.984  18.616  23.412  1.00  0.00     0.041 A 
ATOM     24  C   UNL A   1      33.827  18.491  24.505  1.00  0.00     0.023 A 
ATOM     25  Cl  UNL A   1      32.613  17.245  22.439  1.00  0.00    -0.084 Cl
BRANCH  18  26
ATOM     26  C   UNL A   1      34.918  22.674  26.290  1.00  0.00     0.284 C 
ATOM     27  O   UNL A   1      34.535  23.021  27.405  1.00  0.00    -0.266 OA
BRANCH  26  28
ATOM     28  C   UNL A   1      36.349  22.823  26.020  1.00  0.00     0.167 A 
ATOM     29  C   UNL A   1      37.204  23.892  26.152  1.00  0.00     0.231 A 
ATOM     30  N   UNL A   1      37.117  21.707  25.696  1.00  0.00    -0.211 NA
ATOM     31  O   UNL A   1      38.483  23.467  25.930  1.00  0.00    -0.451 OA
ATOM     32  C   UNL A   1      38.355  22.136  25.697  1.00  0.00     0.308 A 
ENDBRANCH  26  28
ENDBRANCH  18  26
ENDBRANCH  10  12
ENDBRANCH   8  10
ENDBRANCH   7   8
ENDBRANCH   6   7
ENDBRANCH   5   6
ENDBRANCH   4   5
ENDBRANCH   3   4
ENDBRANCH   2   3
ENDBRANCH   1   2
BRANCH   1  33
ATOM     33  C   UNL A   1      33.079  31.275  27.650  1.00  0.00     0.188 C 
BRANCH  33  34
ATOM     34  C   UNL A   1      33.012  32.809  27.647  1.00  0.00     0.188 C 
BRANCH  34  35
ATOM     35  O   UNL A   1      33.994  33.432  28.469  1.00  0.00    -0.376 OA
BRANCH  35  36
ATOM     36  C   UNL A   1      35.365  33.137  28.241  1.00  0.00     0.202 C 
BRANCH  36  37
ATOM     37  C   UNL A   1      36.077  32.157  29.192  1.00  0.00     0.261 C 
BRANCH  37  38
ATOM     38  O   UNL A   1      36.933  31.165  28.603  1.00  0.00    -0.460 OA
BRANCH  38  39
ATOM     39  C   UNL A   1      37.153  30.021  29.285  1.00  0.00     0.338 C 
ATOM     40  O   UNL A   1      36.350  29.410  29.968  1.00  0.00    -0.246 OA
BRANCH  39  41
ATOM     41  C   UNL A   1      38.489  29.516  28.896  1.00  0.00     0.060 A 
ATOM     42  C   UNL A   1      39.366  29.061  29.889  1.00  0.00     0.016 A 
ATOM     43  C   UNL A   1      38.869  29.477  27.554  1.00  0.00     0.016 A 
ATOM     44  C   UNL A   1      40.633  28.582  29.545  1.00  0.00     0.010 A 
ATOM     45  C   UNL A   1      40.147  29.022  27.214  1.00  0.00     0.010 A 
ATOM     46  C   UNL A   1      41.047  28.599  28.208  1.00  0.00    -0.014 A 
BRANCH  46  47
ATOM     47  C   UNL A   1      42.481  28.403  27.871  1.00  0.00     0.031 A 
ATOM     48  C   UNL A   1      43.417  29.568  28.071  1.00  0.00     0.074 A 
ATOM     49  C   UNL A   1      42.954  27.228  27.417  1.00  0.00     0.049 A 
ATOM     50  N   UNL A   1      44.693  29.664  27.807  1.00  0.00    -0.248 NA
ATOM     51  C   UNL A   1      42.826  30.793  28.640  1.00  0.00     0.031 C 
ATOM     52  C   UNL A   1      42.167  26.012  27.222  1.00  0.00     0.029 A 
ATOM     53  N   UNL A   1      44.225  26.869  27.036  1.00  0.00    -0.354 N 
ATOM     54  C   UNL A   1      45.052  30.961  28.157  1.00  0.00     0.074 A 
ATOM     55  C   UNL A   1      43.856  31.625  28.620  1.00  0.00     0.031 C 
ATOM     56  C   UNL A   1      42.975  25.039  26.761  1.00  0.00     0.029 A 
ATOM     57  C   UNL A   1      44.326  25.572  26.590  1.00  0.00     0.049 A 
ATOM     58  H   UNL A   1      44.993  27.484  27.079  1.00  0.00     0.167 HD
ATOM     59  C   UNL A   1      46.272  31.547  28.106  1.00  0.00     0.031 A 
ATOM     60  C   UNL A   1      45.381  24.899  26.086  1.00  0.00     0.031 A 
ATOM     61  C   UNL A   1      47.462  30.887  27.645  1.00  0.00     0.049 A 
ATOM     62  C   UNL A   1      46.715  25.598  25.971  1.00  0.00     0.074 A 
ATOM     63  C   UNL A   1      48.750  31.389  27.577  1.00  0.00     0.029 A 
ATOM     64  N   UNL A   1      47.512  29.586  27.167  1.00  0.00    -0.354 N 
ATOM     65  N   UNL A   1      47.046  26.816  26.330  1.00  0.00    -0.248 NA
ATOM     66  C   UNL A   1      47.823  24.827  25.385  1.00  0.00     0.031 C 
ATOM     67  C   UNL A   1      49.566  30.415  26.992  1.00  0.00     0.029 A 
ATOM     68  C   UNL A   1      48.803  29.280  26.770  1.00  0.00     0.049 A 
ATOM     69  H   UNL A   1      46.744  28.973  27.118  1.00  0.00     0.167 HD
ATOM     70  C   UNL A   1      48.404  26.943  26.049  1.00  0.00     0.074 A 
ATOM     71  C   UNL A   1      48.836  25.674  25.501  1.00  0.00     0.031 C 
ATOM     72  C   UNL A   1      49.220  28.010  26.231  1.00  0.00     0.031 A 
BRANCH  59  73
ATOM     73  C   UNL A   1      46.369  32.992  28.523  1.00  0.00    -0.014 A 
ATOM     74  C   UNL A   1      46.163  34.037  27.605  1.00  0.00     0.010 A 
ATOM     75  C   UNL A   1      46.636  33.305  29.869  1.00  0.00     0.010 A 
ATOM     76  C   UNL A   1      46.258  35.370  28.018  1.00  0.00     0.020 A 
ATOM     77  C   UNL A   1      46.698  34.634  30.293  1.00  0.00     0.020 A 
ATOM     78  C   UNL A   1      46.524  35.659  29.360  1.00  0.00     0.054 A 
BRANCH  78  79
ATOM     79  S   UNL A   1      46.609  37.395  29.874  1.00  0.00     0.124 S 
ATOM     80  O   UNL A   1      45.244  37.853  29.618  1.00  0.00    -0.237 OA
ATOM     81  O   UNL A   1      46.983  37.294  31.281  1.00  0.00    -0.237 OA
ATOM     82  O   UNL A   1      47.630  37.967  28.999  1.00  0.00    -0.744 OA
ENDBRANCH  78  79
ENDBRANCH  59  73
BRANCH  60  83
ATOM     83  C   UNL A   1      45.229  23.487  25.632  1.00  0.00    -0.014 A 
ATOM     84  C   UNL A   1      45.507  22.417  26.501  1.00  0.00     0.010 A 
ATOM     85  C   UNL A   1      44.827  23.202  24.313  1.00  0.00     0.010 A 
ATOM     86  C   UNL A   1      45.409  21.094  26.056  1.00  0.00     0.020 A 
ATOM     87  C   UNL A   1      44.696  21.881  23.873  1.00  0.00     0.020 A 
ATOM     88  C   UNL A   1      45.001  20.835  24.745  1.00  0.00     0.054 A 
BRANCH  88  89
ATOM     89  S   UNL A   1      44.846  19.110  24.204  1.00  0.00     0.124 S 
ATOM     90  O   UNL A   1      45.509  19.138  22.904  1.00  0.00    -0.237 OA
ATOM     91  O   UNL A   1      45.549  18.386  25.259  1.00  0.00    -0.237 OA
ATOM     92  O   UNL A   1      43.401  18.892  24.164  1.00  0.00    -0.744 OA
ENDBRANCH  88  89
ENDBRANCH  60  83
BRANCH  72  93
ATOM     93  C   UNL A   1      50.679  27.849  25.881  1.00  0.00    -0.014 A 
ATOM     94  C   UNL A   1      51.191  28.271  24.641  1.00  0.00     0.010 A 
ATOM     95  C   UNL A   1      51.565  27.325  26.842  1.00  0.00     0.010 A 
ATOM     96  C   UNL A   1      52.554  28.142  24.357  1.00  0.00     0.020 A 
ATOM     97  C   UNL A   1      52.933  27.226  26.576  1.00  0.00     0.020 A 
ATOM     98  C   UNL A   1      53.416  27.622  25.328  1.00  0.00     0.054 A 
BRANCH  98  99
ATOM     99  S   UNL A   1      55.187  27.509  24.950  1.00  0.00     0.124 S 
ATOM    100  O   UNL A   1      55.489  28.865  24.502  1.00  0.00    -0.237 OA
ATOM    101  O   UNL A   1      55.764  27.129  26.237  1.00  0.00    -0.237 OA
ATOM    102  O   UNL A   1      55.257  26.480  23.914  1.00  0.00    -0.744 OA
ENDBRANCH  98  99
ENDBRANCH  72  93
ENDBRANCH  46  47
ENDBRANCH  39  41
ENDBRANCH  38  39
ENDBRANCH  37  38
ENDBRANCH  36  37
ENDBRANCH  35  36
ENDBRANCH  34  35
ENDBRANCH  33  34
ENDBRANCH   1  33
TORSDOF 26
ENDMDL
MODEL 2
REMARK VINA RESULT:      -9.3      6.198     11.014
REMARK SMILES C[C@H](C(=O)OCCOCCOCCOCCOC(=O)c1ccc(-c2c3nc(c(-c4ccc(S(=O)(=O)[O-])cc4)c4ccc([nH]4)c(-c4ccc(S(=O)(=O)[O-])cc4)c4nc(c(-c5ccc(S(=O)(=O)[O-])cc5)c5ccc2[nH]5)C=C4)C=C3)cc1)c1ccc2c3cc(Cl)ccc3n(C(=O)c3cocn3)c2c1
REMARK SMILES IDX 11 1 10 2 9 3 8 4 7 5 6 6 5 7 3 8 4 9 2 10 1 11 80 12 81 13
REMARK SMILES IDX 100 14 82 15 99 16 83 17 91 18 84 19 90 20 85 21 89 22 86 23
REMARK SMILES IDX 88 24 87 25 92 26 93 27 94 28 95 29 98 30 96 31 97 32 12 33
REMARK SMILES IDX 13 34 14 35 15 36 16 37 17 38 18 39 19 40 20 41 21 42 79 43
REMARK SMILES IDX 22 44 78 45 23 46 24 47 25 48 72 49 26 50 77 51 71 52 73 53
REMARK SMILES IDX 27 54 76 55 70 56 69 57 28 59 58 60 39 61 57 62 40 63 43 64
REMARK SMILES IDX 56 65 74 66 41 67 42 68 55 70 75 71 44 72 29 73 30 74 38 75
REMARK SMILES IDX 31 76 37 77 32 78 33 79 34 80 35 81 36 82 59 83 60 84 68 85
REMARK SMILES IDX 61 86 67 87 62 88 63 89 64 90 65 91 66 92 45 93 46 94 54 95
REMARK SMILES IDX 47 96 53 97 48 98 49 99 50 100 51 101 52 102
REMARK H PARENT 73 58 43 69
REMARK Flexibility Score: inf
ROOT
ATOM      1  O   UNL A   1      32.316  36.776  31.278  1.00  0.00    -0.377 OA
ENDROOT
BRANCH   1   2
ATOM      2  C   UNL A   1      32.780  36.047  32.392  1.00  0.00     0.188 C 
BRANCH   2   3
ATOM      3  C   UNL A   1      33.994  36.638  33.125  1.00  0.00     0.188 C 
BRANCH   3   4
ATOM      4  O   UNL A   1      35.068  35.808  33.549  1.00  0.00    -0.376 OA
BRANCH   4   5
ATOM      5  C   UNL A   1      34.801  34.499  34.031  1.00  0.00     0.202 C 
BRANCH   5   6
ATOM      6  C   UNL A   1      35.590  33.289  33.483  1.00  0.00     0.261 C 
BRANCH   6   7
ATOM      7  O   UNL A   1      36.267  32.448  34.447  1.00  0.00    -0.463 OA
BRANCH   7   8
ATOM      8  C   UNL A   1      37.555  32.759  34.721  1.00  0.00     0.313 C 
ATOM      9  O   UNL A   1      38.499  32.175  34.186  1.00  0.00    -0.252 OA
BRANCH   8  10
ATOM     10  C   UNL A   1      37.789  33.866  35.774  1.00  0.00     0.126 C 
ATOM     11  C   UNL A   1      37.125  33.334  37.062  1.00  0.00     0.025 C 
BRANCH  10  12
ATOM     12  C   UNL A   1      39.215  34.394  36.054  1.00  0.00    -0.032 A 
ATOM     13  C   UNL A   1      39.723  35.552  35.446  1.00  0.00     0.005 A 
ATOM     14  C   UNL A   1      40.059  33.716  36.962  1.00  0.00     0.032 A 
ATOM     15  C   UNL A   1      40.981  36.073  35.777  1.00  0.00     0.011 A 
ATOM     16  C   UNL A   1      41.346  34.240  37.304  1.00  0.00     0.058 A 
ATOM     17  C   UNL A   1      41.790  35.427  36.731  1.00  0.00     0.008 A 
ATOM     18  N   UNL A   1      42.340  33.799  38.219  1.00  0.00    -0.274 N 
ATOM     19  C   UNL A   1      43.072  35.724  37.263  1.00  0.00     0.009 A 
ATOM     20  C   UNL A   1      43.471  34.632  38.047  1.00  0.00     0.057 A 
ATOM     21  C   UNL A   1      43.949  36.815  37.065  1.00  0.00     0.031 A 
ATOM     22  C   UNL A   1      44.816  34.549  38.470  1.00  0.00     0.029 A 
ATOM     23  C   UNL A   1      45.240  36.767  37.579  1.00  0.00     0.041 A 
ATOM     24  C   UNL A   1      45.682  35.632  38.240  1.00  0.00     0.023 A 
ATOM     25  Cl  UNL A   1      46.299  38.103  37.341  1.00  0.00    -0.084 Cl
BRANCH  18  26
ATOM     26  C   UNL A   1      42.151  32.693  39.110  1.00  0.00     0.284 C 
ATOM     27  O   UNL A   1      42.380  31.588  38.623  1.00  0.00    -0.266 OA
BRANCH  26  28
ATOM     28  C   UNL A   1      41.705  32.706  40.505  1.00  0.00     0.167 A 
ATOM     29  C   UNL A   1      41.809  33.655  41.495  1.00  0.00     0.231 A 
ATOM     30  N   UNL A   1      40.898  31.679  40.989  1.00  0.00    -0.211 NA
ATOM     31  O   UNL A   1      41.078  33.250  42.576  1.00  0.00    -0.451 OA
ATOM     32  C   UNL A   1      40.531  32.071  42.183  1.00  0.00     0.308 A 
ENDBRANCH  26  28
ENDBRANCH  18  26
ENDBRANCH  10  12
ENDBRANCH   8  10
ENDBRANCH   7   8
ENDBRANCH   6   7
ENDBRANCH   5   6
ENDBRANCH   4   5
ENDBRANCH   3   4
ENDBRANCH   2   3
ENDBRANCH   1   2
BRANCH   1  33
ATOM     33  C   UNL A   1      33.293  37.233  30.368  1.00  0.00     0.188 C 
BRANCH  33  34
ATOM     34  C   UNL A   1      33.248  36.625  28.958  1.00  0.00     0.188 C 
BRANCH  34  35
ATOM     35  O   UNL A   1      32.539  35.393  28.882  1.00  0.00    -0.376 OA
BRANCH  35  36
ATOM     36  C   UNL A   1      33.229  34.232  28.443  1.00  0.00     0.202 C 
BRANCH  36  37
ATOM     37  C   UNL A   1      34.433  33.733  29.265  1.00  0.00     0.261 C 
BRANCH  37  38
ATOM     38  O   UNL A   1      34.445  32.351  29.653  1.00  0.00    -0.460 OA
BRANCH  38  39
ATOM     39  C   UNL A   1      34.520  31.413  28.686  1.00  0.00     0.338 C 
ATOM     40  O   UNL A   1      33.733  31.241  27.771  1.00  0.00    -0.246 OA
BRANCH  39  41
ATOM     41  C   UNL A   1      35.837  30.750  28.804  1.00  0.00     0.060 A 
ATOM     42  C   UNL A   1      36.295  30.351  30.067  1.00  0.00     0.016 A 
ATOM     43  C   UNL A   1      36.612  30.505  27.670  1.00  0.00     0.016 A 
ATOM     44  C   UNL A   1      37.536  29.725  30.202  1.00  0.00     0.010 A 
ATOM     45  C   UNL A   1      37.867  29.902  27.810  1.00  0.00     0.010 A 
ATOM     46  C   UNL A   1      38.349  29.535  29.079  1.00  0.00    -0.014 A 
BRANCH  46  47
ATOM     47  C   UNL A   1      39.781  29.175  29.249  1.00  0.00     0.031 A 
ATOM     48  C   UNL A   1      40.709  30.224  29.806  1.00  0.00     0.074 A 
ATOM     49  C   UNL A   1      40.252  27.953  28.939  1.00  0.00     0.049 A 
ATOM     50  N   UNL A   1      42.000  30.172  30.001  1.00  0.00    -0.248 NA
ATOM     51  C   UNL A   1      40.094  31.509  30.184  1.00  0.00     0.031 C 
ATOM     52  C   UNL A   1      39.454  26.836  28.436  1.00  0.00     0.029 A 
ATOM     53  N   UNL A   1      41.529  27.450  29.006  1.00  0.00    -0.354 N 
ATOM     54  C   UNL A   1      42.354  31.419  30.504  1.00  0.00     0.074 A 
ATOM     55  C   UNL A   1      41.150  32.217  30.553  1.00  0.00     0.031 C 
ATOM     56  C   UNL A   1      40.262  25.776  28.243  1.00  0.00     0.029 A 
ATOM     57  C   UNL A   1      41.637  26.149  28.570  1.00  0.00     0.049 A 
ATOM     58  H   UNL A   1      42.297  27.972  29.334  1.00  0.00     0.167 HD
ATOM     59  C   UNL A   1      43.571  31.861  30.900  1.00  0.00     0.031 A 
ATOM     60  C   UNL A   1      42.723  25.360  28.434  1.00  0.00     0.031 A 
ATOM     61  C   UNL A   1      44.769  31.068  30.852  1.00  0.00     0.049 A 
ATOM     62  C   UNL A   1      44.081  25.900  28.814  1.00  0.00     0.074 A 
ATOM     63  C   UNL A   1      46.047  31.418  31.251  1.00  0.00     0.029 A 
ATOM     64  N   UNL A   1      44.840  29.770  30.369  1.00  0.00    -0.354 N 
ATOM     65  N   UNL A   1      44.396  27.072  29.313  1.00  0.00    -0.248 NA
ATOM     66  C   UNL A   1      45.232  25.006  28.615  1.00  0.00     0.031 C 
ATOM     67  C   UNL A   1      46.904  30.356  30.945  1.00  0.00     0.029 A 
ATOM     68  C   UNL A   1      46.147  29.316  30.429  1.00  0.00     0.049 A 
ATOM     69  H   UNL A   1      44.075  29.249  30.034  1.00  0.00     0.167 HD
ATOM     70  C   UNL A   1      45.772  27.041  29.522  1.00  0.00     0.074 A 
ATOM     71  C   UNL A   1      46.228  25.731  29.106  1.00  0.00     0.031 C 
ATOM     72  C   UNL A   1      46.586  28.007  30.016  1.00  0.00     0.031 A 
BRANCH  59  73
ATOM     73  C   UNL A   1      43.674  33.284  31.383  1.00  0.00    -0.014 A 
ATOM     74  C   UNL A   1      44.155  34.310  30.549  1.00  0.00     0.010 A 
ATOM     75  C   UNL A   1      43.244  33.605  32.684  1.00  0.00     0.010 A 
ATOM     76  C   UNL A   1      44.240  35.623  31.021  1.00  0.00     0.020 A 
ATOM     77  C   UNL A   1      43.295  34.921  33.148  1.00  0.00     0.020 A 
ATOM     78  C   UNL A   1      43.807  35.920  32.317  1.00  0.00     0.054 A 
BRANCH  78  79
ATOM     79  S   UNL A   1      43.897  37.638  32.891  1.00  0.00     0.124 S 
ATOM     80  O   UNL A   1      42.769  37.705  33.818  1.00  0.00    -0.237 OA
ATOM     81  O   UNL A   1      45.220  37.699  33.506  1.00  0.00    -0.237 OA
ATOM     82  O   UNL A   1      43.743  38.422  31.667  1.00  0.00    -0.744 OA
ENDBRANCH  78  79
ENDBRANCH  59  73
BRANCH  60  83
ATOM     83  C   UNL A   1      42.585  23.974  27.899  1.00  0.00    -0.014 A 
ATOM     84  C   UNL A   1      42.721  23.717  26.522  1.00  0.00     0.010 A 
ATOM     85  C   UNL A   1      42.291  22.903  28.762  1.00  0.00     0.010 A 
ATOM     86  C   UNL A   1      42.543  22.424  26.019  1.00  0.00     0.020 A 
ATOM     87  C   UNL A   1      42.145  21.603  28.268  1.00  0.00     0.020 A 
ATOM     88  C   UNL A   1      42.258  21.375  26.896  1.00  0.00     0.054 A 
BRANCH  88  89
ATOM     89  S   UNL A   1      42.070  19.700  26.222  1.00  0.00     0.124 S 
ATOM     90  O   UNL A   1      42.538  18.872  27.329  1.00  0.00    -0.237 OA
ATOM     91  O   UNL A   1      40.638  19.634  25.943  1.00  0.00    -0.237 OA
ATOM     92  O   UNL A   1      42.930  19.708  25.040  1.00  0.00    -0.744 OA
ENDBRANCH  88  89
ENDBRANCH  60  83
BRANCH  72  93
ATOM     93  C   UNL A   1      48.049  27.678  30.184  1.00  0.00    -0.014 A 
ATOM     94  C   UNL A   1      48.556  27.164  31.390  1.00  0.00     0.010 A 
ATOM     95  C   UNL A   1      48.918  27.823  29.085  1.00  0.00     0.010 A 
ATOM     96  C   UNL A   1      49.910  26.835  31.506  1.00  0.00     0.020 A 
ATOM     97  C   UNL A   1      50.264  27.463  29.185  1.00  0.00     0.020 A 
ATOM     98  C   UNL A   1      50.755  26.984  30.401  1.00  0.00     0.054 A 
BRANCH  98  99
ATOM     99  S   UNL A   1      52.496  26.504  30.564  1.00  0.00     0.124 S 
ATOM    100  O   UNL A   1      53.069  27.663  31.242  1.00  0.00    -0.237 OA
ATOM    101  O   UNL A   1      52.418  25.284  31.363  1.00  0.00    -0.237 OA
ATOM    102  O   UNL A   1      52.934  26.312  29.183  1.00  0.00    -0.744 OA
ENDBRANCH  98  99
ENDBRANCH  72  93
ENDBRANCH  46  47
ENDBRANCH  39  41
ENDBRANCH  38  39
ENDBRANCH  37  38
ENDBRANCH  36  37
ENDBRANCH  35  36
ENDBRANCH  34  35
ENDBRANCH  33  34
ENDBRANCH   1  33
TORSDOF 26
ENDMDL
MODEL 3
REMARK VINA RESULT:      -8.8      6.185     11.399
REMARK SMILES C[C@H](C(=O)OCCOCCOCCOCCOC(=O)c1ccc(-c2c3nc(c(-c4ccc(S(=O)(=O)[O-])cc4)c4ccc([nH]4)c(-c4ccc(S(=O)(=O)[O-])cc4)c4nc(c(-c5ccc(S(=O)(=O)[O-])cc5)c5ccc2[nH]5)C=C4)C=C3)cc1)c1ccc2c3cc(Cl)ccc3n(C(=O)c3cocn3)c2c1
REMARK SMILES IDX 11 1 10 2 9 3 8 4 7 5 6 6 5 7 3 8 4 9 2 10 1 11 80 12 81 13
REMARK SMILES IDX 100 14 82 15 99 16 83 17 91 18 84 19 90 20 85 21 89 22 86 23
REMARK SMILES IDX 88 24 87 25 92 26 93 27 94 28 95 29 98 30 96 31 97 32 12 33
REMARK SMILES IDX 13 34 14 35 15 36 16 37 17 38 18 39 19 40 20 41 21 42 79 43
REMARK SMILES IDX 22 44 78 45 23 46 24 47 25 48 72 49 26 50 77 51 71 52 73 53
REMARK SMILES IDX 27 54 76 55 70 56 69 57 28 59 58 60 39 61 57 62 40 63 43 64
REMARK SMILES IDX 56 65 74 66 41 67 42 68 55 70 75 71 44 72 29 73 30 74 38 75
REMARK SMILES IDX 31 76 37 77 32 78 33 79 34 80 35 81 36 82 59 83 60 84 68 85
REMARK SMILES IDX 61 86 67 87 62 88 63 89 64 90 65 91 66 92 45 93 46 94 54 95
REMARK SMILES IDX 47 96 53 97 48 98 49 99 50 100 51 101 52 102
REMARK H PARENT 73 58 43 69
REMARK Flexibility Score: inf
ROOT
ATOM      1  O   UNL A   1      31.923  26.169  25.301  1.00  0.00    -0.377 OA
ENDROOT
BRANCH   1   2
ATOM      2  C   UNL A   1      30.905  25.511  24.581  1.00  0.00     0.188 C 
BRANCH   2   3
ATOM      3  C   UNL A   1      31.307  24.197  23.894  1.00  0.00     0.188 C 
BRANCH   3   4
ATOM      4  O   UNL A   1      32.304  24.177  22.880  1.00  0.00    -0.376 OA
BRANCH   4   5
ATOM      5  C   UNL A   1      33.660  23.941  23.229  1.00  0.00     0.202 C 
BRANCH   5   6
ATOM      6  C   UNL A   1      34.184  22.496  23.389  1.00  0.00     0.261 C 
BRANCH   6   7
ATOM      7  O   UNL A   1      35.467  22.324  24.038  1.00  0.00    -0.463 OA
BRANCH   7   8
ATOM      8  C   UNL A   1      35.491  21.520  25.126  1.00  0.00     0.313 C 
ATOM      9  O   UNL A   1      34.462  21.172  25.707  1.00  0.00    -0.252 OA
BRANCH   8  10
ATOM     10  C   UNL A   1      36.886  21.084  25.631  1.00  0.00     0.126 C 
ATOM     11  C   UNL A   1      37.380  20.055  24.592  1.00  0.00     0.025 C 
BRANCH  10  12
ATOM     12  C   UNL A   1      37.973  22.140  25.937  1.00  0.00    -0.032 A 
ATOM     13  C   UNL A   1      37.681  23.505  26.078  1.00  0.00     0.005 A 
ATOM     14  C   UNL A   1      39.321  21.746  26.102  1.00  0.00     0.032 A 
ATOM     15  C   UNL A   1      38.658  24.439  26.448  1.00  0.00     0.011 A 
ATOM     16  C   UNL A   1      40.325  22.693  26.478  1.00  0.00     0.058 A 
ATOM     17  C   UNL A   1      39.985  24.029  26.674  1.00  0.00     0.008 A 
ATOM     18  N   UNL A   1      41.709  22.549  26.767  1.00  0.00    -0.274 N 
ATOM     19  C   UNL A   1      41.156  24.731  27.061  1.00  0.00     0.009 A 
ATOM     20  C   UNL A   1      42.239  23.848  26.952  1.00  0.00     0.057 A 
ATOM     21  C   UNL A   1      41.373  26.082  27.422  1.00  0.00     0.031 A 
ATOM     22  C   UNL A   1      43.552  24.365  27.015  1.00  0.00     0.029 A 
ATOM     23  C   UNL A   1      42.670  26.553  27.587  1.00  0.00     0.041 A 
ATOM     24  C   UNL A   1      43.749  25.716  27.349  1.00  0.00     0.023 A 
ATOM     25  Cl  UNL A   1      42.926  28.195  28.035  1.00  0.00    -0.084 Cl
BRANCH  18  26
ATOM     26  C   UNL A   1      42.369  21.278  26.827  1.00  0.00     0.284 C 
ATOM     27  O   UNL A   1      42.193  20.650  27.869  1.00  0.00    -0.266 OA
BRANCH  26  28
ATOM     28  C   UNL A   1      43.232  20.647  25.826  1.00  0.00     0.167 A 
ATOM     29  C   UNL A   1      43.273  19.368  25.323  1.00  0.00     0.231 A 
ATOM     30  N   UNL A   1      44.120  21.421  25.084  1.00  0.00    -0.211 NA
ATOM     31  O   UNL A   1      44.155  19.330  24.280  1.00  0.00    -0.451 OA
ATOM     32  C   UNL A   1      44.597  20.609  24.174  1.00  0.00     0.308 A 
ENDBRANCH  26  28
ENDBRANCH  18  26
ENDBRANCH  10  12
ENDBRANCH   8  10
ENDBRANCH   7   8
ENDBRANCH   6   7
ENDBRANCH   5   6
ENDBRANCH   4   5
ENDBRANCH   3   4
ENDBRANCH   2   3
ENDBRANCH   1   2
BRANCH   1  33
ATOM     33  C   UNL A   1      31.602  27.432  25.842  1.00  0.00     0.188 C 
BRANCH  33  34
ATOM     34  C   UNL A   1      31.466  28.588  24.839  1.00  0.00     0.188 C 
BRANCH  34  35
ATOM     35  O   UNL A   1      31.739  29.870  25.395  1.00  0.00    -0.376 OA
BRANCH  35  36
ATOM     36  C   UNL A   1      32.952  30.064  26.108  1.00  0.00     0.202 C 
BRANCH  36  37
ATOM     37  C   UNL A   1      32.936  30.958  27.363  1.00  0.00     0.261 C 
BRANCH  37  38
ATOM     38  O   UNL A   1      33.898  32.021  27.432  1.00  0.00    -0.460 OA
BRANCH  38  39
ATOM     39  C   UNL A   1      33.633  33.076  28.232  1.00  0.00     0.338 C 
ATOM     40  O   UNL A   1      32.667  33.817  28.170  1.00  0.00    -0.246 OA
BRANCH  39  41
ATOM     41  C   UNL A   1      34.618  33.061  29.336  1.00  0.00     0.060 A 
ATOM     42  C   UNL A   1      34.918  34.255  30.005  1.00  0.00     0.016 A 
ATOM     43  C   UNL A   1      35.233  31.870  29.722  1.00  0.00     0.016 A 
ATOM     44  C   UNL A   1      35.846  34.265  31.049  1.00  0.00     0.010 A 
ATOM     45  C   UNL A   1      36.181  31.886  30.750  1.00  0.00     0.010 A 
ATOM     46  C   UNL A   1      36.515  33.087  31.400  1.00  0.00    -0.014 A 
BRANCH  46  47
ATOM     47  C   UNL A   1      37.718  33.146  32.270  1.00  0.00     0.031 A 
ATOM     48  C   UNL A   1      39.066  33.247  31.603  1.00  0.00     0.074 A 
ATOM     49  C   UNL A   1      37.630  33.128  33.613  1.00  0.00     0.049 A 
ATOM     50  N   UNL A   1      40.259  33.264  32.136  1.00  0.00    -0.248 NA
ATOM     51  C   UNL A   1      39.064  33.333  30.132  1.00  0.00     0.031 C 
ATOM     52  C   UNL A   1      36.389  33.078  34.384  1.00  0.00     0.029 A 
ATOM     53  N   UNL A   1      38.618  33.151  34.569  1.00  0.00    -0.354 N 
ATOM     54  C   UNL A   1      41.146  33.341  31.069  1.00  0.00     0.074 A 
ATOM     55  C   UNL A   1      40.359  33.334  29.858  1.00  0.00     0.031 C 
ATOM     56  C   UNL A   1      36.691  33.078  35.696  1.00  0.00     0.029 A 
ATOM     57  C   UNL A   1      38.144  33.087  35.859  1.00  0.00     0.049 A 
ATOM     58  H   UNL A   1      39.576  33.207  34.351  1.00  0.00     0.167 HD
ATOM     59  C   UNL A   1      42.498  33.419  31.093  1.00  0.00     0.031 A 
ATOM     60  C   UNL A   1      38.807  33.026  37.033  1.00  0.00     0.031 A 
ATOM     61  C   UNL A   1      43.282  33.425  32.297  1.00  0.00     0.049 A 
ATOM     62  C   UNL A   1      40.317  33.041  37.029  1.00  0.00     0.074 A 
ATOM     63  C   UNL A   1      44.656  33.525  32.426  1.00  0.00     0.029 A 
ATOM     64  N   UNL A   1      42.764  33.322  33.579  1.00  0.00    -0.354 N 
ATOM     65  N   UNL A   1      41.142  33.141  36.014  1.00  0.00    -0.248 NA
ATOM     66  C   UNL A   1      40.987  32.940  38.336  1.00  0.00     0.031 C 
ATOM     67  C   UNL A   1      44.975  33.410  33.783  1.00  0.00     0.029 A 
ATOM     68  C   UNL A   1      43.795  33.320  34.504  1.00  0.00     0.049 A 
ATOM     69  H   UNL A   1      41.807  33.259  33.799  1.00  0.00     0.167 HD
ATOM     70  C   UNL A   1      42.422  33.152  36.561  1.00  0.00     0.074 A 
ATOM     71  C   UNL A   1      42.263  33.061  37.997  1.00  0.00     0.031 C 
ATOM     72  C   UNL A   1      43.621  33.234  35.932  1.00  0.00     0.031 A 
BRANCH  59  73
ATOM     73  C   UNL A   1      43.217  33.462  29.769  1.00  0.00    -0.014 A 
ATOM     74  C   UNL A   1      43.570  34.682  29.164  1.00  0.00     0.010 A 
ATOM     75  C   UNL A   1      43.579  32.256  29.141  1.00  0.00     0.010 A 
ATOM     76  C   UNL A   1      44.238  34.694  27.936  1.00  0.00     0.020 A 
ATOM     77  C   UNL A   1      44.277  32.264  27.931  1.00  0.00     0.020 A 
ATOM     78  C   UNL A   1      44.589  33.484  27.328  1.00  0.00     0.054 A 
BRANCH  78  79
ATOM     79  S   UNL A   1      45.484  33.531  25.753  1.00  0.00     0.124 S 
ATOM     80  O   UNL A   1      45.661  34.968  25.550  1.00  0.00    -0.237 OA
ATOM     81  O   UNL A   1      46.701  32.785  26.055  1.00  0.00    -0.237 OA
ATOM     82  O   UNL A   1      44.572  32.880  24.815  1.00  0.00    -0.744 OA
ENDBRANCH  78  79
ENDBRANCH  59  73
BRANCH  60  83
ATOM     83  C   UNL A   1      38.057  32.927  38.318  1.00  0.00    -0.014 A 
ATOM     84  C   UNL A   1      37.919  34.046  39.160  1.00  0.00     0.010 A 
ATOM     85  C   UNL A   1      37.494  31.702  38.723  1.00  0.00     0.010 A 
ATOM     86  C   UNL A   1      37.257  33.936  40.387  1.00  0.00     0.020 A 
ATOM     87  C   UNL A   1      36.803  31.596  39.933  1.00  0.00     0.020 A 
ATOM     88  C   UNL A   1      36.700  32.711  40.764  1.00  0.00     0.054 A 
BRANCH  88  89
ATOM     89  S   UNL A   1      35.813  32.605  42.344  1.00  0.00     0.124 S 
ATOM     90  O   UNL A   1      34.478  32.200  41.916  1.00  0.00    -0.237 OA
ATOM     91  O   UNL A   1      36.580  31.595  43.068  1.00  0.00    -0.237 OA
ATOM     92  O   UNL A   1      35.913  33.960  42.885  1.00  0.00    -0.744 OA
ENDBRANCH  88  89
ENDBRANCH  60  83
BRANCH  72  93
ATOM     93  C   UNL A   1      44.863  33.277  36.788  1.00  0.00    -0.014 A 
ATOM     94  C   UNL A   1      45.657  32.135  36.994  1.00  0.00     0.010 A 
ATOM     95  C   UNL A   1      45.278  34.505  37.340  1.00  0.00     0.010 A 
ATOM     96  C   UNL A   1      46.822  32.212  37.763  1.00  0.00     0.020 A 
ATOM     97  C   UNL A   1      46.459  34.594  38.080  1.00  0.00     0.020 A 
ATOM     98  C   UNL A   1      47.217  33.442  38.299  1.00  0.00     0.054 A 
BRANCH  98  99
ATOM     99  S   UNL A   1      48.758  33.524  39.253  1.00  0.00     0.124 S 
ATOM    100  O   UNL A   1      48.434  32.714  40.423  1.00  0.00    -0.237 OA
ATOM    101  O   UNL A   1      49.733  32.941  38.335  1.00  0.00    -0.237 OA
ATOM    102  O   UNL A   1      48.931  34.952  39.513  1.00  0.00    -0.744 OA
ENDBRANCH  98  99
ENDBRANCH  72  93
ENDBRANCH  46  47
ENDBRANCH  39  41
ENDBRANCH  38  39
ENDBRANCH  37  38
ENDBRANCH  36  37
ENDBRANCH  35  36
ENDBRANCH  34  35
ENDBRANCH  33  34
ENDBRANCH   1  33
TORSDOF 26
ENDMDL
