MODEL 1
REMARK VINA RESULT:      -9.1      0.000      0.000
REMARK SMILES C[C@H]1[C@H](C(=O)OCCOCCOCCOCCOC(=O)c2ccc(-c3c4nc(c(-c5ccc(S(=O)(=O)[O-])cc5)c5ccc([nH]5)c(-c5ccc(S(=O)(=O)[O-])cc5)c5nc(c(-c6ccc(S(=O)(=O)[O-])cc6)c6ccc3[nH]6)C=C5)C=C4)cc2)CC[N@@H+]1Cc1ccc(C(F)(F)F)cc1
REMARK SMILES IDX 12 1 11 2 10 3 9 4 8 5 7 6 6 7 4 8 5 9 3 10 1 11 2 12 83 13
REMARK SMILES IDX 81 14 82 15 84 17 85 18 86 19 94 20 87 21 93 22 88 23 89 24
REMARK SMILES IDX 90 25 91 26 92 27 13 28 14 29 15 30 16 31 17 32 18 33 19 34
REMARK SMILES IDX 20 35 21 36 22 37 80 38 23 39 79 40 24 41 25 42 26 43 73 44
REMARK SMILES IDX 27 45 78 46 72 47 74 48 28 49 77 50 71 51 70 52 29 54 59 55
REMARK SMILES IDX 40 56 58 57 41 58 44 59 57 60 75 61 42 62 43 63 56 65 76 66
REMARK SMILES IDX 45 67 30 68 31 69 39 70 32 71 38 72 33 73 34 74 35 75 36 76
REMARK SMILES IDX 37 77 60 78 61 79 69 80 62 81 68 82 63 83 64 84 65 85 66 86
REMARK SMILES IDX 67 87 46 88 47 89 55 90 48 91 54 92 49 93 50 94 51 95 52 96
REMARK SMILES IDX 53 97
REMARK H PARENT 83 16 74 53 44 64
REMARK Flexibility Score: inf
ROOT
ATOM      1  O   UNL A   1      33.621  19.476  25.309  1.00  0.00    -0.377 OA
ENDROOT
BRANCH   1   2
ATOM      2  C   UNL A   1      32.510  20.036  24.662  1.00  0.00     0.188 C 
BRANCH   2   3
ATOM      3  C   UNL A   1      32.609  21.321  23.834  1.00  0.00     0.188 C 
BRANCH   3   4
ATOM      4  O   UNL A   1      31.762  22.425  24.097  1.00  0.00    -0.376 OA
BRANCH   4   5
ATOM      5  C   UNL A   1      31.494  23.449  23.158  1.00  0.00     0.202 C 
BRANCH   5   6
ATOM      6  C   UNL A   1      32.578  24.309  22.483  1.00  0.00     0.261 C 
BRANCH   6   7
ATOM      7  O   UNL A   1      32.131  25.375  21.628  1.00  0.00    -0.463 OA
BRANCH   7   8
ATOM      8  C   UNL A   1      32.500  26.627  21.973  1.00  0.00     0.315 C 
ATOM      9  O   UNL A   1      33.641  27.059  21.832  1.00  0.00    -0.252 OA
BRANCH   8  10
ATOM     10  C   UNL A   1      31.403  27.504  22.569  1.00  0.00     0.162 C 
ATOM     11  C   UNL A   1      29.085  27.094  23.504  1.00  0.00     0.076 C 
ATOM     12  C   UNL A   1      30.596  27.108  23.819  1.00  0.00     0.195 C 
ATOM     13  N   UNL A   1      30.790  28.152  24.830  1.00  0.00    -0.328 N 
ATOM     14  C   UNL A   1      31.993  28.868  22.897  1.00  0.00     0.083 C 
ATOM     15  C   UNL A   1      31.289  29.337  24.156  1.00  0.00     0.263 C 
ATOM     16  H   UNL A   1      29.893  28.395  25.250  1.00  0.00     0.348 HD
BRANCH  13  17
ATOM     17  C   UNL A   1      31.474  27.728  26.060  1.00  0.00     0.299 C 
BRANCH  17  18
ATOM     18  C   UNL A   1      32.410  26.540  25.974  1.00  0.00     0.006 A 
ATOM     19  C   UNL A   1      33.658  26.657  25.338  1.00  0.00     0.010 A 
ATOM     20  C   UNL A   1      32.046  25.295  26.498  1.00  0.00     0.010 A 
ATOM     21  C   UNL A   1      34.535  25.568  25.278  1.00  0.00     0.013 A 
ATOM     22  C   UNL A   1      32.930  24.216  26.466  1.00  0.00     0.013 A 
ATOM     23  C   UNL A   1      34.190  24.345  25.870  1.00  0.00     0.056 A 
BRANCH  23  24
ATOM     24  C   UNL A   1      35.169  23.194  25.875  1.00  0.00     0.416 C 
ATOM     25  F   UNL A   1      36.339  23.496  26.490  1.00  0.00    -0.166 F 
ATOM     26  F   UNL A   1      34.667  22.100  26.517  1.00  0.00    -0.166 F 
ATOM     27  F   UNL A   1      35.486  22.762  24.621  1.00  0.00    -0.166 F 
ENDBRANCH  23  24
ENDBRANCH  17  18
ENDBRANCH  13  17
ENDBRANCH   8  10
ENDBRANCH   7   8
ENDBRANCH   6   7
ENDBRANCH   5   6
ENDBRANCH   4   5
ENDBRANCH   3   4
ENDBRANCH   2   3
ENDBRANCH   1   2
BRANCH   1  28
ATOM     28  C   UNL A   1      34.207  18.398  24.616  1.00  0.00     0.188 C 
BRANCH  28  29
ATOM     29  C   UNL A   1      35.722  18.534  24.627  1.00  0.00     0.188 C 
BRANCH  29  30
ATOM     30  O   UNL A   1      36.233  19.800  25.000  1.00  0.00    -0.376 OA
BRANCH  30  31
ATOM     31  C   UNL A   1      37.557  20.224  24.702  1.00  0.00     0.202 C 
BRANCH  31  32
ATOM     32  C   UNL A   1      38.755  20.435  25.666  1.00  0.00     0.261 C 
BRANCH  32  33
ATOM     33  O   UNL A   1      39.203  21.749  25.993  1.00  0.00    -0.460 OA
BRANCH  33  34
ATOM     34  C   UNL A   1      40.517  21.904  26.226  1.00  0.00     0.338 C 
ATOM     35  O   UNL A   1      41.423  21.197  25.819  1.00  0.00    -0.246 OA
BRANCH  34  36
ATOM     36  C   UNL A   1      40.694  23.208  26.900  1.00  0.00     0.060 A 
ATOM     37  C   UNL A   1      40.206  24.353  26.259  1.00  0.00     0.016 A 
ATOM     38  C   UNL A   1      41.317  23.306  28.150  1.00  0.00     0.016 A 
ATOM     39  C   UNL A   1      40.395  25.605  26.832  1.00  0.00     0.010 A 
ATOM     40  C   UNL A   1      41.536  24.569  28.709  1.00  0.00     0.010 A 
ATOM     41  C   UNL A   1      41.122  25.724  28.022  1.00  0.00    -0.014 A 
BRANCH  41  42
ATOM     42  C   UNL A   1      41.674  27.055  28.366  1.00  0.00     0.031 A 
ATOM     43  C   UNL A   1      43.144  27.285  28.127  1.00  0.00     0.074 A 
ATOM     44  C   UNL A   1      40.882  28.061  28.777  1.00  0.00     0.049 A 
ATOM     45  N   UNL A   1      43.848  28.376  28.276  1.00  0.00    -0.248 NA
ATOM     46  C   UNL A   1      43.921  26.129  27.645  1.00  0.00     0.031 C 
ATOM     47  C   UNL A   1      39.438  27.972  28.984  1.00  0.00     0.029 A 
ATOM     48  N   UNL A   1      41.189  29.364  29.076  1.00  0.00    -0.354 N 
ATOM     49  C   UNL A   1      45.147  28.036  27.912  1.00  0.00     0.074 A 
ATOM     50  C   UNL A   1      45.143  26.632  27.572  1.00  0.00     0.031 C 
ATOM     51  C   UNL A   1      38.981  29.175  29.377  1.00  0.00     0.029 A 
ATOM     52  C   UNL A   1      40.104  30.108  29.471  1.00  0.00     0.049 A 
ATOM     53  H   UNL A   1      42.099  29.731  29.013  1.00  0.00     0.167 HD
ATOM     54  C   UNL A   1      46.245  28.826  27.854  1.00  0.00     0.031 A 
ATOM     55  C   UNL A   1      40.031  31.393  29.872  1.00  0.00     0.031 A 
ATOM     56  C   UNL A   1      46.248  30.219  28.208  1.00  0.00     0.049 A 
ATOM     57  C   UNL A   1      41.284  32.234  29.874  1.00  0.00     0.074 A 
ATOM     58  C   UNL A   1      47.305  31.110  28.183  1.00  0.00     0.029 A 
ATOM     59  N   UNL A   1      45.141  30.922  28.660  1.00  0.00    -0.354 N 
ATOM     60  N   UNL A   1      42.502  31.905  29.508  1.00  0.00    -0.248 NA
ATOM     61  C   UNL A   1      41.147  33.625  30.325  1.00  0.00     0.031 C 
ATOM     62  C   UNL A   1      46.852  32.336  28.683  1.00  0.00     0.029 A 
ATOM     63  C   UNL A   1      45.496  32.229  28.945  1.00  0.00     0.049 A 
ATOM     64  H   UNL A   1      44.236  30.547  28.763  1.00  0.00     0.167 HD
ATOM     65  C   UNL A   1      43.268  33.059  29.654  1.00  0.00     0.074 A 
ATOM     66  C   UNL A   1      42.370  34.095  30.124  1.00  0.00     0.031 C 
ATOM     67  C   UNL A   1      44.591  33.247  29.418  1.00  0.00     0.031 A 
BRANCH  54  68
ATOM     68  C   UNL A   1      47.541  28.183  27.433  1.00  0.00    -0.014 A 
ATOM     69  C   UNL A   1      47.855  27.984  26.075  1.00  0.00     0.010 A 
ATOM     70  C   UNL A   1      48.470  27.793  28.413  1.00  0.00     0.010 A 
ATOM     71  C   UNL A   1      49.058  27.373  25.710  1.00  0.00     0.020 A 
ATOM     72  C   UNL A   1      49.687  27.210  28.051  1.00  0.00     0.020 A 
ATOM     73  C   UNL A   1      49.967  26.989  26.701  1.00  0.00     0.054 A 
BRANCH  73  74
ATOM     74  S   UNL A   1      51.531  26.223  26.198  1.00  0.00     0.124 S 
ATOM     75  O   UNL A   1      51.320  24.829  26.576  1.00  0.00    -0.237 OA
ATOM     76  O   UNL A   1      51.567  26.485  24.761  1.00  0.00    -0.237 OA
ATOM     77  O   UNL A   1      52.536  26.935  26.983  1.00  0.00    -0.744 OA
ENDBRANCH  73  74
ENDBRANCH  54  68
BRANCH  55  78
ATOM     78  C   UNL A   1      38.729  31.965  30.316  1.00  0.00    -0.014 A 
ATOM     79  C   UNL A   1      38.388  32.024  31.678  1.00  0.00     0.010 A 
ATOM     80  C   UNL A   1      37.811  32.447  29.363  1.00  0.00     0.010 A 
ATOM     81  C   UNL A   1      37.148  32.532  32.078  1.00  0.00     0.020 A 
ATOM     82  C   UNL A   1      36.584  32.985  29.761  1.00  0.00     0.020 A 
ATOM     83  C   UNL A   1      36.256  33.014  31.116  1.00  0.00     0.054 A 
BRANCH  83  84
ATOM     84  S   UNL A   1      34.671  33.709  31.662  1.00  0.00     0.124 S 
ATOM     85  O   UNL A   1      34.025  32.552  32.274  1.00  0.00    -0.237 OA
ATOM     86  O   UNL A   1      35.090  34.762  32.584  1.00  0.00    -0.237 OA
ATOM     87  O   UNL A   1      34.060  34.183  30.423  1.00  0.00    -0.744 OA
ENDBRANCH  83  84
ENDBRANCH  55  78
BRANCH  67  88
ATOM     88  C   UNL A   1      45.141  34.637  29.618  1.00  0.00    -0.014 A 
ATOM     89  C   UNL A   1      45.681  35.047  30.851  1.00  0.00     0.010 A 
ATOM     90  C   UNL A   1      45.146  35.539  28.537  1.00  0.00     0.010 A 
ATOM     91  C   UNL A   1      46.163  36.349  31.014  1.00  0.00     0.020 A 
ATOM     92  C   UNL A   1      45.661  36.829  28.685  1.00  0.00     0.020 A 
ATOM     93  C   UNL A   1      46.146  37.233  29.930  1.00  0.00     0.054 A 
BRANCH  93  94
ATOM     94  S   UNL A   1      46.787  38.914  30.164  1.00  0.00     0.124 S 
ATOM     95  O   UNL A   1      47.149  39.293  28.801  1.00  0.00    -0.237 OA
ATOM     96  O   UNL A   1      45.638  39.618  30.729  1.00  0.00    -0.237 OA
ATOM     97  O   UNL A   1      47.911  38.732  31.079  1.00  0.00    -0.744 OA
ENDBRANCH  93  94
ENDBRANCH  67  88
ENDBRANCH  41  42
ENDBRANCH  34  36
ENDBRANCH  33  34
ENDBRANCH  32  33
ENDBRANCH  31  32
ENDBRANCH  30  31
ENDBRANCH  29  30
ENDBRANCH  28  29
ENDBRANCH   1  28
TORSDOF 26
ENDMDL
MODEL 2
REMARK VINA RESULT:      -9.0      1.702      2.531
REMARK SMILES C[C@H]1[C@H](C(=O)OCCOCCOCCOCCOC(=O)c2ccc(-c3c4nc(c(-c5ccc(S(=O)(=O)[O-])cc5)c5ccc([nH]5)c(-c5ccc(S(=O)(=O)[O-])cc5)c5nc(c(-c6ccc(S(=O)(=O)[O-])cc6)c6ccc3[nH]6)C=C5)C=C4)cc2)CC[N@@H+]1Cc1ccc(C(F)(F)F)cc1
REMARK SMILES IDX 12 1 11 2 10 3 9 4 8 5 7 6 6 7 4 8 5 9 3 10 1 11 2 12 83 13
REMARK SMILES IDX 81 14 82 15 84 17 85 18 86 19 94 20 87 21 93 22 88 23 89 24
REMARK SMILES IDX 90 25 91 26 92 27 13 28 14 29 15 30 16 31 17 32 18 33 19 34
REMARK SMILES IDX 20 35 21 36 22 37 80 38 23 39 79 40 24 41 25 42 26 43 73 44
REMARK SMILES IDX 27 45 78 46 72 47 74 48 28 49 77 50 71 51 70 52 29 54 59 55
REMARK SMILES IDX 40 56 58 57 41 58 44 59 57 60 75 61 42 62 43 63 56 65 76 66
REMARK SMILES IDX 45 67 30 68 31 69 39 70 32 71 38 72 33 73 34 74 35 75 36 76
REMARK SMILES IDX 37 77 60 78 61 79 69 80 62 81 68 82 63 83 64 84 65 85 66 86
REMARK SMILES IDX 67 87 46 88 47 89 55 90 48 91 54 92 49 93 50 94 51 95 52 96
REMARK SMILES IDX 53 97
REMARK H PARENT 83 16 74 53 44 64
REMARK Flexibility Score: inf
ROOT
ATOM      1  O   UNL A   1      33.648  20.338  25.799  1.00  0.00    -0.377 OA
ENDROOT
BRANCH   1   2
ATOM      2  C   UNL A   1      33.368  21.518  25.094  1.00  0.00     0.188 C 
BRANCH   2   3
ATOM      3  C   UNL A   1      34.065  22.844  25.412  1.00  0.00     0.188 C 
BRANCH   3   4
ATOM      4  O   UNL A   1      34.263  23.823  24.408  1.00  0.00    -0.376 OA
BRANCH   4   5
ATOM      5  C   UNL A   1      34.307  25.214  24.666  1.00  0.00     0.202 C 
BRANCH   5   6
ATOM      6  C   UNL A   1      33.748  25.875  25.939  1.00  0.00     0.261 C 
BRANCH   6   7
ATOM      7  O   UNL A   1      34.017  27.275  26.123  1.00  0.00    -0.463 OA
BRANCH   7   8
ATOM      8  C   UNL A   1      32.949  28.101  26.149  1.00  0.00     0.315 C 
ATOM      9  O   UNL A   1      32.224  28.240  27.131  1.00  0.00    -0.252 OA
BRANCH   8  10
ATOM     10  C   UNL A   1      32.673  28.873  24.862  1.00  0.00     0.162 C 
ATOM     11  C   UNL A   1      33.515  28.749  22.477  1.00  0.00     0.076 C 
ATOM     12  C   UNL A   1      32.497  28.191  23.493  1.00  0.00     0.195 C 
ATOM     13  N   UNL A   1      31.172  28.550  22.978  1.00  0.00    -0.328 N 
ATOM     14  C   UNL A   1      31.413  29.705  25.053  1.00  0.00     0.083 C 
ATOM     15  C   UNL A   1      30.712  29.718  23.707  1.00  0.00     0.263 C 
ATOM     16  H   UNL A   1      31.245  28.813  21.996  1.00  0.00     0.348 HD
BRANCH  13  17
ATOM     17  C   UNL A   1      30.229  27.434  22.813  1.00  0.00     0.299 C 
BRANCH  17  18
ATOM     18  C   UNL A   1      30.292  26.301  23.817  1.00  0.00     0.006 A 
ATOM     19  C   UNL A   1      29.918  26.508  25.155  1.00  0.00     0.010 A 
ATOM     20  C   UNL A   1      30.753  25.033  23.445  1.00  0.00     0.010 A 
ATOM     21  C   UNL A   1      29.953  25.459  26.079  1.00  0.00     0.013 A 
ATOM     22  C   UNL A   1      30.760  23.976  24.356  1.00  0.00     0.013 A 
ATOM     23  C   UNL A   1      30.345  24.173  25.679  1.00  0.00     0.056 A 
BRANCH  23  24
ATOM     24  C   UNL A   1      30.308  23.022  26.656  1.00  0.00     0.416 C 
ATOM     25  F   UNL A   1      31.407  22.962  27.447  1.00  0.00    -0.166 F 
ATOM     26  F   UNL A   1      29.234  23.100  27.494  1.00  0.00    -0.166 F 
ATOM     27  F   UNL A   1      30.200  21.809  26.043  1.00  0.00    -0.166 F 
ENDBRANCH  23  24
ENDBRANCH  17  18
ENDBRANCH  13  17
ENDBRANCH   8  10
ENDBRANCH   7   8
ENDBRANCH   6   7
ENDBRANCH   5   6
ENDBRANCH   4   5
ENDBRANCH   3   4
ENDBRANCH   2   3
ENDBRANCH   1   2
BRANCH   1  28
ATOM     28  C   UNL A   1      33.698  19.185  24.992  1.00  0.00     0.188 C 
BRANCH  28  29
ATOM     29  C   UNL A   1      35.078  19.047  24.366  1.00  0.00     0.188 C 
BRANCH  29  30
ATOM     30  O   UNL A   1      36.170  19.462  25.163  1.00  0.00    -0.376 OA
BRANCH  30  31
ATOM     31  C   UNL A   1      36.970  20.598  24.859  1.00  0.00     0.202 C 
BRANCH  31  32
ATOM     32  C   UNL A   1      37.332  21.807  25.762  1.00  0.00     0.261 C 
BRANCH  32  33
ATOM     33  O   UNL A   1      38.555  22.516  25.571  1.00  0.00    -0.460 OA
BRANCH  33  34
ATOM     34  C   UNL A   1      39.541  22.279  26.453  1.00  0.00     0.338 C 
ATOM     35  O   UNL A   1      40.186  21.251  26.573  1.00  0.00    -0.246 OA
BRANCH  34  36
ATOM     36  C   UNL A   1      39.850  23.559  27.123  1.00  0.00     0.060 A 
ATOM     37  C   UNL A   1      39.132  24.697  26.733  1.00  0.00     0.016 A 
ATOM     38  C   UNL A   1      40.819  23.643  28.129  1.00  0.00     0.016 A 
ATOM     39  C   UNL A   1      39.424  25.932  27.300  1.00  0.00     0.010 A 
ATOM     40  C   UNL A   1      41.135  24.891  28.675  1.00  0.00     0.010 A 
ATOM     41  C   UNL A   1      40.473  26.046  28.220  1.00  0.00    -0.014 A 
BRANCH  41  42
ATOM     42  C   UNL A   1      41.036  27.394  28.464  1.00  0.00     0.031 A 
ATOM     43  C   UNL A   1      42.402  27.693  27.903  1.00  0.00     0.074 A 
ATOM     44  C   UNL A   1      40.319  28.356  29.072  1.00  0.00     0.049 A 
ATOM     45  N   UNL A   1      43.078  28.811  27.917  1.00  0.00    -0.248 NA
ATOM     46  C   UNL A   1      43.094  26.581  27.226  1.00  0.00     0.031 C 
ATOM     47  C   UNL A   1      38.966  28.200  29.600  1.00  0.00     0.029 A 
ATOM     48  N   UNL A   1      40.635  29.666  29.328  1.00  0.00    -0.354 N 
ATOM     49  C   UNL A   1      44.272  28.536  27.258  1.00  0.00     0.074 A 
ATOM     50  C   UNL A   1      44.245  27.139  26.890  1.00  0.00     0.031 C 
ATOM     51  C   UNL A   1      38.564  29.375  30.119  1.00  0.00     0.029 A 
ATOM     52  C   UNL A   1      39.641  30.355  29.980  1.00  0.00     0.049 A 
ATOM     53  H   UNL A   1      41.492  30.075  29.069  1.00  0.00     0.167 HD
ATOM     54  C   UNL A   1      45.295  29.375  26.972  1.00  0.00     0.031 A 
ATOM     55  C   UNL A   1      39.611  31.629  30.420  1.00  0.00     0.031 A 
ATOM     56  C   UNL A   1      45.324  30.760  27.353  1.00  0.00     0.049 A 
ATOM     57  C   UNL A   1      40.797  32.524  30.159  1.00  0.00     0.074 A 
ATOM     58  C   UNL A   1      46.312  31.698  27.112  1.00  0.00     0.029 A 
ATOM     59  N   UNL A   1      44.323  31.406  28.065  1.00  0.00    -0.354 N 
ATOM     60  N   UNL A   1      41.911  32.256  29.517  1.00  0.00    -0.248 NA
ATOM     61  C   UNL A   1      40.713  33.900  30.667  1.00  0.00     0.031 C 
ATOM     62  C   UNL A   1      45.937  32.894  27.735  1.00  0.00     0.029 A 
ATOM     63  C   UNL A   1      44.682  32.723  28.296  1.00  0.00     0.049 A 
ATOM     64  H   UNL A   1      43.481  30.989  28.360  1.00  0.00     0.167 HD
ATOM     65  C   UNL A   1      42.644  33.440  29.516  1.00  0.00     0.074 A 
ATOM     66  C   UNL A   1      41.837  34.427  30.205  1.00  0.00     0.031 C 
ATOM     67  C   UNL A   1      43.870  33.691  28.990  1.00  0.00     0.031 A 
BRANCH  54  68
ATOM     68  C   UNL A   1      46.485  28.797  26.250  1.00  0.00    -0.014 A 
ATOM     69  C   UNL A   1      47.674  28.477  26.932  1.00  0.00     0.010 A 
ATOM     70  C   UNL A   1      46.401  28.549  24.869  1.00  0.00     0.010 A 
ATOM     71  C   UNL A   1      48.768  27.954  26.237  1.00  0.00     0.020 A 
ATOM     72  C   UNL A   1      47.482  27.997  24.177  1.00  0.00     0.020 A 
ATOM     73  C   UNL A   1      48.666  27.718  24.863  1.00  0.00     0.054 A 
BRANCH  73  74
ATOM     74  S   UNL A   1      50.092  27.014  23.992  1.00  0.00     0.124 S 
ATOM     75  O   UNL A   1      50.825  28.213  23.595  1.00  0.00    -0.237 OA
ATOM     76  O   UNL A   1      50.728  26.203  25.026  1.00  0.00    -0.237 OA
ATOM     77  O   UNL A   1      49.492  26.261  22.894  1.00  0.00    -0.744 OA
ENDBRANCH  73  74
ENDBRANCH  54  68
BRANCH  55  78
ATOM     78  C   UNL A   1      38.423  32.134  31.164  1.00  0.00    -0.014 A 
ATOM     79  C   UNL A   1      37.444  32.915  30.524  1.00  0.00     0.010 A 
ATOM     80  C   UNL A   1      38.273  31.842  32.533  1.00  0.00     0.010 A 
ATOM     81  C   UNL A   1      36.351  33.411  31.243  1.00  0.00     0.020 A 
ATOM     82  C   UNL A   1      37.167  32.309  33.247  1.00  0.00     0.020 A 
ATOM     83  C   UNL A   1      36.218  33.101  32.599  1.00  0.00     0.054 A 
BRANCH  83  84
ATOM     84  S   UNL A   1      34.770  33.719  33.501  1.00  0.00     0.124 S 
ATOM     85  O   UNL A   1      35.160  33.501  34.890  1.00  0.00    -0.237 OA
ATOM     86  O   UNL A   1      34.705  35.114  33.072  1.00  0.00    -0.237 OA
ATOM     87  O   UNL A   1      33.679  32.876  33.018  1.00  0.00    -0.744 OA
ENDBRANCH  83  84
ENDBRANCH  55  78
BRANCH  67  88
ATOM     88  C   UNL A   1      44.395  35.100  29.097  1.00  0.00    -0.014 A 
ATOM     89  C   UNL A   1      44.972  35.585  30.284  1.00  0.00     0.010 A 
ATOM     90  C   UNL A   1      44.339  35.945  27.971  1.00  0.00     0.010 A 
ATOM     91  C   UNL A   1      45.431  36.903  30.361  1.00  0.00     0.020 A 
ATOM     92  C   UNL A   1      44.831  37.251  28.032  1.00  0.00     0.020 A 
ATOM     93  C   UNL A   1      45.353  37.729  29.235  1.00  0.00     0.054 A 
BRANCH  93  94
ATOM     94  S   UNL A   1      45.965  39.432  29.357  1.00  0.00     0.124 S 
ATOM     95  O   UNL A   1      44.723  40.201  29.369  1.00  0.00    -0.237 OA
ATOM     96  O   UNL A   1      46.707  39.416  30.616  1.00  0.00    -0.237 OA
ATOM     97  O   UNL A   1      46.786  39.593  28.159  1.00  0.00    -0.744 OA
ENDBRANCH  93  94
ENDBRANCH  67  88
ENDBRANCH  41  42
ENDBRANCH  34  36
ENDBRANCH  33  34
ENDBRANCH  32  33
ENDBRANCH  31  32
ENDBRANCH  30  31
ENDBRANCH  29  30
ENDBRANCH  28  29
ENDBRANCH   1  28
TORSDOF 26
ENDMDL
MODEL 3
REMARK VINA RESULT:      -8.2      1.393      2.292
REMARK SMILES C[C@H]1[C@H](C(=O)OCCOCCOCCOCCOC(=O)c2ccc(-c3c4nc(c(-c5ccc(S(=O)(=O)[O-])cc5)c5ccc([nH]5)c(-c5ccc(S(=O)(=O)[O-])cc5)c5nc(c(-c6ccc(S(=O)(=O)[O-])cc6)c6ccc3[nH]6)C=C5)C=C4)cc2)CC[N@@H+]1Cc1ccc(C(F)(F)F)cc1
REMARK SMILES IDX 12 1 11 2 10 3 9 4 8 5 7 6 6 7 4 8 5 9 3 10 1 11 2 12 83 13
REMARK SMILES IDX 81 14 82 15 84 17 85 18 86 19 94 20 87 21 93 22 88 23 89 24
REMARK SMILES IDX 90 25 91 26 92 27 13 28 14 29 15 30 16 31 17 32 18 33 19 34
REMARK SMILES IDX 20 35 21 36 22 37 80 38 23 39 79 40 24 41 25 42 26 43 73 44
REMARK SMILES IDX 27 45 78 46 72 47 74 48 28 49 77 50 71 51 70 52 29 54 59 55
REMARK SMILES IDX 40 56 58 57 41 58 44 59 57 60 75 61 42 62 43 63 56 65 76 66
REMARK SMILES IDX 45 67 30 68 31 69 39 70 32 71 38 72 33 73 34 74 35 75 36 76
REMARK SMILES IDX 37 77 60 78 61 79 69 80 62 81 68 82 63 83 64 84 65 85 66 86
REMARK SMILES IDX 67 87 46 88 47 89 55 90 48 91 54 92 49 93 50 94 51 95 52 96
REMARK SMILES IDX 53 97
REMARK H PARENT 83 16 74 53 44 64
REMARK Flexibility Score: inf
ROOT
ATOM      1  O   UNL A   1      33.687  20.168  25.896  1.00  0.00    -0.377 OA
ENDROOT
BRANCH   1   2
ATOM      2  C   UNL A   1      33.344  21.476  25.525  1.00  0.00     0.188 C 
BRANCH   2   3
ATOM      3  C   UNL A   1      33.059  22.570  26.559  1.00  0.00     0.188 C 
BRANCH   3   4
ATOM      4  O   UNL A   1      33.265  23.937  26.251  1.00  0.00    -0.376 OA
BRANCH   4   5
ATOM      5  C   UNL A   1      32.301  24.947  26.481  1.00  0.00     0.202 C 
BRANCH   5   6
ATOM      6  C   UNL A   1      30.786  24.758  26.279  1.00  0.00     0.261 C 
BRANCH   6   7
ATOM      7  O   UNL A   1      29.997  25.945  26.090  1.00  0.00    -0.463 OA
BRANCH   7   8
ATOM      8  C   UNL A   1      29.945  26.447  24.838  1.00  0.00     0.315 C 
ATOM      9  O   UNL A   1      29.727  25.760  23.842  1.00  0.00    -0.252 OA
BRANCH   8  10
ATOM     10  C   UNL A   1      30.178  27.950  24.712  1.00  0.00     0.162 C 
ATOM     11  C   UNL A   1      31.602  29.654  25.928  1.00  0.00     0.076 C 
ATOM     12  C   UNL A   1      31.573  28.594  24.807  1.00  0.00     0.195 C 
ATOM     13  N   UNL A   1      31.821  29.319  23.558  1.00  0.00    -0.328 N 
ATOM     14  C   UNL A   1      29.617  28.420  23.377  1.00  0.00     0.083 C 
ATOM     15  C   UNL A   1      30.543  29.523  22.900  1.00  0.00     0.263 C 
ATOM     16  H   UNL A   1      32.207  30.240  23.765  1.00  0.00     0.348 HD
BRANCH  13  17
ATOM     17  C   UNL A   1      32.935  28.818  22.741  1.00  0.00     0.299 C 
BRANCH  17  18
ATOM     18  C   UNL A   1      33.035  27.322  22.522  1.00  0.00     0.006 A 
ATOM     19  C   UNL A   1      33.889  26.538  23.316  1.00  0.00     0.010 A 
ATOM     20  C   UNL A   1      32.304  26.691  21.510  1.00  0.00     0.010 A 
ATOM     21  C   UNL A   1      33.966  25.153  23.132  1.00  0.00     0.013 A 
ATOM     22  C   UNL A   1      32.355  25.306  21.344  1.00  0.00     0.013 A 
ATOM     23  C   UNL A   1      33.174  24.520  22.164  1.00  0.00     0.056 A 
BRANCH  23  24
ATOM     24  C   UNL A   1      33.197  23.017  22.019  1.00  0.00     0.416 C 
ATOM     25  F   UNL A   1      33.278  22.610  20.728  1.00  0.00    -0.166 F 
ATOM     26  F   UNL A   1      34.260  22.458  22.666  1.00  0.00    -0.166 F 
ATOM     27  F   UNL A   1      32.095  22.416  22.551  1.00  0.00    -0.166 F 
ENDBRANCH  23  24
ENDBRANCH  17  18
ENDBRANCH  13  17
ENDBRANCH   8  10
ENDBRANCH   7   8
ENDBRANCH   6   7
ENDBRANCH   5   6
ENDBRANCH   4   5
ENDBRANCH   3   4
ENDBRANCH   2   3
ENDBRANCH   1   2
BRANCH   1  28
ATOM     28  C   UNL A   1      33.871  19.292  24.808  1.00  0.00     0.188 C 
BRANCH  28  29
ATOM     29  C   UNL A   1      35.317  19.346  24.336  1.00  0.00     0.188 C 
BRANCH  29  30
ATOM     30  O   UNL A   1      36.257  19.859  25.260  1.00  0.00    -0.376 OA
BRANCH  30  31
ATOM     31  C   UNL A   1      37.176  20.897  24.943  1.00  0.00     0.202 C 
BRANCH  31  32
ATOM     32  C   UNL A   1      37.810  21.959  25.880  1.00  0.00     0.261 C 
BRANCH  32  33
ATOM     33  O   UNL A   1      39.000  22.647  25.499  1.00  0.00    -0.460 OA
BRANCH  33  34
ATOM     34  C   UNL A   1      40.069  22.505  26.301  1.00  0.00     0.338 C 
ATOM     35  O   UNL A   1      40.848  21.567  26.327  1.00  0.00    -0.246 OA
BRANCH  34  36
ATOM     36  C   UNL A   1      40.257  23.786  27.014  1.00  0.00     0.060 A 
ATOM     37  C   UNL A   1      39.688  24.938  26.459  1.00  0.00     0.016 A 
ATOM     38  C   UNL A   1      40.970  23.856  28.216  1.00  0.00     0.016 A 
ATOM     39  C   UNL A   1      39.882  26.173  27.067  1.00  0.00     0.010 A 
ATOM     40  C   UNL A   1      41.193  25.103  28.810  1.00  0.00     0.010 A 
ATOM     41  C   UNL A   1      40.694  26.270  28.204  1.00  0.00    -0.014 A 
BRANCH  41  42
ATOM     42  C   UNL A   1      41.230  27.603  28.560  1.00  0.00     0.031 A 
ATOM     43  C   UNL A   1      42.686  27.870  28.277  1.00  0.00     0.074 A 
ATOM     44  C   UNL A   1      40.432  28.582  29.022  1.00  0.00     0.049 A 
ATOM     45  N   UNL A   1      43.373  28.971  28.428  1.00  0.00    -0.248 NA
ATOM     46  C   UNL A   1      43.470  26.742  27.742  1.00  0.00     0.031 C 
ATOM     47  C   UNL A   1      38.998  28.459  29.276  1.00  0.00     0.029 A 
ATOM     48  N   UNL A   1      40.723  29.884  29.341  1.00  0.00    -0.354 N 
ATOM     49  C   UNL A   1      44.665  28.668  28.013  1.00  0.00     0.074 A 
ATOM     50  C   UNL A   1      44.678  27.272  27.640  1.00  0.00     0.031 C 
ATOM     51  C   UNL A   1      38.532  29.643  29.713  1.00  0.00     0.029 A 
ATOM     52  C   UNL A   1      39.638  30.597  29.791  1.00  0.00     0.049 A 
ATOM     53  H   UNL A   1      41.624  30.272  29.256  1.00  0.00     0.167 HD
ATOM     54  C   UNL A   1      45.745  29.481  27.937  1.00  0.00     0.031 A 
ATOM     55  C   UNL A   1      39.553  31.870  30.224  1.00  0.00     0.031 A 
ATOM     56  C   UNL A   1      45.731  30.865  28.323  1.00  0.00     0.049 A 
ATOM     57  C   UNL A   1      40.788  32.737  30.203  1.00  0.00     0.074 A 
ATOM     58  C   UNL A   1      46.769  31.779  28.284  1.00  0.00     0.029 A 
ATOM     59  N   UNL A   1      44.627  31.535  28.829  1.00  0.00    -0.354 N 
ATOM     60  N   UNL A   1      41.999  32.442  29.789  1.00  0.00    -0.248 NA
ATOM     61  C   UNL A   1      40.639  34.114  30.692  1.00  0.00     0.031 C 
ATOM     62  C   UNL A   1      46.309  32.983  28.828  1.00  0.00     0.029 A 
ATOM     63  C   UNL A   1      44.964  32.842  29.133  1.00  0.00     0.049 A 
ATOM     64  H   UNL A   1      43.734  31.138  28.953  1.00  0.00     0.167 HD
ATOM     65  C   UNL A   1      42.746  33.608  29.937  1.00  0.00     0.074 A 
ATOM     66  C   UNL A   1      41.844  34.614  30.461  1.00  0.00     0.031 C 
ATOM     67  C   UNL A   1      44.056  33.829  29.661  1.00  0.00     0.031 A 
BRANCH  54  68
ATOM     68  C   UNL A   1      47.038  28.875  27.457  1.00  0.00    -0.014 A 
ATOM     69  C   UNL A   1      48.112  28.643  28.337  1.00  0.00     0.010 A 
ATOM     70  C   UNL A   1      47.171  28.510  26.105  1.00  0.00     0.010 A 
ATOM     71  C   UNL A   1      49.306  28.091  27.865  1.00  0.00     0.020 A 
ATOM     72  C   UNL A   1      48.352  27.931  25.636  1.00  0.00     0.020 A 
ATOM     73  C   UNL A   1      49.419  27.739  26.516  1.00  0.00     0.054 A 
BRANCH  73  74
ATOM     74  S   UNL A   1      50.971  27.001  25.937  1.00  0.00     0.124 S 
ATOM     75  O   UNL A   1      50.514  25.727  25.388  1.00  0.00    -0.237 OA
ATOM     76  O   UNL A   1      51.440  27.975  24.956  1.00  0.00    -0.237 OA
ATOM     77  O   UNL A   1      51.781  26.901  27.148  1.00  0.00    -0.744 OA
ENDBRANCH  73  74
ENDBRANCH  54  68
BRANCH  55  78
ATOM     78  C   UNL A   1      38.255  32.404  30.725  1.00  0.00    -0.014 A 
ATOM     79  C   UNL A   1      37.397  33.133  29.883  1.00  0.00     0.010 A 
ATOM     80  C   UNL A   1      37.877  32.192  32.065  1.00  0.00     0.010 A 
ATOM     81  C   UNL A   1      36.197  33.657  30.376  1.00  0.00     0.020 A 
ATOM     82  C   UNL A   1      36.664  32.686  32.552  1.00  0.00     0.020 A 
ATOM     83  C   UNL A   1      35.837  33.426  31.707  1.00  0.00     0.054 A 
BRANCH  83  84
ATOM     84  S   UNL A   1      34.256  34.079  32.312  1.00  0.00     0.124 S 
ATOM     85  O   UNL A   1      34.690  35.149  33.204  1.00  0.00    -0.237 OA
ATOM     86  O   UNL A   1      33.600  34.509  31.079  1.00  0.00    -0.237 OA
ATOM     87  O   UNL A   1      33.639  32.929  32.969  1.00  0.00    -0.744 OA
ENDBRANCH  83  84
ENDBRANCH  55  78
BRANCH  67  88
ATOM     88  C   UNL A   1      44.584  35.226  29.875  1.00  0.00    -0.014 A 
ATOM     89  C   UNL A   1      45.132  35.627  31.107  1.00  0.00     0.010 A 
ATOM     90  C   UNL A   1      44.561  36.144  28.808  1.00  0.00     0.010 A 
ATOM     91  C   UNL A   1      45.594  36.934  31.284  1.00  0.00     0.020 A 
ATOM     92  C   UNL A   1      45.056  37.440  28.969  1.00  0.00     0.020 A 
ATOM     93  C   UNL A   1      45.548  37.834  30.214  1.00  0.00     0.054 A 
BRANCH  93  94
ATOM     94  S   UNL A   1      46.163  39.522  30.465  1.00  0.00     0.124 S 
ATOM     95  O   UNL A   1      47.047  39.354  31.616  1.00  0.00    -0.237 OA
ATOM     96  O   UNL A   1      46.829  39.811  29.198  1.00  0.00    -0.237 OA
ATOM     97  O   UNL A   1      44.952  40.298  30.718  1.00  0.00    -0.744 OA
ENDBRANCH  93  94
ENDBRANCH  67  88
ENDBRANCH  41  42
ENDBRANCH  34  36
ENDBRANCH  33  34
ENDBRANCH  32  33
ENDBRANCH  31  32
ENDBRANCH  30  31
ENDBRANCH  29  30
ENDBRANCH  28  29
ENDBRANCH   1  28
TORSDOF 26
ENDMDL
