MODEL 1
REMARK VINA RESULT:      -9.0      0.000      0.000
REMARK SMILES CC1(C)C(Nc2cc(C(=O)OCCOCCOCCOCCOC(=O)c3ccc(-c4c5nc(c(-c6ccc(S(=O)(=O)[O-])cc6)c6ccc([nH]6)c(-c6ccc(S(=O)(=O)[O-])cc6)c6nc(c(-c7ccc(S(=O)(=O)[O-])cc7)c7ccc4[nH]7)C=C6)C=C5)cc3)cc(Cl)n2)C1(C)C
REMARK SMILES IDX 18 1 17 2 16 3 15 4 14 5 13 6 12 7 11 8 9 9 10 10 8 11 6 12
REMARK SMILES IDX 7 13 89 14 87 15 86 16 88 17 5 18 4 20 1 21 2 22 3 23 90 24
REMARK SMILES IDX 91 25 92 26 19 27 20 28 21 29 22 30 23 31 24 32 25 33 26 34
REMARK SMILES IDX 27 35 85 36 28 37 84 38 29 39 30 40 31 41 78 42 32 43 83 44
REMARK SMILES IDX 77 45 79 46 33 47 82 48 76 49 75 50 34 52 64 53 45 54 63 55
REMARK SMILES IDX 46 56 49 57 62 58 80 59 47 60 48 61 61 63 81 64 50 65 35 66
REMARK SMILES IDX 36 67 44 68 37 69 43 70 38 71 39 72 40 73 41 74 42 75 65 76
REMARK SMILES IDX 66 77 74 78 67 79 73 80 68 81 69 82 70 83 71 84 72 85 51 86
REMARK SMILES IDX 52 87 60 88 53 89 59 90 54 91 55 92 56 93 57 94 58 95
REMARK H PARENT 5 19 79 51 49 62
REMARK Flexibility Score: inf
ROOT
ATOM      1  C   UNL A   1      33.726  28.063  26.364  1.00  0.00     0.188 C 
ENDROOT
BRANCH   1   2
ATOM      2  O   UNL A   1      34.404  27.093  25.564  1.00  0.00    -0.377 OA
BRANCH   2   3
ATOM      3  C   UNL A   1      33.739  25.892  25.216  1.00  0.00     0.188 C 
BRANCH   3   4
ATOM      4  C   UNL A   1      34.657  24.673  24.996  1.00  0.00     0.188 C 
BRANCH   4   5
ATOM      5  O   UNL A   1      35.145  24.108  26.200  1.00  0.00    -0.376 OA
BRANCH   5   6
ATOM      6  C   UNL A   1      34.581  22.918  26.720  1.00  0.00     0.202 C 
BRANCH   6   7
ATOM      7  C   UNL A   1      33.232  22.880  27.463  1.00  0.00     0.261 C 
BRANCH   7   8
ATOM      8  O   UNL A   1      32.139  22.221  26.818  1.00  0.00    -0.460 OA
BRANCH   8   9
ATOM      9  C   UNL A   1      30.998  22.914  26.616  1.00  0.00     0.338 C 
ATOM     10  O   UNL A   1      30.162  23.211  27.445  1.00  0.00    -0.246 OA
BRANCH   9  11
ATOM     11  C   UNL A   1      31.047  23.442  25.231  1.00  0.00     0.066 A 
ATOM     12  C   UNL A   1      30.396  25.100  23.631  1.00  0.00     0.128 A 
ATOM     13  C   UNL A   1      30.313  24.594  24.919  1.00  0.00     0.062 A 
ATOM     14  N   UNL A   1      31.142  24.511  22.679  1.00  0.00    -0.219 NA
ATOM     15  C   UNL A   1      31.875  23.434  23.028  1.00  0.00     0.132 A 
ATOM     16  C   UNL A   1      31.874  22.859  24.276  1.00  0.00     0.057 A 
ATOM     17  Cl  UNL A   1      32.869  22.823  21.772  1.00  0.00    -0.062 Cl
BRANCH  12  18
ATOM     18  N   UNL A   1      29.738  26.271  23.233  1.00  0.00    -0.366 N 
ATOM     19  H   UNL A   1      28.756  26.312  23.275  1.00  0.00     0.162 HD
BRANCH  18  20
ATOM     20  C   UNL A   1      30.494  27.439  22.754  1.00  0.00     0.093 C 
ATOM     21  C   UNL A   1      29.996  29.692  21.538  1.00  0.00     0.014 C 
ATOM     22  C   UNL A   1      29.826  28.820  22.769  1.00  0.00    -0.008 C 
ATOM     23  C   UNL A   1      28.463  29.001  23.403  1.00  0.00     0.014 C 
ATOM     24  C   UNL A   1      31.049  28.523  23.654  1.00  0.00    -0.008 C 
ATOM     25  C   UNL A   1      32.387  29.125  23.272  1.00  0.00     0.014 C 
ATOM     26  C   UNL A   1      30.908  28.378  25.151  1.00  0.00     0.014 C 
ENDBRANCH  18  20
ENDBRANCH  12  18
ENDBRANCH   9  11
ENDBRANCH   8   9
ENDBRANCH   7   8
ENDBRANCH   6   7
ENDBRANCH   5   6
ENDBRANCH   4   5
ENDBRANCH   3   4
ENDBRANCH   2   3
ENDBRANCH   1   2
BRANCH   1  27
ATOM     27  C   UNL A   1      34.219  29.524  26.523  1.00  0.00     0.188 C 
BRANCH  27  28
ATOM     28  O   UNL A   1      33.681  30.220  27.637  1.00  0.00    -0.376 OA
BRANCH  28  29
ATOM     29  C   UNL A   1      34.316  31.415  28.056  1.00  0.00     0.202 C 
BRANCH  29  30
ATOM     30  C   UNL A   1      35.646  31.256  28.801  1.00  0.00     0.261 C 
BRANCH  30  31
ATOM     31  O   UNL A   1      36.294  29.985  28.658  1.00  0.00    -0.460 OA
BRANCH  31  32
ATOM     32  C   UNL A   1      36.946  29.505  29.743  1.00  0.00     0.338 C 
ATOM     33  O   UNL A   1      36.485  29.304  30.846  1.00  0.00    -0.246 OA
BRANCH  32  34
ATOM     34  C   UNL A   1      38.291  29.086  29.296  1.00  0.00     0.060 A 
ATOM     35  C   UNL A   1      39.138  28.435  30.203  1.00  0.00     0.016 A 
ATOM     36  C   UNL A   1      38.703  29.323  27.983  1.00  0.00     0.016 A 
ATOM     37  C   UNL A   1      40.420  28.053  29.805  1.00  0.00     0.010 A 
ATOM     38  C   UNL A   1      39.991  28.955  27.593  1.00  0.00     0.010 A 
ATOM     39  C   UNL A   1      40.867  28.352  28.513  1.00  0.00    -0.014 A 
BRANCH  39  40
ATOM     40  C   UNL A   1      42.306  28.216  28.180  1.00  0.00     0.031 A 
ATOM     41  C   UNL A   1      43.205  29.400  28.406  1.00  0.00     0.074 A 
ATOM     42  C   UNL A   1      42.807  27.070  27.686  1.00  0.00     0.049 A 
ATOM     43  N   UNL A   1      44.480  29.536  28.149  1.00  0.00    -0.248 NA
ATOM     44  C   UNL A   1      42.576  30.594  28.995  1.00  0.00     0.031 C 
ATOM     45  C   UNL A   1      42.045  25.845  27.453  1.00  0.00     0.029 A 
ATOM     46  N   UNL A   1      44.081  26.762  27.279  1.00  0.00    -0.354 N 
ATOM     47  C   UNL A   1      44.801  30.835  28.524  1.00  0.00     0.074 A 
ATOM     48  C   UNL A   1      43.582  31.453  28.999  1.00  0.00     0.031 C 
ATOM     49  C   UNL A   1      42.865  24.919  26.927  1.00  0.00     0.029 A 
ATOM     50  C   UNL A   1      44.197  25.497  26.753  1.00  0.00     0.049 A 
ATOM     51  H   UNL A   1      44.838  27.385  27.357  1.00  0.00     0.167 HD
ATOM     52  C   UNL A   1      46.003  31.458  28.478  1.00  0.00     0.031 A 
ATOM     53  C   UNL A   1      45.249  24.888  26.170  1.00  0.00     0.031 A 
ATOM     54  C   UNL A   1      47.205  30.845  27.979  1.00  0.00     0.049 A 
ATOM     55  C   UNL A   1      46.564  25.616  26.069  1.00  0.00     0.074 A 
ATOM     56  C   UNL A   1      48.480  31.379  27.918  1.00  0.00     0.029 A 
ATOM     57  N   UNL A   1      47.278  29.572  27.436  1.00  0.00    -0.354 N 
ATOM     58  N   UNL A   1      46.868  26.827  26.471  1.00  0.00    -0.248 NA
ATOM     59  C   UNL A   1      47.680  24.889  25.448  1.00  0.00     0.031 C 
ATOM     60  C   UNL A   1      49.307  30.456  27.267  1.00  0.00     0.029 A 
ATOM     61  C   UNL A   1      48.567  29.316  26.998  1.00  0.00     0.049 A 
ATOM     62  H   UNL A   1      46.525  28.941  27.371  1.00  0.00     0.167 HD
ATOM     63  C   UNL A   1      48.217  27.001  26.172  1.00  0.00     0.074 A 
ATOM     64  C   UNL A   1      48.671  25.764  25.570  1.00  0.00     0.031 C 
ATOM     65  C   UNL A   1      49.006  28.084  26.384  1.00  0.00     0.031 A 
BRANCH  52  66
ATOM     66  C   UNL A   1      46.049  32.900  28.920  1.00  0.00    -0.014 A 
ATOM     67  C   UNL A   1      46.246  33.255  30.267  1.00  0.00     0.010 A 
ATOM     68  C   UNL A   1      45.880  33.919  27.963  1.00  0.00     0.010 A 
ATOM     69  C   UNL A   1      46.208  34.597  30.658  1.00  0.00     0.020 A 
ATOM     70  C   UNL A   1      45.877  35.263  28.345  1.00  0.00     0.020 A 
ATOM     71  C   UNL A   1      46.015  35.591  29.695  1.00  0.00     0.054 A 
BRANCH  71  72
ATOM     72  S   UNL A   1      45.950  37.323  30.230  1.00  0.00     0.124 S 
ATOM     73  O   UNL A   1      46.243  38.033  28.988  1.00  0.00    -0.237 OA
ATOM     74  O   UNL A   1      44.579  37.454  30.718  1.00  0.00    -0.237 OA
ATOM     75  O   UNL A   1      46.986  37.409  31.256  1.00  0.00    -0.744 OA
ENDBRANCH  71  72
ENDBRANCH  52  66
BRANCH  53  76
ATOM     76  C   UNL A   1      45.081  23.514  25.621  1.00  0.00    -0.014 A 
ATOM     77  C   UNL A   1      44.908  23.303  24.243  1.00  0.00     0.010 A 
ATOM     78  C   UNL A   1      45.151  22.401  26.480  1.00  0.00     0.010 A 
ATOM     79  C   UNL A   1      44.821  22.004  23.732  1.00  0.00     0.020 A 
ATOM     80  C   UNL A   1      45.093  21.101  25.970  1.00  0.00     0.020 A 
ATOM     81  C   UNL A   1      44.930  20.910  24.597  1.00  0.00     0.054 A 
BRANCH  81  82
ATOM     82  S   UNL A   1      44.929  19.236  23.896  1.00  0.00     0.124 S 
ATOM     83  O   UNL A   1      44.414  19.468  22.551  1.00  0.00    -0.237 OA
ATOM     84  O   UNL A   1      46.339  18.863  23.980  1.00  0.00    -0.237 OA
ATOM     85  O   UNL A   1      44.042  18.492  24.787  1.00  0.00    -0.744 OA
ENDBRANCH  81  82
ENDBRANCH  53  76
BRANCH  65  86
ATOM     86  C   UNL A   1      50.459  27.980  25.991  1.00  0.00    -0.014 A 
ATOM     87  C   UNL A   1      51.440  27.555  26.904  1.00  0.00     0.010 A 
ATOM     88  C   UNL A   1      50.837  28.252  24.662  1.00  0.00     0.010 A 
ATOM     89  C   UNL A   1      52.775  27.434  26.505  1.00  0.00     0.020 A 
ATOM     90  C   UNL A   1      52.163  28.101  24.250  1.00  0.00     0.020 A 
ATOM     91  C   UNL A   1      53.127  27.706  25.179  1.00  0.00     0.054 A 
BRANCH  91  92
ATOM     92  S   UNL A   1      54.857  27.500  24.674  1.00  0.00     0.124 S 
ATOM     93  O   UNL A   1      54.779  26.349  23.780  1.00  0.00    -0.237 OA
ATOM     94  O   UNL A   1      55.158  28.777  24.032  1.00  0.00    -0.237 OA
ATOM     95  O   UNL A   1      55.561  27.263  25.933  1.00  0.00    -0.744 OA
ENDBRANCH  91  92
ENDBRANCH  65  86
ENDBRANCH  39  40
ENDBRANCH  32  34
ENDBRANCH  31  32
ENDBRANCH  30  31
ENDBRANCH  29  30
ENDBRANCH  28  29
ENDBRANCH  27  28
ENDBRANCH   1  27
TORSDOF 25
ENDMDL
MODEL 2
REMARK VINA RESULT:      -9.0      2.753      8.871
REMARK SMILES CC1(C)C(Nc2cc(C(=O)OCCOCCOCCOCCOC(=O)c3ccc(-c4c5nc(c(-c6ccc(S(=O)(=O)[O-])cc6)c6ccc([nH]6)c(-c6ccc(S(=O)(=O)[O-])cc6)c6nc(c(-c7ccc(S(=O)(=O)[O-])cc7)c7ccc4[nH]7)C=C6)C=C5)cc3)cc(Cl)n2)C1(C)C
REMARK SMILES IDX 18 1 17 2 16 3 15 4 14 5 13 6 12 7 11 8 9 9 10 10 8 11 6 12
REMARK SMILES IDX 7 13 89 14 87 15 86 16 88 17 5 18 4 20 1 21 2 22 3 23 90 24
REMARK SMILES IDX 91 25 92 26 19 27 20 28 21 29 22 30 23 31 24 32 25 33 26 34
REMARK SMILES IDX 27 35 85 36 28 37 84 38 29 39 30 40 31 41 78 42 32 43 83 44
REMARK SMILES IDX 77 45 79 46 33 47 82 48 76 49 75 50 34 52 64 53 45 54 63 55
REMARK SMILES IDX 46 56 49 57 62 58 80 59 47 60 48 61 61 63 81 64 50 65 35 66
REMARK SMILES IDX 36 67 44 68 37 69 43 70 38 71 39 72 40 73 41 74 42 75 65 76
REMARK SMILES IDX 66 77 74 78 67 79 73 80 68 81 69 82 70 83 71 84 72 85 51 86
REMARK SMILES IDX 52 87 60 88 53 89 59 90 54 91 55 92 56 93 57 94 58 95
REMARK H PARENT 5 19 79 51 49 62
REMARK Flexibility Score: inf
ROOT
ATOM      1  C   UNL A   1      32.258  29.169  26.162  1.00  0.00     0.188 C 
ENDROOT
BRANCH   1   2
ATOM      2  O   UNL A   1      32.149  29.025  24.745  1.00  0.00    -0.377 OA
BRANCH   2   3
ATOM      3  C   UNL A   1      33.305  28.714  23.988  1.00  0.00     0.188 C 
BRANCH   3   4
ATOM      4  C   UNL A   1      33.102  28.687  22.459  1.00  0.00     0.188 C 
BRANCH   4   5
ATOM      5  O   UNL A   1      32.468  27.510  21.994  1.00  0.00    -0.376 OA
BRANCH   5   6
ATOM      6  C   UNL A   1      33.036  26.237  22.242  1.00  0.00     0.202 C 
BRANCH   6   7
ATOM      7  C   UNL A   1      33.000  25.086  21.219  1.00  0.00     0.261 C 
BRANCH   7   8
ATOM      8  O   UNL A   1      33.239  23.762  21.704  1.00  0.00    -0.460 OA
BRANCH   8   9
ATOM      9  C   UNL A   1      32.597  23.359  22.820  1.00  0.00     0.338 C 
ATOM     10  O   UNL A   1      31.405  23.419  23.045  1.00  0.00    -0.246 OA
BRANCH   9  11
ATOM     11  C   UNL A   1      33.582  22.625  23.651  1.00  0.00     0.066 A 
ATOM     12  C   UNL A   1      34.186  20.667  24.889  1.00  0.00     0.128 A 
ATOM     13  C   UNL A   1      33.242  21.359  24.146  1.00  0.00     0.062 A 
ATOM     14  N   UNL A   1      35.400  21.179  25.158  1.00  0.00    -0.219 NA
ATOM     15  C   UNL A   1      35.711  22.378  24.623  1.00  0.00     0.132 A 
ATOM     16  C   UNL A   1      34.857  23.141  23.865  1.00  0.00     0.057 A 
ATOM     17  Cl  UNL A   1      37.316  22.892  24.939  1.00  0.00    -0.062 Cl
BRANCH  12  18
ATOM     18  N   UNL A   1      33.959  19.378  25.388  1.00  0.00    -0.366 N 
ATOM     19  H   UNL A   1      33.454  19.264  26.225  1.00  0.00     0.162 HD
BRANCH  18  20
ATOM     20  C   UNL A   1      34.465  18.191  24.679  1.00  0.00     0.093 C 
ATOM     21  C   UNL A   1      34.879  15.668  25.194  1.00  0.00     0.014 C 
ATOM     22  C   UNL A   1      33.894  16.811  25.029  1.00  0.00    -0.008 C 
ATOM     23  C   UNL A   1      32.725  16.688  25.984  1.00  0.00     0.014 C 
ATOM     24  C   UNL A   1      33.682  17.424  23.634  1.00  0.00    -0.008 C 
ATOM     25  C   UNL A   1      34.459  16.856  22.463  1.00  0.00     0.014 C 
ATOM     26  C   UNL A   1      32.326  17.938  23.209  1.00  0.00     0.014 C 
ENDBRANCH  18  20
ENDBRANCH  12  18
ENDBRANCH   9  11
ENDBRANCH   8   9
ENDBRANCH   7   8
ENDBRANCH   6   7
ENDBRANCH   5   6
ENDBRANCH   4   5
ENDBRANCH   3   4
ENDBRANCH   2   3
ENDBRANCH   1   2
BRANCH   1  27
ATOM     27  C   UNL A   1      32.401  30.544  26.864  1.00  0.00     0.188 C 
BRANCH  27  28
ATOM     28  O   UNL A   1      33.346  30.581  27.922  1.00  0.00    -0.376 OA
BRANCH  28  29
ATOM     29  C   UNL A   1      34.387  31.539  27.864  1.00  0.00     0.202 C 
BRANCH  29  30
ATOM     30  C   UNL A   1      35.800  31.031  28.176  1.00  0.00     0.261 C 
BRANCH  30  31
ATOM     31  O   UNL A   1      36.221  31.153  29.540  1.00  0.00    -0.460 OA
BRANCH  31  32
ATOM     32  C   UNL A   1      36.779  30.059  30.109  1.00  0.00     0.338 C 
ATOM     33  O   UNL A   1      36.215  29.200  30.753  1.00  0.00    -0.246 OA
BRANCH  32  34
ATOM     34  C   UNL A   1      38.181  29.991  29.646  1.00  0.00     0.060 A 
ATOM     35  C   UNL A   1      38.446  29.553  28.341  1.00  0.00     0.016 A 
ATOM     36  C   UNL A   1      39.223  30.374  30.493  1.00  0.00     0.016 A 
ATOM     37  C   UNL A   1      39.764  29.459  27.894  1.00  0.00     0.010 A 
ATOM     38  C   UNL A   1      40.541  30.263  30.049  1.00  0.00     0.010 A 
ATOM     39  C   UNL A   1      40.819  29.771  28.761  1.00  0.00    -0.014 A 
BRANCH  39  40
ATOM     40  C   UNL A   1      42.207  29.400  28.398  1.00  0.00     0.031 A 
ATOM     41  C   UNL A   1      42.485  27.976  28.004  1.00  0.00     0.074 A 
ATOM     42  C   UNL A   1      43.203  30.303  28.417  1.00  0.00     0.049 A 
ATOM     43  N   UNL A   1      43.620  27.405  27.692  1.00  0.00    -0.248 NA
ATOM     44  C   UNL A   1      41.324  27.072  27.966  1.00  0.00     0.031 C 
ATOM     45  C   UNL A   1      43.055  31.719  28.748  1.00  0.00     0.029 A 
ATOM     46  N   UNL A   1      44.543  30.152  28.161  1.00  0.00    -0.354 N 
ATOM     47  C   UNL A   1      43.313  26.073  27.442  1.00  0.00     0.074 A 
ATOM     48  C   UNL A   1      41.893  25.915  27.666  1.00  0.00     0.031 C 
ATOM     49  C   UNL A   1      44.263  32.305  28.693  1.00  0.00     0.029 A 
ATOM     50  C   UNL A   1      45.272  31.300  28.359  1.00  0.00     0.049 A 
ATOM     51  H   UNL A   1      44.943  29.303  27.865  1.00  0.00     0.167 HD
ATOM     52  C   UNL A   1      44.140  25.071  27.059  1.00  0.00     0.031 A 
ATOM     53  C   UNL A   1      46.603  31.509  28.304  1.00  0.00     0.031 A 
ATOM     54  C   UNL A   1      45.557  25.230  26.865  1.00  0.00     0.049 A 
ATOM     55  C   UNL A   1      47.517  30.369  27.938  1.00  0.00     0.074 A 
ATOM     56  C   UNL A   1      46.478  24.286  26.448  1.00  0.00     0.029 A 
ATOM     57  N   UNL A   1      46.261  26.403  27.094  1.00  0.00    -0.354 N 
ATOM     58  N   UNL A   1      47.211  29.125  27.657  1.00  0.00    -0.248 NA
ATOM     59  C   UNL A   1      48.955  30.666  27.870  1.00  0.00     0.031 C 
ATOM     60  C   UNL A   1      47.750  24.868  26.500  1.00  0.00     0.029 A 
ATOM     61  C   UNL A   1      47.612  26.197  26.868  1.00  0.00     0.049 A 
ATOM     62  H   UNL A   1      45.860  27.257  27.376  1.00  0.00     0.167 HD
ATOM     63  C   UNL A   1      48.415  28.494  27.355  1.00  0.00     0.074 A 
ATOM     64  C   UNL A   1      49.452  29.500  27.476  1.00  0.00     0.031 C 
ATOM     65  C   UNL A   1      48.639  27.202  27.006  1.00  0.00     0.031 A 
BRANCH  52  66
ATOM     66  C   UNL A   1      43.532  23.701  26.896  1.00  0.00    -0.014 A 
ATOM     67  C   UNL A   1      43.161  22.918  28.005  1.00  0.00     0.010 A 
ATOM     68  C   UNL A   1      43.338  23.183  25.601  1.00  0.00     0.010 A 
ATOM     69  C   UNL A   1      42.670  21.621  27.824  1.00  0.00     0.020 A 
ATOM     70  C   UNL A   1      42.814  21.901  25.415  1.00  0.00     0.020 A 
ATOM     71  C   UNL A   1      42.508  21.119  26.530  1.00  0.00     0.054 A 
BRANCH  71  72
ATOM     72  S   UNL A   1      41.889  19.427  26.323  1.00  0.00     0.124 S 
ATOM     73  O   UNL A   1      42.583  18.999  25.110  1.00  0.00    -0.237 OA
ATOM     74  O   UNL A   1      42.323  18.775  27.556  1.00  0.00    -0.237 OA
ATOM     75  O   UNL A   1      40.445  19.599  26.185  1.00  0.00    -0.744 OA
ENDBRANCH  71  72
ENDBRANCH  52  66
BRANCH  53  76
ATOM     76  C   UNL A   1      47.141  32.859  28.628  1.00  0.00    -0.014 A 
ATOM     77  C   UNL A   1      47.454  33.215  29.951  1.00  0.00     0.010 A 
ATOM     78  C   UNL A   1      47.395  33.780  27.594  1.00  0.00     0.010 A 
ATOM     79  C   UNL A   1      48.024  34.460  30.233  1.00  0.00     0.020 A 
ATOM     80  C   UNL A   1      47.991  35.015  27.869  1.00  0.00     0.020 A 
ATOM     81  C   UNL A   1      48.303  35.347  29.188  1.00  0.00     0.054 A 
BRANCH  81  82
ATOM     82  S   UNL A   1      49.146  36.908  29.566  1.00  0.00     0.124 S 
ATOM     83  O   UNL A   1      50.348  36.814  28.743  1.00  0.00    -0.237 OA
ATOM     84  O   UNL A   1      48.164  37.903  29.143  1.00  0.00    -0.237 OA
ATOM     85  O   UNL A   1      49.367  36.838  31.008  1.00  0.00    -0.744 OA
ENDBRANCH  81  82
ENDBRANCH  53  76
BRANCH  65  86
ATOM     86  C   UNL A   1      50.058  26.797  26.695  1.00  0.00    -0.014 A 
ATOM     87  C   UNL A   1      50.883  26.201  27.665  1.00  0.00     0.010 A 
ATOM     88  C   UNL A   1      50.552  26.958  25.385  1.00  0.00     0.010 A 
ATOM     89  C   UNL A   1      52.184  25.802  27.341  1.00  0.00     0.020 A 
ATOM     90  C   UNL A   1      51.839  26.532  25.049  1.00  0.00     0.020 A 
ATOM     91  C   UNL A   1      52.653  25.969  26.033  1.00  0.00     0.054 A 
BRANCH  91  92
ATOM     92  S   UNL A   1      54.328  25.405  25.627  1.00  0.00     0.124 S 
ATOM     93  O   UNL A   1      55.039  26.667  25.443  1.00  0.00    -0.237 OA
ATOM     94  O   UNL A   1      54.704  24.639  26.814  1.00  0.00    -0.237 OA
ATOM     95  O   UNL A   1      54.144  24.611  24.414  1.00  0.00    -0.744 OA
ENDBRANCH  91  92
ENDBRANCH  65  86
ENDBRANCH  39  40
ENDBRANCH  32  34
ENDBRANCH  31  32
ENDBRANCH  30  31
ENDBRANCH  29  30
ENDBRANCH  28  29
ENDBRANCH  27  28
ENDBRANCH   1  27
TORSDOF 25
ENDMDL
MODEL 3
REMARK VINA RESULT:      -8.8      2.406      4.160
REMARK SMILES CC1(C)C(Nc2cc(C(=O)OCCOCCOCCOCCOC(=O)c3ccc(-c4c5nc(c(-c6ccc(S(=O)(=O)[O-])cc6)c6ccc([nH]6)c(-c6ccc(S(=O)(=O)[O-])cc6)c6nc(c(-c7ccc(S(=O)(=O)[O-])cc7)c7ccc4[nH]7)C=C6)C=C5)cc3)cc(Cl)n2)C1(C)C
REMARK SMILES IDX 18 1 17 2 16 3 15 4 14 5 13 6 12 7 11 8 9 9 10 10 8 11 6 12
REMARK SMILES IDX 7 13 89 14 87 15 86 16 88 17 5 18 4 20 1 21 2 22 3 23 90 24
REMARK SMILES IDX 91 25 92 26 19 27 20 28 21 29 22 30 23 31 24 32 25 33 26 34
REMARK SMILES IDX 27 35 85 36 28 37 84 38 29 39 30 40 31 41 78 42 32 43 83 44
REMARK SMILES IDX 77 45 79 46 33 47 82 48 76 49 75 50 34 52 64 53 45 54 63 55
REMARK SMILES IDX 46 56 49 57 62 58 80 59 47 60 48 61 61 63 81 64 50 65 35 66
REMARK SMILES IDX 36 67 44 68 37 69 43 70 38 71 39 72 40 73 41 74 42 75 65 76
REMARK SMILES IDX 66 77 74 78 67 79 73 80 68 81 69 82 70 83 71 84 72 85 51 86
REMARK SMILES IDX 52 87 60 88 53 89 59 90 54 91 55 92 56 93 57 94 58 95
REMARK H PARENT 5 19 79 51 49 62
REMARK Flexibility Score: inf
ROOT
ATOM      1  C   UNL A   1      33.697  30.266  27.401  1.00  0.00     0.188 C 
ENDROOT
BRANCH   1   2
ATOM      2  O   UNL A   1      34.608  29.367  26.767  1.00  0.00    -0.377 OA
BRANCH   2   3
ATOM      3  C   UNL A   1      34.134  28.496  25.755  1.00  0.00     0.188 C 
BRANCH   3   4
ATOM      4  C   UNL A   1      32.685  28.752  25.295  1.00  0.00     0.188 C 
BRANCH   4   5
ATOM      5  O   UNL A   1      32.597  29.427  24.054  1.00  0.00    -0.376 OA
BRANCH   5   6
ATOM      6  C   UNL A   1      32.846  28.742  22.839  1.00  0.00     0.202 C 
BRANCH   6   7
ATOM      7  C   UNL A   1      33.048  27.217  22.759  1.00  0.00     0.261 C 
BRANCH   7   8
ATOM      8  O   UNL A   1      32.333  26.507  21.744  1.00  0.00    -0.460 OA
BRANCH   8   9
ATOM      9  C   UNL A   1      32.564  25.185  21.599  1.00  0.00     0.338 C 
ATOM     10  O   UNL A   1      33.263  24.649  20.764  1.00  0.00    -0.246 OA
BRANCH   9  11
ATOM     11  C   UNL A   1      31.980  24.506  22.781  1.00  0.00     0.066 A 
ATOM     12  C   UNL A   1      31.725  22.532  24.110  1.00  0.00     0.128 A 
ATOM     13  C   UNL A   1      32.245  23.145  22.981  1.00  0.00     0.062 A 
ATOM     14  N   UNL A   1      30.967  23.197  25.001  1.00  0.00    -0.219 NA
ATOM     15  C   UNL A   1      30.775  24.517  24.803  1.00  0.00     0.132 A 
ATOM     16  C   UNL A   1      31.253  25.224  23.726  1.00  0.00     0.057 A 
ATOM     17  Cl  UNL A   1      29.885  25.291  26.047  1.00  0.00    -0.062 Cl
BRANCH  12  18
ATOM     18  N   UNL A   1      31.971  21.189  24.422  1.00  0.00    -0.366 N 
ATOM     19  H   UNL A   1      31.222  20.608  24.689  1.00  0.00     0.162 HD
BRANCH  18  20
ATOM     20  C   UNL A   1      33.332  20.633  24.359  1.00  0.00     0.093 C 
ATOM     21  C   UNL A   1      35.687  21.181  25.336  1.00  0.00     0.014 C 
ATOM     22  C   UNL A   1      34.250  20.759  25.582  1.00  0.00    -0.008 C 
ATOM     23  C   UNL A   1      33.715  21.319  26.883  1.00  0.00     0.014 C 
ATOM     24  C   UNL A   1      33.777  19.381  25.088  1.00  0.00    -0.008 C 
ATOM     25  C   UNL A   1      34.769  18.482  24.380  1.00  0.00     0.014 C 
ATOM     26  C   UNL A   1      32.757  18.585  25.868  1.00  0.00     0.014 C 
ENDBRANCH  18  20
ENDBRANCH  12  18
ENDBRANCH   9  11
ENDBRANCH   8   9
ENDBRANCH   7   8
ENDBRANCH   6   7
ENDBRANCH   5   6
ENDBRANCH   4   5
ENDBRANCH   3   4
ENDBRANCH   2   3
ENDBRANCH   1   2
BRANCH   1  27
ATOM     27  C   UNL A   1      34.057  31.735  27.743  1.00  0.00     0.188 C 
BRANCH  27  28
ATOM     28  O   UNL A   1      33.965  32.070  29.119  1.00  0.00    -0.376 OA
BRANCH  28  29
ATOM     29  C   UNL A   1      34.434  33.338  29.538  1.00  0.00     0.202 C 
BRANCH  29  30
ATOM     30  C   UNL A   1      35.515  33.341  30.626  1.00  0.00     0.261 C 
BRANCH  30  31
ATOM     31  O   UNL A   1      36.592  32.414  30.439  1.00  0.00    -0.460 OA
BRANCH  31  32
ATOM     32  C   UNL A   1      37.529  32.360  31.415  1.00  0.00     0.338 C 
ATOM     33  O   UNL A   1      37.424  32.761  32.554  1.00  0.00    -0.246 OA
BRANCH  32  34
ATOM     34  C   UNL A   1      38.651  31.547  30.900  1.00  0.00     0.060 A 
ATOM     35  C   UNL A   1      39.588  31.030  31.804  1.00  0.00     0.016 A 
ATOM     36  C   UNL A   1      38.764  31.287  29.533  1.00  0.00     0.016 A 
ATOM     37  C   UNL A   1      40.667  30.280  31.335  1.00  0.00     0.010 A 
ATOM     38  C   UNL A   1      39.853  30.551  29.064  1.00  0.00     0.010 A 
ATOM     39  C   UNL A   1      40.828  30.076  29.959  1.00  0.00    -0.014 A 
BRANCH  39  40
ATOM     40  C   UNL A   1      42.108  29.540  29.437  1.00  0.00     0.031 A 
ATOM     41  C   UNL A   1      43.280  30.475  29.328  1.00  0.00     0.074 A 
ATOM     42  C   UNL A   1      42.231  28.254  29.066  1.00  0.00     0.049 A 
ATOM     43  N   UNL A   1      44.481  30.252  28.861  1.00  0.00    -0.248 NA
ATOM     44  C   UNL A   1      43.063  31.851  29.804  1.00  0.00     0.031 C 
ATOM     45  C   UNL A   1      41.180  27.243  29.154  1.00  0.00     0.029 A 
ATOM     46  N   UNL A   1      43.301  27.586  28.525  1.00  0.00    -0.354 N 
ATOM     47  C   UNL A   1      45.156  31.462  28.967  1.00  0.00     0.074 A 
ATOM     48  C   UNL A   1      44.222  32.421  29.515  1.00  0.00     0.031 C 
ATOM     49  C   UNL A   1      41.652  26.083  28.666  1.00  0.00     0.029 A 
ATOM     50  C   UNL A   1      43.024  26.279  28.199  1.00  0.00     0.049 A 
ATOM     51  H   UNL A   1      44.182  28.001  28.384  1.00  0.00     0.167 HD
ATOM     52  C   UNL A   1      46.438  31.749  28.637  1.00  0.00     0.031 A 
ATOM     53  C   UNL A   1      43.780  25.357  27.570  1.00  0.00     0.031 A 
ATOM     54  C   UNL A   1      47.352  30.796  28.067  1.00  0.00     0.049 A 
ATOM     55  C   UNL A   1      45.184  25.710  27.153  1.00  0.00     0.074 A 
ATOM     56  C   UNL A   1      48.680  30.978  27.726  1.00  0.00     0.029 A 
ATOM     57  N   UNL A   1      47.028  29.490  27.733  1.00  0.00    -0.354 N 
ATOM     58  N   UNL A   1      45.827  26.844  27.301  1.00  0.00    -0.248 NA
ATOM     59  C   UNL A   1      45.967  24.655  26.495  1.00  0.00     0.031 C 
ATOM     60  C   UNL A   1      49.137  29.804  27.116  1.00  0.00     0.029 A 
ATOM     61  C   UNL A   1      48.119  28.864  27.152  1.00  0.00     0.049 A 
ATOM     62  H   UNL A   1      46.152  29.068  27.887  1.00  0.00     0.167 HD
ATOM     63  C   UNL A   1      47.099  26.632  26.776  1.00  0.00     0.074 A 
ATOM     64  C   UNL A   1      47.137  25.257  26.320  1.00  0.00     0.031 C 
ATOM     65  C   UNL A   1      48.141  27.498  26.687  1.00  0.00     0.031 A 
BRANCH  52  66
ATOM     66  C   UNL A   1      46.895  33.174  28.826  1.00  0.00    -0.014 A 
ATOM     67  C   UNL A   1      46.762  34.136  27.808  1.00  0.00     0.010 A 
ATOM     68  C   UNL A   1      47.480  33.553  30.049  1.00  0.00     0.010 A 
ATOM     69  C   UNL A   1      47.264  35.429  27.985  1.00  0.00     0.020 A 
ATOM     70  C   UNL A   1      47.951  34.854  30.243  1.00  0.00     0.020 A 
ATOM     71  C   UNL A   1      47.863  35.776  29.199  1.00  0.00     0.054 A 
BRANCH  71  72
ATOM     72  S   UNL A   1      48.524  37.454  29.396  1.00  0.00     0.124 S 
ATOM     73  O   UNL A   1      49.071  37.719  28.068  1.00  0.00    -0.237 OA
ATOM     74  O   UNL A   1      47.335  38.226  29.750  1.00  0.00    -0.237 OA
ATOM     75  O   UNL A   1      49.513  37.315  30.461  1.00  0.00    -0.744 OA
ENDBRANCH  71  72
ENDBRANCH  52  66
BRANCH  53  76
ATOM     76  C   UNL A   1      43.202  24.016  27.283  1.00  0.00    -0.014 A 
ATOM     77  C   UNL A   1      43.055  23.059  28.301  1.00  0.00     0.010 A 
ATOM     78  C   UNL A   1      42.740  23.712  25.988  1.00  0.00     0.010 A 
ATOM     79  C   UNL A   1      42.446  21.828  28.033  1.00  0.00     0.020 A 
ATOM     80  C   UNL A   1      42.106  22.495  25.722  1.00  0.00     0.020 A 
ATOM     81  C   UNL A   1      41.961  21.561  26.748  1.00  0.00     0.054 A 
BRANCH  81  82
ATOM     82  S   UNL A   1      41.074  20.005  26.454  1.00  0.00     0.124 S 
ATOM     83  O   UNL A   1      41.052  19.409  27.786  1.00  0.00    -0.237 OA
ATOM     84  O   UNL A   1      39.786  20.472  25.947  1.00  0.00    -0.237 OA
ATOM     85  O   UNL A   1      41.907  19.315  25.473  1.00  0.00    -0.744 OA
ENDBRANCH  81  82
ENDBRANCH  53  76
BRANCH  65  86
ATOM     86  C   UNL A   1      49.431  26.982  26.099  1.00  0.00    -0.014 A 
ATOM     87  C   UNL A   1      49.756  27.182  24.746  1.00  0.00     0.010 A 
ATOM     88  C   UNL A   1      50.364  26.339  26.936  1.00  0.00     0.010 A 
ATOM     89  C   UNL A   1      50.974  26.724  24.234  1.00  0.00     0.020 A 
ATOM     90  C   UNL A   1      51.596  25.909  26.436  1.00  0.00     0.020 A 
ATOM     91  C   UNL A   1      51.887  26.092  25.084  1.00  0.00     0.054 A 
BRANCH  91  92
ATOM     92  S   UNL A   1      53.478  25.545  24.405  1.00  0.00     0.124 S 
ATOM     93  O   UNL A   1      53.443  24.109  24.667  1.00  0.00    -0.237 OA
ATOM     94  O   UNL A   1      53.376  25.931  23.000  1.00  0.00    -0.237 OA
ATOM     95  O   UNL A   1      54.464  26.295  25.181  1.00  0.00    -0.744 OA
ENDBRANCH  91  92
ENDBRANCH  65  86
ENDBRANCH  39  40
ENDBRANCH  32  34
ENDBRANCH  31  32
ENDBRANCH  30  31
ENDBRANCH  29  30
ENDBRANCH  28  29
ENDBRANCH  27  28
ENDBRANCH   1  27
TORSDOF 25
ENDMDL
