MODEL 1
REMARK VINA RESULT:      -9.6      0.000      0.000
REMARK SMILES O=C(OCCOCCOCCOCCOC(=O)c1ccc(-c2c3nc(c(-c4ccc(S(=O)(=O)[O-])cc4)c4ccc([nH]4)c(-c4ccc(S(=O)(=O)[O-])cc4)c4nc(c(-c5ccc(S(=O)(=O)[O-])cc5)c5ccc2[nH]5)C=C4)C=C3)cc1)C1=Cc2cc(Cl)cc(-c3ccc(O)cc3)c2O[C@@H]1C(F)(F)F
REMARK SMILES IDX 10 1 9 2 8 3 7 4 6 5 5 6 4 7 3 8 2 9 1 10 78 11 79 12 95 13
REMARK SMILES IDX 80 14 94 15 81 16 93 17 82 18 85 19 83 20 84 21 96 22 97 23
REMARK SMILES IDX 98 24 99 25 86 26 87 27 92 28 88 29 91 30 89 31 90 32 11 34
REMARK SMILES IDX 12 35 13 36 14 37 15 38 16 39 17 40 18 41 19 42 77 43 20 44
REMARK SMILES IDX 76 45 21 46 22 47 23 48 70 49 24 50 75 51 69 52 71 53 25 54
REMARK SMILES IDX 74 55 68 56 67 57 26 59 56 60 37 61 55 62 38 63 41 64 54 65
REMARK SMILES IDX 72 66 39 67 40 68 53 70 73 71 42 72 27 73 28 74 36 75 29 76
REMARK SMILES IDX 35 77 30 78 31 79 32 80 33 81 34 82 57 83 58 84 66 85 59 86
REMARK SMILES IDX 65 87 60 88 61 89 62 90 63 91 64 92 43 93 44 94 52 95 45 96
REMARK SMILES IDX 51 97 46 98 47 99 48 100 49 101 50 102
REMARK H PARENT 90 33 71 58 41 69
REMARK Flexibility Score: inf
ROOT
ATOM      1  C   UNL A   1      35.362  33.532  30.903  1.00  0.00     0.188 C 
ENDROOT
BRANCH   1   2
ATOM      2  O   UNL A   1      34.867  32.291  30.427  1.00  0.00    -0.377 OA
BRANCH   2   3
ATOM      3  C   UNL A   1      34.494  32.380  29.069  1.00  0.00     0.188 C 
BRANCH   3   4
ATOM      4  C   UNL A   1      35.083  31.240  28.235  1.00  0.00     0.188 C 
BRANCH   4   5
ATOM      5  O   UNL A   1      34.127  30.442  27.502  1.00  0.00    -0.376 OA
BRANCH   5   6
ATOM      6  C   UNL A   1      34.389  28.998  26.851  1.00  0.00     0.202 C 
BRANCH   6   7
ATOM      7  C   UNL A   1      33.273  28.048  25.238  1.00  0.00     0.261 C 
BRANCH   7   8
ATOM      8  O   UNL A   1      32.132  26.994  25.423  1.00  0.00    -0.460 OA
BRANCH   8   9
ATOM      9  C   UNL A   1      32.543  25.835  25.943  1.00  0.00     0.338 C 
ATOM     10  O   UNL A   1      32.678  25.472  27.082  1.00  0.00    -0.246 OA
BRANCH   9  11
ATOM     11  C   UNL A   1      33.011  25.304  24.696  1.00  0.00     0.087 C 
ATOM     12  C   UNL A   1      34.475  25.069  24.789  1.00  0.00     0.027 C 
ATOM     13  C   UNL A   1      31.674  23.909  24.470  1.00  0.00     0.316 C 
ATOM     14  C   UNL A   1      35.221  23.413  24.871  1.00  0.00     0.019 A 
ATOM     15  O   UNL A   1      32.452  22.145  24.588  1.00  0.00    -0.475 OA
ATOM     16  C   UNL A   1      36.569  23.331  25.115  1.00  0.00     0.032 A 
ATOM     17  C   UNL A   1      34.262  21.963  24.795  1.00  0.00     0.135 A 
ATOM     18  C   UNL A   1      37.063  22.034  25.280  1.00  0.00     0.042 A 
ATOM     19  C   UNL A   1      34.852  20.725  24.992  1.00  0.00     0.026 A 
ATOM     20  Cl  UNL A   1      38.759  21.867  25.593  1.00  0.00    -0.084 Cl
ATOM     21  C   UNL A   1      36.266  20.829  25.220  1.00  0.00     0.033 A 
BRANCH  13  22
ATOM     22  C   UNL A   1      30.751  24.543  23.332  1.00  0.00     0.430 C 
ATOM     23  F   UNL A   1      29.850  23.692  22.801  1.00  0.00    -0.167 F 
ATOM     24  F   UNL A   1      30.012  25.542  23.897  1.00  0.00    -0.167 F 
ATOM     25  F   UNL A   1      31.414  25.137  22.316  1.00  0.00    -0.167 F 
ENDBRANCH  13  22
BRANCH  19  26
ATOM     26  C   UNL A   1      34.291  19.384  24.963  1.00  0.00    -0.014 A 
ATOM     27  C   UNL A   1      34.933  18.308  24.343  1.00  0.00     0.012 A 
ATOM     28  C   UNL A   1      32.970  19.188  25.383  1.00  0.00     0.012 A 
ATOM     29  C   UNL A   1      34.310  17.055  24.259  1.00  0.00     0.047 A 
ATOM     30  C   UNL A   1      32.397  17.921  25.410  1.00  0.00     0.047 A 
ATOM     31  C   UNL A   1      33.064  16.860  24.832  1.00  0.00     0.115 A 
BRANCH  31  32
ATOM     32  O   UNL A   1      32.497  15.624  24.781  1.00  0.00    -0.508 OA
ATOM     33  H   UNL A   1      32.104  15.257  25.549  1.00  0.00     0.293 HD
ENDBRANCH  31  32
ENDBRANCH  19  26
ENDBRANCH   9  11
ENDBRANCH   8   9
ENDBRANCH   7   8
ENDBRANCH   6   7
ENDBRANCH   5   6
ENDBRANCH   4   5
ENDBRANCH   3   4
ENDBRANCH   2   3
ENDBRANCH   1   2
BRANCH   1  34
ATOM     34  C   UNL A   1      36.882  33.739  30.839  1.00  0.00     0.188 C 
BRANCH  34  35
ATOM     35  O   UNL A   1      37.612  34.235  31.954  1.00  0.00    -0.376 OA
BRANCH  35  36
ATOM     36  C   UNL A   1      37.625  33.452  33.132  1.00  0.00     0.202 C 
BRANCH  36  37
ATOM     37  C   UNL A   1      37.781  34.289  34.415  1.00  0.00     0.261 C 
BRANCH  37  38
ATOM     38  O   UNL A   1      38.732  35.370  34.336  1.00  0.00    -0.460 OA
BRANCH  38  39
ATOM     39  C   UNL A   1      39.488  35.591  35.444  1.00  0.00     0.338 C 
ATOM     40  O   UNL A   1      39.352  36.488  36.259  1.00  0.00    -0.246 OA
BRANCH  39  41
ATOM     41  C   UNL A   1      40.475  34.488  35.592  1.00  0.00     0.060 A 
ATOM     42  C   UNL A   1      41.700  34.567  34.913  1.00  0.00     0.016 A 
ATOM     43  C   UNL A   1      40.194  33.369  36.379  1.00  0.00     0.016 A 
ATOM     44  C   UNL A   1      42.637  33.524  35.004  1.00  0.00     0.010 A 
ATOM     45  C   UNL A   1      41.125  32.324  36.461  1.00  0.00     0.010 A 
ATOM     46  C   UNL A   1      42.350  32.380  35.760  1.00  0.00    -0.014 A 
BRANCH  46  47
ATOM     47  C   UNL A   1      43.194  31.153  35.672  1.00  0.00     0.031 A 
ATOM     48  C   UNL A   1      43.142  30.368  34.386  1.00  0.00     0.074 A 
ATOM     49  C   UNL A   1      43.964  30.699  36.683  1.00  0.00     0.049 A 
ATOM     50  N   UNL A   1      43.726  29.239  34.079  1.00  0.00    -0.248 NA
ATOM     51  C   UNL A   1      42.317  30.936  33.305  1.00  0.00     0.031 C 
ATOM     52  C   UNL A   1      44.174  31.361  37.966  1.00  0.00     0.029 A 
ATOM     53  N   UNL A   1      44.695  29.538  36.797  1.00  0.00    -0.354 N 
ATOM     54  C   UNL A   1      43.363  28.981  32.764  1.00  0.00     0.074 A 
ATOM     55  C   UNL A   1      42.435  30.015  32.365  1.00  0.00     0.031 C 
ATOM     56  C   UNL A   1      44.902  30.565  38.769  1.00  0.00     0.029 A 
ATOM     57  C   UNL A   1      45.244  29.343  38.045  1.00  0.00     0.049 A 
ATOM     58  H   UNL A   1      44.813  28.902  36.054  1.00  0.00     0.167 HD
ATOM     59  C   UNL A   1      43.798  28.003  31.936  1.00  0.00     0.031 A 
ATOM     60  C   UNL A   1      45.944  28.305  38.550  1.00  0.00     0.031 A 
ATOM     61  C   UNL A   1      44.711  26.965  32.316  1.00  0.00     0.049 A 
ATOM     62  C   UNL A   1      46.312  27.151  37.651  1.00  0.00     0.074 A 
ATOM     63  C   UNL A   1      45.234  25.952  31.532  1.00  0.00     0.029 A 
ATOM     64  N   UNL A   1      45.229  26.797  33.590  1.00  0.00    -0.354 N 
ATOM     65  N   UNL A   1      46.032  26.973  36.382  1.00  0.00    -0.248 NA
ATOM     66  C   UNL A   1      47.130  26.078  38.240  1.00  0.00     0.031 C 
ATOM     67  C   UNL A   1      46.033  25.142  32.346  1.00  0.00     0.029 A 
ATOM     68  C   UNL A   1      46.047  25.682  33.622  1.00  0.00     0.049 A 
ATOM     69  H   UNL A   1      45.043  27.385  34.357  1.00  0.00     0.167 HD
ATOM     70  C   UNL A   1      46.694  25.806  36.007  1.00  0.00     0.074 A 
ATOM     71  C   UNL A   1      47.377  25.314  37.184  1.00  0.00     0.031 C 
ATOM     72  C   UNL A   1      46.745  25.211  34.790  1.00  0.00     0.031 A 
BRANCH  59  73
ATOM     73  C   UNL A   1      43.285  28.043  30.525  1.00  0.00    -0.014 A 
ATOM     74  C   UNL A   1      43.917  28.852  29.561  1.00  0.00     0.010 A 
ATOM     75  C   UNL A   1      42.162  27.283  30.161  1.00  0.00     0.010 A 
ATOM     76  C   UNL A   1      43.398  28.942  28.269  1.00  0.00     0.020 A 
ATOM     77  C   UNL A   1      41.657  27.350  28.860  1.00  0.00     0.020 A 
ATOM     78  C   UNL A   1      42.266  28.196  27.929  1.00  0.00     0.054 A 
BRANCH  78  79
ATOM     79  S   UNL A   1      41.615  28.332  26.244  1.00  0.00     0.124 S 
ATOM     80  O   UNL A   1      42.722  28.985  25.548  1.00  0.00    -0.237 OA
ATOM     81  O   UNL A   1      41.376  26.939  25.878  1.00  0.00    -0.237 OA
ATOM     82  O   UNL A   1      40.413  29.148  26.402  1.00  0.00    -0.744 OA
ENDBRANCH  78  79
ENDBRANCH  59  73
BRANCH  60  83
ATOM     83  C   UNL A   1      46.380  28.298  39.978  1.00  0.00    -0.014 A 
ATOM     84  C   UNL A   1      45.521  27.830  40.989  1.00  0.00     0.010 A 
ATOM     85  C   UNL A   1      47.633  28.826  40.340  1.00  0.00     0.010 A 
ATOM     86  C   UNL A   1      45.888  27.927  42.336  1.00  0.00     0.020 A 
ATOM     87  C   UNL A   1      48.013  28.904  41.686  1.00  0.00     0.020 A 
ATOM     88  C   UNL A   1      47.131  28.469  42.676  1.00  0.00     0.054 A 
BRANCH  88  89
ATOM     89  S   UNL A   1      47.585  28.580  44.430  1.00  0.00     0.124 S 
ATOM     90  O   UNL A   1      48.732  29.482  44.393  1.00  0.00    -0.237 OA
ATOM     91  O   UNL A   1      46.371  29.123  45.035  1.00  0.00    -0.237 OA
ATOM     92  O   UNL A   1      47.887  27.197  44.794  1.00  0.00    -0.744 OA
ENDBRANCH  88  89
ENDBRANCH  60  83
BRANCH  72  93
ATOM     93  C   UNL A   1      47.621  23.996  34.636  1.00  0.00    -0.014 A 
ATOM     94  C   UNL A   1      47.113  22.696  34.791  1.00  0.00     0.010 A 
ATOM     95  C   UNL A   1      48.966  24.164  34.253  1.00  0.00     0.010 A 
ATOM     96  C   UNL A   1      47.939  21.586  34.589  1.00  0.00     0.020 A 
ATOM     97  C   UNL A   1      49.787  23.059  34.022  1.00  0.00     0.020 A 
ATOM     98  C   UNL A   1      49.271  21.775  34.203  1.00  0.00     0.054 A 
BRANCH  98  99
ATOM     99  S   UNL A   1      50.306  20.319  33.887  1.00  0.00     0.124 S 
ATOM    100  O   UNL A   1      51.175  20.792  32.812  1.00  0.00    -0.237 OA
ATOM    101  O   UNL A   1      50.961  20.103  35.174  1.00  0.00    -0.237 OA
ATOM    102  O   UNL A   1      49.344  19.287  33.503  1.00  0.00    -0.744 OA
ENDBRANCH  98  99
ENDBRANCH  72  93
ENDBRANCH  46  47
ENDBRANCH  39  41
ENDBRANCH  38  39
ENDBRANCH  37  38
ENDBRANCH  36  37
ENDBRANCH  35  36
ENDBRANCH  34  35
ENDBRANCH   1  34
TORSDOF 26
ENDMDL
MODEL 2
REMARK VINA RESULT:      -8.8      9.958     16.663
REMARK SMILES O=C(OCCOCCOCCOCCOC(=O)c1ccc(-c2c3nc(c(-c4ccc(S(=O)(=O)[O-])cc4)c4ccc([nH]4)c(-c4ccc(S(=O)(=O)[O-])cc4)c4nc(c(-c5ccc(S(=O)(=O)[O-])cc5)c5ccc2[nH]5)C=C4)C=C3)cc1)C1=Cc2cc(Cl)cc(-c3ccc(O)cc3)c2O[C@@H]1C(F)(F)F
REMARK SMILES IDX 10 1 9 2 8 3 7 4 6 5 5 6 4 7 3 8 2 9 1 10 78 11 79 12 95 13
REMARK SMILES IDX 80 14 94 15 81 16 93 17 82 18 85 19 83 20 84 21 96 22 97 23
REMARK SMILES IDX 98 24 99 25 86 26 87 27 92 28 88 29 91 30 89 31 90 32 11 34
REMARK SMILES IDX 12 35 13 36 14 37 15 38 16 39 17 40 18 41 19 42 77 43 20 44
REMARK SMILES IDX 76 45 21 46 22 47 23 48 70 49 24 50 75 51 69 52 71 53 25 54
REMARK SMILES IDX 74 55 68 56 67 57 26 59 56 60 37 61 55 62 38 63 41 64 54 65
REMARK SMILES IDX 72 66 39 67 40 68 53 70 73 71 42 72 27 73 28 74 36 75 29 76
REMARK SMILES IDX 35 77 30 78 31 79 32 80 33 81 34 82 57 83 58 84 66 85 59 86
REMARK SMILES IDX 65 87 60 88 61 89 62 90 63 91 64 92 43 93 44 94 52 95 45 96
REMARK SMILES IDX 51 97 46 98 47 99 48 100 49 101 50 102
REMARK H PARENT 90 33 71 58 41 69
REMARK Flexibility Score: inf
ROOT
ATOM      1  C   UNL A   1      39.513  35.275  36.748  1.00  0.00     0.188 C 
ENDROOT
BRANCH   1   2
ATOM      2  O   UNL A   1      39.498  35.765  35.418  1.00  0.00    -0.377 OA
BRANCH   2   3
ATOM      3  C   UNL A   1      39.117  34.755  34.509  1.00  0.00     0.188 C 
BRANCH   3   4
ATOM      4  C   UNL A   1      38.849  33.422  35.211  1.00  0.00     0.188 C 
BRANCH   4   5
ATOM      5  O   UNL A   1      39.091  32.237  34.419  1.00  0.00    -0.376 OA
BRANCH   5   6
ATOM      6  C   UNL A   1      38.138  30.949  34.313  1.00  0.00     0.202 C 
BRANCH   6   7
ATOM      7  C   UNL A   1      38.000  29.535  32.661  1.00  0.00     0.261 C 
BRANCH   7   8
ATOM      8  O   UNL A   1      38.548  29.772  31.215  1.00  0.00    -0.460 OA
BRANCH   8   9
ATOM      9  C   UNL A   1      39.851  30.059  31.170  1.00  0.00     0.338 C 
ATOM     10  O   UNL A   1      40.740  29.867  31.957  1.00  0.00    -0.246 OA
BRANCH   9  11
ATOM     11  C   UNL A   1      39.749  30.896  30.010  1.00  0.00     0.087 C 
ATOM     12  C   UNL A   1      38.836  30.255  29.030  1.00  0.00     0.027 C 
ATOM     13  C   UNL A   1      39.402  32.583  30.914  1.00  0.00     0.316 C 
ATOM     14  C   UNL A   1      37.169  30.879  28.655  1.00  0.00     0.019 A 
ATOM     15  O   UNL A   1      37.622  33.238  30.549  1.00  0.00    -0.475 OA
ATOM     16  C   UNL A   1      36.364  30.110  27.853  1.00  0.00     0.032 A 
ATOM     17  C   UNL A   1      36.538  32.323  29.393  1.00  0.00     0.135 A 
ATOM     18  C   UNL A   1      35.060  30.586  27.695  1.00  0.00     0.042 A 
ATOM     19  C   UNL A   1      35.219  32.694  29.183  1.00  0.00     0.026 A 
ATOM     20  Cl  UNL A   1      33.994  29.655  26.694  1.00  0.00    -0.084 Cl
ATOM     21  C   UNL A   1      34.533  31.783  28.310  1.00  0.00     0.033 A 
BRANCH  13  22
ATOM     22  C   UNL A   1      40.813  33.316  30.758  1.00  0.00     0.430 C 
ATOM     23  F   UNL A   1      41.056  33.806  29.526  1.00  0.00    -0.167 F 
ATOM     24  F   UNL A   1      40.816  34.402  31.584  1.00  0.00    -0.167 F 
ATOM     25  F   UNL A   1      41.886  32.590  31.140  1.00  0.00    -0.167 F 
ENDBRANCH  13  22
BRANCH  19  26
ATOM     26  C   UNL A   1      34.462  33.841  29.658  1.00  0.00    -0.014 A 
ATOM     27  C   UNL A   1      33.926  34.802  28.796  1.00  0.00     0.012 A 
ATOM     28  C   UNL A   1      34.436  34.121  31.029  1.00  0.00     0.012 A 
ATOM     29  C   UNL A   1      33.285  35.941  29.305  1.00  0.00     0.047 A 
ATOM     30  C   UNL A   1      33.698  35.184  31.539  1.00  0.00     0.047 A 
ATOM     31  C   UNL A   1      33.138  36.101  30.674  1.00  0.00     0.115 A 
BRANCH  31  32
ATOM     32  O   UNL A   1      32.471  37.188  31.146  1.00  0.00    -0.508 OA
ATOM     33  H   UNL A   1      32.516  37.407  32.057  1.00  0.00     0.293 HD
ENDBRANCH  31  32
ENDBRANCH  19  26
ENDBRANCH   9  11
ENDBRANCH   8   9
ENDBRANCH   7   8
ENDBRANCH   6   7
ENDBRANCH   5   6
ENDBRANCH   4   5
ENDBRANCH   3   4
ENDBRANCH   2   3
ENDBRANCH   1   2
BRANCH   1  34
ATOM     34  C   UNL A   1      40.795  35.515  37.558  1.00  0.00     0.188 C 
BRANCH  34  35
ATOM     35  O   UNL A   1      41.149  34.682  38.655  1.00  0.00    -0.376 OA
BRANCH  35  36
ATOM     36  C   UNL A   1      40.438  33.469  38.815  1.00  0.00     0.202 C 
BRANCH  36  37
ATOM     37  C   UNL A   1      39.560  33.442  40.080  1.00  0.00     0.261 C 
BRANCH  37  38
ATOM     38  O   UNL A   1      38.345  34.214  40.005  1.00  0.00    -0.460 OA
BRANCH  38  39
ATOM     39  C   UNL A   1      38.027  34.947  41.104  1.00  0.00     0.338 C 
ATOM     40  O   UNL A   1      37.297  34.617  42.022  1.00  0.00    -0.246 OA
BRANCH  39  41
ATOM     41  C   UNL A   1      38.806  36.216  41.089  1.00  0.00     0.060 A 
ATOM     42  C   UNL A   1      38.664  37.095  40.005  1.00  0.00     0.016 A 
ATOM     43  C   UNL A   1      39.687  36.534  42.125  1.00  0.00     0.016 A 
ATOM     44  C   UNL A   1      39.414  38.282  39.944  1.00  0.00     0.010 A 
ATOM     45  C   UNL A   1      40.442  37.713  42.058  1.00  0.00     0.010 A 
ATOM     46  C   UNL A   1      40.328  38.593  40.959  1.00  0.00    -0.014 A 
BRANCH  46  47
ATOM     47  C   UNL A   1      41.320  39.697  40.805  1.00  0.00     0.031 A 
ATOM     48  C   UNL A   1      40.863  41.091  41.150  1.00  0.00     0.074 A 
ATOM     49  C   UNL A   1      42.576  39.517  40.346  1.00  0.00     0.049 A 
ATOM     50  N   UNL A   1      41.505  42.225  41.045  1.00  0.00    -0.248 NA
ATOM     51  C   UNL A   1      39.496  41.218  41.686  1.00  0.00     0.031 C 
ATOM     52  C   UNL A   1      43.196  38.238  40.022  1.00  0.00     0.029 A 
ATOM     53  N   UNL A   1      43.554  40.436  40.039  1.00  0.00    -0.354 N 
ATOM     54  C   UNL A   1      40.631  43.191  41.526  1.00  0.00     0.074 A 
ATOM     55  C   UNL A   1      39.385  42.526  41.834  1.00  0.00     0.031 C 
ATOM     56  C   UNL A   1      44.410  38.450  39.481  1.00  0.00     0.029 A 
ATOM     57  C   UNL A   1      44.673  39.887  39.451  1.00  0.00     0.049 A 
ATOM     58  H   UNL A   1      43.463  41.400  40.221  1.00  0.00     0.167 HD
ATOM     59  C   UNL A   1      40.853  44.507  41.748  1.00  0.00     0.031 A 
ATOM     60  C   UNL A   1      45.783  40.468  38.950  1.00  0.00     0.031 A 
ATOM     61  C   UNL A   1      42.079  45.186  41.442  1.00  0.00     0.049 A 
ATOM     62  C   UNL A   1      45.964  41.960  39.081  1.00  0.00     0.074 A 
ATOM     63  C   UNL A   1      42.406  46.511  41.666  1.00  0.00     0.029 A 
ATOM     64  N   UNL A   1      43.177  44.596  40.837  1.00  0.00    -0.354 N 
ATOM     65  N   UNL A   1      45.160  42.843  39.625  1.00  0.00    -0.248 NA
ATOM     66  C   UNL A   1      47.222  42.529  38.573  1.00  0.00     0.031 C 
ATOM     67  C   UNL A   1      43.687  46.735  41.150  1.00  0.00     0.029 A 
ATOM     68  C   UNL A   1      44.175  45.536  40.655  1.00  0.00     0.049 A 
ATOM     69  H   UNL A   1      43.237  43.649  40.577  1.00  0.00     0.167 HD
ATOM     70  C   UNL A   1      45.844  44.055  39.583  1.00  0.00     0.074 A 
ATOM     71  C   UNL A   1      47.119  43.797  38.951  1.00  0.00     0.031 C 
ATOM     72  C   UNL A   1      45.453  45.268  40.047  1.00  0.00     0.031 A 
BRANCH  59  73
ATOM     73  C   UNL A   1      39.728  45.281  42.372  1.00  0.00    -0.014 A 
ATOM     74  C   UNL A   1      38.745  45.884  41.564  1.00  0.00     0.010 A 
ATOM     75  C   UNL A   1      39.656  45.421  43.767  1.00  0.00     0.010 A 
ATOM     76  C   UNL A   1      37.740  46.662  42.139  1.00  0.00     0.020 A 
ATOM     77  C   UNL A   1      38.634  46.176  44.349  1.00  0.00     0.020 A 
ATOM     78  C   UNL A   1      37.696  46.809  43.528  1.00  0.00     0.054 A 
BRANCH  78  79
ATOM     79  S   UNL A   1      36.379  47.824  44.248  1.00  0.00     0.124 S 
ATOM     80  O   UNL A   1      35.584  48.162  43.070  1.00  0.00    -0.237 OA
ATOM     81  O   UNL A   1      35.746  46.907  45.191  1.00  0.00    -0.237 OA
ATOM     82  O   UNL A   1      37.097  48.942  44.856  1.00  0.00    -0.744 OA
ENDBRANCH  78  79
ENDBRANCH  59  73
BRANCH  60  83
ATOM     83  C   UNL A   1      46.845  39.651  38.292  1.00  0.00    -0.014 A 
ATOM     84  C   UNL A   1      46.778  39.359  36.916  1.00  0.00     0.010 A 
ATOM     85  C   UNL A   1      47.892  39.101  39.053  1.00  0.00     0.010 A 
ATOM     86  C   UNL A   1      47.712  38.502  36.324  1.00  0.00     0.020 A 
ATOM     87  C   UNL A   1      48.841  38.260  38.459  1.00  0.00     0.020 A 
ATOM     88  C   UNL A   1      48.735  37.953  37.101  1.00  0.00     0.054 A 
BRANCH  88  89
ATOM     89  S   UNL A   1      49.938  36.848  36.308  1.00  0.00     0.124 S 
ATOM     90  O   UNL A   1      50.917  36.647  37.371  1.00  0.00    -0.237 OA
ATOM     91  O   UNL A   1      49.120  35.684  35.972  1.00  0.00    -0.237 OA
ATOM     92  O   UNL A   1      50.408  37.620  35.160  1.00  0.00    -0.744 OA
ENDBRANCH  88  89
ENDBRANCH  60  83
BRANCH  72  93
ATOM     93  C   UNL A   1      46.436  46.406  39.959  1.00  0.00    -0.014 A 
ATOM     94  C   UNL A   1      47.331  46.689  41.004  1.00  0.00     0.010 A 
ATOM     95  C   UNL A   1      46.509  47.159  38.772  1.00  0.00     0.010 A 
ATOM     96  C   UNL A   1      48.268  47.718  40.871  1.00  0.00     0.020 A 
ATOM     97  C   UNL A   1      47.461  48.170  38.624  1.00  0.00     0.020 A 
ATOM     98  C   UNL A   1      48.328  48.451  39.680  1.00  0.00     0.054 A 
BRANCH  98  99
ATOM     99  S   UNL A   1      49.593  49.740  39.509  1.00  0.00     0.124 S 
ATOM    100  O   UNL A   1      49.182  50.706  40.523  1.00  0.00    -0.237 OA
ATOM    101  O   UNL A   1      50.831  49.018  39.795  1.00  0.00    -0.237 OA
ATOM    102  O   UNL A   1      49.446  50.187  38.125  1.00  0.00    -0.744 OA
ENDBRANCH  98  99
ENDBRANCH  72  93
ENDBRANCH  46  47
ENDBRANCH  39  41
ENDBRANCH  38  39
ENDBRANCH  37  38
ENDBRANCH  36  37
ENDBRANCH  35  36
ENDBRANCH  34  35
ENDBRANCH   1  34
TORSDOF 26
ENDMDL
MODEL 3
REMARK VINA RESULT:      -8.7      7.012      9.489
REMARK SMILES O=C(OCCOCCOCCOCCOC(=O)c1ccc(-c2c3nc(c(-c4ccc(S(=O)(=O)[O-])cc4)c4ccc([nH]4)c(-c4ccc(S(=O)(=O)[O-])cc4)c4nc(c(-c5ccc(S(=O)(=O)[O-])cc5)c5ccc2[nH]5)C=C4)C=C3)cc1)C1=Cc2cc(Cl)cc(-c3ccc(O)cc3)c2O[C@@H]1C(F)(F)F
REMARK SMILES IDX 10 1 9 2 8 3 7 4 6 5 5 6 4 7 3 8 2 9 1 10 78 11 79 12 95 13
REMARK SMILES IDX 80 14 94 15 81 16 93 17 82 18 85 19 83 20 84 21 96 22 97 23
REMARK SMILES IDX 98 24 99 25 86 26 87 27 92 28 88 29 91 30 89 31 90 32 11 34
REMARK SMILES IDX 12 35 13 36 14 37 15 38 16 39 17 40 18 41 19 42 77 43 20 44
REMARK SMILES IDX 76 45 21 46 22 47 23 48 70 49 24 50 75 51 69 52 71 53 25 54
REMARK SMILES IDX 74 55 68 56 67 57 26 59 56 60 37 61 55 62 38 63 41 64 54 65
REMARK SMILES IDX 72 66 39 67 40 68 53 70 73 71 42 72 27 73 28 74 36 75 29 76
REMARK SMILES IDX 35 77 30 78 31 79 32 80 33 81 34 82 57 83 58 84 66 85 59 86
REMARK SMILES IDX 65 87 60 88 61 89 62 90 63 91 64 92 43 93 44 94 52 95 45 96
REMARK SMILES IDX 51 97 46 98 47 99 48 100 49 101 50 102
REMARK H PARENT 90 33 71 58 41 69
REMARK Flexibility Score: inf
ROOT
ATOM      1  C   UNL A   1      35.499  33.913  31.378  1.00  0.00     0.188 C 
ENDROOT
BRANCH   1   2
ATOM      2  O   UNL A   1      34.698  32.905  30.784  1.00  0.00    -0.377 OA
BRANCH   2   3
ATOM      3  C   UNL A   1      35.074  32.683  29.442  1.00  0.00     0.188 C 
BRANCH   3   4
ATOM      4  C   UNL A   1      35.220  31.193  29.125  1.00  0.00     0.188 C 
BRANCH   4   5
ATOM      5  O   UNL A   1      34.544  30.738  27.931  1.00  0.00    -0.376 OA
BRANCH   5   6
ATOM      6  C   UNL A   1      34.586  29.255  27.316  1.00  0.00     0.202 C 
BRANCH   6   7
ATOM      7  C   UNL A   1      33.321  28.436  25.743  1.00  0.00     0.261 C 
BRANCH   7   8
ATOM      8  O   UNL A   1      32.028  27.585  25.969  1.00  0.00    -0.460 OA
BRANCH   8   9
ATOM      9  C   UNL A   1      32.266  26.333  26.368  1.00  0.00     0.338 C 
ATOM     10  O   UNL A   1      32.246  25.824  27.457  1.00  0.00    -0.246 OA
BRANCH   9  11
ATOM     11  C   UNL A   1      32.803  25.907  25.109  1.00  0.00     0.087 C 
ATOM     12  C   UNL A   1      34.261  25.667  25.261  1.00  0.00     0.027 C 
ATOM     13  C   UNL A   1      31.488  24.532  24.698  1.00  0.00     0.316 C 
ATOM     14  C   UNL A   1      35.012  24.012  25.248  1.00  0.00     0.019 A 
ATOM     15  O   UNL A   1      32.270  22.766  24.714  1.00  0.00    -0.475 OA
ATOM     16  C   UNL A   1      36.345  23.912  25.557  1.00  0.00     0.032 A 
ATOM     17  C   UNL A   1      34.067  22.571  25.002  1.00  0.00     0.135 A 
ATOM     18  C   UNL A   1      36.837  22.608  25.642  1.00  0.00     0.042 A 
ATOM     19  C   UNL A   1      34.653  21.322  25.129  1.00  0.00     0.026 A 
ATOM     20  Cl  UNL A   1      38.516  22.418  26.031  1.00  0.00    -0.084 Cl
ATOM     21  C   UNL A   1      36.053  21.410  25.441  1.00  0.00     0.033 A 
BRANCH  13  22
ATOM     22  C   UNL A   1      30.623  25.256  23.567  1.00  0.00     0.430 C 
ATOM     23  F   UNL A   1      31.299  26.174  22.847  1.00  0.00    -0.167 F 
ATOM     24  F   UNL A   1      30.231  24.309  22.667  1.00  0.00    -0.167 F 
ATOM     25  F   UNL A   1      29.474  25.823  23.994  1.00  0.00    -0.167 F 
ENDBRANCH  13  22
BRANCH  19  26
ATOM     26  C   UNL A   1      34.103  19.987  24.962  1.00  0.00    -0.014 A 
ATOM     27  C   UNL A   1      32.803  19.650  25.349  1.00  0.00     0.012 A 
ATOM     28  C   UNL A   1      34.955  18.939  24.595  1.00  0.00     0.012 A 
ATOM     29  C   UNL A   1      32.348  18.327  25.255  1.00  0.00     0.047 A 
ATOM     30  C   UNL A   1      34.474  17.651  24.387  1.00  0.00     0.047 A 
ATOM     31  C   UNL A   1      33.175  17.345  24.733  1.00  0.00     0.115 A 
BRANCH  31  32
ATOM     32  O   UNL A   1      32.698  16.077  24.606  1.00  0.00    -0.508 OA
ATOM     33  H   UNL A   1      32.302  15.804  23.802  1.00  0.00     0.293 HD
ENDBRANCH  31  32
ENDBRANCH  19  26
ENDBRANCH   9  11
ENDBRANCH   8   9
ENDBRANCH   7   8
ENDBRANCH   6   7
ENDBRANCH   5   6
ENDBRANCH   4   5
ENDBRANCH   3   4
ENDBRANCH   2   3
ENDBRANCH   1   2
BRANCH   1  34
ATOM     34  C   UNL A   1      37.015  33.808  31.160  1.00  0.00     0.188 C 
BRANCH  34  35
ATOM     35  O   UNL A   1      37.838  33.028  32.017  1.00  0.00    -0.376 OA
BRANCH  35  36
ATOM     36  C   UNL A   1      37.714  31.620  31.945  1.00  0.00     0.202 C 
BRANCH  36  37
ATOM     37  C   UNL A   1      37.305  30.977  33.283  1.00  0.00     0.261 C 
BRANCH  37  38
ATOM     38  O   UNL A   1      37.087  31.898  34.370  1.00  0.00    -0.460 OA
BRANCH  38  39
ATOM     39  C   UNL A   1      37.861  31.723  35.473  1.00  0.00     0.338 C 
ATOM     40  O   UNL A   1      37.761  30.841  36.309  1.00  0.00    -0.246 OA
BRANCH  39  41
ATOM     41  C   UNL A   1      38.957  32.730  35.468  1.00  0.00     0.060 A 
ATOM     42  C   UNL A   1      38.656  34.070  35.184  1.00  0.00     0.016 A 
ATOM     43  C   UNL A   1      40.279  32.359  35.722  1.00  0.00     0.016 A 
ATOM     44  C   UNL A   1      39.675  35.037  35.134  1.00  0.00     0.010 A 
ATOM     45  C   UNL A   1      41.296  33.322  35.662  1.00  0.00     0.010 A 
ATOM     46  C   UNL A   1      41.009  34.669  35.350  1.00  0.00    -0.014 A 
BRANCH  46  47
ATOM     47  C   UNL A   1      42.134  35.602  35.053  1.00  0.00     0.031 A 
ATOM     48  C   UNL A   1      42.740  35.538  33.674  1.00  0.00     0.074 A 
ATOM     49  C   UNL A   1      42.653  36.462  35.954  1.00  0.00     0.049 A 
ATOM     50  N   UNL A   1      43.761  36.192  33.185  1.00  0.00    -0.248 NA
ATOM     51  C   UNL A   1      42.105  34.610  32.722  1.00  0.00     0.031 C 
ATOM     52  C   UNL A   1      42.155  36.692  37.305  1.00  0.00     0.029 A 
ATOM     53  N   UNL A   1      43.751  37.289  35.870  1.00  0.00    -0.354 N 
ATOM     54  C   UNL A   1      43.870  35.776  31.865  1.00  0.00     0.074 A 
ATOM     55  C   UNL A   1      42.876  34.746  31.658  1.00  0.00     0.031 C 
ATOM     56  C   UNL A   1      42.986  37.527  37.955  1.00  0.00     0.029 A 
ATOM     57  C   UNL A   1      44.064  37.923  37.053  1.00  0.00     0.049 A 
ATOM     58  H   UNL A   1      44.267  37.415  35.041  1.00  0.00     0.167 HD
ATOM     59  C   UNL A   1      44.685  36.239  30.889  1.00  0.00     0.031 A 
ATOM     60  C   UNL A   1      45.096  38.731  37.375  1.00  0.00     0.031 A 
ATOM     61  C   UNL A   1      45.682  37.252  31.078  1.00  0.00     0.049 A 
ATOM     62  C   UNL A   1      46.082  39.138  36.307  1.00  0.00     0.074 A 
ATOM     63  C   UNL A   1      46.530  37.809  30.136  1.00  0.00     0.029 A 
ATOM     64  N   UNL A   1      45.974  37.854  32.291  1.00  0.00    -0.354 N 
ATOM     65  N   UNL A   1      46.110  38.800  35.040  1.00  0.00    -0.248 NA
ATOM     66  C   UNL A   1      47.149  40.071  36.702  1.00  0.00     0.031 C 
ATOM     67  C   UNL A   1      47.369  38.715  30.792  1.00  0.00     0.029 A 
ATOM     68  C   UNL A   1      47.008  38.759  32.129  1.00  0.00     0.049 A 
ATOM     69  H   UNL A   1      45.514  37.666  33.140  1.00  0.00     0.167 HD
ATOM     70  C   UNL A   1      47.153  39.530  34.476  1.00  0.00     0.074 A 
ATOM     71  C   UNL A   1      47.739  40.317  35.540  1.00  0.00     0.031 C 
ATOM     72  C   UNL A   1      47.571  39.558  33.186  1.00  0.00     0.031 A 
BRANCH  59  73
ATOM     73  C   UNL A   1      44.499  35.644  29.523  1.00  0.00    -0.014 A 
ATOM     74  C   UNL A   1      45.123  34.428  29.185  1.00  0.00     0.010 A 
ATOM     75  C   UNL A   1      43.712  36.306  28.566  1.00  0.00     0.010 A 
ATOM     76  C   UNL A   1      45.008  33.911  27.895  1.00  0.00     0.020 A 
ATOM     77  C   UNL A   1      43.571  35.776  27.281  1.00  0.00     0.020 A 
ATOM     78  C   UNL A   1      44.238  34.594  26.948  1.00  0.00     0.054 A 
BRANCH  78  79
ATOM     79  S   UNL A   1      44.106  33.900  25.279  1.00  0.00     0.124 S 
ATOM     80  O   UNL A   1      45.374  34.314  24.683  1.00  0.00    -0.237 OA
ATOM     81  O   UNL A   1      43.970  32.470  25.537  1.00  0.00    -0.237 OA
ATOM     82  O   UNL A   1      42.918  34.548  24.728  1.00  0.00    -0.744 OA
ENDBRANCH  78  79
ENDBRANCH  59  73
BRANCH  60  83
ATOM     83  C   UNL A   1      45.259  39.248  38.766  1.00  0.00    -0.014 A 
ATOM     84  C   UNL A   1      45.980  38.514  39.725  1.00  0.00     0.010 A 
ATOM     85  C   UNL A   1      44.632  40.446  39.156  1.00  0.00     0.010 A 
ATOM     86  C   UNL A   1      46.038  38.945  41.056  1.00  0.00     0.020 A 
ATOM     87  C   UNL A   1      44.705  40.891  40.482  1.00  0.00     0.020 A 
ATOM     88  C   UNL A   1      45.394  40.129  41.427  1.00  0.00     0.054 A 
BRANCH  88  89
ATOM     89  S   UNL A   1      45.488  40.669  43.157  1.00  0.00     0.124 S 
ATOM     90  O   UNL A   1      46.871  41.123  43.262  1.00  0.00    -0.237 OA
ATOM     91  O   UNL A   1      44.471  41.717  43.214  1.00  0.00    -0.237 OA
ATOM     92  O   UNL A   1      45.167  39.460  43.912  1.00  0.00    -0.744 OA
ENDBRANCH  88  89
ENDBRANCH  60  83
BRANCH  72  93
ATOM     93  C   UNL A   1      48.673  40.519  32.823  1.00  0.00    -0.014 A 
ATOM     94  C   UNL A   1      48.401  41.844  32.445  1.00  0.00     0.010 A 
ATOM     95  C   UNL A   1      50.013  40.101  32.937  1.00  0.00     0.010 A 
ATOM     96  C   UNL A   1      49.447  42.728  32.166  1.00  0.00     0.020 A 
ATOM     97  C   UNL A   1      51.062  40.987  32.686  1.00  0.00     0.020 A 
ATOM     98  C   UNL A   1      50.772  42.294  32.290  1.00  0.00     0.054 A 
BRANCH  98  99
ATOM     99  S   UNL A   1      52.113  43.476  31.982  1.00  0.00     0.124 S 
ATOM    100  O   UNL A   1      51.706  44.617  32.798  1.00  0.00    -0.237 OA
ATOM    101  O   UNL A   1      53.293  42.755  32.453  1.00  0.00    -0.237 OA
ATOM    102  O   UNL A   1      52.059  43.692  30.537  1.00  0.00    -0.744 OA
ENDBRANCH  98  99
ENDBRANCH  72  93
ENDBRANCH  46  47
ENDBRANCH  39  41
ENDBRANCH  38  39
ENDBRANCH  37  38
ENDBRANCH  36  37
ENDBRANCH  35  36
ENDBRANCH  34  35
ENDBRANCH   1  34
TORSDOF 26
ENDMDL
