MODEL 1
REMARK VINA RESULT:      -9.3      0.000      0.000
REMARK SMILES CCN1C(=O)C[C@@H](C(=O)OCCOCCOCCOCCOC(=O)c2ccc(-c3c4nc(c(-c5ccc(S(=O)(=O)[O-])cc5)c5ccc([nH]5)c(-c5ccc(S(=O)(=O)[O-])cc5)c5nc(c(-c6ccc(S(=O)(=O)[O-])cc6)c6ccc3[nH]6)C=C5)C=C4)cc2)[C@H]1c1ccccc1C1CC1
REMARK SMILES IDX 17 1 16 2 15 3 14 4 13 5 12 6 11 7 10 8 8 9 9 10 7 11 3 12
REMARK SMILES IDX 4 13 85 14 5 15 6 16 2 17 1 18 86 19 87 20 91 21 88 22 90 23
REMARK SMILES IDX 89 24 92 25 93 26 94 27 18 28 19 29 20 30 21 31 22 32 23 33
REMARK SMILES IDX 24 34 25 35 26 36 84 37 27 38 83 39 28 40 29 41 30 42 77 43
REMARK SMILES IDX 31 44 82 45 76 46 78 47 32 48 81 49 75 50 74 51 33 53 63 54
REMARK SMILES IDX 44 55 62 56 45 57 48 58 61 59 79 60 46 61 47 62 60 64 80 65
REMARK SMILES IDX 49 66 34 67 35 68 43 69 36 70 42 71 37 72 38 73 39 74 40 75
REMARK SMILES IDX 41 76 64 77 65 78 73 79 66 80 72 81 67 82 68 83 69 84 70 85
REMARK SMILES IDX 71 86 50 87 51 88 59 89 52 90 58 91 53 92 54 93 55 94 56 95
REMARK SMILES IDX 57 96
REMARK H PARENT 78 52 48 63
REMARK Flexibility Score: inf
ROOT
ATOM      1  C   UNL A   1      31.933  31.546  26.869  1.00  0.00     0.188 C 
ENDROOT
BRANCH   1   2
ATOM      2  O   UNL A   1      31.818  30.145  26.696  1.00  0.00    -0.377 OA
BRANCH   2   3
ATOM      3  C   UNL A   1      31.529  29.666  25.391  1.00  0.00     0.188 C 
BRANCH   3   4
ATOM      4  C   UNL A   1      32.378  28.451  25.001  1.00  0.00     0.188 C 
BRANCH   4   5
ATOM      5  O   UNL A   1      33.221  27.865  25.990  1.00  0.00    -0.376 OA
BRANCH   5   6
ATOM      6  C   UNL A   1      33.550  26.489  25.872  1.00  0.00     0.202 C 
BRANCH   6   7
ATOM      7  C   UNL A   1      32.436  25.456  25.603  1.00  0.00     0.261 C 
BRANCH   7   8
ATOM      8  O   UNL A   1      32.097  24.554  26.681  1.00  0.00    -0.463 OA
BRANCH   8   9
ATOM      9  C   UNL A   1      31.595  23.377  26.264  1.00  0.00     0.312 C 
ATOM     10  O   UNL A   1      30.589  23.292  25.555  1.00  0.00    -0.252 OA
BRANCH   9  11
ATOM     11  C   UNL A   1      32.347  22.111  26.629  1.00  0.00     0.135 C 
ATOM     12  N   UNL A   1      34.458  21.754  25.612  1.00  0.00    -0.335 N 
ATOM     13  C   UNL A   1      34.677  22.656  26.642  1.00  0.00     0.224 C 
ATOM     14  C   UNL A   1      33.137  21.140  25.737  1.00  0.00     0.130 C 
ATOM     15  O   UNL A   1      35.673  23.328  26.843  1.00  0.00    -0.275 OA
ATOM     16  C   UNL A   1      33.479  22.611  27.558  1.00  0.00     0.118 C 
BRANCH  12  17
ATOM     17  C   UNL A   1      35.435  21.420  24.575  1.00  0.00     0.117 C 
ATOM     18  C   UNL A   1      36.530  20.458  25.005  1.00  0.00     0.027 C 
ENDBRANCH  12  17
BRANCH  14  19
ATOM     19  C   UNL A   1      32.619  20.421  24.502  1.00  0.00    -0.021 A 
ATOM     20  C   UNL A   1      32.171  21.252  23.446  1.00  0.00     0.006 A 
ATOM     21  C   UNL A   1      32.774  19.017  24.253  1.00  0.00    -0.040 A 
ATOM     22  C   UNL A   1      31.966  20.771  22.154  1.00  0.00     0.000 A 
ATOM     23  C   UNL A   1      32.486  18.573  22.932  1.00  0.00     0.004 A 
ATOM     24  C   UNL A   1      32.126  19.427  21.895  1.00  0.00     0.000 A 
BRANCH  21  25
ATOM     25  C   UNL A   1      33.265  17.886  25.166  1.00  0.00     0.019 C 
ATOM     26  C   UNL A   1      32.492  16.620  25.417  1.00  0.00     0.009 C 
ATOM     27  C   UNL A   1      33.828  16.572  24.718  1.00  0.00     0.009 C 
ENDBRANCH  21  25
ENDBRANCH  14  19
ENDBRANCH   9  11
ENDBRANCH   8   9
ENDBRANCH   7   8
ENDBRANCH   6   7
ENDBRANCH   5   6
ENDBRANCH   4   5
ENDBRANCH   3   4
ENDBRANCH   2   3
ENDBRANCH   1   2
BRANCH   1  28
ATOM     28  C   UNL A   1      33.148  32.127  27.592  1.00  0.00     0.188 C 
BRANCH  28  29
ATOM     29  O   UNL A   1      33.144  33.497  27.957  1.00  0.00    -0.376 OA
BRANCH  29  30
ATOM     30  C   UNL A   1      34.338  33.974  28.575  1.00  0.00     0.202 C 
BRANCH  30  31
ATOM     31  C   UNL A   1      34.294  33.971  30.110  1.00  0.00     0.261 C 
BRANCH  31  32
ATOM     32  O   UNL A   1      34.297  32.623  30.625  1.00  0.00    -0.460 OA
BRANCH  32  33
ATOM     33  C   UNL A   1      35.190  32.367  31.616  1.00  0.00     0.338 C 
ATOM     34  O   UNL A   1      35.042  32.566  32.801  1.00  0.00    -0.246 OA
BRANCH  33  35
ATOM     35  C   UNL A   1      36.286  31.534  31.060  1.00  0.00     0.060 A 
ATOM     36  C   UNL A   1      37.128  30.883  31.973  1.00  0.00     0.016 A 
ATOM     37  C   UNL A   1      36.506  31.410  29.687  1.00  0.00     0.016 A 
ATOM     38  C   UNL A   1      38.237  30.170  31.523  1.00  0.00     0.010 A 
ATOM     39  C   UNL A   1      37.629  30.705  29.235  1.00  0.00     0.010 A 
ATOM     40  C   UNL A   1      38.531  30.137  30.155  1.00  0.00    -0.014 A 
BRANCH  40  41
ATOM     41  C   UNL A   1      39.910  29.779  29.736  1.00  0.00     0.031 A 
ATOM     42  C   UNL A   1      40.969  30.851  29.823  1.00  0.00     0.074 A 
ATOM     43  C   UNL A   1      40.248  28.529  29.370  1.00  0.00     0.049 A 
ATOM     44  N   UNL A   1      42.244  30.785  29.541  1.00  0.00    -0.248 NA
ATOM     45  C   UNL A   1      40.527  32.173  30.301  1.00  0.00     0.031 C 
ATOM     46  C   UNL A   1      39.340  27.386  29.308  1.00  0.00     0.029 A 
ATOM     47  N   UNL A   1      41.464  28.016  28.989  1.00  0.00    -0.354 N 
ATOM     48  C   UNL A   1      42.751  32.054  29.800  1.00  0.00     0.074 A 
ATOM     49  C   UNL A   1      41.643  32.878  30.225  1.00  0.00     0.031 C 
ATOM     50  C   UNL A   1      40.031  26.303  28.907  1.00  0.00     0.029 A 
ATOM     51  C   UNL A   1      41.422  26.682  28.657  1.00  0.00     0.049 A 
ATOM     52  H   UNL A   1      42.288  28.553  28.956  1.00  0.00     0.167 HD
ATOM     53  C   UNL A   1      44.027  32.496  29.706  1.00  0.00     0.031 A 
ATOM     54  C   UNL A   1      42.391  25.868  28.190  1.00  0.00     0.031 A 
ATOM     55  C   UNL A   1      45.131  31.684  29.274  1.00  0.00     0.049 A 
ATOM     56  C   UNL A   1      43.789  26.406  28.005  1.00  0.00     0.074 A 
ATOM     57  C   UNL A   1      46.462  32.042  29.147  1.00  0.00     0.029 A 
ATOM     58  N   UNL A   1      45.034  30.356  28.892  1.00  0.00    -0.354 N 
ATOM     59  N   UNL A   1      44.257  27.604  28.269  1.00  0.00    -0.248 NA
ATOM     60  C   UNL A   1      44.794  25.477  27.466  1.00  0.00     0.031 C 
ATOM     61  C   UNL A   1      47.158  30.947  28.627  1.00  0.00     0.029 A 
ATOM     62  C   UNL A   1      46.275  29.886  28.499  1.00  0.00     0.049 A 
ATOM     63  H   UNL A   1      44.205  29.824  28.899  1.00  0.00     0.167 HD
ATOM     64  C   UNL A   1      45.614  27.560  27.958  1.00  0.00     0.074 A 
ATOM     65  C   UNL A   1      45.894  26.216  27.501  1.00  0.00     0.031 C 
ATOM     66  C   UNL A   1      46.543  28.544  28.047  1.00  0.00     0.031 A 
BRANCH  53  67
ATOM     67  C   UNL A   1      44.286  33.940  30.044  1.00  0.00    -0.014 A 
ATOM     68  C   UNL A   1      44.025  34.967  29.118  1.00  0.00     0.010 A 
ATOM     69  C   UNL A   1      44.776  34.276  31.319  1.00  0.00     0.010 A 
ATOM     70  C   UNL A   1      44.286  36.300  29.448  1.00  0.00     0.020 A 
ATOM     71  C   UNL A   1      45.010  35.609  31.664  1.00  0.00     0.020 A 
ATOM     72  C   UNL A   1      44.779  36.612  30.719  1.00  0.00     0.054 A 
BRANCH  72  73
ATOM     73  S   UNL A   1      45.089  38.351  31.127  1.00  0.00     0.124 S 
ATOM     74  O   UNL A   1      45.477  38.265  32.533  1.00  0.00    -0.237 OA
ATOM     75  O   UNL A   1      46.159  38.710  30.201  1.00  0.00    -0.237 OA
ATOM     76  O   UNL A   1      43.805  39.001  30.875  1.00  0.00    -0.744 OA
ENDBRANCH  72  73
ENDBRANCH  53  67
BRANCH  54  77
ATOM     77  C   UNL A   1      42.072  24.455  27.839  1.00  0.00    -0.014 A 
ATOM     78  C   UNL A   1      42.331  23.408  28.742  1.00  0.00     0.010 A 
ATOM     79  C   UNL A   1      41.523  24.148  26.580  1.00  0.00     0.010 A 
ATOM     80  C   UNL A   1      42.061  22.082  28.387  1.00  0.00     0.020 A 
ATOM     81  C   UNL A   1      41.223  22.828  26.233  1.00  0.00     0.020 A 
ATOM     82  C   UNL A   1      41.506  21.801  27.135  1.00  0.00     0.054 A 
BRANCH  82  83
ATOM     83  S   UNL A   1      41.123  20.078  26.716  1.00  0.00     0.124 S 
ATOM     84  O   UNL A   1      39.943  20.226  25.870  1.00  0.00    -0.237 OA
ATOM     85  O   UNL A   1      42.340  19.643  26.034  1.00  0.00    -0.237 OA
ATOM     86  O   UNL A   1      40.888  19.454  28.016  1.00  0.00    -0.744 OA
ENDBRANCH  82  83
ENDBRANCH  54  77
BRANCH  66  87
ATOM     87  C   UNL A   1      47.966  28.204  27.681  1.00  0.00    -0.014 A 
ATOM     88  C   UNL A   1      48.828  27.570  28.592  1.00  0.00     0.010 A 
ATOM     89  C   UNL A   1      48.425  28.465  26.375  1.00  0.00     0.010 A 
ATOM     90  C   UNL A   1      50.131  27.232  28.217  1.00  0.00     0.020 A 
ATOM     91  C   UNL A   1      49.716  28.101  25.986  1.00  0.00     0.020 A 
ATOM     92  C   UNL A   1      50.567  27.499  26.914  1.00  0.00     0.054 A 
BRANCH  92  93
ATOM     93  S   UNL A   1      52.248  27.009  26.439  1.00  0.00     0.124 S 
ATOM     94  O   UNL A   1      52.160  25.552  26.462  1.00  0.00    -0.237 OA
ATOM     95  O   UNL A   1      52.394  27.610  25.116  1.00  0.00    -0.237 OA
ATOM     96  O   UNL A   1      53.089  27.598  27.480  1.00  0.00    -0.744 OA
ENDBRANCH  92  93
ENDBRANCH  66  87
ENDBRANCH  40  41
ENDBRANCH  33  35
ENDBRANCH  32  33
ENDBRANCH  31  32
ENDBRANCH  30  31
ENDBRANCH  29  30
ENDBRANCH  28  29
ENDBRANCH   1  28
TORSDOF 26
ENDMDL
MODEL 2
REMARK VINA RESULT:      -9.2      1.334      2.376
REMARK SMILES CCN1C(=O)C[C@@H](C(=O)OCCOCCOCCOCCOC(=O)c2ccc(-c3c4nc(c(-c5ccc(S(=O)(=O)[O-])cc5)c5ccc([nH]5)c(-c5ccc(S(=O)(=O)[O-])cc5)c5nc(c(-c6ccc(S(=O)(=O)[O-])cc6)c6ccc3[nH]6)C=C5)C=C4)cc2)[C@H]1c1ccccc1C1CC1
REMARK SMILES IDX 17 1 16 2 15 3 14 4 13 5 12 6 11 7 10 8 8 9 9 10 7 11 3 12
REMARK SMILES IDX 4 13 85 14 5 15 6 16 2 17 1 18 86 19 87 20 91 21 88 22 90 23
REMARK SMILES IDX 89 24 92 25 93 26 94 27 18 28 19 29 20 30 21 31 22 32 23 33
REMARK SMILES IDX 24 34 25 35 26 36 84 37 27 38 83 39 28 40 29 41 30 42 77 43
REMARK SMILES IDX 31 44 82 45 76 46 78 47 32 48 81 49 75 50 74 51 33 53 63 54
REMARK SMILES IDX 44 55 62 56 45 57 48 58 61 59 79 60 46 61 47 62 60 64 80 65
REMARK SMILES IDX 49 66 34 67 35 68 43 69 36 70 42 71 37 72 38 73 39 74 40 75
REMARK SMILES IDX 41 76 64 77 65 78 73 79 66 80 72 81 67 82 68 83 69 84 70 85
REMARK SMILES IDX 71 86 50 87 51 88 59 89 52 90 58 91 53 92 54 93 55 94 56 95
REMARK SMILES IDX 57 96
REMARK H PARENT 78 52 48 63
REMARK Flexibility Score: inf
ROOT
ATOM      1  C   UNL A   1      31.411  32.254  26.884  1.00  0.00     0.188 C 
ENDROOT
BRANCH   1   2
ATOM      2  O   UNL A   1      31.243  30.908  26.475  1.00  0.00    -0.377 OA
BRANCH   2   3
ATOM      3  C   UNL A   1      32.021  30.452  25.379  1.00  0.00     0.188 C 
BRANCH   3   4
ATOM      4  C   UNL A   1      33.160  29.519  25.804  1.00  0.00     0.188 C 
BRANCH   4   5
ATOM      5  O   UNL A   1      32.828  28.256  26.375  1.00  0.00    -0.376 OA
BRANCH   5   6
ATOM      6  C   UNL A   1      33.638  27.134  26.060  1.00  0.00     0.202 C 
BRANCH   6   7
ATOM      7  C   UNL A   1      34.036  26.867  24.593  1.00  0.00     0.261 C 
BRANCH   7   8
ATOM      8  O   UNL A   1      33.002  27.010  23.592  1.00  0.00    -0.463 OA
BRANCH   8   9
ATOM      9  C   UNL A   1      33.041  26.062  22.636  1.00  0.00     0.312 C 
ATOM     10  O   UNL A   1      33.764  26.145  21.640  1.00  0.00    -0.252 OA
BRANCH   9  11
ATOM     11  C   UNL A   1      32.208  24.810  22.839  1.00  0.00     0.135 C 
ATOM     12  N   UNL A   1      31.536  24.282  25.050  1.00  0.00    -0.335 N 
ATOM     13  C   UNL A   1      30.667  25.270  24.611  1.00  0.00     0.224 C 
ATOM     14  C   UNL A   1      32.298  23.731  23.930  1.00  0.00     0.130 C 
ATOM     15  O   UNL A   1      29.884  25.921  25.279  1.00  0.00    -0.275 OA
ATOM     16  C   UNL A   1      30.786  25.355  23.110  1.00  0.00     0.118 C 
BRANCH  12  17
ATOM     17  C   UNL A   1      31.639  23.816  26.434  1.00  0.00     0.117 C 
ATOM     18  C   UNL A   1      30.746  22.639  26.786  1.00  0.00     0.027 C 
ENDBRANCH  12  17
BRANCH  14  19
ATOM     19  C   UNL A   1      33.527  22.917  24.299  1.00  0.00    -0.021 A 
ATOM     20  C   UNL A   1      34.674  23.664  24.666  1.00  0.00     0.006 A 
ATOM     21  C   UNL A   1      33.528  21.500  24.523  1.00  0.00    -0.040 A 
ATOM     22  C   UNL A   1      35.761  23.086  25.319  1.00  0.00     0.000 A 
ATOM     23  C   UNL A   1      34.693  20.958  25.134  1.00  0.00     0.004 A 
ATOM     24  C   UNL A   1      35.771  21.729  25.558  1.00  0.00     0.000 A 
BRANCH  21  25
ATOM     25  C   UNL A   1      32.443  20.445  24.270  1.00  0.00     0.019 C 
ATOM     26  C   UNL A   1      32.174  19.831  22.923  1.00  0.00     0.009 C 
ATOM     27  C   UNL A   1      32.669  18.979  24.065  1.00  0.00     0.009 C 
ENDBRANCH  21  25
ENDBRANCH  14  19
ENDBRANCH   9  11
ENDBRANCH   8   9
ENDBRANCH   7   8
ENDBRANCH   6   7
ENDBRANCH   5   6
ENDBRANCH   4   5
ENDBRANCH   3   4
ENDBRANCH   2   3
ENDBRANCH   1   2
BRANCH   1  28
ATOM     28  C   UNL A   1      32.808  32.783  27.206  1.00  0.00     0.188 C 
BRANCH  28  29
ATOM     29  O   UNL A   1      32.942  33.903  28.065  1.00  0.00    -0.376 OA
BRANCH  29  30
ATOM     30  C   UNL A   1      34.280  34.283  28.381  1.00  0.00     0.202 C 
BRANCH  30  31
ATOM     31  C   UNL A   1      34.764  33.792  29.753  1.00  0.00     0.261 C 
BRANCH  31  32
ATOM     32  O   UNL A   1      34.909  32.357  29.767  1.00  0.00    -0.460 OA
BRANCH  32  33
ATOM     33  C   UNL A   1      35.518  31.832  30.862  1.00  0.00     0.338 C 
ATOM     34  O   UNL A   1      35.104  31.834  32.000  1.00  0.00    -0.246 OA
BRANCH  33  35
ATOM     35  C   UNL A   1      36.657  30.993  30.411  1.00  0.00     0.060 A 
ATOM     36  C   UNL A   1      37.431  30.370  31.401  1.00  0.00     0.016 A 
ATOM     37  C   UNL A   1      36.980  30.834  29.062  1.00  0.00     0.016 A 
ATOM     38  C   UNL A   1      38.575  29.654  31.054  1.00  0.00     0.010 A 
ATOM     39  C   UNL A   1      38.137  30.126  28.714  1.00  0.00     0.010 A 
ATOM     40  C   UNL A   1      38.970  29.587  29.713  1.00  0.00    -0.014 A 
BRANCH  40  41
ATOM     41  C   UNL A   1      40.379  29.228  29.408  1.00  0.00     0.031 A 
ATOM     42  C   UNL A   1      41.432  30.288  29.617  1.00  0.00     0.074 A 
ATOM     43  C   UNL A   1      40.739  27.985  29.039  1.00  0.00     0.049 A 
ATOM     44  N   UNL A   1      42.727  30.218  29.447  1.00  0.00    -0.248 NA
ATOM     45  C   UNL A   1      40.959  31.600  30.090  1.00  0.00     0.031 C 
ATOM     46  C   UNL A   1      39.832  26.853  28.866  1.00  0.00     0.029 A 
ATOM     47  N   UNL A   1      41.980  27.472  28.753  1.00  0.00    -0.354 N 
ATOM     48  C   UNL A   1      43.218  31.475  29.784  1.00  0.00     0.074 A 
ATOM     49  C   UNL A   1      42.083  32.298  30.132  1.00  0.00     0.031 C 
ATOM     50  C   UNL A   1      40.549  25.775  28.498  1.00  0.00     0.029 A 
ATOM     51  C   UNL A   1      41.959  26.148  28.382  1.00  0.00     0.049 A 
ATOM     52  H   UNL A   1      42.808  28.002  28.807  1.00  0.00     0.167 HD
ATOM     53  C   UNL A   1      44.500  31.908  29.816  1.00  0.00     0.031 A 
ATOM     54  C   UNL A   1      42.961  25.338  27.981  1.00  0.00     0.031 A 
ATOM     55  C   UNL A   1      45.632  31.098  29.460  1.00  0.00     0.049 A 
ATOM     56  C   UNL A   1      44.373  25.867  27.934  1.00  0.00     0.074 A 
ATOM     57  C   UNL A   1      46.972  31.446  29.460  1.00  0.00     0.029 A 
ATOM     58  N   UNL A   1      45.561  29.781  29.035  1.00  0.00    -0.354 N 
ATOM     59  N   UNL A   1      44.823  27.054  28.271  1.00  0.00    -0.248 NA
ATOM     60  C   UNL A   1      45.415  24.944  27.461  1.00  0.00     0.031 C 
ATOM     61  C   UNL A   1      47.704  30.359  28.975  1.00  0.00     0.029 A 
ATOM     62  C   UNL A   1      46.828  29.311  28.740  1.00  0.00     0.049 A 
ATOM     63  H   UNL A   1      44.731  29.257  28.954  1.00  0.00     0.167 HD
ATOM     64  C   UNL A   1      46.202  27.006  28.079  1.00  0.00     0.074 A 
ATOM     65  C   UNL A   1      46.513  25.672  27.612  1.00  0.00     0.031 C 
ATOM     66  C   UNL A   1      47.127  27.979  28.277  1.00  0.00     0.031 A 
BRANCH  53  67
ATOM     67  C   UNL A   1      44.738  33.340  30.214  1.00  0.00    -0.014 A 
ATOM     68  C   UNL A   1      44.708  34.379  29.265  1.00  0.00     0.010 A 
ATOM     69  C   UNL A   1      44.971  33.653  31.565  1.00  0.00     0.010 A 
ATOM     70  C   UNL A   1      44.945  35.699  29.655  1.00  0.00     0.020 A 
ATOM     71  C   UNL A   1      45.178  34.976  31.964  1.00  0.00     0.020 A 
ATOM     72  C   UNL A   1      45.181  35.989  31.004  1.00  0.00     0.054 A 
BRANCH  72  73
ATOM     73  S   UNL A   1      45.465  37.714  31.484  1.00  0.00     0.124 S 
ATOM     74  O   UNL A   1      46.652  38.052  30.703  1.00  0.00    -0.237 OA
ATOM     75  O   UNL A   1      44.230  38.370  31.067  1.00  0.00    -0.237 OA
ATOM     76  O   UNL A   1      45.673  37.642  32.929  1.00  0.00    -0.744 OA
ENDBRANCH  72  73
ENDBRANCH  53  67
BRANCH  54  77
ATOM     77  C   UNL A   1      42.664  23.937  27.564  1.00  0.00    -0.014 A 
ATOM     78  C   UNL A   1      42.386  22.941  28.517  1.00  0.00     0.010 A 
ATOM     79  C   UNL A   1      42.680  23.589  26.201  1.00  0.00     0.010 A 
ATOM     80  C   UNL A   1      42.146  21.623  28.117  1.00  0.00     0.020 A 
ATOM     81  C   UNL A   1      42.411  22.279  25.794  1.00  0.00     0.020 A 
ATOM     82  C   UNL A   1      42.157  21.301  26.757  1.00  0.00     0.054 A 
BRANCH  82  83
ATOM     83  S   UNL A   1      41.797  19.594  26.259  1.00  0.00     0.124 S 
ATOM     84  O   UNL A   1      42.261  18.836  27.416  1.00  0.00    -0.237 OA
ATOM     85  O   UNL A   1      40.350  19.624  26.061  1.00  0.00    -0.237 OA
ATOM     86  O   UNL A   1      42.583  19.420  25.040  1.00  0.00    -0.744 OA
ENDBRANCH  82  83
ENDBRANCH  54  77
BRANCH  66  87
ATOM     87  C   UNL A   1      48.574  27.636  28.028  1.00  0.00    -0.014 A 
ATOM     88  C   UNL A   1      49.339  26.944  28.983  1.00  0.00     0.010 A 
ATOM     89  C   UNL A   1      49.156  27.954  26.787  1.00  0.00     0.010 A 
ATOM     90  C   UNL A   1      50.669  26.605  28.714  1.00  0.00     0.020 A 
ATOM     91  C   UNL A   1      50.475  27.590  26.502  1.00  0.00     0.020 A 
ATOM     92  C   UNL A   1      51.228  26.929  27.474  1.00  0.00     0.054 A 
BRANCH  92  93
ATOM     93  S   UNL A   1      52.941  26.439  27.133  1.00  0.00     0.124 S 
ATOM     94  O   UNL A   1      52.763  25.153  26.466  1.00  0.00    -0.237 OA
ATOM     95  O   UNL A   1      53.423  27.526  26.285  1.00  0.00    -0.237 OA
ATOM     96  O   UNL A   1      53.553  26.372  28.459  1.00  0.00    -0.744 OA
ENDBRANCH  92  93
ENDBRANCH  66  87
ENDBRANCH  40  41
ENDBRANCH  33  35
ENDBRANCH  32  33
ENDBRANCH  31  32
ENDBRANCH  30  31
ENDBRANCH  29  30
ENDBRANCH  28  29
ENDBRANCH   1  28
TORSDOF 26
ENDMDL
MODEL 3
REMARK VINA RESULT:      -8.8      1.333      8.010
REMARK SMILES CCN1C(=O)C[C@@H](C(=O)OCCOCCOCCOCCOC(=O)c2ccc(-c3c4nc(c(-c5ccc(S(=O)(=O)[O-])cc5)c5ccc([nH]5)c(-c5ccc(S(=O)(=O)[O-])cc5)c5nc(c(-c6ccc(S(=O)(=O)[O-])cc6)c6ccc3[nH]6)C=C5)C=C4)cc2)[C@H]1c1ccccc1C1CC1
REMARK SMILES IDX 17 1 16 2 15 3 14 4 13 5 12 6 11 7 10 8 8 9 9 10 7 11 3 12
REMARK SMILES IDX 4 13 85 14 5 15 6 16 2 17 1 18 86 19 87 20 91 21 88 22 90 23
REMARK SMILES IDX 89 24 92 25 93 26 94 27 18 28 19 29 20 30 21 31 22 32 23 33
REMARK SMILES IDX 24 34 25 35 26 36 84 37 27 38 83 39 28 40 29 41 30 42 77 43
REMARK SMILES IDX 31 44 82 45 76 46 78 47 32 48 81 49 75 50 74 51 33 53 63 54
REMARK SMILES IDX 44 55 62 56 45 57 48 58 61 59 79 60 46 61 47 62 60 64 80 65
REMARK SMILES IDX 49 66 34 67 35 68 43 69 36 70 42 71 37 72 38 73 39 74 40 75
REMARK SMILES IDX 41 76 64 77 65 78 73 79 66 80 72 81 67 82 68 83 69 84 70 85
REMARK SMILES IDX 71 86 50 87 51 88 59 89 52 90 58 91 53 92 54 93 55 94 56 95
REMARK SMILES IDX 57 96
REMARK H PARENT 78 52 48 63
REMARK Flexibility Score: inf
ROOT
ATOM      1  C   UNL A   1      32.358  31.205  26.858  1.00  0.00     0.188 C 
ENDROOT
BRANCH   1   2
ATOM      2  O   UNL A   1      31.993  29.848  26.676  1.00  0.00    -0.377 OA
BRANCH   2   3
ATOM      3  C   UNL A   1      31.657  29.428  25.363  1.00  0.00     0.188 C 
BRANCH   3   4
ATOM      4  C   UNL A   1      32.240  28.057  25.008  1.00  0.00     0.188 C 
BRANCH   4   5
ATOM      5  O   UNL A   1      33.169  27.459  25.909  1.00  0.00    -0.376 OA
BRANCH   5   6
ATOM      6  C   UNL A   1      33.267  26.044  25.942  1.00  0.00     0.202 C 
BRANCH   6   7
ATOM      7  C   UNL A   1      32.019  25.198  26.273  1.00  0.00     0.261 C 
BRANCH   7   8
ATOM      8  O   UNL A   1      32.163  24.177  27.287  1.00  0.00    -0.463 OA
BRANCH   8   9
ATOM      9  C   UNL A   1      31.714  22.967  26.904  1.00  0.00     0.312 C 
ATOM     10  O   UNL A   1      30.563  22.777  26.502  1.00  0.00    -0.252 OA
BRANCH   9  11
ATOM     11  C   UNL A   1      32.696  21.810  26.904  1.00  0.00     0.135 C 
ATOM     12  N   UNL A   1      34.590  21.974  25.488  1.00  0.00    -0.335 N 
ATOM     13  C   UNL A   1      34.880  22.739  26.608  1.00  0.00     0.224 C 
ATOM     14  C   UNL A   1      33.420  21.131  25.731  1.00  0.00     0.130 C 
ATOM     15  O   UNL A   1      35.791  23.536  26.748  1.00  0.00    -0.275 OA
ATOM     16  C   UNL A   1      33.908  22.355  27.695  1.00  0.00     0.118 C 
BRANCH  12  17
ATOM     17  C   UNL A   1      35.377  21.969  24.255  1.00  0.00     0.117 C 
ATOM     18  C   UNL A   1      35.143  23.155  23.335  1.00  0.00     0.027 C 
ENDBRANCH  12  17
BRANCH  14  19
ATOM     19  C   UNL A   1      32.773  20.522  24.497  1.00  0.00    -0.021 A 
ATOM     20  C   UNL A   1      32.156  21.438  23.608  1.00  0.00     0.006 A 
ATOM     21  C   UNL A   1      32.950  19.164  24.071  1.00  0.00    -0.040 A 
ATOM     22  C   UNL A   1      31.801  21.089  22.307  1.00  0.00     0.000 A 
ATOM     23  C   UNL A   1      32.508  18.852  22.755  1.00  0.00     0.004 A 
ATOM     24  C   UNL A   1      31.980  19.792  21.876  1.00  0.00     0.000 A 
BRANCH  21  25
ATOM     25  C   UNL A   1      33.603  17.969  24.778  1.00  0.00     0.019 C 
ATOM     26  C   UNL A   1      33.350  16.535  24.400  1.00  0.00     0.009 C 
ATOM     27  C   UNL A   1      34.725  17.134  24.245  1.00  0.00     0.009 C 
ENDBRANCH  21  25
ENDBRANCH  14  19
ENDBRANCH   9  11
ENDBRANCH   8   9
ENDBRANCH   7   8
ENDBRANCH   6   7
ENDBRANCH   5   6
ENDBRANCH   4   5
ENDBRANCH   3   4
ENDBRANCH   2   3
ENDBRANCH   1   2
BRANCH   1  28
ATOM     28  C   UNL A   1      33.686  31.553  27.529  1.00  0.00     0.188 C 
BRANCH  28  29
ATOM     29  O   UNL A   1      33.891  32.870  28.013  1.00  0.00    -0.376 OA
BRANCH  29  30
ATOM     30  C   UNL A   1      35.190  33.139  28.538  1.00  0.00     0.202 C 
BRANCH  30  31
ATOM     31  C   UNL A   1      35.357  32.771  30.020  1.00  0.00     0.261 C 
BRANCH  31  32
ATOM     32  O   UNL A   1      35.681  31.373  30.172  1.00  0.00    -0.460 OA
BRANCH  32  33
ATOM     33  C   UNL A   1      36.544  31.070  31.178  1.00  0.00     0.338 C 
ATOM     34  O   UNL A   1      36.324  31.120  32.367  1.00  0.00    -0.246 OA
BRANCH  33  35
ATOM     35  C   UNL A   1      37.726  30.387  30.595  1.00  0.00     0.060 A 
ATOM     36  C   UNL A   1      38.570  29.694  31.475  1.00  0.00     0.016 A 
ATOM     37  C   UNL A   1      38.022  30.440  29.231  1.00  0.00     0.016 A 
ATOM     38  C   UNL A   1      39.751  29.119  31.011  1.00  0.00     0.010 A 
ATOM     39  C   UNL A   1      39.216  29.874  28.767  1.00  0.00     0.010 A 
ATOM     40  C   UNL A   1      40.113  29.266  29.668  1.00  0.00    -0.014 A 
BRANCH  40  41
ATOM     41  C   UNL A   1      41.534  29.058  29.290  1.00  0.00     0.031 A 
ATOM     42  C   UNL A   1      41.929  27.697  28.772  1.00  0.00     0.074 A 
ATOM     43  C   UNL A   1      42.439  30.054  29.318  1.00  0.00     0.049 A 
ATOM     44  N   UNL A   1      43.093  27.270  28.357  1.00  0.00    -0.248 NA
ATOM     45  C   UNL A   1      40.861  26.684  28.707  1.00  0.00     0.031 C 
ATOM     46  C   UNL A   1      42.175  31.431  29.732  1.00  0.00     0.029 A 
ATOM     47  N   UNL A   1      43.769  30.052  28.978  1.00  0.00    -0.354 N 
ATOM     48  C   UNL A   1      42.898  25.943  27.991  1.00  0.00     0.074 A 
ATOM     49  C   UNL A   1      41.517  25.622  28.267  1.00  0.00     0.031 C 
ATOM     50  C   UNL A   1      43.312  32.141  29.625  1.00  0.00     0.029 A 
ATOM     51  C   UNL A   1      44.389  31.265  29.164  1.00  0.00     0.049 A 
ATOM     52  H   UNL A   1      44.235  29.257  28.634  1.00  0.00     0.167 HD
ATOM     53  C   UNL A   1      43.783  25.067  27.459  1.00  0.00     0.031 A 
ATOM     54  C   UNL A   1      45.680  31.621  28.995  1.00  0.00     0.031 A 
ATOM     55  C   UNL A   1      45.161  25.377  27.193  1.00  0.00     0.049 A 
ATOM     56  C   UNL A   1      46.672  30.602  28.489  1.00  0.00     0.074 A 
ATOM     57  C   UNL A   1      46.137  24.556  26.655  1.00  0.00     0.029 A 
ATOM     58  N   UNL A   1      45.761  26.599  27.450  1.00  0.00    -0.354 N 
ATOM     59  N   UNL A   1      46.469  29.355  28.133  1.00  0.00    -0.248 NA
ATOM     60  C   UNL A   1      48.068  31.043  28.354  1.00  0.00     0.031 C 
ATOM     61  C   UNL A   1      47.342  25.263  26.646  1.00  0.00     0.029 A 
ATOM     62  C   UNL A   1      47.101  26.546  27.112  1.00  0.00     0.049 A 
ATOM     63  H   UNL A   1      45.302  27.388  27.819  1.00  0.00     0.167 HD
ATOM     64  C   UNL A   1      47.704  28.876  27.703  1.00  0.00     0.074 A 
ATOM     65  C   UNL A   1      48.643  29.970  27.830  1.00  0.00     0.031 C 
ATOM     66  C   UNL A   1      48.028  27.643  27.241  1.00  0.00     0.031 A 
BRANCH  53  67
ATOM     67  C   UNL A   1      43.290  23.675  27.169  1.00  0.00    -0.014 A 
ATOM     68  C   UNL A   1      43.181  22.709  28.186  1.00  0.00     0.010 A 
ATOM     69  C   UNL A   1      42.905  23.336  25.859  1.00  0.00     0.010 A 
ATOM     70  C   UNL A   1      42.735  21.418  27.890  1.00  0.00     0.020 A 
ATOM     71  C   UNL A   1      42.429  22.057  25.565  1.00  0.00     0.020 A 
ATOM     72  C   UNL A   1      42.362  21.100  26.580  1.00  0.00     0.054 A 
BRANCH  72  73
ATOM     73  S   UNL A   1      41.767  19.424  26.229  1.00  0.00     0.124 S 
ATOM     74  O   UNL A   1      42.536  19.075  25.037  1.00  0.00    -0.237 OA
ATOM     75  O   UNL A   1      42.125  18.697  27.443  1.00  0.00    -0.237 OA
ATOM     76  O   UNL A   1      40.333  19.603  26.012  1.00  0.00    -0.744 OA
ENDBRANCH  72  73
ENDBRANCH  53  67
BRANCH  54  77
ATOM     77  C   UNL A   1      46.121  33.004  29.331  1.00  0.00    -0.014 A 
ATOM     78  C   UNL A   1      46.138  34.017  28.356  1.00  0.00     0.010 A 
ATOM     79  C   UNL A   1      46.549  33.310  30.637  1.00  0.00     0.010 A 
ATOM     80  C   UNL A   1      46.589  35.302  28.673  1.00  0.00     0.020 A 
ATOM     81  C   UNL A   1      46.973  34.600  30.967  1.00  0.00     0.020 A 
ATOM     82  C   UNL A   1      47.001  35.586  29.979  1.00  0.00     0.054 A 
BRANCH  82  83
ATOM     83  S   UNL A   1      47.539  37.272  30.379  1.00  0.00     0.124 S 
ATOM     84  O   UNL A   1      48.157  37.699  29.128  1.00  0.00    -0.237 OA
ATOM     85  O   UNL A   1      46.280  37.930  30.720  1.00  0.00    -0.237 OA
ATOM     86  O   UNL A   1      48.458  37.081  31.499  1.00  0.00    -0.744 OA
ENDBRANCH  82  83
ENDBRANCH  54  77
BRANCH  66  87
ATOM     87  C   UNL A   1      49.450  27.409  26.798  1.00  0.00    -0.014 A 
ATOM     88  C   UNL A   1      50.006  28.106  25.711  1.00  0.00     0.010 A 
ATOM     89  C   UNL A   1      50.265  26.522  27.528  1.00  0.00     0.010 A 
ATOM     90  C   UNL A   1      51.338  27.897  25.342  1.00  0.00     0.020 A 
ATOM     91  C   UNL A   1      51.605  26.334  27.183  1.00  0.00     0.020 A 
ATOM     92  C   UNL A   1      52.130  27.014  26.082  1.00  0.00     0.054 A 
BRANCH  92  93
ATOM     93  S   UNL A   1      53.868  26.795  25.610  1.00  0.00     0.124 S 
ATOM     94  O   UNL A   1      54.325  25.803  26.579  1.00  0.00    -0.237 OA
ATOM     95  O   UNL A   1      53.770  26.329  24.230  1.00  0.00    -0.237 OA
ATOM     96  O   UNL A   1      54.442  28.131  25.771  1.00  0.00    -0.744 OA
ENDBRANCH  92  93
ENDBRANCH  66  87
ENDBRANCH  40  41
ENDBRANCH  33  35
ENDBRANCH  32  33
ENDBRANCH  31  32
ENDBRANCH  30  31
ENDBRANCH  29  30
ENDBRANCH  28  29
ENDBRANCH   1  28
TORSDOF 26
ENDMDL
