MODEL 1
REMARK VINA RESULT:      -9.8      0.000      0.000
REMARK SMILES O=C(OCCOCCOCCOCCOC(=O)c1ccc(-c2c3nc(c(-c4ccc(S(=O)(=O)[O-])cc4)c4ccc([nH]4)c(-c4ccc(S(=O)(=O)[O-])cc4)c4nc(c(-c5ccc(S(=O)(=O)[O-])cc5)c5ccc2[nH]5)C=C4)C=C3)cc1)C1=Cc2cc(Cl)cc(Cl)c2O[C@@H]1C(F)(F)F
REMARK SMILES IDX 10 1 9 2 8 3 7 4 6 5 5 6 4 7 3 8 2 9 1 10 78 11 79 12 89 13
REMARK SMILES IDX 80 14 88 15 81 16 87 17 82 18 85 19 83 20 84 21 86 22 90 23
REMARK SMILES IDX 91 24 92 25 93 26 11 27 12 28 13 29 14 30 15 31 16 32 17 33
REMARK SMILES IDX 18 34 19 35 77 36 20 37 76 38 21 39 22 40 23 41 70 42 24 43
REMARK SMILES IDX 75 44 69 45 71 46 25 47 74 48 68 49 67 50 26 52 56 53 37 54
REMARK SMILES IDX 55 55 38 56 41 57 54 58 72 59 39 60 40 61 53 63 73 64 42 65
REMARK SMILES IDX 27 66 28 67 36 68 29 69 35 70 30 71 31 72 32 73 33 74 34 75
REMARK SMILES IDX 57 76 58 77 66 78 59 79 65 80 60 81 61 82 62 83 63 84 64 85
REMARK SMILES IDX 43 86 44 87 52 88 45 89 51 90 46 91 47 92 48 93 49 94 50 95
REMARK H PARENT 71 51 41 62
REMARK Flexibility Score: inf
ROOT
ATOM      1  C   UNL A   1      41.860  21.333  27.458  1.00  0.00     0.188 C 
ENDROOT
BRANCH   1   2
ATOM      2  O   UNL A   1      41.001  20.228  27.188  1.00  0.00    -0.377 OA
BRANCH   2   3
ATOM      3  C   UNL A   1      40.021  20.431  26.177  1.00  0.00     0.188 C 
BRANCH   3   4
ATOM      4  C   UNL A   1      39.352  21.795  26.276  1.00  0.00     0.188 C 
BRANCH   4   5
ATOM      5  O   UNL A   1      38.100  21.845  25.619  1.00  0.00    -0.376 OA
BRANCH   5   6
ATOM      6  C   UNL A   1      37.640  23.086  25.112  1.00  0.00     0.202 C 
BRANCH   6   7
ATOM      7  C   UNL A   1      36.929  23.040  23.754  1.00  0.00     0.261 C 
BRANCH   7   8
ATOM      8  O   UNL A   1      35.505  22.791  23.832  1.00  0.00    -0.460 OA
BRANCH   8   9
ATOM      9  C   UNL A   1      34.663  23.842  23.628  1.00  0.00     0.338 C 
ATOM     10  O   UNL A   1      34.532  24.397  22.549  1.00  0.00    -0.246 OA
BRANCH   9  11
ATOM     11  C   UNL A   1      33.944  24.244  24.857  1.00  0.00     0.087 C 
ATOM     12  C   UNL A   1      34.327  25.349  25.517  1.00  0.00     0.027 C 
ATOM     13  C   UNL A   1      32.619  23.628  25.155  1.00  0.00     0.316 C 
ATOM     14  C   UNL A   1      33.201  26.283  25.721  1.00  0.00     0.020 A 
ATOM     15  O   UNL A   1      31.556  24.600  25.099  1.00  0.00    -0.474 OA
ATOM     16  C   UNL A   1      33.460  27.622  26.036  1.00  0.00     0.032 A 
ATOM     17  C   UNL A   1      31.910  25.916  25.295  1.00  0.00     0.146 A 
ATOM     18  C   UNL A   1      32.470  28.588  25.843  1.00  0.00     0.043 A 
ATOM     19  C   UNL A   1      30.967  26.915  25.001  1.00  0.00     0.085 A 
ATOM     20  Cl  UNL A   1      32.769  30.220  26.299  1.00  0.00    -0.084 Cl
ATOM     21  C   UNL A   1      31.250  28.253  25.265  1.00  0.00     0.045 A 
ATOM     22  Cl  UNL A   1      29.466  26.554  24.224  1.00  0.00    -0.080 Cl
BRANCH  13  23
ATOM     23  C   UNL A   1      32.639  22.755  26.413  1.00  0.00     0.430 C 
ATOM     24  F   UNL A   1      33.903  22.413  26.759  1.00  0.00    -0.167 F 
ATOM     25  F   UNL A   1      32.131  23.440  27.474  1.00  0.00    -0.167 F 
ATOM     26  F   UNL A   1      31.920  21.622  26.288  1.00  0.00    -0.167 F 
ENDBRANCH  13  23
ENDBRANCH   9  11
ENDBRANCH   8   9
ENDBRANCH   7   8
ENDBRANCH   6   7
ENDBRANCH   5   6
ENDBRANCH   4   5
ENDBRANCH   3   4
ENDBRANCH   2   3
ENDBRANCH   1   2
BRANCH   1  27
ATOM     27  C   UNL A   1      42.954  21.638  26.404  1.00  0.00     0.188 C 
BRANCH  27  28
ATOM     28  O   UNL A   1      42.705  22.386  25.215  1.00  0.00    -0.376 OA
BRANCH  28  29
ATOM     29  C   UNL A   1      43.027  23.762  25.192  1.00  0.00     0.202 C 
BRANCH  29  30
ATOM     30  C   UNL A   1      42.772  24.473  26.531  1.00  0.00     0.261 C 
BRANCH  30  31
ATOM     31  O   UNL A   1      41.439  24.996  26.681  1.00  0.00    -0.460 OA
BRANCH  31  32
ATOM     32  C   UNL A   1      41.282  26.304  26.328  1.00  0.00     0.338 C 
ATOM     33  O   UNL A   1      41.366  26.764  25.215  1.00  0.00    -0.246 OA
BRANCH  32  34
ATOM     34  C   UNL A   1      40.820  27.097  27.509  1.00  0.00     0.060 A 
ATOM     35  C   UNL A   1      41.260  28.423  27.605  1.00  0.00     0.016 A 
ATOM     36  C   UNL A   1      39.961  26.584  28.490  1.00  0.00     0.016 A 
ATOM     37  C   UNL A   1      40.904  29.214  28.701  1.00  0.00     0.010 A 
ATOM     38  C   UNL A   1      39.608  27.377  29.596  1.00  0.00     0.010 A 
ATOM     39  C   UNL A   1      40.124  28.679  29.733  1.00  0.00    -0.014 A 
BRANCH  39  40
ATOM     40  C   UNL A   1      40.101  29.385  31.045  1.00  0.00     0.031 A 
ATOM     41  C   UNL A   1      41.226  29.099  32.012  1.00  0.00     0.074 A 
ATOM     42  C   UNL A   1      39.185  30.325  31.348  1.00  0.00     0.049 A 
ATOM     43  N   UNL A   1      41.470  29.624  33.186  1.00  0.00    -0.248 NA
ATOM     44  C   UNL A   1      42.212  28.088  31.592  1.00  0.00     0.031 C 
ATOM     45  C   UNL A   1      38.074  30.738  30.492  1.00  0.00     0.029 A 
ATOM     46  N   UNL A   1      39.055  31.115  32.467  1.00  0.00    -0.354 N 
ATOM     47  C   UNL A   1      42.640  29.017  33.634  1.00  0.00     0.074 A 
ATOM     48  C   UNL A   1      43.028  28.050  32.633  1.00  0.00     0.031 C 
ATOM     49  C   UNL A   1      37.373  31.702  31.118  1.00  0.00     0.029 A 
ATOM     50  C   UNL A   1      37.971  31.962  32.428  1.00  0.00     0.049 A 
ATOM     51  H   UNL A   1      39.680  31.076  33.227  1.00  0.00     0.167 HD
ATOM     52  C   UNL A   1      43.346  29.253  34.765  1.00  0.00     0.031 A 
ATOM     53  C   UNL A   1      37.509  32.837  33.347  1.00  0.00     0.031 A 
ATOM     54  C   UNL A   1      42.958  30.201  35.775  1.00  0.00     0.049 A 
ATOM     55  C   UNL A   1      38.266  33.024  34.640  1.00  0.00     0.074 A 
ATOM     56  C   UNL A   1      43.600  30.502  36.963  1.00  0.00     0.029 A 
ATOM     57  N   UNL A   1      41.827  30.998  35.718  1.00  0.00    -0.354 N 
ATOM     58  N   UNL A   1      39.379  32.451  35.038  1.00  0.00    -0.248 NA
ATOM     59  C   UNL A   1      37.712  33.988  35.603  1.00  0.00     0.031 C 
ATOM     60  C   UNL A   1      42.825  31.439  37.654  1.00  0.00     0.029 A 
ATOM     61  C   UNL A   1      41.738  31.774  36.863  1.00  0.00     0.049 A 
ATOM     62  H   UNL A   1      41.180  31.012  34.975  1.00  0.00     0.167 HD
ATOM     63  C   UNL A   1      39.668  33.005  36.283  1.00  0.00     0.074 A 
ATOM     64  C   UNL A   1      38.632  33.978  36.557  1.00  0.00     0.031 C 
ATOM     65  C   UNL A   1      40.694  32.731  37.128  1.00  0.00     0.031 A 
BRANCH  52  66
ATOM     66  C   UNL A   1      44.604  28.454  34.979  1.00  0.00    -0.014 A 
ATOM     67  C   UNL A   1      44.571  27.205  35.628  1.00  0.00     0.010 A 
ATOM     68  C   UNL A   1      45.830  28.934  34.485  1.00  0.00     0.010 A 
ATOM     69  C   UNL A   1      45.743  26.465  35.800  1.00  0.00     0.020 A 
ATOM     70  C   UNL A   1      46.999  28.183  34.628  1.00  0.00     0.020 A 
ATOM     71  C   UNL A   1      46.950  26.957  35.295  1.00  0.00     0.054 A 
BRANCH  71  72
ATOM     72  S   UNL A   1      48.446  25.950  35.488  1.00  0.00     0.124 S 
ATOM     73  O   UNL A   1      48.305  24.987  34.399  1.00  0.00    -0.237 OA
ATOM     74  O   UNL A   1      49.514  26.932  35.323  1.00  0.00    -0.237 OA
ATOM     75  O   UNL A   1      48.318  25.391  36.831  1.00  0.00    -0.744 OA
ENDBRANCH  71  72
ENDBRANCH  52  66
BRANCH  53  76
ATOM     76  C   UNL A   1      36.240  33.587  33.103  1.00  0.00    -0.014 A 
ATOM     77  C   UNL A   1      34.984  32.978  33.278  1.00  0.00     0.010 A 
ATOM     78  C   UNL A   1      36.291  34.917  32.648  1.00  0.00     0.010 A 
ATOM     79  C   UNL A   1      33.807  33.675  32.976  1.00  0.00     0.020 A 
ATOM     80  C   UNL A   1      35.118  35.628  32.379  1.00  0.00     0.020 A 
ATOM     81  C   UNL A   1      33.883  34.998  32.531  1.00  0.00     0.054 A 
BRANCH  81  82
ATOM     82  S   UNL A   1      32.346  35.900  32.185  1.00  0.00     0.124 S 
ATOM     83  O   UNL A   1      32.551  37.145  32.917  1.00  0.00    -0.237 OA
ATOM     84  O   UNL A   1      32.366  36.006  30.729  1.00  0.00    -0.237 OA
ATOM     85  O   UNL A   1      31.308  35.021  32.722  1.00  0.00    -0.744 OA
ENDBRANCH  81  82
ENDBRANCH  53  76
BRANCH  65  86
ATOM     86  C   UNL A   1      40.762  33.515  38.416  1.00  0.00    -0.014 A 
ATOM     87  C   UNL A   1      40.105  33.071  39.579  1.00  0.00     0.010 A 
ATOM     88  C   UNL A   1      41.511  34.706  38.467  1.00  0.00     0.010 A 
ATOM     89  C   UNL A   1      40.144  33.835  40.748  1.00  0.00     0.020 A 
ATOM     90  C   UNL A   1      41.582  35.454  39.645  1.00  0.00     0.020 A 
ATOM     91  C   UNL A   1      40.877  35.027  40.772  1.00  0.00     0.054 A 
BRANCH  91  92
ATOM     92  S   UNL A   1      40.907  36.002  42.300  1.00  0.00     0.124 S 
ATOM     93  O   UNL A   1      40.451  37.309  41.835  1.00  0.00    -0.237 OA
ATOM     94  O   UNL A   1      39.974  35.279  43.161  1.00  0.00    -0.237 OA
ATOM     95  O   UNL A   1      42.305  35.944  42.721  1.00  0.00    -0.744 OA
ENDBRANCH  91  92
ENDBRANCH  65  86
ENDBRANCH  39  40
ENDBRANCH  32  34
ENDBRANCH  31  32
ENDBRANCH  30  31
ENDBRANCH  29  30
ENDBRANCH  28  29
ENDBRANCH  27  28
ENDBRANCH   1  27
TORSDOF 24
ENDMDL
MODEL 2
REMARK VINA RESULT:      -9.4      1.564      7.929
REMARK SMILES O=C(OCCOCCOCCOCCOC(=O)c1ccc(-c2c3nc(c(-c4ccc(S(=O)(=O)[O-])cc4)c4ccc([nH]4)c(-c4ccc(S(=O)(=O)[O-])cc4)c4nc(c(-c5ccc(S(=O)(=O)[O-])cc5)c5ccc2[nH]5)C=C4)C=C3)cc1)C1=Cc2cc(Cl)cc(Cl)c2O[C@@H]1C(F)(F)F
REMARK SMILES IDX 10 1 9 2 8 3 7 4 6 5 5 6 4 7 3 8 2 9 1 10 78 11 79 12 89 13
REMARK SMILES IDX 80 14 88 15 81 16 87 17 82 18 85 19 83 20 84 21 86 22 90 23
REMARK SMILES IDX 91 24 92 25 93 26 11 27 12 28 13 29 14 30 15 31 16 32 17 33
REMARK SMILES IDX 18 34 19 35 77 36 20 37 76 38 21 39 22 40 23 41 70 42 24 43
REMARK SMILES IDX 75 44 69 45 71 46 25 47 74 48 68 49 67 50 26 52 56 53 37 54
REMARK SMILES IDX 55 55 38 56 41 57 54 58 72 59 39 60 40 61 53 63 73 64 42 65
REMARK SMILES IDX 27 66 28 67 36 68 29 69 35 70 30 71 31 72 32 73 33 74 34 75
REMARK SMILES IDX 57 76 58 77 66 78 59 79 65 80 60 81 61 82 62 83 63 84 64 85
REMARK SMILES IDX 43 86 44 87 52 88 45 89 51 90 46 91 47 92 48 93 49 94 50 95
REMARK H PARENT 71 51 41 62
REMARK Flexibility Score: inf
ROOT
ATOM      1  C   UNL A   1      42.300  20.938  27.380  1.00  0.00     0.188 C 
ENDROOT
BRANCH   1   2
ATOM      2  O   UNL A   1      41.652  19.690  27.152  1.00  0.00    -0.377 OA
BRANCH   2   3
ATOM      3  C   UNL A   1      40.788  19.632  26.022  1.00  0.00     0.188 C 
BRANCH   3   4
ATOM      4  C   UNL A   1      39.569  20.531  26.172  1.00  0.00     0.188 C 
BRANCH   4   5
ATOM      5  O   UNL A   1      39.836  21.882  25.844  1.00  0.00    -0.376 OA
BRANCH   5   6
ATOM      6  C   UNL A   1      39.273  22.907  26.645  1.00  0.00     0.202 C 
BRANCH   6   7
ATOM      7  C   UNL A   1      38.111  23.691  26.024  1.00  0.00     0.261 C 
BRANCH   7   8
ATOM      8  O   UNL A   1      36.955  22.885  25.692  1.00  0.00    -0.460 OA
BRANCH   8   9
ATOM      9  C   UNL A   1      36.344  23.112  24.496  1.00  0.00     0.338 C 
ATOM     10  O   UNL A   1      36.917  23.023  23.422  1.00  0.00    -0.246 OA
BRANCH   9  11
ATOM     11  C   UNL A   1      34.923  23.494  24.645  1.00  0.00     0.087 C 
ATOM     12  C   UNL A   1      34.602  24.590  25.351  1.00  0.00     0.027 C 
ATOM     13  C   UNL A   1      33.907  22.870  23.748  1.00  0.00     0.316 C 
ATOM     14  C   UNL A   1      33.759  25.518  24.570  1.00  0.00     0.020 A 
ATOM     15  O   UNL A   1      33.311  23.841  22.863  1.00  0.00    -0.474 OA
ATOM     16  C   UNL A   1      33.640  26.853  24.974  1.00  0.00     0.032 A 
ATOM     17  C   UNL A   1      33.344  25.155  23.274  1.00  0.00     0.146 A 
ATOM     18  C   UNL A   1      33.198  27.820  24.067  1.00  0.00     0.043 A 
ATOM     19  C   UNL A   1      33.011  26.155  22.346  1.00  0.00     0.085 A 
ATOM     20  Cl  UNL A   1      32.984  29.445  24.589  1.00  0.00    -0.084 Cl
ATOM     21  C   UNL A   1      32.948  27.490  22.740  1.00  0.00     0.045 A 
ATOM     22  Cl  UNL A   1      32.755  25.802  20.674  1.00  0.00    -0.080 Cl
BRANCH  13  23
ATOM     23  C   UNL A   1      32.916  21.979  24.502  1.00  0.00     0.430 C 
ATOM     24  F   UNL A   1      32.532  20.919  23.752  1.00  0.00    -0.167 F 
ATOM     25  F   UNL A   1      33.500  21.460  25.617  1.00  0.00    -0.167 F 
ATOM     26  F   UNL A   1      31.806  22.633  24.899  1.00  0.00    -0.167 F 
ENDBRANCH  13  23
ENDBRANCH   9  11
ENDBRANCH   8   9
ENDBRANCH   7   8
ENDBRANCH   6   7
ENDBRANCH   5   6
ENDBRANCH   4   5
ENDBRANCH   3   4
ENDBRANCH   2   3
ENDBRANCH   1   2
BRANCH   1  27
ATOM     27  C   UNL A   1      43.409  21.342  26.375  1.00  0.00     0.188 C 
BRANCH  27  28
ATOM     28  O   UNL A   1      43.133  21.801  25.053  1.00  0.00    -0.376 OA
BRANCH  28  29
ATOM     29  C   UNL A   1      43.402  23.149  24.726  1.00  0.00     0.202 C 
BRANCH  29  30
ATOM     30  C   UNL A   1      43.414  24.084  25.947  1.00  0.00     0.261 C 
BRANCH  30  31
ATOM     31  O   UNL A   1      42.134  24.664  26.262  1.00  0.00    -0.460 OA
BRANCH  31  32
ATOM     32  C   UNL A   1      41.952  25.945  25.831  1.00  0.00     0.338 C 
ATOM     33  O   UNL A   1      42.013  26.336  24.690  1.00  0.00    -0.246 OA
BRANCH  32  34
ATOM     34  C   UNL A   1      41.492  26.803  26.967  1.00  0.00     0.060 A 
ATOM     35  C   UNL A   1      41.933  28.133  26.986  1.00  0.00     0.016 A 
ATOM     36  C   UNL A   1      40.637  26.346  27.977  1.00  0.00     0.016 A 
ATOM     37  C   UNL A   1      41.579  28.983  28.037  1.00  0.00     0.010 A 
ATOM     38  C   UNL A   1      40.286  27.200  29.037  1.00  0.00     0.010 A 
ATOM     39  C   UNL A   1      40.802  28.508  29.100  1.00  0.00    -0.014 A 
BRANCH  39  40
ATOM     40  C   UNL A   1      40.783  29.286  30.370  1.00  0.00     0.031 A 
ATOM     41  C   UNL A   1      39.738  30.369  30.510  1.00  0.00     0.074 A 
ATOM     42  C   UNL A   1      41.582  28.993  31.414  1.00  0.00     0.049 A 
ATOM     43  N   UNL A   1      39.471  31.143  31.531  1.00  0.00    -0.248 NA
ATOM     44  C   UNL A   1      38.874  30.603  29.340  1.00  0.00     0.031 C 
ATOM     45  C   UNL A   1      42.600  27.943  31.438  1.00  0.00     0.029 A 
ATOM     46  N   UNL A   1      41.651  29.552  32.669  1.00  0.00    -0.354 N 
ATOM     47  C   UNL A   1      38.406  31.942  31.129  1.00  0.00     0.074 A 
ATOM     48  C   UNL A   1      38.108  31.597  29.758  1.00  0.00     0.031 C 
ATOM     49  C   UNL A   1      43.194  27.938  32.646  1.00  0.00     0.029 A 
ATOM     50  C   UNL A   1      42.616  28.994  33.476  1.00  0.00     0.049 A 
ATOM     51  H   UNL A   1      41.063  30.286  32.962  1.00  0.00     0.167 HD
ATOM     52  C   UNL A   1      37.717  32.867  31.838  1.00  0.00     0.031 A 
ATOM     53  C   UNL A   1      42.996  29.307  34.733  1.00  0.00     0.031 A 
ATOM     54  C   UNL A   1      38.017  33.230  33.197  1.00  0.00     0.049 A 
ATOM     55  C   UNL A   1      42.268  30.402  35.477  1.00  0.00     0.074 A 
ATOM     56  C   UNL A   1      37.384  34.166  33.997  1.00  0.00     0.029 A 
ATOM     57  N   UNL A   1      39.035  32.677  33.957  1.00  0.00    -0.354 N 
ATOM     58  N   UNL A   1      41.252  31.135  35.085  1.00  0.00    -0.248 NA
ATOM     59  C   UNL A   1      42.729  30.700  36.842  1.00  0.00     0.031 C 
ATOM     60  C   UNL A   1      38.059  34.222  35.220  1.00  0.00     0.029 A 
ATOM     61  C   UNL A   1      39.065  33.270  35.209  1.00  0.00     0.049 A 
ATOM     62  H   UNL A   1      39.647  31.969  33.652  1.00  0.00     0.167 HD
ATOM     63  C   UNL A   1      40.940  31.962  36.162  1.00  0.00     0.074 A 
ATOM     64  C   UNL A   1      41.853  31.615  37.231  1.00  0.00     0.031 C 
ATOM     65  C   UNL A   1      39.988  32.924  36.260  1.00  0.00     0.031 A 
BRANCH  52  66
ATOM     66  C   UNL A   1      36.579  33.569  31.145  1.00  0.00    -0.014 A 
ATOM     67  C   UNL A   1      36.720  34.064  29.834  1.00  0.00     0.010 A 
ATOM     68  C   UNL A   1      35.336  33.696  31.793  1.00  0.00     0.010 A 
ATOM     69  C   UNL A   1      35.648  34.694  29.196  1.00  0.00     0.020 A 
ATOM     70  C   UNL A   1      34.254  34.298  31.147  1.00  0.00     0.020 A 
ATOM     71  C   UNL A   1      34.421  34.803  29.855  1.00  0.00     0.054 A 
BRANCH  71  72
ATOM     72  S   UNL A   1      33.033  35.579  28.982  1.00  0.00     0.124 S 
ATOM     73  O   UNL A   1      32.171  35.991  30.087  1.00  0.00    -0.237 OA
ATOM     74  O   UNL A   1      33.682  36.665  28.253  1.00  0.00    -0.237 OA
ATOM     75  O   UNL A   1      32.502  34.503  28.148  1.00  0.00    -0.744 OA
ENDBRANCH  71  72
ENDBRANCH  52  66
BRANCH  53  76
ATOM     76  C   UNL A   1      44.149  28.605  35.370  1.00  0.00    -0.014 A 
ATOM     77  C   UNL A   1      43.978  27.394  36.066  1.00  0.00     0.010 A 
ATOM     78  C   UNL A   1      45.433  29.178  35.315  1.00  0.00     0.010 A 
ATOM     79  C   UNL A   1      45.060  26.787  36.716  1.00  0.00     0.020 A 
ATOM     80  C   UNL A   1      46.523  28.558  35.933  1.00  0.00     0.020 A 
ATOM     81  C   UNL A   1      46.326  27.373  36.643  1.00  0.00     0.054 A 
BRANCH  81  82
ATOM     82  S   UNL A   1      47.725  26.550  37.456  1.00  0.00     0.124 S 
ATOM     83  O   UNL A   1      47.742  25.251  36.793  1.00  0.00    -0.237 OA
ATOM     84  O   UNL A   1      48.839  27.441  37.141  1.00  0.00    -0.237 OA
ATOM     85  O   UNL A   1      47.336  26.531  38.865  1.00  0.00    -0.744 OA
ENDBRANCH  81  82
ENDBRANCH  53  76
BRANCH  65  86
ATOM     86  C   UNL A   1      39.868  33.651  37.577  1.00  0.00    -0.014 A 
ATOM     87  C   UNL A   1      39.088  33.136  38.629  1.00  0.00     0.010 A 
ATOM     88  C   UNL A   1      40.561  34.861  37.770  1.00  0.00     0.010 A 
ATOM     89  C   UNL A   1      38.954  33.847  39.824  1.00  0.00     0.020 A 
ATOM     90  C   UNL A   1      40.459  35.557  38.978  1.00  0.00     0.020 A 
ATOM     91  C   UNL A   1      39.635  35.058  39.988  1.00  0.00     0.054 A 
BRANCH  91  92
ATOM     92  S   UNL A   1      39.440  35.964  41.546  1.00  0.00     0.124 S 
ATOM     93  O   UNL A   1      38.854  37.223  41.094  1.00  0.00    -0.237 OA
ATOM     94  O   UNL A   1      38.549  35.096  42.313  1.00  0.00    -0.237 OA
ATOM     95  O   UNL A   1      40.803  36.062  42.064  1.00  0.00    -0.744 OA
ENDBRANCH  91  92
ENDBRANCH  65  86
ENDBRANCH  39  40
ENDBRANCH  32  34
ENDBRANCH  31  32
ENDBRANCH  30  31
ENDBRANCH  29  30
ENDBRANCH  28  29
ENDBRANCH  27  28
ENDBRANCH   1  27
TORSDOF 24
ENDMDL
MODEL 3
REMARK VINA RESULT:      -9.1      1.937      8.139
REMARK SMILES O=C(OCCOCCOCCOCCOC(=O)c1ccc(-c2c3nc(c(-c4ccc(S(=O)(=O)[O-])cc4)c4ccc([nH]4)c(-c4ccc(S(=O)(=O)[O-])cc4)c4nc(c(-c5ccc(S(=O)(=O)[O-])cc5)c5ccc2[nH]5)C=C4)C=C3)cc1)C1=Cc2cc(Cl)cc(Cl)c2O[C@@H]1C(F)(F)F
REMARK SMILES IDX 10 1 9 2 8 3 7 4 6 5 5 6 4 7 3 8 2 9 1 10 78 11 79 12 89 13
REMARK SMILES IDX 80 14 88 15 81 16 87 17 82 18 85 19 83 20 84 21 86 22 90 23
REMARK SMILES IDX 91 24 92 25 93 26 11 27 12 28 13 29 14 30 15 31 16 32 17 33
REMARK SMILES IDX 18 34 19 35 77 36 20 37 76 38 21 39 22 40 23 41 70 42 24 43
REMARK SMILES IDX 75 44 69 45 71 46 25 47 74 48 68 49 67 50 26 52 56 53 37 54
REMARK SMILES IDX 55 55 38 56 41 57 54 58 72 59 39 60 40 61 53 63 73 64 42 65
REMARK SMILES IDX 27 66 28 67 36 68 29 69 35 70 30 71 31 72 32 73 33 74 34 75
REMARK SMILES IDX 57 76 58 77 66 78 59 79 65 80 60 81 61 82 62 83 63 84 64 85
REMARK SMILES IDX 43 86 44 87 52 88 45 89 51 90 46 91 47 92 48 93 49 94 50 95
REMARK H PARENT 71 51 41 62
REMARK Flexibility Score: inf
ROOT
ATOM      1  C   UNL A   1      40.968  21.292  27.072  1.00  0.00     0.188 C 
ENDROOT
BRANCH   1   2
ATOM      2  O   UNL A   1      40.107  20.253  26.615  1.00  0.00    -0.377 OA
BRANCH   2   3
ATOM      3  C   UNL A   1      39.356  20.536  25.439  1.00  0.00     0.188 C 
BRANCH   3   4
ATOM      4  C   UNL A   1      38.086  21.321  25.731  1.00  0.00     0.188 C 
BRANCH   4   5
ATOM      5  O   UNL A   1      38.262  22.720  25.615  1.00  0.00    -0.376 OA
BRANCH   5   6
ATOM      6  C   UNL A   1      37.340  23.584  26.257  1.00  0.00     0.202 C 
BRANCH   6   7
ATOM      7  C   UNL A   1      36.166  24.075  25.402  1.00  0.00     0.261 C 
BRANCH   7   8
ATOM      8  O   UNL A   1      35.458  23.026  24.698  1.00  0.00    -0.460 OA
BRANCH   8   9
ATOM      9  C   UNL A   1      35.140  23.241  23.391  1.00  0.00     0.338 C 
ATOM     10  O   UNL A   1      35.931  23.090  22.474  1.00  0.00    -0.246 OA
BRANCH   9  11
ATOM     11  C   UNL A   1      33.742  23.691  23.211  1.00  0.00     0.087 C 
ATOM     12  C   UNL A   1      32.734  22.893  23.598  1.00  0.00     0.027 C 
ATOM     13  C   UNL A   1      33.476  25.130  22.925  1.00  0.00     0.316 C 
ATOM     14  C   UNL A   1      31.810  23.585  24.521  1.00  0.00     0.020 A 
ATOM     15  O   UNL A   1      32.764  25.765  24.006  1.00  0.00    -0.474 OA
ATOM     16  C   UNL A   1      30.938  22.836  25.318  1.00  0.00     0.032 A 
ATOM     17  C   UNL A   1      32.024  24.943  24.827  1.00  0.00     0.146 A 
ATOM     18  C   UNL A   1      30.360  23.413  26.452  1.00  0.00     0.043 A 
ATOM     19  C   UNL A   1      31.525  25.470  26.029  1.00  0.00     0.085 A 
ATOM     20  Cl  UNL A   1      29.232  22.511  27.387  1.00  0.00    -0.084 Cl
ATOM     21  C   UNL A   1      30.701  24.701  26.848  1.00  0.00     0.045 A 
ATOM     22  Cl  UNL A   1      31.974  27.040  26.595  1.00  0.00    -0.080 Cl
BRANCH  13  23
ATOM     23  C   UNL A   1      32.885  25.359  21.531  1.00  0.00     0.430 C 
ATOM     24  F   UNL A   1      33.110  24.301  20.717  1.00  0.00    -0.167 F 
ATOM     25  F   UNL A   1      31.532  25.495  21.606  1.00  0.00    -0.167 F 
ATOM     26  F   UNL A   1      33.364  26.463  20.923  1.00  0.00    -0.167 F 
ENDBRANCH  13  23
ENDBRANCH   9  11
ENDBRANCH   8   9
ENDBRANCH   7   8
ENDBRANCH   6   7
ENDBRANCH   5   6
ENDBRANCH   4   5
ENDBRANCH   3   4
ENDBRANCH   2   3
ENDBRANCH   1   2
BRANCH   1  27
ATOM     27  C   UNL A   1      42.464  21.178  26.687  1.00  0.00     0.188 C 
BRANCH  27  28
ATOM     28  O   UNL A   1      42.958  21.478  25.383  1.00  0.00    -0.376 OA
BRANCH  28  29
ATOM     29  C   UNL A   1      43.371  22.799  25.095  1.00  0.00     0.202 C 
BRANCH  29  30
ATOM     30  C   UNL A   1      43.121  23.784  26.248  1.00  0.00     0.261 C 
BRANCH  30  31
ATOM     31  O   UNL A   1      41.870  24.493  26.164  1.00  0.00    -0.460 OA
BRANCH  31  32
ATOM     32  C   UNL A   1      41.967  25.806  25.812  1.00  0.00     0.338 C 
ATOM     33  O   UNL A   1      42.244  26.241  24.720  1.00  0.00    -0.246 OA
BRANCH  32  34
ATOM     34  C   UNL A   1      41.514  26.671  26.946  1.00  0.00     0.060 A 
ATOM     35  C   UNL A   1      41.970  27.995  26.966  1.00  0.00     0.016 A 
ATOM     36  C   UNL A   1      40.650  26.224  27.954  1.00  0.00     0.016 A 
ATOM     37  C   UNL A   1      41.624  28.851  28.015  1.00  0.00     0.010 A 
ATOM     38  C   UNL A   1      40.307  27.083  29.013  1.00  0.00     0.010 A 
ATOM     39  C   UNL A   1      40.838  28.385  29.076  1.00  0.00    -0.014 A 
BRANCH  39  40
ATOM     40  C   UNL A   1      40.824  29.164  30.346  1.00  0.00     0.031 A 
ATOM     41  C   UNL A   1      39.780  30.247  30.489  1.00  0.00     0.074 A 
ATOM     42  C   UNL A   1      41.628  28.872  31.387  1.00  0.00     0.049 A 
ATOM     43  N   UNL A   1      39.518  31.023  31.511  1.00  0.00    -0.248 NA
ATOM     44  C   UNL A   1      38.911  30.480  29.322  1.00  0.00     0.031 C 
ATOM     45  C   UNL A   1      42.646  27.822  31.407  1.00  0.00     0.029 A 
ATOM     46  N   UNL A   1      41.702  29.432  32.641  1.00  0.00    -0.354 N 
ATOM     47  C   UNL A   1      38.450  31.821  31.112  1.00  0.00     0.074 A 
ATOM     48  C   UNL A   1      38.146  31.475  29.743  1.00  0.00     0.031 C 
ATOM     49  C   UNL A   1      43.245  27.818  32.612  1.00  0.00     0.029 A 
ATOM     50  C   UNL A   1      42.670  28.875  33.444  1.00  0.00     0.049 A 
ATOM     51  H   UNL A   1      41.115  30.166  32.936  1.00  0.00     0.167 HD
ATOM     52  C   UNL A   1      37.764  32.747  31.824  1.00  0.00     0.031 A 
ATOM     53  C   UNL A   1      43.056  29.189  34.699  1.00  0.00     0.031 A 
ATOM     54  C   UNL A   1      38.070  33.111  33.182  1.00  0.00     0.049 A 
ATOM     55  C   UNL A   1      42.332  30.284  35.445  1.00  0.00     0.074 A 
ATOM     56  C   UNL A   1      37.441  34.048  33.983  1.00  0.00     0.029 A 
ATOM     57  N   UNL A   1      39.092  32.559  33.937  1.00  0.00    -0.354 N 
ATOM     58  N   UNL A   1      41.314  31.017  35.057  1.00  0.00    -0.248 NA
ATOM     59  C   UNL A   1      42.798  30.583  36.808  1.00  0.00     0.031 C 
ATOM     60  C   UNL A   1      38.121  34.104  35.204  1.00  0.00     0.029 A 
ATOM     61  C   UNL A   1      39.127  33.152  35.188  1.00  0.00     0.049 A 
ATOM     62  H   UNL A   1      39.703  31.850  33.631  1.00  0.00     0.167 HD
ATOM     63  C   UNL A   1      41.006  31.844  36.134  1.00  0.00     0.074 A 
ATOM     64  C   UNL A   1      41.924  31.499  37.200  1.00  0.00     0.031 C 
ATOM     65  C   UNL A   1      40.055  32.807  36.236  1.00  0.00     0.031 A 
BRANCH  52  66
ATOM     66  C   UNL A   1      36.624  33.448  31.135  1.00  0.00    -0.014 A 
ATOM     67  C   UNL A   1      36.833  34.198  29.962  1.00  0.00     0.010 A 
ATOM     68  C   UNL A   1      35.317  33.320  31.639  1.00  0.00     0.010 A 
ATOM     69  C   UNL A   1      35.761  34.825  29.322  1.00  0.00     0.020 A 
ATOM     70  C   UNL A   1      34.238  33.920  30.985  1.00  0.00     0.020 A 
ATOM     71  C   UNL A   1      34.469  34.678  29.836  1.00  0.00     0.054 A 
BRANCH  71  72
ATOM     72  S   UNL A   1      33.091  35.461  28.954  1.00  0.00     0.124 S 
ATOM     73  O   UNL A   1      32.285  35.984  30.055  1.00  0.00    -0.237 OA
ATOM     74  O   UNL A   1      33.765  36.465  28.136  1.00  0.00    -0.237 OA
ATOM     75  O   UNL A   1      32.484  34.360  28.210  1.00  0.00    -0.744 OA
ENDBRANCH  71  72
ENDBRANCH  52  66
BRANCH  53  76
ATOM     76  C   UNL A   1      44.212  28.487  35.331  1.00  0.00    -0.014 A 
ATOM     77  C   UNL A   1      45.534  28.930  35.140  1.00  0.00     0.010 A 
ATOM     78  C   UNL A   1      43.991  27.330  36.101  1.00  0.00     0.010 A 
ATOM     79  C   UNL A   1      46.610  28.216  35.683  1.00  0.00     0.020 A 
ATOM     80  C   UNL A   1      45.059  26.634  36.674  1.00  0.00     0.020 A 
ATOM     81  C   UNL A   1      46.364  27.073  36.449  1.00  0.00     0.054 A 
BRANCH  81  82
ATOM     82  S   UNL A   1      47.769  26.185  37.180  1.00  0.00     0.124 S 
ATOM     83  O   UNL A   1      48.501  25.747  35.997  1.00  0.00    -0.237 OA
ATOM     84  O   UNL A   1      48.413  27.223  37.980  1.00  0.00    -0.237 OA
ATOM     85  O   UNL A   1      47.132  25.120  37.954  1.00  0.00    -0.744 OA
ENDBRANCH  81  82
ENDBRANCH  53  76
BRANCH  65  86
ATOM     86  C   UNL A   1      39.940  33.535  37.553  1.00  0.00    -0.014 A 
ATOM     87  C   UNL A   1      40.746  34.651  37.845  1.00  0.00     0.010 A 
ATOM     88  C   UNL A   1      38.997  33.105  38.505  1.00  0.00     0.010 A 
ATOM     89  C   UNL A   1      40.654  35.283  39.088  1.00  0.00     0.020 A 
ATOM     90  C   UNL A   1      38.877  33.758  39.736  1.00  0.00     0.020 A 
ATOM     91  C   UNL A   1      39.724  34.828  40.029  1.00  0.00     0.054 A 
BRANCH  91  92
ATOM     92  S   UNL A   1      39.630  35.662  41.635  1.00  0.00     0.124 S 
ATOM     93  O   UNL A   1      41.041  35.820  41.979  1.00  0.00    -0.237 OA
ATOM     94  O   UNL A   1      38.919  36.897  41.315  1.00  0.00    -0.237 OA
ATOM     95  O   UNL A   1      38.888  34.721  42.472  1.00  0.00    -0.744 OA
ENDBRANCH  91  92
ENDBRANCH  65  86
ENDBRANCH  39  40
ENDBRANCH  32  34
ENDBRANCH  31  32
ENDBRANCH  30  31
ENDBRANCH  29  30
ENDBRANCH  28  29
ENDBRANCH  27  28
ENDBRANCH   1  27
TORSDOF 24
ENDMDL
