MODEL 1
REMARK VINA RESULT:      -8.6      0.000      0.000
REMARK SMILES O=C(OCCOCCOCCOCCOC(=O)[C@@]1(Cl)C[C@@H]2CC[C@H]1C2)c1ccc(-c2c3nc(c(-c4ccc(S(=O)(=O)[O-])cc4)c4ccc([nH]4)c(-c4ccc(S(=O)(=O)[O-])cc4)c4nc(c(-c5ccc(S(=O)(=O)[O-])cc5)c5ccc2[nH]5)C=C4)C=C3)cc1
REMARK SMILES IDX 7 1 6 2 5 3 4 4 3 5 2 6 1 7 26 8 27 9 85 10 28 11 84 12
REMARK SMILES IDX 29 13 30 14 31 15 78 16 32 17 83 18 77 19 79 20 33 21 82 22
REMARK SMILES IDX 76 23 75 24 34 26 64 27 45 28 63 29 46 30 49 31 62 32 80 33
REMARK SMILES IDX 47 34 48 35 61 37 81 38 50 39 35 40 36 41 44 42 37 43 43 44
REMARK SMILES IDX 38 45 39 46 40 47 41 48 42 49 65 50 66 51 74 52 67 53 73 54
REMARK SMILES IDX 68 55 69 56 70 57 71 58 72 59 51 60 52 61 60 62 53 63 59 64
REMARK SMILES IDX 54 65 55 66 56 67 57 68 58 69 8 70 9 71 10 72 11 73 12 74
REMARK SMILES IDX 13 75 14 76 15 77 16 78 17 79 18 80 20 81 24 82 19 83 21 84
REMARK SMILES IDX 23 85 25 86 22 87
REMARK H PARENT 79 25 49 36
REMARK Flexibility Score: inf
ROOT
ATOM      1  C   UNL A   1      34.683  30.561  27.701  1.00  0.00     0.188 C 
ENDROOT
BRANCH   1   2
ATOM      2  O   UNL A   1      34.026  31.629  28.375  1.00  0.00    -0.376 OA
BRANCH   2   3
ATOM      3  C   UNL A   1      34.194  32.950  27.865  1.00  0.00     0.202 C 
BRANCH   3   4
ATOM      4  C   UNL A   1      32.990  33.873  28.020  1.00  0.00     0.261 C 
BRANCH   4   5
ATOM      5  O   UNL A   1      33.195  34.981  28.910  1.00  0.00    -0.460 OA
BRANCH   5   6
ATOM      6  C   UNL A   1      33.115  35.054  30.260  1.00  0.00     0.338 C 
ATOM      7  O   UNL A   1      32.034  35.384  30.750  1.00  0.00    -0.246 OA
BRANCH   6   8
ATOM      8  C   UNL A   1      34.243  34.787  31.207  1.00  0.00     0.060 A 
ATOM      9  C   UNL A   1      34.790  35.702  32.102  1.00  0.00     0.016 A 
ATOM     10  C   UNL A   1      34.756  33.478  31.227  1.00  0.00     0.016 A 
ATOM     11  C   UNL A   1      35.853  35.386  32.926  1.00  0.00     0.010 A 
ATOM     12  C   UNL A   1      35.833  33.139  32.052  1.00  0.00     0.010 A 
ATOM     13  C   UNL A   1      36.416  34.121  32.857  1.00  0.00    -0.014 A 
BRANCH  13  14
ATOM     14  C   UNL A   1      37.781  34.003  33.390  1.00  0.00     0.031 A 
ATOM     15  C   UNL A   1      37.905  33.760  34.868  1.00  0.00     0.074 A 
ATOM     16  C   UNL A   1      38.823  33.875  32.550  1.00  0.00     0.049 A 
ATOM     17  N   UNL A   1      38.976  33.639  35.600  1.00  0.00    -0.248 NA
ATOM     18  C   UNL A   1      36.644  33.615  35.622  1.00  0.00     0.031 C 
ATOM     19  C   UNL A   1      38.735  33.882  31.086  1.00  0.00     0.029 A 
ATOM     20  N   UNL A   1      40.146  33.652  32.803  1.00  0.00    -0.354 N 
ATOM     21  C   UNL A   1      38.516  33.473  36.902  1.00  0.00     0.074 A 
ATOM     22  C   UNL A   1      37.075  33.497  36.866  1.00  0.00     0.031 C 
ATOM     23  C   UNL A   1      39.953  33.641  30.572  1.00  0.00     0.029 A 
ATOM     24  C   UNL A   1      40.912  33.552  31.666  1.00  0.00     0.049 A 
ATOM     25  H   UNL A   1      40.517  33.572  33.712  1.00  0.00     0.167 HD
ATOM     26  C   UNL A   1      39.249  33.333  38.028  1.00  0.00     0.031 A 
ATOM     27  C   UNL A   1      42.248  33.443  31.542  1.00  0.00     0.031 A 
ATOM     28  C   UNL A   1      40.683  33.303  38.009  1.00  0.00     0.049 A 
ATOM     29  C   UNL A   1      43.051  33.407  32.815  1.00  0.00     0.074 A 
ATOM     30  C   UNL A   1      41.565  33.243  39.068  1.00  0.00     0.029 A 
ATOM     31  N   UNL A   1      41.443  33.326  36.843  1.00  0.00    -0.354 N 
ATOM     32  N   UNL A   1      42.622  33.375  34.058  1.00  0.00    -0.248 NA
ATOM     33  C   UNL A   1      44.510  33.409  32.677  1.00  0.00     0.031 C 
ATOM     34  C   UNL A   1      42.862  33.293  38.544  1.00  0.00     0.029 A 
ATOM     35  C   UNL A   1      42.786  33.306  37.157  1.00  0.00     0.049 A 
ATOM     36  H   UNL A   1      41.076  33.354  35.931  1.00  0.00     0.167 HD
ATOM     37  C   UNL A   1      43.760  33.326  34.851  1.00  0.00     0.074 A 
ATOM     38  C   UNL A   1      44.892  33.315  33.942  1.00  0.00     0.031 C 
ATOM     39  C   UNL A   1      43.869  33.293  36.204  1.00  0.00     0.031 A 
BRANCH  26  40
ATOM     40  C   UNL A   1      38.506  33.331  39.337  1.00  0.00    -0.014 A 
ATOM     41  C   UNL A   1      38.466  34.456  40.181  1.00  0.00     0.010 A 
ATOM     42  C   UNL A   1      37.877  32.144  39.754  1.00  0.00     0.010 A 
ATOM     43  C   UNL A   1      37.848  34.378  41.435  1.00  0.00     0.020 A 
ATOM     44  C   UNL A   1      37.233  32.070  40.991  1.00  0.00     0.020 A 
ATOM     45  C   UNL A   1      37.239  33.184  41.833  1.00  0.00     0.054 A 
BRANCH  45  46
ATOM     46  S   UNL A   1      36.440  33.109  43.460  1.00  0.00     0.124 S 
ATOM     47  O   UNL A   1      35.671  31.872  43.363  1.00  0.00    -0.237 OA
ATOM     48  O   UNL A   1      37.579  33.069  44.373  1.00  0.00    -0.237 OA
ATOM     49  O   UNL A   1      35.645  34.334  43.514  1.00  0.00    -0.744 OA
ENDBRANCH  45  46
ENDBRANCH  26  40
BRANCH  27  50
ATOM     50  C   UNL A   1      42.890  33.437  30.197  1.00  0.00    -0.014 A 
ATOM     51  C   UNL A   1      43.207  34.635  29.536  1.00  0.00     0.010 A 
ATOM     52  C   UNL A   1      43.186  32.215  29.562  1.00  0.00     0.010 A 
ATOM     53  C   UNL A   1      43.786  34.612  28.261  1.00  0.00     0.020 A 
ATOM     54  C   UNL A   1      43.794  32.186  28.303  1.00  0.00     0.020 A 
ATOM     55  C   UNL A   1      44.076  33.387  27.653  1.00  0.00     0.054 A 
BRANCH  55  56
ATOM     56  S   UNL A   1      44.849  33.381  26.011  1.00  0.00     0.124 S 
ATOM     57  O   UNL A   1      44.952  34.807  25.718  1.00  0.00    -0.237 OA
ATOM     58  O   UNL A   1      46.112  32.692  26.260  1.00  0.00    -0.237 OA
ATOM     59  O   UNL A   1      43.896  32.640  25.186  1.00  0.00    -0.744 OA
ENDBRANCH  55  56
ENDBRANCH  27  50
BRANCH  39  60
ATOM     60  C   UNL A   1      45.258  33.184  36.764  1.00  0.00    -0.014 A 
ATOM     61  C   UNL A   1      45.959  31.967  36.753  1.00  0.00     0.010 A 
ATOM     62  C   UNL A   1      45.884  34.343  37.257  1.00  0.00     0.010 A 
ATOM     63  C   UNL A   1      47.254  31.903  37.268  1.00  0.00     0.020 A 
ATOM     64  C   UNL A   1      47.190  34.290  37.738  1.00  0.00     0.020 A 
ATOM     65  C   UNL A   1      47.860  33.065  37.757  1.00  0.00     0.054 A 
BRANCH  65  66
ATOM     66  S   UNL A   1      49.555  32.964  38.386  1.00  0.00     0.124 S 
ATOM     67  O   UNL A   1      49.928  31.598  38.031  1.00  0.00    -0.237 OA
ATOM     68  O   UNL A   1      50.237  34.017  37.638  1.00  0.00    -0.237 OA
ATOM     69  O   UNL A   1      49.409  33.220  39.817  1.00  0.00    -0.744 OA
ENDBRANCH  65  66
ENDBRANCH  39  60
ENDBRANCH  13  14
ENDBRANCH   6   8
ENDBRANCH   5   6
ENDBRANCH   4   5
ENDBRANCH   3   4
ENDBRANCH   2   3
ENDBRANCH   1   2
BRANCH   1  70
ATOM     70  C   UNL A   1      33.767  29.878  26.689  1.00  0.00     0.188 C 
BRANCH  70  71
ATOM     71  O   UNL A   1      33.243  28.627  27.111  1.00  0.00    -0.377 OA
BRANCH  71  72
ATOM     72  C   UNL A   1      33.616  27.503  26.320  1.00  0.00     0.188 C 
BRANCH  72  73
ATOM     73  C   UNL A   1      32.673  27.031  25.184  1.00  0.00     0.188 C 
BRANCH  73  74
ATOM     74  O   UNL A   1      32.957  27.641  23.939  1.00  0.00    -0.376 OA
BRANCH  74  75
ATOM     75  C   UNL A   1      32.912  26.772  22.816  1.00  0.00     0.202 C 
BRANCH  75  76
ATOM     76  C   UNL A   1      31.524  26.427  22.244  1.00  0.00     0.261 C 
BRANCH  76  77
ATOM     77  O   UNL A   1      30.621  27.535  22.022  1.00  0.00    -0.462 OA
BRANCH  77  78
ATOM     78  C   UNL A   1      29.706  27.917  22.958  1.00  0.00     0.327 C 
ATOM     79  O   UNL A   1      29.107  27.136  23.672  1.00  0.00    -0.250 OA
BRANCH  78  80
ATOM     80  C   UNL A   1      29.608  29.477  23.048  1.00  0.00     0.145 C 
ATOM     81  C   UNL A   1      29.996  30.221  21.735  1.00  0.00     0.039 C 
ATOM     82  C   UNL A   1      28.153  29.961  23.260  1.00  0.00     0.022 C 
ATOM     83  Cl  UNL A   1      30.612  30.002  24.455  1.00  0.00    -0.106 Cl
ATOM     84  C   UNL A   1      28.696  30.933  21.329  1.00  0.00    -0.008 C 
ATOM     85  C   UNL A   1      28.085  31.477  23.579  1.00  0.00     0.006 C 
ATOM     86  C   UNL A   1      27.630  29.956  21.822  1.00  0.00     0.009 C 
ATOM     87  C   UNL A   1      28.500  32.138  22.257  1.00  0.00     0.004 C 
ENDBRANCH  78  80
ENDBRANCH  77  78
ENDBRANCH  76  77
ENDBRANCH  75  76
ENDBRANCH  74  75
ENDBRANCH  73  74
ENDBRANCH  72  73
ENDBRANCH  71  72
ENDBRANCH  70  71
ENDBRANCH   1  70
TORSDOF 23
ENDMDL
MODEL 2
REMARK VINA RESULT:      -8.5      3.907      8.981
REMARK SMILES O=C(OCCOCCOCCOCCOC(=O)[C@@]1(Cl)C[C@@H]2CC[C@H]1C2)c1ccc(-c2c3nc(c(-c4ccc(S(=O)(=O)[O-])cc4)c4ccc([nH]4)c(-c4ccc(S(=O)(=O)[O-])cc4)c4nc(c(-c5ccc(S(=O)(=O)[O-])cc5)c5ccc2[nH]5)C=C4)C=C3)cc1
REMARK SMILES IDX 7 1 6 2 5 3 4 4 3 5 2 6 1 7 26 8 27 9 85 10 28 11 84 12
REMARK SMILES IDX 29 13 30 14 31 15 78 16 32 17 83 18 77 19 79 20 33 21 82 22
REMARK SMILES IDX 76 23 75 24 34 26 64 27 45 28 63 29 46 30 49 31 62 32 80 33
REMARK SMILES IDX 47 34 48 35 61 37 81 38 50 39 35 40 36 41 44 42 37 43 43 44
REMARK SMILES IDX 38 45 39 46 40 47 41 48 42 49 65 50 66 51 74 52 67 53 73 54
REMARK SMILES IDX 68 55 69 56 70 57 71 58 72 59 51 60 52 61 60 62 53 63 59 64
REMARK SMILES IDX 54 65 55 66 56 67 57 68 58 69 8 70 9 71 10 72 11 73 12 74
REMARK SMILES IDX 13 75 14 76 15 77 16 78 17 79 18 80 20 81 24 82 19 83 21 84
REMARK SMILES IDX 23 85 25 86 22 87
REMARK H PARENT 79 25 49 36
REMARK Flexibility Score: inf
ROOT
ATOM      1  C   UNL A   1      33.693  30.163  26.854  1.00  0.00     0.188 C 
ENDROOT
BRANCH   1   2
ATOM      2  O   UNL A   1      32.909  31.236  27.364  1.00  0.00    -0.376 OA
BRANCH   2   3
ATOM      3  C   UNL A   1      33.565  32.467  27.660  1.00  0.00     0.202 C 
BRANCH   3   4
ATOM      4  C   UNL A   1      32.685  33.711  27.605  1.00  0.00     0.261 C 
BRANCH   4   5
ATOM      5  O   UNL A   1      32.984  34.702  28.599  1.00  0.00    -0.460 OA
BRANCH   5   6
ATOM      6  C   UNL A   1      33.417  34.568  29.875  1.00  0.00     0.338 C 
ATOM      7  O   UNL A   1      32.787  35.155  30.755  1.00  0.00    -0.246 OA
BRANCH   6   8
ATOM      8  C   UNL A   1      34.616  33.780  30.301  1.00  0.00     0.060 A 
ATOM      9  C   UNL A   1      34.597  32.618  31.067  1.00  0.00     0.016 A 
ATOM     10  C   UNL A   1      35.865  34.228  29.839  1.00  0.00     0.016 A 
ATOM     11  C   UNL A   1      35.752  31.962  31.444  1.00  0.00     0.010 A 
ATOM     12  C   UNL A   1      37.047  33.580  30.212  1.00  0.00     0.010 A 
ATOM     13  C   UNL A   1      36.983  32.477  31.068  1.00  0.00    -0.014 A 
BRANCH  13  14
ATOM     14  C   UNL A   1      38.133  32.022  31.864  1.00  0.00     0.031 A 
ATOM     15  C   UNL A   1      39.086  31.079  31.185  1.00  0.00     0.074 A 
ATOM     16  C   UNL A   1      38.424  32.623  33.031  1.00  0.00     0.049 A 
ATOM     17  N   UNL A   1      40.160  30.509  31.652  1.00  0.00    -0.248 NA
ATOM     18  C   UNL A   1      38.796  30.747  29.775  1.00  0.00     0.031 C 
ATOM     19  C   UNL A   1      37.648  33.709  33.640  1.00  0.00     0.029 A 
ATOM     20  N   UNL A   1      39.478  32.448  33.881  1.00  0.00    -0.354 N 
ATOM     21  C   UNL A   1      40.630  29.704  30.621  1.00  0.00     0.074 A 
ATOM     22  C   UNL A   1      39.738  29.862  29.499  1.00  0.00     0.031 C 
ATOM     23  C   UNL A   1      38.276  34.124  34.752  1.00  0.00     0.029 A 
ATOM     24  C   UNL A   1      39.441  33.277  34.977  1.00  0.00     0.049 A 
ATOM     25  H   UNL A   1      40.195  31.792  33.725  1.00  0.00     0.167 HD
ATOM     26  C   UNL A   1      41.708  28.890  30.629  1.00  0.00     0.031 A 
ATOM     27  C   UNL A   1      40.245  33.305  36.055  1.00  0.00     0.031 A 
ATOM     28  C   UNL A   1      42.572  28.778  31.769  1.00  0.00     0.049 A 
ATOM     29  C   UNL A   1      41.371  32.306  36.093  1.00  0.00     0.074 A 
ATOM     30  C   UNL A   1      43.655  27.944  31.959  1.00  0.00     0.029 A 
ATOM     31  N   UNL A   1      42.439  29.546  32.921  1.00  0.00    -0.354 N 
ATOM     32  N   UNL A   1      41.745  31.452  35.165  1.00  0.00    -0.248 NA
ATOM     33  C   UNL A   1      42.171  32.258  37.320  1.00  0.00     0.031 C 
ATOM     34  C   UNL A   1      44.139  28.166  33.253  1.00  0.00     0.029 A 
ATOM     35  C   UNL A   1      43.406  29.190  33.838  1.00  0.00     0.049 A 
ATOM     36  H   UNL A   1      41.755  30.239  33.061  1.00  0.00     0.167 HD
ATOM     37  C   UNL A   1      42.843  30.782  35.686  1.00  0.00     0.074 A 
ATOM     38  C   UNL A   1      43.079  31.345  37.003  1.00  0.00     0.031 C 
ATOM     39  C   UNL A   1      43.592  29.793  35.136  1.00  0.00     0.031 A 
BRANCH  26  40
ATOM     40  C   UNL A   1      41.908  27.999  29.433  1.00  0.00    -0.014 A 
ATOM     41  C   UNL A   1      41.386  26.694  29.370  1.00  0.00     0.010 A 
ATOM     42  C   UNL A   1      42.691  28.472  28.364  1.00  0.00     0.010 A 
ATOM     43  C   UNL A   1      41.681  25.865  28.281  1.00  0.00     0.020 A 
ATOM     44  C   UNL A   1      42.963  27.659  27.261  1.00  0.00     0.020 A 
ATOM     45  C   UNL A   1      42.472  26.353  27.236  1.00  0.00     0.054 A 
BRANCH  45  46
ATOM     46  S   UNL A   1      42.836  25.262  25.832  1.00  0.00     0.124 S 
ATOM     47  O   UNL A   1      42.656  26.161  24.696  1.00  0.00    -0.237 OA
ATOM     48  O   UNL A   1      44.213  24.852  26.096  1.00  0.00    -0.237 OA
ATOM     49  O   UNL A   1      41.840  24.199  25.950  1.00  0.00    -0.744 OA
ENDBRANCH  45  46
ENDBRANCH  26  40
BRANCH  27  50
ATOM     50  C   UNL A   1      39.972  34.237  37.185  1.00  0.00    -0.014 A 
ATOM     51  C   UNL A   1      39.230  33.828  38.305  1.00  0.00     0.010 A 
ATOM     52  C   UNL A   1      40.457  35.560  37.142  1.00  0.00     0.010 A 
ATOM     53  C   UNL A   1      38.960  34.724  39.347  1.00  0.00     0.020 A 
ATOM     54  C   UNL A   1      40.218  36.449  38.194  1.00  0.00     0.020 A 
ATOM     55  C   UNL A   1      39.456  36.030  39.284  1.00  0.00     0.054 A 
BRANCH  55  56
ATOM     56  S   UNL A   1      39.115  37.168  40.656  1.00  0.00     0.124 S 
ATOM     57  O   UNL A   1      38.272  38.173  40.015  1.00  0.00    -0.237 OA
ATOM     58  O   UNL A   1      38.447  36.304  41.624  1.00  0.00    -0.237 OA
ATOM     59  O   UNL A   1      40.443  37.630  41.057  1.00  0.00    -0.744 OA
ENDBRANCH  55  56
ENDBRANCH  27  50
BRANCH  39  60
ATOM     60  C   UNL A   1      44.764  29.310  35.941  1.00  0.00    -0.014 A 
ATOM     61  C   UNL A   1      46.037  29.887  35.802  1.00  0.00     0.010 A 
ATOM     62  C   UNL A   1      44.561  28.294  36.893  1.00  0.00     0.010 A 
ATOM     63  C   UNL A   1      47.101  29.424  36.576  1.00  0.00     0.020 A 
ATOM     64  C   UNL A   1      45.613  27.856  37.693  1.00  0.00     0.020 A 
ATOM     65  C   UNL A   1      46.881  28.412  37.516  1.00  0.00     0.054 A 
BRANCH  65  66
ATOM     66  S   UNL A   1      48.271  27.853  38.534  1.00  0.00     0.124 S 
ATOM     67  O   UNL A   1      47.771  28.096  39.885  1.00  0.00    -0.237 OA
ATOM     68  O   UNL A   1      48.401  26.449  38.154  1.00  0.00    -0.237 OA
ATOM     69  O   UNL A   1      49.376  28.712  38.114  1.00  0.00    -0.744 OA
ENDBRANCH  65  66
ENDBRANCH  39  60
ENDBRANCH  13  14
ENDBRANCH   6   8
ENDBRANCH   5   6
ENDBRANCH   4   5
ENDBRANCH   3   4
ENDBRANCH   2   3
ENDBRANCH   1   2
BRANCH   1  70
ATOM     70  C   UNL A   1      32.979  28.821  26.992  1.00  0.00     0.188 C 
BRANCH  70  71
ATOM     71  O   UNL A   1      32.654  28.192  25.760  1.00  0.00    -0.377 OA
BRANCH  71  72
ATOM     72  C   UNL A   1      31.356  27.610  25.688  1.00  0.00     0.188 C 
BRANCH  72  73
ATOM     73  C   UNL A   1      30.796  27.176  24.310  1.00  0.00     0.188 C 
BRANCH  73  74
ATOM     74  O   UNL A   1      30.578  25.780  24.217  1.00  0.00    -0.376 OA
BRANCH  74  75
ATOM     75  C   UNL A   1      31.529  25.072  23.434  1.00  0.00     0.202 C 
BRANCH  75  76
ATOM     76  C   UNL A   1      32.726  25.870  22.882  1.00  0.00     0.261 C 
BRANCH  76  77
ATOM     77  O   UNL A   1      33.990  25.171  22.805  1.00  0.00    -0.462 OA
BRANCH  77  78
ATOM     78  C   UNL A   1      34.057  23.823  22.608  1.00  0.00     0.327 C 
ATOM     79  O   UNL A   1      33.604  23.262  21.629  1.00  0.00    -0.250 OA
BRANCH  78  80
ATOM     80  C   UNL A   1      34.868  23.125  23.751  1.00  0.00     0.145 C 
ATOM     81  C   UNL A   1      34.890  23.914  25.094  1.00  0.00     0.039 C 
ATOM     82  C   UNL A   1      34.228  21.785  24.188  1.00  0.00     0.022 C 
ATOM     83  Cl  UNL A   1      36.528  22.804  23.118  1.00  0.00    -0.106 Cl
ATOM     84  C   UNL A   1      34.177  22.969  26.075  1.00  0.00    -0.008 C 
ATOM     85  C   UNL A   1      35.149  20.988  25.148  1.00  0.00     0.006 C 
ATOM     86  C   UNL A   1      33.162  22.276  25.169  1.00  0.00     0.009 C 
ATOM     87  C   UNL A   1      35.140  21.831  26.431  1.00  0.00     0.004 C 
ENDBRANCH  78  80
ENDBRANCH  77  78
ENDBRANCH  76  77
ENDBRANCH  75  76
ENDBRANCH  74  75
ENDBRANCH  73  74
ENDBRANCH  72  73
ENDBRANCH  71  72
ENDBRANCH  70  71
ENDBRANCH   1  70
TORSDOF 23
ENDMDL
MODEL 3
REMARK VINA RESULT:      -8.4      6.208     11.665
REMARK SMILES O=C(OCCOCCOCCOCCOC(=O)[C@@]1(Cl)C[C@@H]2CC[C@H]1C2)c1ccc(-c2c3nc(c(-c4ccc(S(=O)(=O)[O-])cc4)c4ccc([nH]4)c(-c4ccc(S(=O)(=O)[O-])cc4)c4nc(c(-c5ccc(S(=O)(=O)[O-])cc5)c5ccc2[nH]5)C=C4)C=C3)cc1
REMARK SMILES IDX 7 1 6 2 5 3 4 4 3 5 2 6 1 7 26 8 27 9 85 10 28 11 84 12
REMARK SMILES IDX 29 13 30 14 31 15 78 16 32 17 83 18 77 19 79 20 33 21 82 22
REMARK SMILES IDX 76 23 75 24 34 26 64 27 45 28 63 29 46 30 49 31 62 32 80 33
REMARK SMILES IDX 47 34 48 35 61 37 81 38 50 39 35 40 36 41 44 42 37 43 43 44
REMARK SMILES IDX 38 45 39 46 40 47 41 48 42 49 65 50 66 51 74 52 67 53 73 54
REMARK SMILES IDX 68 55 69 56 70 57 71 58 72 59 51 60 52 61 60 62 53 63 59 64
REMARK SMILES IDX 54 65 55 66 56 67 57 68 58 69 8 70 9 71 10 72 11 73 12 74
REMARK SMILES IDX 13 75 14 76 15 77 16 78 17 79 18 80 20 81 24 82 19 83 21 84
REMARK SMILES IDX 23 85 25 86 22 87
REMARK H PARENT 79 25 49 36
REMARK Flexibility Score: inf
ROOT
ATOM      1  C   UNL A   1      37.272  33.217  35.433  1.00  0.00     0.188 C 
ENDROOT
BRANCH   1   2
ATOM      2  O   UNL A   1      35.931  33.065  34.980  1.00  0.00    -0.376 OA
BRANCH   2   3
ATOM      3  C   UNL A   1      35.451  33.965  33.984  1.00  0.00     0.202 C 
BRANCH   3   4
ATOM      4  C   UNL A   1      34.100  33.607  33.371  1.00  0.00     0.261 C 
BRANCH   4   5
ATOM      5  O   UNL A   1      34.153  32.598  32.352  1.00  0.00    -0.460 OA
BRANCH   5   6
ATOM      6  C   UNL A   1      34.724  32.614  31.124  1.00  0.00     0.338 C 
ATOM      7  O   UNL A   1      34.186  33.300  30.254  1.00  0.00    -0.246 OA
BRANCH   6   8
ATOM      8  C   UNL A   1      35.947  31.846  30.731  1.00  0.00     0.060 A 
ATOM      9  C   UNL A   1      36.765  31.120  31.592  1.00  0.00     0.016 A 
ATOM     10  C   UNL A   1      36.262  31.814  29.362  1.00  0.00     0.016 A 
ATOM     11  C   UNL A   1      37.895  30.458  31.156  1.00  0.00     0.010 A 
ATOM     12  C   UNL A   1      37.404  31.153  28.900  1.00  0.00     0.010 A 
ATOM     13  C   UNL A   1      38.252  30.525  29.818  1.00  0.00    -0.014 A 
BRANCH  13  14
ATOM     14  C   UNL A   1      39.656  30.214  29.517  1.00  0.00     0.031 A 
ATOM     15  C   UNL A   1      40.668  31.264  29.881  1.00  0.00     0.074 A 
ATOM     16  C   UNL A   1      40.009  28.964  29.170  1.00  0.00     0.049 A 
ATOM     17  N   UNL A   1      41.960  31.264  29.710  1.00  0.00    -0.248 NA
ATOM     18  C   UNL A   1      40.152  32.476  30.548  1.00  0.00     0.031 C 
ATOM     19  C   UNL A   1      39.084  27.837  29.014  1.00  0.00     0.029 A 
ATOM     20  N   UNL A   1      41.241  28.418  28.946  1.00  0.00    -0.354 N 
ATOM     21  C   UNL A   1      42.396  32.496  30.183  1.00  0.00     0.074 A 
ATOM     22  C   UNL A   1      41.242  33.217  30.659  1.00  0.00     0.031 C 
ATOM     23  C   UNL A   1      39.790  26.724  28.751  1.00  0.00     0.029 A 
ATOM     24  C   UNL A   1      41.199  27.081  28.633  1.00  0.00     0.049 A 
ATOM     25  H   UNL A   1      42.079  28.933  29.003  1.00  0.00     0.167 HD
ATOM     26  C   UNL A   1      43.656  32.981  30.197  1.00  0.00     0.031 A 
ATOM     27  C   UNL A   1      42.195  26.260  28.253  1.00  0.00     0.031 A 
ATOM     28  C   UNL A   1      44.774  32.217  29.722  1.00  0.00     0.049 A 
ATOM     29  C   UNL A   1      43.574  26.857  28.162  1.00  0.00     0.074 A 
ATOM     30  C   UNL A   1      46.096  32.594  29.600  1.00  0.00     0.029 A 
ATOM     31  N   UNL A   1      44.684  30.896  29.292  1.00  0.00    -0.354 N 
ATOM     32  N   UNL A   1      43.971  28.066  28.495  1.00  0.00    -0.248 NA
ATOM     33  C   UNL A   1      44.635  25.995  27.635  1.00  0.00     0.031 C 
ATOM     34  C   UNL A   1      46.794  31.520  29.037  1.00  0.00     0.029 A 
ATOM     35  C   UNL A   1      45.923  30.450  28.882  1.00  0.00     0.049 A 
ATOM     36  H   UNL A   1      43.858  30.361  29.283  1.00  0.00     0.167 HD
ATOM     37  C   UNL A   1      45.335  28.102  28.241  1.00  0.00     0.074 A 
ATOM     38  C   UNL A   1      45.693  26.786  27.744  1.00  0.00     0.031 C 
ATOM     39  C   UNL A   1      46.217  29.122  28.399  1.00  0.00     0.031 A 
BRANCH  26  40
ATOM     40  C   UNL A   1      43.839  34.414  30.618  1.00  0.00    -0.014 A 
ATOM     41  C   UNL A   1      44.047  34.784  31.959  1.00  0.00     0.010 A 
ATOM     42  C   UNL A   1      43.744  35.421  29.639  1.00  0.00     0.010 A 
ATOM     43  C   UNL A   1      44.112  36.136  32.318  1.00  0.00     0.020 A 
ATOM     44  C   UNL A   1      43.839  36.770  29.989  1.00  0.00     0.020 A 
ATOM     45  C   UNL A   1      44.003  37.120  31.330  1.00  0.00     0.054 A 
BRANCH  45  46
ATOM     46  S   UNL A   1      44.096  38.864  31.819  1.00  0.00     0.124 S 
ATOM     47  O   UNL A   1      43.429  39.527  30.703  1.00  0.00    -0.237 OA
ATOM     48  O   UNL A   1      43.367  38.880  33.084  1.00  0.00    -0.237 OA
ATOM     49  O   UNL A   1      45.531  39.119  31.928  1.00  0.00    -0.744 OA
ENDBRANCH  45  46
ENDBRANCH  26  40
BRANCH  27  50
ATOM     50  C   UNL A   1      41.914  24.848  27.870  1.00  0.00    -0.014 A 
ATOM     51  C   UNL A   1      42.179  23.787  28.752  1.00  0.00     0.010 A 
ATOM     52  C   UNL A   1      41.377  24.554  26.601  1.00  0.00     0.010 A 
ATOM     53  C   UNL A   1      41.934  22.463  28.366  1.00  0.00     0.020 A 
ATOM     54  C   UNL A   1      41.100  23.237  26.223  1.00  0.00     0.020 A 
ATOM     55  C   UNL A   1      41.395  22.197  27.104  1.00  0.00     0.054 A 
BRANCH  55  56
ATOM     56  S   UNL A   1      41.062  20.475  26.634  1.00  0.00     0.124 S 
ATOM     57  O   UNL A   1      41.068  19.801  27.929  1.00  0.00    -0.237 OA
ATOM     58  O   UNL A   1      39.762  20.574  25.977  1.00  0.00    -0.237 OA
ATOM     59  O   UNL A   1      42.176  20.139  25.750  1.00  0.00    -0.744 OA
ENDBRANCH  55  56
ENDBRANCH  27  50
BRANCH  39  60
ATOM     60  C   UNL A   1      47.654  28.822  28.085  1.00  0.00    -0.014 A 
ATOM     61  C   UNL A   1      48.531  28.326  29.063  1.00  0.00     0.010 A 
ATOM     62  C   UNL A   1      48.110  28.994  26.765  1.00  0.00     0.010 A 
ATOM     63  C   UNL A   1      49.857  28.045  28.735  1.00  0.00     0.020 A 
ATOM     64  C   UNL A   1      49.424  28.679  26.425  1.00  0.00     0.020 A 
ATOM     65  C   UNL A   1      50.293  28.223  27.418  1.00  0.00     0.054 A 
BRANCH  65  66
ATOM     66  S   UNL A   1      52.010  27.816  27.008  1.00  0.00     0.124 S 
ATOM     67  O   UNL A   1      52.255  26.652  27.855  1.00  0.00    -0.237 OA
ATOM     68  O   UNL A   1      51.940  27.546  25.574  1.00  0.00    -0.237 OA
ATOM     69  O   UNL A   1      52.749  29.021  27.374  1.00  0.00    -0.744 OA
ENDBRANCH  65  66
ENDBRANCH  39  60
ENDBRANCH  13  14
ENDBRANCH   6   8
ENDBRANCH   5   6
ENDBRANCH   4   5
ENDBRANCH   3   4
ENDBRANCH   2   3
ENDBRANCH   1   2
BRANCH   1  70
ATOM     70  C   UNL A   1      37.941  34.445  34.824  1.00  0.00     0.188 C 
BRANCH  70  71
ATOM     71  O   UNL A   1      39.191  34.792  35.406  1.00  0.00    -0.377 OA
BRANCH  71  72
ATOM     72  C   UNL A   1      40.311  34.755  34.528  1.00  0.00     0.188 C 
BRANCH  72  73
ATOM     73  C   UNL A   1      41.546  35.638  34.839  1.00  0.00     0.188 C 
BRANCH  73  74
ATOM     74  O   UNL A   1      42.467  35.013  35.714  1.00  0.00    -0.376 OA
BRANCH  74  75
ATOM     75  C   UNL A   1      42.533  33.598  35.609  1.00  0.00     0.202 C 
BRANCH  75  76
ATOM     76  C   UNL A   1      43.842  32.988  35.071  1.00  0.00     0.261 C 
BRANCH  76  77
ATOM     77  O   UNL A   1      43.713  31.831  34.214  1.00  0.00    -0.462 OA
BRANCH  77  78
ATOM     78  C   UNL A   1      43.892  30.563  34.684  1.00  0.00     0.327 C 
ATOM     79  O   UNL A   1      44.936  30.161  35.160  1.00  0.00    -0.250 OA
BRANCH  78  80
ATOM     80  C   UNL A   1      42.560  29.743  34.615  1.00  0.00     0.145 C 
ATOM     81  C   UNL A   1      41.444  30.404  33.751  1.00  0.00     0.039 C 
ATOM     82  C   UNL A   1      42.746  28.385  33.895  1.00  0.00     0.022 C 
ATOM     83  Cl  UNL A   1      42.023  29.439  36.312  1.00  0.00    -0.106 Cl
ATOM     84  C   UNL A   1      41.224  29.392  32.615  1.00  0.00    -0.008 C 
ATOM     85  C   UNL A   1      41.493  27.480  34.030  1.00  0.00     0.006 C 
ATOM     86  C   UNL A   1      42.624  28.811  32.430  1.00  0.00     0.009 C 
ATOM     87  C   UNL A   1      40.439  28.202  33.179  1.00  0.00     0.004 C 
ENDBRANCH  78  80
ENDBRANCH  77  78
ENDBRANCH  76  77
ENDBRANCH  75  76
ENDBRANCH  74  75
ENDBRANCH  73  74
ENDBRANCH  72  73
ENDBRANCH  71  72
ENDBRANCH  70  71
ENDBRANCH   1  70
TORSDOF 23
ENDMDL
