MODEL 1
REMARK VINA RESULT:      -7.9      0.000      0.000
REMARK SMILES CC(C)CCn1nc(C(=O)OCCOCCOCCOCCOC(=O)c2ccc(-c3c4nc(c(-c5ccc(S(=O)(=O)[O-])cc5)c5ccc([nH]5)c(-c5ccc(S(=O)(=O)[O-])cc5)c5nc(c(-c6ccc(S(=O)(=O)[O-])cc6)c6ccc3[nH]6)C=C5)C=C4)cc2)c2c1CCN(C(=O)[C@@H]1CCc3nn(C)c(=O)n3C1)C2
REMARK SMILES IDX 17 1 16 2 15 3 14 4 13 5 12 6 11 7 9 8 10 9 8 10 6 11 7 12
REMARK SMILES IDX 87 13 86 14 88 15 104 16 89 17 90 18 5 19 4 20 2 21 1 22
REMARK SMILES IDX 3 23 91 24 92 25 93 26 94 27 103 28 95 29 102 30 96 31
REMARK SMILES IDX 100 32 97 33 98 34 101 35 99 36 18 37 19 38 20 39 21 40
REMARK SMILES IDX 22 41 23 42 24 43 25 44 26 45 27 46 85 47 28 48 84 49 29 50
REMARK SMILES IDX 30 51 31 52 78 53 32 54 83 55 77 56 79 57 33 58 82 59 76 60
REMARK SMILES IDX 75 61 34 63 64 64 45 65 63 66 46 67 49 68 62 69 80 70 47 71
REMARK SMILES IDX 48 72 61 74 81 75 50 76 35 77 36 78 44 79 37 80 43 81 38 82
REMARK SMILES IDX 39 83 40 84 41 85 42 86 65 87 66 88 74 89 67 90 73 91 68 92
REMARK SMILES IDX 69 93 70 94 71 95 72 96 51 97 52 98 60 99 53 100 59 101
REMARK SMILES IDX 54 102 55 103 56 104 57 105 58 106
REMARK H PARENT 79 62 49 73
REMARK Flexibility Score: inf
ROOT
ATOM      1  O   UNL A   1      39.868  28.263  29.240  1.00  0.00    -0.377 OA
ENDROOT
BRANCH   1   2
ATOM      2  C   UNL A   1      39.773  27.212  28.302  1.00  0.00     0.188 C 
BRANCH   2   3
ATOM      3  C   UNL A   1      40.908  26.170  28.209  1.00  0.00     0.188 C 
BRANCH   3   4
ATOM      4  O   UNL A   1      40.980  25.412  27.021  1.00  0.00    -0.376 OA
BRANCH   4   5
ATOM      5  C   UNL A   1      41.443  25.869  25.773  1.00  0.00     0.202 C 
BRANCH   5   6
ATOM      6  C   UNL A   1      42.760  25.472  25.104  1.00  0.00     0.261 C 
BRANCH   6   7
ATOM      7  O   UNL A   1      43.674  24.746  25.904  1.00  0.00    -0.458 OA
BRANCH   7   8
ATOM      8  C   UNL A   1      45.002  24.955  25.702  1.00  0.00     0.359 C 
ATOM      9  O   UNL A   1      45.590  24.722  24.647  1.00  0.00    -0.244 OA
BRANCH   8  10
ATOM     10  C   UNL A   1      45.584  25.590  26.891  1.00  0.00     0.175 A 
ATOM     11  N   UNL A   1      46.536  25.862  28.789  1.00  0.00    -0.268 N 
ATOM     12  N   UNL A   1      46.128  24.905  27.926  1.00  0.00    -0.165 NA
ATOM     13  C   UNL A   1      46.094  27.087  28.409  1.00  0.00     0.046 A 
ATOM     14  C   UNL A   1      45.686  26.994  27.100  1.00  0.00     0.028 A 
ATOM     15  C   UNL A   1      45.912  28.304  29.218  1.00  0.00     0.078 C 
ATOM     16  C   UNL A   1      45.259  28.172  26.256  1.00  0.00     0.159 C 
ATOM     17  C   UNL A   1      44.821  29.101  28.478  1.00  0.00     0.126 C 
ATOM     18  N   UNL A   1      45.198  29.387  27.101  1.00  0.00    -0.338 N 
BRANCH  11  19
ATOM     19  C   UNL A   1      47.177  25.541  30.051  1.00  0.00     0.145 C 
BRANCH  19  20
ATOM     20  C   UNL A   1      48.505  26.242  30.360  1.00  0.00     0.027 C 
BRANCH  20  21
ATOM     21  C   UNL A   1      49.782  25.384  30.240  1.00  0.00    -0.016 C 
ATOM     22  C   UNL A   1      50.091  24.966  28.801  1.00  0.00     0.007 C 
ATOM     23  C   UNL A   1      50.975  26.179  30.790  1.00  0.00     0.007 C 
ENDBRANCH  20  21
ENDBRANCH  19  20
ENDBRANCH  11  19
BRANCH  18  24
ATOM     24  C   UNL A   1      45.446  30.616  26.516  1.00  0.00     0.227 C 
ATOM     25  O   UNL A   1      46.224  30.680  25.554  1.00  0.00    -0.274 OA
BRANCH  24  26
ATOM     26  C   UNL A   1      44.812  31.961  26.970  1.00  0.00     0.099 C 
ATOM     27  C   UNL A   1      43.908  32.694  25.971  1.00  0.00     0.023 C 
ATOM     28  C   UNL A   1      45.700  32.929  27.747  1.00  0.00     0.142 C 
ATOM     29  C   UNL A   1      44.588  33.739  25.096  1.00  0.00     0.078 C 
ATOM     30  N   UNL A   1      46.265  33.970  26.915  1.00  0.00    -0.278 N 
ATOM     31  C   UNL A   1      45.846  34.315  25.679  1.00  0.00     0.133 A 
ATOM     32  C   UNL A   1      47.565  34.409  27.018  1.00  0.00     0.345 A 
ATOM     33  N   UNL A   1      46.722  34.967  24.968  1.00  0.00    -0.155 NA
ATOM     34  N   UNL A   1      47.833  35.030  25.787  1.00  0.00    -0.216 N 
ATOM     35  O   UNL A   1      48.370  34.135  27.894  1.00  0.00    -0.246 OA
ATOM     36  C   UNL A   1      49.163  35.157  25.247  1.00  0.00     0.179 C 
ENDBRANCH  24  26
ENDBRANCH  18  24
ENDBRANCH   8  10
ENDBRANCH   7   8
ENDBRANCH   6   7
ENDBRANCH   5   6
ENDBRANCH   4   5
ENDBRANCH   3   4
ENDBRANCH   2   3
ENDBRANCH   1   2
BRANCH   1  37
ATOM     37  C   UNL A   1      38.720  29.026  29.593  1.00  0.00     0.188 C 
BRANCH  37  38
ATOM     38  C   UNL A   1      37.938  29.912  28.586  1.00  0.00     0.188 C 
BRANCH  38  39
ATOM     39  O   UNL A   1      38.184  31.306  28.664  1.00  0.00    -0.376 OA
BRANCH  39  40
ATOM     40  C   UNL A   1      37.163  32.272  28.522  1.00  0.00     0.202 C 
BRANCH  40  41
ATOM     41  C   UNL A   1      35.820  31.812  27.963  1.00  0.00     0.261 C 
BRANCH  41  42
ATOM     42  O   UNL A   1      34.890  31.459  28.966  1.00  0.00    -0.460 OA
BRANCH  42  43
ATOM     43  C   UNL A   1      34.313  32.512  29.568  1.00  0.00     0.338 C 
ATOM     44  O   UNL A   1      33.575  33.343  29.048  1.00  0.00    -0.246 OA
BRANCH  43  45
ATOM     45  C   UNL A   1      34.794  32.582  30.945  1.00  0.00     0.060 A 
ATOM     46  C   UNL A   1      34.921  33.875  31.444  1.00  0.00     0.016 A 
ATOM     47  C   UNL A   1      35.551  31.499  31.422  1.00  0.00     0.016 A 
ATOM     48  C   UNL A   1      36.071  34.157  32.131  1.00  0.00     0.010 A 
ATOM     49  C   UNL A   1      36.709  31.786  32.087  1.00  0.00     0.010 A 
ATOM     50  C   UNL A   1      36.999  33.125  32.314  1.00  0.00    -0.014 A 
BRANCH  50  51
ATOM     51  C   UNL A   1      38.301  33.500  32.792  1.00  0.00     0.031 A 
ATOM     52  C   UNL A   1      39.226  33.799  31.695  1.00  0.00     0.074 A 
ATOM     53  C   UNL A   1      38.610  33.576  34.096  1.00  0.00     0.049 A 
ATOM     54  N   UNL A   1      40.135  33.016  31.221  1.00  0.00    -0.248 NA
ATOM     55  C   UNL A   1      38.953  34.991  30.882  1.00  0.00     0.031 C 
ATOM     56  C   UNL A   1      37.728  33.565  35.264  1.00  0.00     0.029 A 
ATOM     57  N   UNL A   1      39.832  33.793  34.635  1.00  0.00    -0.354 N 
ATOM     58  C   UNL A   1      40.706  33.718  30.175  1.00  0.00     0.074 A 
ATOM     59  C   UNL A   1      39.803  34.801  29.873  1.00  0.00     0.031 C 
ATOM     60  C   UNL A   1      38.420  34.019  36.337  1.00  0.00     0.029 A 
ATOM     61  C   UNL A   1      39.811  34.218  35.952  1.00  0.00     0.049 A 
ATOM     62  H   UNL A   1      40.668  33.659  34.132  1.00  0.00     0.167 HD
ATOM     63  C   UNL A   1      42.002  33.517  29.820  1.00  0.00     0.031 A 
ATOM     64  C   UNL A   1      40.854  34.788  36.609  1.00  0.00     0.031 A 
ATOM     65  C   UNL A   1      42.543  32.325  30.425  1.00  0.00     0.049 A 
ATOM     66  C   UNL A   1      42.093  34.395  35.878  1.00  0.00     0.074 A 
ATOM     67  C   UNL A   1      42.219  30.983  30.373  1.00  0.00     0.029 A 
ATOM     68  N   UNL A   1      43.313  32.491  31.555  1.00  0.00    -0.354 N 
ATOM     69  N   UNL A   1      42.528  33.166  35.825  1.00  0.00    -0.248 NA
ATOM     70  C   UNL A   1      42.576  35.265  34.812  1.00  0.00     0.031 C 
ATOM     71  C   UNL A   1      42.412  30.506  31.702  1.00  0.00     0.029 A 
ATOM     72  C   UNL A   1      42.904  31.561  32.476  1.00  0.00     0.049 A 
ATOM     73  H   UNL A   1      44.028  33.157  31.679  1.00  0.00     0.167 HD
ATOM     74  C   UNL A   1      42.963  32.993  34.517  1.00  0.00     0.074 A 
ATOM     75  C   UNL A   1      43.060  34.345  33.969  1.00  0.00     0.031 C 
ATOM     76  C   UNL A   1      42.927  31.767  33.911  1.00  0.00     0.031 A 
BRANCH  63  77
ATOM     77  C   UNL A   1      42.877  34.615  29.283  1.00  0.00    -0.014 A 
ATOM     78  C   UNL A   1      43.664  35.350  30.188  1.00  0.00     0.010 A 
ATOM     79  C   UNL A   1      42.747  35.130  27.975  1.00  0.00     0.010 A 
ATOM     80  C   UNL A   1      44.228  36.577  29.820  1.00  0.00     0.020 A 
ATOM     81  C   UNL A   1      43.343  36.325  27.584  1.00  0.00     0.020 A 
ATOM     82  C   UNL A   1      44.048  37.061  28.524  1.00  0.00     0.054 A 
BRANCH  82  83
ATOM     83  S   UNL A   1      44.675  38.700  28.093  1.00  0.00     0.124 S 
ATOM     84  O   UNL A   1      45.798  38.841  29.013  1.00  0.00    -0.237 OA
ATOM     85  O   UNL A   1      45.022  38.535  26.685  1.00  0.00    -0.237 OA
ATOM     86  O   UNL A   1      43.536  39.580  28.351  1.00  0.00    -0.744 OA
ENDBRANCH  82  83
ENDBRANCH  63  77
BRANCH  64  87
ATOM     87  C   UNL A   1      40.791  35.941  37.545  1.00  0.00    -0.014 A 
ATOM     88  C   UNL A   1      39.566  36.360  38.095  1.00  0.00     0.010 A 
ATOM     89  C   UNL A   1      41.972  36.457  38.119  1.00  0.00     0.010 A 
ATOM     90  C   UNL A   1      39.528  37.202  39.223  1.00  0.00     0.020 A 
ATOM     91  C   UNL A   1      41.943  37.302  39.233  1.00  0.00     0.020 A 
ATOM     92  C   UNL A   1      40.720  37.648  39.799  1.00  0.00     0.054 A 
BRANCH  92  93
ATOM     93  S   UNL A   1      40.676  38.561  41.370  1.00  0.00     0.124 S 
ATOM     94  O   UNL A   1      41.066  37.539  42.335  1.00  0.00    -0.237 OA
ATOM     95  O   UNL A   1      41.650  39.626  41.146  1.00  0.00    -0.237 OA
ATOM     96  O   UNL A   1      39.287  39.009  41.467  1.00  0.00    -0.744 OA
ENDBRANCH  92  93
ENDBRANCH  64  87
BRANCH  76  97
ATOM     97  C   UNL A   1      42.651  30.548  34.764  1.00  0.00    -0.014 A 
ATOM     98  C   UNL A   1      41.377  29.961  34.900  1.00  0.00     0.010 A 
ATOM     99  C   UNL A   1      43.758  29.877  35.314  1.00  0.00     0.010 A 
ATOM    100  C   UNL A   1      41.215  28.751  35.593  1.00  0.00     0.020 A 
ATOM    101  C   UNL A   1      43.606  28.663  35.987  1.00  0.00     0.020 A 
ATOM    102  C   UNL A   1      42.334  28.109  36.134  1.00  0.00     0.054 A 
BRANCH 102 103
ATOM    103  S   UNL A   1      42.129  26.524  36.991  1.00  0.00     0.124 S 
ATOM    104  O   UNL A   1      40.764  26.615  37.505  1.00  0.00    -0.237 OA
ATOM    105  O   UNL A   1      42.335  25.546  35.925  1.00  0.00    -0.237 OA
ATOM    106  O   UNL A   1      43.175  26.542  38.014  1.00  0.00    -0.744 OA
ENDBRANCH 102 103
ENDBRANCH  76  97
ENDBRANCH  50  51
ENDBRANCH  43  45
ENDBRANCH  42  43
ENDBRANCH  41  42
ENDBRANCH  40  41
ENDBRANCH  39  40
ENDBRANCH  38  39
ENDBRANCH  37  38
ENDBRANCH   1  37
TORSDOF 28
ENDMDL
MODEL 2
REMARK VINA RESULT:      -7.4      2.904      9.017
REMARK SMILES CC(C)CCn1nc(C(=O)OCCOCCOCCOCCOC(=O)c2ccc(-c3c4nc(c(-c5ccc(S(=O)(=O)[O-])cc5)c5ccc([nH]5)c(-c5ccc(S(=O)(=O)[O-])cc5)c5nc(c(-c6ccc(S(=O)(=O)[O-])cc6)c6ccc3[nH]6)C=C5)C=C4)cc2)c2c1CCN(C(=O)[C@@H]1CCc3nn(C)c(=O)n3C1)C2
REMARK SMILES IDX 17 1 16 2 15 3 14 4 13 5 12 6 11 7 9 8 10 9 8 10 6 11 7 12
REMARK SMILES IDX 87 13 86 14 88 15 104 16 89 17 90 18 5 19 4 20 2 21 1 22
REMARK SMILES IDX 3 23 91 24 92 25 93 26 94 27 103 28 95 29 102 30 96 31
REMARK SMILES IDX 100 32 97 33 98 34 101 35 99 36 18 37 19 38 20 39 21 40
REMARK SMILES IDX 22 41 23 42 24 43 25 44 26 45 27 46 85 47 28 48 84 49 29 50
REMARK SMILES IDX 30 51 31 52 78 53 32 54 83 55 77 56 79 57 33 58 82 59 76 60
REMARK SMILES IDX 75 61 34 63 64 64 45 65 63 66 46 67 49 68 62 69 80 70 47 71
REMARK SMILES IDX 48 72 61 74 81 75 50 76 35 77 36 78 44 79 37 80 43 81 38 82
REMARK SMILES IDX 39 83 40 84 41 85 42 86 65 87 66 88 74 89 67 90 73 91 68 92
REMARK SMILES IDX 69 93 70 94 71 95 72 96 51 97 52 98 60 99 53 100 59 101
REMARK SMILES IDX 54 102 55 103 56 104 57 105 58 106
REMARK H PARENT 79 62 49 73
REMARK Flexibility Score: inf
ROOT
ATOM      1  O   UNL A   1      39.939  28.154  28.088  1.00  0.00    -0.377 OA
ENDROOT
BRANCH   1   2
ATOM      2  C   UNL A   1      41.134  28.457  28.778  1.00  0.00     0.188 C 
BRANCH   2   3
ATOM      3  C   UNL A   1      42.402  28.822  27.979  1.00  0.00     0.188 C 
BRANCH   3   4
ATOM      4  O   UNL A   1      42.619  30.192  27.719  1.00  0.00    -0.376 OA
BRANCH   4   5
ATOM      5  C   UNL A   1      43.834  30.883  27.881  1.00  0.00     0.202 C 
BRANCH   5   6
ATOM      6  C   UNL A   1      45.218  30.246  28.016  1.00  0.00     0.261 C 
BRANCH   6   7
ATOM      7  O   UNL A   1      45.446  29.078  27.252  1.00  0.00    -0.458 OA
BRANCH   7   8
ATOM      8  C   UNL A   1      46.175  29.195  26.111  1.00  0.00     0.359 C 
ATOM      9  O   UNL A   1      46.153  30.176  25.370  1.00  0.00    -0.244 OA
BRANCH   8  10
ATOM     10  C   UNL A   1      47.052  28.026  25.968  1.00  0.00     0.175 A 
ATOM     11  N   UNL A   1      48.795  26.816  25.683  1.00  0.00    -0.268 N 
ATOM     12  N   UNL A   1      48.387  28.103  25.748  1.00  0.00    -0.165 NA
ATOM     13  C   UNL A   1      47.738  25.966  25.666  1.00  0.00     0.046 A 
ATOM     14  C   UNL A   1      46.630  26.671  26.073  1.00  0.00     0.028 A 
ATOM     15  C   UNL A   1      47.667  24.579  25.177  1.00  0.00     0.078 C 
ATOM     16  C   UNL A   1      45.275  26.054  26.329  1.00  0.00     0.159 C 
ATOM     17  C   UNL A   1      46.188  24.379  24.795  1.00  0.00     0.126 C 
ATOM     18  N   UNL A   1      45.297  24.631  25.918  1.00  0.00    -0.338 N 
BRANCH  11  19
ATOM     19  C   UNL A   1      50.182  26.457  25.450  1.00  0.00     0.145 C 
BRANCH  19  20
ATOM     20  C   UNL A   1      51.087  26.325  26.680  1.00  0.00     0.027 C 
BRANCH  20  21
ATOM     21  C   UNL A   1      52.483  26.974  26.581  1.00  0.00    -0.016 C 
ATOM     22  C   UNL A   1      52.447  28.500  26.702  1.00  0.00     0.007 C 
ATOM     23  C   UNL A   1      53.378  26.413  27.695  1.00  0.00     0.007 C 
ENDBRANCH  20  21
ENDBRANCH  19  20
ENDBRANCH  11  19
BRANCH  18  24
ATOM     24  C   UNL A   1      44.474  23.737  26.580  1.00  0.00     0.227 C 
ATOM     25  O   UNL A   1      44.947  23.040  27.489  1.00  0.00    -0.274 OA
BRANCH  24  26
ATOM     26  C   UNL A   1      42.964  23.526  26.276  1.00  0.00     0.099 C 
ATOM     27  C   UNL A   1      41.978  23.664  27.443  1.00  0.00     0.023 C 
ATOM     28  C   UNL A   1      42.588  22.374  25.348  1.00  0.00     0.142 C 
ATOM     29  C   UNL A   1      41.627  22.376  28.177  1.00  0.00     0.078 C 
ATOM     30  N   UNL A   1      42.169  21.187  26.062  1.00  0.00    -0.278 N 
ATOM     31  C   UNL A   1      41.805  21.128  27.361  1.00  0.00     0.133 A 
ATOM     32  C   UNL A   1      42.542  19.911  25.707  1.00  0.00     0.345 A 
ATOM     33  N   UNL A   1      41.865  19.938  27.891  1.00  0.00    -0.155 NA
ATOM     34  N   UNL A   1      42.345  19.143  26.867  1.00  0.00    -0.216 N 
ATOM     35  O   UNL A   1      43.114  19.565  24.686  1.00  0.00    -0.246 OA
ATOM     36  C   UNL A   1      43.068  17.926  27.134  1.00  0.00     0.179 C 
ENDBRANCH  24  26
ENDBRANCH  18  24
ENDBRANCH   8  10
ENDBRANCH   7   8
ENDBRANCH   6   7
ENDBRANCH   5   6
ENDBRANCH   4   5
ENDBRANCH   3   4
ENDBRANCH   2   3
ENDBRANCH   1   2
BRANCH   1  37
ATOM     37  C   UNL A   1      38.679  28.570  28.603  1.00  0.00     0.188 C 
BRANCH  37  38
ATOM     38  C   UNL A   1      37.945  29.855  28.133  1.00  0.00     0.188 C 
BRANCH  38  39
ATOM     39  O   UNL A   1      37.781  30.868  29.111  1.00  0.00    -0.376 OA
BRANCH  39  40
ATOM     40  C   UNL A   1      37.527  32.218  28.779  1.00  0.00     0.202 C 
BRANCH  40  41
ATOM     41  C   UNL A   1      36.097  32.604  28.411  1.00  0.00     0.261 C 
BRANCH  41  42
ATOM     42  O   UNL A   1      35.183  32.435  29.475  1.00  0.00    -0.460 OA
BRANCH  42  43
ATOM     43  C   UNL A   1      34.824  33.582  30.072  1.00  0.00     0.338 C 
ATOM     44  O   UNL A   1      34.414  34.601  29.522  1.00  0.00    -0.246 OA
BRANCH  43  45
ATOM     45  C   UNL A   1      35.104  33.471  31.501  1.00  0.00     0.060 A 
ATOM     46  C   UNL A   1      35.830  34.536  32.029  1.00  0.00     0.016 A 
ATOM     47  C   UNL A   1      35.119  32.182  32.058  1.00  0.00     0.016 A 
ATOM     48  C   UNL A   1      36.867  34.217  32.863  1.00  0.00     0.010 A 
ATOM     49  C   UNL A   1      36.169  31.862  32.872  1.00  0.00     0.010 A 
ATOM     50  C   UNL A   1      37.088  32.865  33.152  1.00  0.00    -0.014 A 
BRANCH  50  51
ATOM     51  C   UNL A   1      38.326  32.534  33.801  1.00  0.00     0.031 A 
ATOM     52  C   UNL A   1      38.426  33.135  35.136  1.00  0.00     0.074 A 
ATOM     53  C   UNL A   1      39.264  31.754  33.242  1.00  0.00     0.049 A 
ATOM     54  N   UNL A   1      39.079  34.200  35.452  1.00  0.00    -0.248 NA
ATOM     55  C   UNL A   1      37.510  32.641  36.173  1.00  0.00     0.031 C 
ATOM     56  C   UNL A   1      39.175  30.896  32.059  1.00  0.00     0.029 A 
ATOM     57  N   UNL A   1      40.503  31.496  33.718  1.00  0.00    -0.354 N 
ATOM     58  C   UNL A   1      38.831  34.389  36.800  1.00  0.00     0.074 A 
ATOM     59  C   UNL A   1      37.701  33.554  37.125  1.00  0.00     0.031 C 
ATOM     60  C   UNL A   1      40.220  30.032  32.069  1.00  0.00     0.029 A 
ATOM     61  C   UNL A   1      41.104  30.373  33.176  1.00  0.00     0.049 A 
ATOM     62  H   UNL A   1      40.942  32.060  34.395  1.00  0.00     0.167 HD
ATOM     63  C   UNL A   1      39.740  35.004  37.601  1.00  0.00     0.031 A 
ATOM     64  C   UNL A   1      42.185  29.735  33.693  1.00  0.00     0.031 A 
ATOM     65  C   UNL A   1      40.762  35.673  36.834  1.00  0.00     0.049 A 
ATOM     66  C   UNL A   1      42.887  30.714  34.572  1.00  0.00     0.074 A 
ATOM     67  C   UNL A   1      40.758  36.686  35.896  1.00  0.00     0.029 A 
ATOM     68  N   UNL A   1      41.962  35.014  36.683  1.00  0.00    -0.354 N 
ATOM     69  N   UNL A   1      43.476  31.785  34.117  1.00  0.00    -0.248 NA
ATOM     70  C   UNL A   1      42.520  30.766  35.983  1.00  0.00     0.031 C 
ATOM     71  C   UNL A   1      41.732  36.299  34.931  1.00  0.00     0.029 A 
ATOM     72  C   UNL A   1      42.324  35.109  35.363  1.00  0.00     0.049 A 
ATOM     73  H   UNL A   1      42.469  34.558  37.393  1.00  0.00     0.167 HD
ATOM     74  C   UNL A   1      43.164  32.785  35.029  1.00  0.00     0.074 A 
ATOM     75  C   UNL A   1      42.658  32.079  36.205  1.00  0.00     0.031 C 
ATOM     76  C   UNL A   1      43.071  34.094  34.645  1.00  0.00     0.031 A 
BRANCH  63  77
ATOM     77  C   UNL A   1      39.929  34.637  39.046  1.00  0.00    -0.014 A 
ATOM     78  C   UNL A   1      40.531  33.403  39.353  1.00  0.00     0.010 A 
ATOM     79  C   UNL A   1      39.294  35.325  40.102  1.00  0.00     0.010 A 
ATOM     80  C   UNL A   1      40.433  32.853  40.637  1.00  0.00     0.020 A 
ATOM     81  C   UNL A   1      39.233  34.811  41.394  1.00  0.00     0.020 A 
ATOM     82  C   UNL A   1      39.769  33.557  41.642  1.00  0.00     0.054 A 
BRANCH  82  83
ATOM     83  S   UNL A   1      39.542  32.788  43.261  1.00  0.00     0.124 S 
ATOM     84  O   UNL A   1      38.769  33.804  43.967  1.00  0.00    -0.237 OA
ATOM     85  O   UNL A   1      38.823  31.563  42.921  1.00  0.00    -0.237 OA
ATOM     86  O   UNL A   1      40.908  32.591  43.741  1.00  0.00    -0.744 OA
ENDBRANCH  82  83
ENDBRANCH  63  77
BRANCH  64  87
ATOM     87  C   UNL A   1      42.391  28.265  33.782  1.00  0.00    -0.014 A 
ATOM     88  C   UNL A   1      43.406  27.630  33.044  1.00  0.00     0.010 A 
ATOM     89  C   UNL A   1      41.769  27.521  34.807  1.00  0.00     0.010 A 
ATOM     90  C   UNL A   1      43.834  26.329  33.370  1.00  0.00     0.020 A 
ATOM     91  C   UNL A   1      42.181  26.224  35.131  1.00  0.00     0.020 A 
ATOM     92  C   UNL A   1      43.232  25.644  34.429  1.00  0.00     0.054 A 
BRANCH  92  93
ATOM     93  S   UNL A   1      43.919  24.054  34.980  1.00  0.00     0.124 S 
ATOM     94  O   UNL A   1      42.942  23.098  34.470  1.00  0.00    -0.237 OA
ATOM     95  O   UNL A   1      45.227  24.031  34.331  1.00  0.00    -0.237 OA
ATOM     96  O   UNL A   1      43.959  24.184  36.437  1.00  0.00    -0.744 OA
ENDBRANCH  92  93
ENDBRANCH  64  87
BRANCH  76  97
ATOM     97  C   UNL A   1      43.566  34.481  33.269  1.00  0.00    -0.014 A 
ATOM     98  C   UNL A   1      42.771  34.421  32.107  1.00  0.00     0.010 A 
ATOM     99  C   UNL A   1      44.833  35.083  33.181  1.00  0.00     0.010 A 
ATOM    100  C   UNL A   1      43.246  34.926  30.885  1.00  0.00     0.020 A 
ATOM    101  C   UNL A   1      45.304  35.605  31.973  1.00  0.00     0.020 A 
ATOM    102  C   UNL A   1      44.513  35.514  30.828  1.00  0.00     0.054 A 
BRANCH 102 103
ATOM    103  S   UNL A   1      45.108  36.204  29.259  1.00  0.00     0.124 S 
ATOM    104  O   UNL A   1      46.559  36.105  29.398  1.00  0.00    -0.237 OA
ATOM    105  O   UNL A   1      44.509  35.318  28.264  1.00  0.00    -0.237 OA
ATOM    106  O   UNL A   1      44.582  37.569  29.256  1.00  0.00    -0.744 OA
ENDBRANCH 102 103
ENDBRANCH  76  97
ENDBRANCH  50  51
ENDBRANCH  43  45
ENDBRANCH  42  43
ENDBRANCH  41  42
ENDBRANCH  40  41
ENDBRANCH  39  40
ENDBRANCH  38  39
ENDBRANCH  37  38
ENDBRANCH   1  37
TORSDOF 28
ENDMDL
MODEL 3
REMARK VINA RESULT:      -6.8      5.837     15.275
REMARK SMILES CC(C)CCn1nc(C(=O)OCCOCCOCCOCCOC(=O)c2ccc(-c3c4nc(c(-c5ccc(S(=O)(=O)[O-])cc5)c5ccc([nH]5)c(-c5ccc(S(=O)(=O)[O-])cc5)c5nc(c(-c6ccc(S(=O)(=O)[O-])cc6)c6ccc3[nH]6)C=C5)C=C4)cc2)c2c1CCN(C(=O)[C@@H]1CCc3nn(C)c(=O)n3C1)C2
REMARK SMILES IDX 17 1 16 2 15 3 14 4 13 5 12 6 11 7 9 8 10 9 8 10 6 11 7 12
REMARK SMILES IDX 87 13 86 14 88 15 104 16 89 17 90 18 5 19 4 20 2 21 1 22
REMARK SMILES IDX 3 23 91 24 92 25 93 26 94 27 103 28 95 29 102 30 96 31
REMARK SMILES IDX 100 32 97 33 98 34 101 35 99 36 18 37 19 38 20 39 21 40
REMARK SMILES IDX 22 41 23 42 24 43 25 44 26 45 27 46 85 47 28 48 84 49 29 50
REMARK SMILES IDX 30 51 31 52 78 53 32 54 83 55 77 56 79 57 33 58 82 59 76 60
REMARK SMILES IDX 75 61 34 63 64 64 45 65 63 66 46 67 49 68 62 69 80 70 47 71
REMARK SMILES IDX 48 72 61 74 81 75 50 76 35 77 36 78 44 79 37 80 43 81 38 82
REMARK SMILES IDX 39 83 40 84 41 85 42 86 65 87 66 88 74 89 67 90 73 91 68 92
REMARK SMILES IDX 69 93 70 94 71 95 72 96 51 97 52 98 60 99 53 100 59 101
REMARK SMILES IDX 54 102 55 103 56 104 57 105 58 106
REMARK H PARENT 79 62 49 73
REMARK Flexibility Score: inf
ROOT
ATOM      1  O   UNL A   1      43.555  42.761  36.207  1.00  0.00    -0.377 OA
ENDROOT
BRANCH   1   2
ATOM      2  C   UNL A   1      43.945  41.979  37.317  1.00  0.00     0.188 C 
BRANCH   2   3
ATOM      3  C   UNL A   1      44.682  42.647  38.497  1.00  0.00     0.188 C 
BRANCH   3   4
ATOM      4  O   UNL A   1      43.983  42.732  39.719  1.00  0.00    -0.376 OA
BRANCH   4   5
ATOM      5  C   UNL A   1      42.619  42.446  39.915  1.00  0.00     0.202 C 
BRANCH   5   6
ATOM      6  C   UNL A   1      42.053  41.195  40.589  1.00  0.00     0.261 C 
BRANCH   6   7
ATOM      7  O   UNL A   1      41.152  41.414  41.658  1.00  0.00    -0.458 OA
BRANCH   7   8
ATOM      8  C   UNL A   1      39.821  41.336  41.395  1.00  0.00     0.359 C 
ATOM      9  O   UNL A   1      39.342  40.859  40.368  1.00  0.00    -0.244 OA
BRANCH   8  10
ATOM     10  C   UNL A   1      39.063  41.811  42.560  1.00  0.00     0.175 A 
ATOM     11  N   UNL A   1      38.034  41.848  44.437  1.00  0.00    -0.268 N 
ATOM     12  N   UNL A   1      38.705  41.022  43.602  1.00  0.00    -0.165 NA
ATOM     13  C   UNL A   1      37.810  43.054  43.859  1.00  0.00     0.046 A 
ATOM     14  C   UNL A   1      38.638  43.153  42.766  1.00  0.00     0.028 A 
ATOM     15  C   UNL A   1      36.790  44.066  44.182  1.00  0.00     0.078 C 
ATOM     16  C   UNL A   1      38.800  44.401  41.931  1.00  0.00     0.159 C 
ATOM     17  C   UNL A   1      36.580  44.838  42.865  1.00  0.00     0.126 C 
ATOM     18  N   UNL A   1      37.820  45.420  42.374  1.00  0.00    -0.338 N 
BRANCH  11  19
ATOM     19  C   UNL A   1      37.469  41.384  45.691  1.00  0.00     0.145 C 
BRANCH  19  20
ATOM     20  C   UNL A   1      36.400  40.288  45.612  1.00  0.00     0.027 C 
BRANCH  20  21
ATOM     21  C   UNL A   1      34.931  40.748  45.731  1.00  0.00    -0.016 C 
ATOM     22  C   UNL A   1      34.359  41.274  44.412  1.00  0.00     0.007 C 
ATOM     23  C   UNL A   1      34.071  39.568  46.205  1.00  0.00     0.007 C 
ENDBRANCH  20  21
ENDBRANCH  19  20
ENDBRANCH  11  19
BRANCH  18  24
ATOM     24  C   UNL A   1      38.147  46.757  42.238  1.00  0.00     0.227 C 
ATOM     25  O   UNL A   1      37.679  47.400  41.288  1.00  0.00    -0.274 OA
BRANCH  24  26
ATOM     26  C   UNL A   1      39.074  47.549  43.204  1.00  0.00     0.099 C 
ATOM     27  C   UNL A   1      40.207  48.377  42.583  1.00  0.00     0.023 C 
ATOM     28  C   UNL A   1      39.520  46.847  44.484  1.00  0.00     0.142 C 
ATOM     29  C   UNL A   1      41.555  47.678  42.461  1.00  0.00     0.078 C 
ATOM     30  N   UNL A   1      40.842  46.268  44.379  1.00  0.00    -0.278 N 
ATOM     31  C   UNL A   1      41.763  46.554  43.435  1.00  0.00     0.133 A 
ATOM     32  C   UNL A   1      41.176  45.030  44.880  1.00  0.00     0.345 A 
ATOM     33  N   UNL A   1      42.690  45.650  43.284  1.00  0.00    -0.155 NA
ATOM     34  N   UNL A   1      42.336  44.660  44.180  1.00  0.00    -0.216 N 
ATOM     35  O   UNL A   1      40.501  44.322  45.610  1.00  0.00    -0.246 OA
ATOM     36  C   UNL A   1      42.727  43.288  43.981  1.00  0.00     0.179 C 
ENDBRANCH  24  26
ENDBRANCH  18  24
ENDBRANCH   8  10
ENDBRANCH   7   8
ENDBRANCH   6   7
ENDBRANCH   5   6
ENDBRANCH   4   5
ENDBRANCH   3   4
ENDBRANCH   2   3
ENDBRANCH   1   2
BRANCH   1  37
ATOM     37  C   UNL A   1      44.176  42.581  34.940  1.00  0.00     0.188 C 
BRANCH  37  38
ATOM     38  C   UNL A   1      44.694  41.210  34.428  1.00  0.00     0.188 C 
BRANCH  38  39
ATOM     39  O   UNL A   1      43.712  40.335  33.897  1.00  0.00    -0.376 OA
BRANCH  39  40
ATOM     40  C   UNL A   1      43.045  40.584  32.677  1.00  0.00     0.202 C 
BRANCH  40  41
ATOM     41  C   UNL A   1      43.756  40.195  31.384  1.00  0.00     0.261 C 
BRANCH  41  42
ATOM     42  O   UNL A   1      44.413  38.947  31.463  1.00  0.00    -0.460 OA
BRANCH  42  43
ATOM     43  C   UNL A   1      43.923  38.020  30.624  1.00  0.00     0.338 C 
ATOM     44  O   UNL A   1      43.300  38.224  29.585  1.00  0.00    -0.246 OA
BRANCH  43  45
ATOM     45  C   UNL A   1      44.155  36.699  31.201  1.00  0.00     0.060 A 
ATOM     46  C   UNL A   1      43.651  35.645  30.445  1.00  0.00     0.016 A 
ATOM     47  C   UNL A   1      44.340  36.624  32.592  1.00  0.00     0.016 A 
ATOM     48  C   UNL A   1      42.968  34.674  31.125  1.00  0.00     0.010 A 
ATOM     49  C   UNL A   1      43.638  35.667  33.268  1.00  0.00     0.010 A 
ATOM     50  C   UNL A   1      42.867  34.790  32.517  1.00  0.00    -0.014 A 
BRANCH  50  51
ATOM     51  C   UNL A   1      41.932  33.922  33.175  1.00  0.00     0.031 A 
ATOM     52  C   UNL A   1      42.257  32.506  32.972  1.00  0.00     0.074 A 
ATOM     53  C   UNL A   1      40.895  34.372  33.899  1.00  0.00     0.049 A 
ATOM     54  N   UNL A   1      41.702  31.704  32.130  1.00  0.00    -0.248 NA
ATOM     55  C   UNL A   1      43.486  31.996  33.595  1.00  0.00     0.031 C 
ATOM     56  C   UNL A   1      40.620  35.724  34.389  1.00  0.00     0.029 A 
ATOM     57  N   UNL A   1      39.897  33.638  34.442  1.00  0.00    -0.354 N 
ATOM     58  C   UNL A   1      42.378  30.504  32.276  1.00  0.00     0.074 A 
ATOM     59  C   UNL A   1      43.585  30.806  33.004  1.00  0.00     0.031 C 
ATOM     60  C   UNL A   1      39.676  35.650  35.359  1.00  0.00     0.029 A 
ATOM     61  C   UNL A   1      39.197  34.278  35.451  1.00  0.00     0.049 A 
ATOM     62  H   UNL A   1      39.686  32.723  34.145  1.00  0.00     0.167 HD
ATOM     63  C   UNL A   1      41.763  29.318  32.027  1.00  0.00     0.031 A 
ATOM     64  C   UNL A   1      38.378  33.668  36.346  1.00  0.00     0.031 A 
ATOM     65  C   UNL A   1      40.517  29.499  31.324  1.00  0.00     0.049 A 
ATOM     66  C   UNL A   1      37.969  32.367  35.743  1.00  0.00     0.074 A 
ATOM     67  C   UNL A   1      40.165  30.048  30.107  1.00  0.00     0.029 A 
ATOM     68  N   UNL A   1      39.364  29.464  32.077  1.00  0.00    -0.354 N 
ATOM     69  N   UNL A   1      37.218  32.279  34.680  1.00  0.00    -0.248 NA
ATOM     70  C   UNL A   1      38.783  31.188  36.019  1.00  0.00     0.031 C 
ATOM     71  C   UNL A   1      38.942  30.737  30.352  1.00  0.00     0.029 A 
ATOM     72  C   UNL A   1      38.579  30.518  31.684  1.00  0.00     0.049 A 
ATOM     73  H   UNL A   1      39.142  28.802  32.772  1.00  0.00     0.167 HD
ATOM     74  C   UNL A   1      37.774  31.253  33.926  1.00  0.00     0.074 A 
ATOM     75  C   UNL A   1      38.673  30.555  34.845  1.00  0.00     0.031 C 
ATOM     76  C   UNL A   1      37.679  31.239  32.563  1.00  0.00     0.031 A 
BRANCH  63  77
ATOM     77  C   UNL A   1      42.083  28.063  32.789  1.00  0.00    -0.014 A 
ATOM     78  C   UNL A   1      41.400  27.817  33.995  1.00  0.00     0.010 A 
ATOM     79  C   UNL A   1      43.212  27.263  32.512  1.00  0.00     0.010 A 
ATOM     80  C   UNL A   1      41.874  26.869  34.909  1.00  0.00     0.020 A 
ATOM     81  C   UNL A   1      43.663  26.284  33.392  1.00  0.00     0.020 A 
ATOM     82  C   UNL A   1      43.013  26.121  34.605  1.00  0.00     0.054 A 
BRANCH  82  83
ATOM     83  S   UNL A   1      43.687  24.989  35.840  1.00  0.00     0.124 S 
ATOM     84  O   UNL A   1      44.718  25.810  36.466  1.00  0.00    -0.237 OA
ATOM     85  O   UNL A   1      42.517  24.699  36.663  1.00  0.00    -0.237 OA
ATOM     86  O   UNL A   1      44.176  23.866  35.043  1.00  0.00    -0.744 OA
ENDBRANCH  82  83
ENDBRANCH  63  77
BRANCH  64  87
ATOM     87  C   UNL A   1      38.276  33.961  37.800  1.00  0.00    -0.014 A 
ATOM     88  C   UNL A   1      37.486  33.161  38.646  1.00  0.00     0.010 A 
ATOM     89  C   UNL A   1      39.177  34.859  38.409  1.00  0.00     0.010 A 
ATOM     90  C   UNL A   1      37.646  33.205  40.043  1.00  0.00     0.020 A 
ATOM     91  C   UNL A   1      39.335  34.917  39.798  1.00  0.00     0.020 A 
ATOM     92  C   UNL A   1      38.589  34.069  40.608  1.00  0.00     0.054 A 
BRANCH  92  93
ATOM     93  S   UNL A   1      38.941  33.978  42.389  1.00  0.00     0.124 S 
ATOM     94  O   UNL A   1      37.635  34.255  42.979  1.00  0.00    -0.237 OA
ATOM     95  O   UNL A   1      39.429  32.611  42.547  1.00  0.00    -0.237 OA
ATOM     96  O   UNL A   1      39.948  35.018  42.594  1.00  0.00    -0.744 OA
ENDBRANCH  92  93
ENDBRANCH  64  87
BRANCH  76  97
ATOM     97  C   UNL A   1      36.737  32.217  31.894  1.00  0.00    -0.014 A 
ATOM     98  C   UNL A   1      37.100  33.530  31.533  1.00  0.00     0.010 A 
ATOM     99  C   UNL A   1      35.489  31.729  31.469  1.00  0.00     0.010 A 
ATOM    100  C   UNL A   1      36.225  34.338  30.790  1.00  0.00     0.020 A 
ATOM    101  C   UNL A   1      34.622  32.521  30.713  1.00  0.00     0.020 A 
ATOM    102  C   UNL A   1      34.988  33.827  30.386  1.00  0.00     0.054 A 
BRANCH 102 103
ATOM    103  S   UNL A   1      33.876  34.858  29.391  1.00  0.00     0.124 S 
ATOM    104  O   UNL A   1      34.767  35.381  28.359  1.00  0.00    -0.237 OA
ATOM    105  O   UNL A   1      32.871  33.902  28.929  1.00  0.00    -0.237 OA
ATOM    106  O   UNL A   1      33.380  35.854  30.340  1.00  0.00    -0.744 OA
ENDBRANCH 102 103
ENDBRANCH  76  97
ENDBRANCH  50  51
ENDBRANCH  43  45
ENDBRANCH  42  43
ENDBRANCH  41  42
ENDBRANCH  40  41
ENDBRANCH  39  40
ENDBRANCH  38  39
ENDBRANCH  37  38
ENDBRANCH   1  37
TORSDOF 28
ENDMDL
