MODEL 1
REMARK VINA RESULT:      -9.4      0.000      0.000
REMARK SMILES Cc1ccc(C(=O)NC2(CC(=O)OCCOCCOCCOCCOC(=O)c3ccc(-c4c5nc(c(-c6ccc(S(=O)(=O)[O-])cc6)c6ccc([nH]6)c(-c6ccc(S(=O)(=O)[O-])cc6)c6nc(c(-c7ccc(S(=O)(=O)[O-])cc7)c7ccc4[nH]7)C=C6)C=C5)cc3)CCC2)cc1
REMARK SMILES IDX 19 1 18 2 17 3 16 4 15 5 14 6 13 7 11 8 12 9 10 10 9 11
REMARK SMILES IDX 88 12 90 13 89 14 8 15 6 16 7 17 5 19 1 20 2 21 3 22 92 23
REMARK SMILES IDX 4 24 91 25 20 26 21 27 22 28 23 29 24 30 25 31 26 32 27 33
REMARK SMILES IDX 28 34 29 35 87 36 30 37 86 38 31 39 32 40 33 41 80 42 34 43
REMARK SMILES IDX 85 44 79 45 81 46 35 47 84 48 78 49 77 50 36 52 66 53 47 54
REMARK SMILES IDX 65 55 48 56 51 57 64 58 82 59 49 60 50 61 63 63 83 64 52 65
REMARK SMILES IDX 37 66 38 67 46 68 39 69 45 70 40 71 41 72 42 73 43 74 44 75
REMARK SMILES IDX 67 76 68 77 76 78 69 79 75 80 70 81 71 82 72 83 73 84 74 85
REMARK SMILES IDX 53 86 54 87 62 88 55 89 61 90 56 91 57 92 58 93 59 94 60 95
REMARK H PARENT 8 18 81 51 51 62
REMARK Flexibility Score: inf
ROOT
ATOM      1  O   UNL A   1      44.826  29.542  30.950  1.00  0.00    -0.377 OA
ENDROOT
BRANCH   1   2
ATOM      2  C   UNL A   1      43.611  29.863  31.546  1.00  0.00     0.188 C 
BRANCH   2   3
ATOM      3  C   UNL A   1      43.414  31.165  32.459  1.00  0.00     0.188 C 
BRANCH   3   4
ATOM      4  O   UNL A   1      43.380  31.452  34.146  1.00  0.00    -0.376 OA
BRANCH   4   5
ATOM      5  C   UNL A   1      42.755  30.526  35.579  1.00  0.00     0.202 C 
BRANCH   5   6
ATOM      6  C   UNL A   1      42.941  28.752  36.284  1.00  0.00     0.261 C 
BRANCH   6   7
ATOM      7  O   UNL A   1      44.236  27.265  36.906  1.00  0.00    -0.463 OA
BRANCH   7   8
ATOM      8  C   UNL A   1      45.914  26.988  37.205  1.00  0.00     0.308 C 
ATOM      9  O   UNL A   1      46.373  27.096  38.359  1.00  0.00    -0.252 OA
BRANCH   8  10
ATOM     10  C   UNL A   1      46.943  26.041  36.367  1.00  0.00     0.151 C 
BRANCH  10  11
ATOM     11  C   UNL A   1      46.675  25.739  34.862  1.00  0.00     0.051 C 
ATOM     12  C   UNL A   1      47.727  24.776  34.155  1.00  0.00     0.029 C 
ATOM     13  C   UNL A   1      47.209  26.763  33.758  1.00  0.00     0.029 C 
ATOM     14  C   UNL A   1      48.516  26.009  33.694  1.00  0.00     0.005 C 
BRANCH  11  15
ATOM     15  N   UNL A   1      45.304  25.304  34.576  1.00  0.00    -0.346 N 
ATOM     16  C   UNL A   1      44.701  24.083  34.726  1.00  0.00     0.251 C 
ATOM     17  O   UNL A   1      43.508  23.993  34.425  1.00  0.00    -0.269 OA
ATOM     18  H   UNL A   1      44.719  26.008  34.214  1.00  0.00     0.164 HD
BRANCH  16  19
ATOM     19  C   UNL A   1      45.395  22.884  35.329  1.00  0.00     0.039 A 
ATOM     20  C   UNL A   1      46.752  18.975  38.422  1.00  0.00     0.044 C 
ATOM     21  C   UNL A   1      46.312  20.032  37.468  1.00  0.00    -0.051 A 
ATOM     22  C   UNL A   1      46.046  21.642  38.025  1.00  0.00     0.004 A 
ATOM     23  C   UNL A   1      46.298  19.824  35.747  1.00  0.00     0.004 A 
ATOM     24  C   UNL A   1      45.475  22.989  36.962  1.00  0.00     0.014 A 
ATOM     25  C   UNL A   1      45.750  21.238  34.685  1.00  0.00     0.014 A 
ENDBRANCH  16  19
ENDBRANCH  11  15
ENDBRANCH  10  11
ENDBRANCH   8  10
ENDBRANCH   7   8
ENDBRANCH   6   7
ENDBRANCH   5   6
ENDBRANCH   4   5
ENDBRANCH   3   4
ENDBRANCH   2   3
ENDBRANCH   1   2
BRANCH   1  26
ATOM     26  C   UNL A   1      45.156  28.180  31.033  1.00  0.00     0.188 C 
BRANCH  26  27
ATOM     27  C   UNL A   1      44.161  27.168  30.502  1.00  0.00     0.188 C 
BRANCH  27  28
ATOM     28  O   UNL A   1      44.760  25.887  30.270  1.00  0.00    -0.376 OA
BRANCH  28  29
ATOM     29  C   UNL A   1      46.164  25.831  30.376  1.00  0.00     0.202 C 
BRANCH  29  30
ATOM     30  C   UNL A   1      46.731  25.290  29.067  1.00  0.00     0.261 C 
BRANCH  30  31
ATOM     31  O   UNL A   1      48.033  25.925  28.876  1.00  0.00    -0.460 OA
BRANCH  31  32
ATOM     32  C   UNL A   1      48.356  26.289  27.599  1.00  0.00     0.338 C 
ATOM     33  O   UNL A   1      49.104  25.649  26.873  1.00  0.00    -0.246 OA
BRANCH  32  34
ATOM     34  C   UNL A   1      47.860  27.690  27.273  1.00  0.00     0.060 A 
ATOM     35  C   UNL A   1      47.659  28.586  28.312  1.00  0.00     0.016 A 
ATOM     36  C   UNL A   1      47.330  28.071  26.032  1.00  0.00     0.016 A 
ATOM     37  C   UNL A   1      46.760  29.694  28.156  1.00  0.00     0.010 A 
ATOM     38  C   UNL A   1      46.375  29.147  25.904  1.00  0.00     0.010 A 
ATOM     39  C   UNL A   1      45.889  29.875  27.019  1.00  0.00    -0.014 A 
BRANCH  39  40
ATOM     40  C   UNL A   1      44.157  30.326  26.913  1.00  0.00     0.031 A 
ATOM     41  C   UNL A   1      44.252  32.072  27.454  1.00  0.00     0.074 A 
ATOM     42  C   UNL A   1      42.855  29.313  26.680  1.00  0.00     0.049 A 
ATOM     43  N   UNL A   1      44.143  32.614  28.695  1.00  0.00    -0.248 NA
ATOM     44  C   UNL A   1      44.558  33.177  26.549  1.00  0.00     0.031 C 
ATOM     45  C   UNL A   1      41.759  29.108  25.632  1.00  0.00     0.029 A 
ATOM     46  N   UNL A   1      42.331  27.851  27.336  1.00  0.00    -0.354 N 
ATOM     47  C   UNL A   1      43.710  33.993  28.637  1.00  0.00     0.074 A 
ATOM     48  C   UNL A   1      44.296  34.286  27.287  1.00  0.00     0.031 C 
ATOM     49  C   UNL A   1      40.920  28.019  25.869  1.00  0.00     0.029 A 
ATOM     50  C   UNL A   1      41.030  27.283  27.154  1.00  0.00     0.049 A 
ATOM     51  H   UNL A   1      42.971  27.347  27.888  1.00  0.00     0.167 HD
ATOM     52  C   UNL A   1      42.624  34.789  29.286  1.00  0.00     0.031 A 
ATOM     53  C   UNL A   1      40.027  27.008  28.253  1.00  0.00     0.031 A 
ATOM     54  C   UNL A   1      41.072  34.331  29.895  1.00  0.00     0.049 A 
ATOM     55  C   UNL A   1      39.035  27.984  29.536  1.00  0.00     0.074 A 
ATOM     56  C   UNL A   1      39.759  34.645  29.461  1.00  0.00     0.029 A 
ATOM     57  N   UNL A   1      40.592  33.468  31.024  1.00  0.00    -0.354 N 
ATOM     58  N   UNL A   1      38.713  29.318  29.600  1.00  0.00    -0.248 NA
ATOM     59  C   UNL A   1      38.638  27.491  30.887  1.00  0.00     0.031 C 
ATOM     60  C   UNL A   1      38.710  33.766  30.051  1.00  0.00     0.029 A 
ATOM     61  C   UNL A   1      39.321  32.692  30.719  1.00  0.00     0.049 A 
ATOM     62  H   UNL A   1      41.060  33.409  31.888  1.00  0.00     0.167 HD
ATOM     63  C   UNL A   1      38.550  29.917  30.929  1.00  0.00     0.074 A 
ATOM     64  C   UNL A   1      38.313  28.610  31.615  1.00  0.00     0.031 C 
ATOM     65  C   UNL A   1      38.766  31.305  31.476  1.00  0.00     0.031 A 
BRANCH  52  66
ATOM     66  C   UNL A   1      42.788  36.284  28.898  1.00  0.00    -0.014 A 
ATOM     67  C   UNL A   1      42.067  36.893  27.860  1.00  0.00     0.010 A 
ATOM     68  C   UNL A   1      43.734  37.108  29.557  1.00  0.00     0.010 A 
ATOM     69  C   UNL A   1      42.333  38.195  27.421  1.00  0.00     0.020 A 
ATOM     70  C   UNL A   1      44.043  38.403  29.100  1.00  0.00     0.020 A 
ATOM     71  C   UNL A   1      43.341  38.936  28.024  1.00  0.00     0.054 A 
BRANCH  71  72
ATOM     72  S   UNL A   1      43.716  40.580  27.365  1.00  0.00     0.124 S 
ATOM     73  O   UNL A   1      45.086  40.427  26.881  1.00  0.00    -0.237 OA
ATOM     74  O   UNL A   1      42.698  40.737  26.329  1.00  0.00    -0.237 OA
ATOM     75  O   UNL A   1      43.567  41.460  28.522  1.00  0.00    -0.744 OA
ENDBRANCH  71  72
ENDBRANCH  52  66
BRANCH  53  76
ATOM     76  C   UNL A   1      40.355  25.515  28.490  1.00  0.00    -0.014 A 
ATOM     77  C   UNL A   1      39.657  24.662  27.600  1.00  0.00     0.010 A 
ATOM     78  C   UNL A   1      41.679  25.131  28.836  1.00  0.00     0.010 A 
ATOM     79  C   UNL A   1      40.335  23.676  26.858  1.00  0.00     0.020 A 
ATOM     80  C   UNL A   1      42.353  24.116  28.109  1.00  0.00     0.020 A 
ATOM     81  C   UNL A   1      41.691  23.430  27.085  1.00  0.00     0.054 A 
BRANCH  81  82
ATOM     82  S   UNL A   1      42.618  22.390  25.891  1.00  0.00     0.124 S 
ATOM     83  O   UNL A   1      42.938  23.328  24.824  1.00  0.00    -0.237 OA
ATOM     84  O   UNL A   1      43.764  21.933  26.673  1.00  0.00    -0.237 OA
ATOM     85  O   UNL A   1      41.663  21.342  25.530  1.00  0.00    -0.744 OA
ENDBRANCH  81  82
ENDBRANCH  53  76
BRANCH  65  86
ATOM     86  C   UNL A   1      38.578  31.690  32.998  1.00  0.00    -0.014 A 
ATOM     87  C   UNL A   1      37.672  32.604  33.545  1.00  0.00     0.010 A 
ATOM     88  C   UNL A   1      39.312  30.946  33.974  1.00  0.00     0.010 A 
ATOM     89  C   UNL A   1      37.449  32.693  34.940  1.00  0.00     0.020 A 
ATOM     90  C   UNL A   1      39.051  30.961  35.346  1.00  0.00     0.020 A 
ATOM     91  C   UNL A   1      38.106  31.841  35.826  1.00  0.00     0.054 A 
BRANCH  91  92
ATOM     92  S   UNL A   1      37.685  31.850  37.585  1.00  0.00     0.124 S 
ATOM     93  O   UNL A   1      37.336  30.452  37.819  1.00  0.00    -0.237 OA
ATOM     94  O   UNL A   1      38.930  32.301  38.202  1.00  0.00    -0.237 OA
ATOM     95  O   UNL A   1      36.575  32.796  37.674  1.00  0.00    -0.744 OA
ENDBRANCH  91  92
ENDBRANCH  65  86
ENDBRANCH  39  40
ENDBRANCH  32  34
ENDBRANCH  31  32
ENDBRANCH  30  31
ENDBRANCH  29  30
ENDBRANCH  28  29
ENDBRANCH  27  28
ENDBRANCH  26  27
ENDBRANCH   1  26
TORSDOF 26
ENDMDL
MODEL 2
REMARK VINA RESULT:      -9.3      3.359      8.049
REMARK SMILES Cc1ccc(C(=O)NC2(CC(=O)OCCOCCOCCOCCOC(=O)c3ccc(-c4c5nc(c(-c6ccc(S(=O)(=O)[O-])cc6)c6ccc([nH]6)c(-c6ccc(S(=O)(=O)[O-])cc6)c6nc(c(-c7ccc(S(=O)(=O)[O-])cc7)c7ccc4[nH]7)C=C6)C=C5)cc3)CCC2)cc1
REMARK SMILES IDX 19 1 18 2 17 3 16 4 15 5 14 6 13 7 11 8 12 9 10 10 9 11
REMARK SMILES IDX 88 12 90 13 89 14 8 15 6 16 7 17 5 19 1 20 2 21 3 22 92 23
REMARK SMILES IDX 4 24 91 25 20 26 21 27 22 28 23 29 24 30 25 31 26 32 27 33
REMARK SMILES IDX 28 34 29 35 87 36 30 37 86 38 31 39 32 40 33 41 80 42 34 43
REMARK SMILES IDX 85 44 79 45 81 46 35 47 84 48 78 49 77 50 36 52 66 53 47 54
REMARK SMILES IDX 65 55 48 56 51 57 64 58 82 59 49 60 50 61 63 63 83 64 52 65
REMARK SMILES IDX 37 66 38 67 46 68 39 69 45 70 40 71 41 72 42 73 43 74 44 75
REMARK SMILES IDX 67 76 68 77 76 78 69 79 75 80 70 81 71 82 72 83 73 84 74 85
REMARK SMILES IDX 53 86 54 87 62 88 55 89 61 90 56 91 57 92 58 93 59 94 60 95
REMARK H PARENT 8 18 81 51 51 62
REMARK Flexibility Score: inf
ROOT
ATOM      1  O   UNL A   1      44.530  29.779  30.921  1.00  0.00    -0.377 OA
ENDROOT
BRANCH   1   2
ATOM      2  C   UNL A   1      43.526  29.850  31.881  1.00  0.00     0.188 C 
BRANCH   2   3
ATOM      3  C   UNL A   1      43.125  31.218  32.613  1.00  0.00     0.188 C 
BRANCH   3   4
ATOM      4  O   UNL A   1      43.417  32.875  32.299  1.00  0.00    -0.376 OA
BRANCH   4   5
ATOM      5  C   UNL A   1      43.094  34.415  33.209  1.00  0.00     0.202 C 
BRANCH   5   6
ATOM      6  C   UNL A   1      43.616  36.254  33.070  1.00  0.00     0.261 C 
BRANCH   6   7
ATOM      7  O   UNL A   1      43.043  38.234  33.246  1.00  0.00    -0.463 OA
BRANCH   7   8
ATOM      8  C   UNL A   1      43.392  39.792  32.590  1.00  0.00     0.308 C 
ATOM      9  O   UNL A   1      42.467  40.590  32.341  1.00  0.00    -0.252 OA
BRANCH   8  10
ATOM     10  C   UNL A   1      44.753  40.674  32.757  1.00  0.00     0.151 C 
BRANCH  10  11
ATOM     11  C   UNL A   1      44.663  42.218  32.955  1.00  0.00     0.051 C 
ATOM     12  C   UNL A   1      44.714  43.086  31.623  1.00  0.00     0.029 C 
ATOM     13  C   UNL A   1      45.994  43.038  33.276  1.00  0.00     0.029 C 
ATOM     14  C   UNL A   1      46.233  43.225  31.796  1.00  0.00     0.005 C 
BRANCH  11  15
ATOM     15  N   UNL A   1      43.548  42.645  33.807  1.00  0.00    -0.346 N 
ATOM     16  C   UNL A   1      43.383  42.584  35.166  1.00  0.00     0.251 C 
ATOM     17  O   UNL A   1      42.339  43.043  35.637  1.00  0.00    -0.269 OA
ATOM     18  H   UNL A   1      42.790  43.042  33.320  1.00  0.00     0.164 HD
BRANCH  16  19
ATOM     19  C   UNL A   1      44.450  42.077  36.109  1.00  0.00     0.039 A 
ATOM     20  C   UNL A   1      48.231  39.322  38.299  1.00  0.00     0.044 C 
ATOM     21  C   UNL A   1      47.214  40.185  37.635  1.00  0.00    -0.051 A 
ATOM     22  C   UNL A   1      45.760  39.492  37.022  1.00  0.00     0.004 A 
ATOM     23  C   UNL A   1      47.262  41.919  37.664  1.00  0.00     0.004 A 
ATOM     24  C   UNL A   1      44.479  40.440  36.166  1.00  0.00     0.014 A 
ATOM     25  C   UNL A   1      45.912  42.860  36.817  1.00  0.00     0.014 A 
ENDBRANCH  16  19
ENDBRANCH  11  15
ENDBRANCH  10  11
ENDBRANCH   8  10
ENDBRANCH   7   8
ENDBRANCH   6   7
ENDBRANCH   5   6
ENDBRANCH   4   5
ENDBRANCH   3   4
ENDBRANCH   2   3
ENDBRANCH   1   2
BRANCH   1  26
ATOM     26  C   UNL A   1      45.086  28.498  30.775  1.00  0.00     0.188 C 
BRANCH  26  27
ATOM     27  C   UNL A   1      44.154  27.345  30.463  1.00  0.00     0.188 C 
BRANCH  27  28
ATOM     28  O   UNL A   1      44.855  26.104  30.314  1.00  0.00    -0.376 OA
BRANCH  28  29
ATOM     29  C   UNL A   1      46.243  26.144  30.550  1.00  0.00     0.202 C 
BRANCH  29  30
ATOM     30  C   UNL A   1      46.959  25.502  29.366  1.00  0.00     0.261 C 
BRANCH  30  31
ATOM     31  O   UNL A   1      48.256  26.164  29.247  1.00  0.00    -0.460 OA
BRANCH  31  32
ATOM     32  C   UNL A   1      48.691  26.435  27.980  1.00  0.00     0.338 C 
ATOM     33  O   UNL A   1      49.576  25.810  27.411  1.00  0.00    -0.246 OA
BRANCH  32  34
ATOM     34  C   UNL A   1      48.108  27.738  27.453  1.00  0.00     0.060 A 
ATOM     35  C   UNL A   1      47.901  28.784  28.340  1.00  0.00     0.016 A 
ATOM     36  C   UNL A   1      47.507  27.883  26.195  1.00  0.00     0.016 A 
ATOM     37  C   UNL A   1      46.939  29.807  28.050  1.00  0.00     0.010 A 
ATOM     38  C   UNL A   1      46.492  28.878  25.940  1.00  0.00     0.010 A 
ATOM     39  C   UNL A   1      46.014  29.756  26.943  1.00  0.00    -0.014 A 
BRANCH  39  40
ATOM     40  C   UNL A   1      44.256  30.103  26.850  1.00  0.00     0.031 A 
ATOM     41  C   UNL A   1      44.246  31.839  27.431  1.00  0.00     0.074 A 
ATOM     42  C   UNL A   1      43.018  29.018  26.596  1.00  0.00     0.049 A 
ATOM     43  N   UNL A   1      44.108  32.344  28.685  1.00  0.00    -0.248 NA
ATOM     44  C   UNL A   1      44.481  32.981  26.552  1.00  0.00     0.031 C 
ATOM     45  C   UNL A   1      41.934  28.771  25.545  1.00  0.00     0.029 A 
ATOM     46  N   UNL A   1      42.586  27.512  27.218  1.00  0.00    -0.354 N 
ATOM     47  C   UNL A   1      43.591  33.695  28.659  1.00  0.00     0.074 A 
ATOM     48  C   UNL A   1      44.154  34.055  27.316  1.00  0.00     0.031 C 
ATOM     49  C   UNL A   1      41.163  27.627  25.757  1.00  0.00     0.029 A 
ATOM     50  C   UNL A   1      41.322  26.870  27.025  1.00  0.00     0.049 A 
ATOM     51  H   UNL A   1      43.258  27.035  27.757  1.00  0.00     0.167 HD
ATOM     52  C   UNL A   1      42.460  34.408  29.329  1.00  0.00     0.031 A 
ATOM     53  C   UNL A   1      40.341  26.509  28.119  1.00  0.00     0.031 A 
ATOM     54  C   UNL A   1      40.941  33.841  29.929  1.00  0.00     0.049 A 
ATOM     55  C   UNL A   1      39.295  27.392  29.425  1.00  0.00     0.074 A 
ATOM     56  C   UNL A   1      39.610  34.085  29.504  1.00  0.00     0.029 A 
ATOM     57  N   UNL A   1      40.518  32.925  31.039  1.00  0.00    -0.354 N 
ATOM     58  N   UNL A   1      38.892  28.702  29.521  1.00  0.00    -0.248 NA
ATOM     59  C   UNL A   1      38.933  26.845  30.765  1.00  0.00     0.031 C 
ATOM     60  C   UNL A   1      38.618  33.130  30.075  1.00  0.00     0.029 A 
ATOM     61  C   UNL A   1      39.296  32.080  30.717  1.00  0.00     0.049 A 
ATOM     62  H   UNL A   1      40.991  32.875  31.900  1.00  0.00     0.167 HD
ATOM     63  C   UNL A   1      38.696  29.259  30.864  1.00  0.00     0.074 A 
ATOM     64  C   UNL A   1      38.542  27.924  31.519  1.00  0.00     0.031 C 
ATOM     65  C   UNL A   1      38.829  30.645  31.443  1.00  0.00     0.031 A 
BRANCH  52  66
ATOM     66  C   UNL A   1      42.532  35.919  28.975  1.00  0.00    -0.014 A 
ATOM     67  C   UNL A   1      41.886  36.479  27.863  1.00  0.00     0.010 A 
ATOM     68  C   UNL A   1      43.312  36.812  29.750  1.00  0.00     0.010 A 
ATOM     69  C   UNL A   1      42.082  37.809  27.469  1.00  0.00     0.020 A 
ATOM     70  C   UNL A   1      43.554  38.138  29.344  1.00  0.00     0.020 A 
ATOM     71  C   UNL A   1      42.939  38.625  28.196  1.00  0.00     0.054 A 
BRANCH  71  72
ATOM     72  S   UNL A   1      43.237  40.310  27.599  1.00  0.00     0.124 S 
ATOM     73  O   UNL A   1      44.075  40.089  26.422  1.00  0.00    -0.237 OA
ATOM     74  O   UNL A   1      41.883  40.785  27.326  1.00  0.00    -0.237 OA
ATOM     75  O   UNL A   1      43.911  40.960  28.721  1.00  0.00    -0.744 OA
ENDBRANCH  71  72
ENDBRANCH  52  66
BRANCH  53  76
ATOM     76  C   UNL A   1      40.761  25.033  28.320  1.00  0.00    -0.014 A 
ATOM     77  C   UNL A   1      40.120  24.161  27.407  1.00  0.00     0.010 A 
ATOM     78  C   UNL A   1      42.105  24.724  28.663  1.00  0.00     0.010 A 
ATOM     79  C   UNL A   1      40.860  23.237  26.643  1.00  0.00     0.020 A 
ATOM     80  C   UNL A   1      42.843  23.771  27.914  1.00  0.00     0.020 A 
ATOM     81  C   UNL A   1      42.228  23.071  26.871  1.00  0.00     0.054 A 
BRANCH  81  82
ATOM     82  S   UNL A   1      43.222  22.121  25.656  1.00  0.00     0.124 S 
ATOM     83  O   UNL A   1      43.135  22.939  24.454  1.00  0.00    -0.237 OA
ATOM     84  O   UNL A   1      44.544  22.075  26.275  1.00  0.00    -0.237 OA
ATOM     85  O   UNL A   1      42.535  20.831  25.580  1.00  0.00    -0.744 OA
ENDBRANCH  81  82
ENDBRANCH  53  76
BRANCH  65  86
ATOM     86  C   UNL A   1      38.623  30.982  32.974  1.00  0.00    -0.014 A 
ATOM     87  C   UNL A   1      39.372  30.520  34.060  1.00  0.00     0.010 A 
ATOM     88  C   UNL A   1      37.648  31.968  33.318  1.00  0.00     0.010 A 
ATOM     89  C   UNL A   1      39.228  31.069  35.357  1.00  0.00     0.020 A 
ATOM     90  C   UNL A   1      37.544  32.580  34.571  1.00  0.00     0.020 A 
ATOM     91  C   UNL A   1      38.348  32.125  35.593  1.00  0.00     0.054 A 
BRANCH  91  92
ATOM     92  S   UNL A   1      38.299  32.929  37.212  1.00  0.00     0.124 S 
ATOM     93  O   UNL A   1      38.463  34.335  36.855  1.00  0.00    -0.237 OA
ATOM     94  O   UNL A   1      36.976  32.554  37.707  1.00  0.00    -0.237 OA
ATOM     95  O   UNL A   1      39.420  32.332  37.934  1.00  0.00    -0.744 OA
ENDBRANCH  91  92
ENDBRANCH  65  86
ENDBRANCH  39  40
ENDBRANCH  32  34
ENDBRANCH  31  32
ENDBRANCH  30  31
ENDBRANCH  29  30
ENDBRANCH  28  29
ENDBRANCH  27  28
ENDBRANCH  26  27
ENDBRANCH   1  26
TORSDOF 26
ENDMDL
MODEL 3
REMARK VINA RESULT:      -9.0      2.356      4.519
REMARK SMILES Cc1ccc(C(=O)NC2(CC(=O)OCCOCCOCCOCCOC(=O)c3ccc(-c4c5nc(c(-c6ccc(S(=O)(=O)[O-])cc6)c6ccc([nH]6)c(-c6ccc(S(=O)(=O)[O-])cc6)c6nc(c(-c7ccc(S(=O)(=O)[O-])cc7)c7ccc4[nH]7)C=C6)C=C5)cc3)CCC2)cc1
REMARK SMILES IDX 19 1 18 2 17 3 16 4 15 5 14 6 13 7 11 8 12 9 10 10 9 11
REMARK SMILES IDX 88 12 90 13 89 14 8 15 6 16 7 17 5 19 1 20 2 21 3 22 92 23
REMARK SMILES IDX 4 24 91 25 20 26 21 27 22 28 23 29 24 30 25 31 26 32 27 33
REMARK SMILES IDX 28 34 29 35 87 36 30 37 86 38 31 39 32 40 33 41 80 42 34 43
REMARK SMILES IDX 85 44 79 45 81 46 35 47 84 48 78 49 77 50 36 52 66 53 47 54
REMARK SMILES IDX 65 55 48 56 51 57 64 58 82 59 49 60 50 61 63 63 83 64 52 65
REMARK SMILES IDX 37 66 38 67 46 68 39 69 45 70 40 71 41 72 42 73 43 74 44 75
REMARK SMILES IDX 67 76 68 77 76 78 69 79 75 80 70 81 71 82 72 83 73 84 74 85
REMARK SMILES IDX 53 86 54 87 62 88 55 89 61 90 56 91 57 92 58 93 59 94 60 95
REMARK H PARENT 8 18 81 51 51 62
REMARK Flexibility Score: inf
ROOT
ATOM      1  O   UNL A   1      51.373  22.675  34.295  1.00  0.00    -0.377 OA
ENDROOT
BRANCH   1   2
ATOM      2  C   UNL A   1      50.904  21.436  33.872  1.00  0.00     0.188 C 
BRANCH   2   3
ATOM      3  C   UNL A   1      51.626  20.059  34.263  1.00  0.00     0.188 C 
BRANCH   3   4
ATOM      4  O   UNL A   1      51.292  18.804  35.378  1.00  0.00    -0.376 OA
BRANCH   4   5
ATOM      5  C   UNL A   1      51.413  18.646  37.184  1.00  0.00     0.202 C 
BRANCH   5   6
ATOM      6  C   UNL A   1      50.709  19.559  38.716  1.00  0.00     0.261 C 
BRANCH   6   7
ATOM      7  O   UNL A   1      49.712  21.223  39.432  1.00  0.00    -0.463 OA
BRANCH   7   8
ATOM      8  C   UNL A   1      48.717  22.525  38.888  1.00  0.00     0.308 C 
ATOM      9  O   UNL A   1      49.224  23.631  38.616  1.00  0.00    -0.252 OA
BRANCH   8  10
ATOM     10  C   UNL A   1      47.292  22.443  38.101  1.00  0.00     0.151 C 
BRANCH  10  11
ATOM     11  C   UNL A   1      47.204  21.727  36.719  1.00  0.00     0.051 C 
ATOM     12  C   UNL A   1      45.950  20.767  36.520  1.00  0.00     0.029 C 
ATOM     13  C   UNL A   1      48.002  20.360  36.502  1.00  0.00     0.029 C 
ATOM     14  C   UNL A   1      46.804  19.585  36.999  1.00  0.00     0.005 C 
BRANCH  11  15
ATOM     15  N   UNL A   1      47.354  22.626  35.570  1.00  0.00    -0.346 N 
ATOM     16  C   UNL A   1      46.459  23.477  34.975  1.00  0.00     0.251 C 
ATOM     17  O   UNL A   1      46.856  24.148  34.021  1.00  0.00    -0.269 OA
ATOM     18  H   UNL A   1      48.247  22.617  35.156  1.00  0.00     0.164 HD
BRANCH  16  19
ATOM     19  C   UNL A   1      45.057  23.699  35.493  1.00  0.00     0.039 A 
ATOM     20  C   UNL A   1      40.732  25.840  37.338  1.00  0.00     0.044 C 
ATOM     21  C   UNL A   1      41.935  25.224  36.710  1.00  0.00    -0.051 A 
ATOM     22  C   UNL A   1      43.496  25.488  37.391  1.00  0.00     0.004 A 
ATOM     23  C   UNL A   1      41.855  24.016  35.468  1.00  0.00     0.004 A 
ATOM     24  C   UNL A   1      45.023  24.819  36.688  1.00  0.00     0.014 A 
ATOM     25  C   UNL A   1      43.435  23.320  34.801  1.00  0.00     0.014 A 
ENDBRANCH  16  19
ENDBRANCH  11  15
ENDBRANCH  10  11
ENDBRANCH   8  10
ENDBRANCH   7   8
ENDBRANCH   6   7
ENDBRANCH   5   6
ENDBRANCH   4   5
ENDBRANCH   3   4
ENDBRANCH   2   3
ENDBRANCH   1   2
BRANCH   1  26
ATOM     26  C   UNL A   1      50.505  23.739  34.004  1.00  0.00     0.188 C 
BRANCH  26  27
ATOM     27  C   UNL A   1      50.430  24.230  32.572  1.00  0.00     0.188 C 
BRANCH  27  28
ATOM     28  O   UNL A   1      49.320  25.110  32.356  1.00  0.00    -0.376 OA
BRANCH  28  29
ATOM     29  C   UNL A   1      49.161  25.597  31.044  1.00  0.00     0.202 C 
BRANCH  29  30
ATOM     30  C   UNL A   1      49.784  26.987  30.960  1.00  0.00     0.261 C 
BRANCH  30  31
ATOM     31  O   UNL A   1      48.681  27.938  30.843  1.00  0.00    -0.460 OA
BRANCH  31  32
ATOM     32  C   UNL A   1      48.949  29.111  30.195  1.00  0.00     0.338 C 
ATOM     33  O   UNL A   1      49.561  30.045  30.695  1.00  0.00    -0.246 OA
BRANCH  32  34
ATOM     34  C   UNL A   1      48.205  29.203  28.871  1.00  0.00     0.060 A 
ATOM     35  C   UNL A   1      48.147  30.428  28.222  1.00  0.00     0.016 A 
ATOM     36  C   UNL A   1      47.341  28.215  28.380  1.00  0.00     0.016 A 
ATOM     37  C   UNL A   1      47.097  30.706  27.284  1.00  0.00     0.010 A 
ATOM     38  C   UNL A   1      46.249  28.526  27.487  1.00  0.00     0.010 A 
ATOM     39  C   UNL A   1      45.958  29.847  27.066  1.00  0.00    -0.014 A 
BRANCH  39  40
ATOM     40  C   UNL A   1      44.208  30.211  26.922  1.00  0.00     0.031 A 
ATOM     41  C   UNL A   1      44.201  31.950  27.493  1.00  0.00     0.074 A 
ATOM     42  C   UNL A   1      42.966  29.138  26.640  1.00  0.00     0.049 A 
ATOM     43  N   UNL A   1      44.033  32.465  28.739  1.00  0.00    -0.248 NA
ATOM     44  C   UNL A   1      44.472  33.085  26.614  1.00  0.00     0.031 C 
ATOM     45  C   UNL A   1      41.909  28.896  25.561  1.00  0.00     0.029 A 
ATOM     46  N   UNL A   1      42.500  27.641  27.259  1.00  0.00    -0.354 N 
ATOM     47  C   UNL A   1      43.531  33.821  28.692  1.00  0.00     0.074 A 
ATOM     48  C   UNL A   1      44.135  34.167  27.363  1.00  0.00     0.031 C 
ATOM     49  C   UNL A   1      41.120  27.762  25.758  1.00  0.00     0.029 A 
ATOM     50  C   UNL A   1      41.235  27.011  27.034  1.00  0.00     0.049 A 
ATOM     51  H   UNL A   1      43.152  27.160  27.819  1.00  0.00     0.167 HD
ATOM     52  C   UNL A   1      42.390  34.550  29.326  1.00  0.00     0.031 A 
ATOM     53  C   UNL A   1      40.220  26.667  28.102  1.00  0.00     0.031 A 
ATOM     54  C   UNL A   1      40.849  34.003  29.886  1.00  0.00     0.049 A 
ATOM     55  C   UNL A   1      39.148  27.569  29.374  1.00  0.00     0.074 A 
ATOM     56  C   UNL A   1      39.534  34.259  29.424  1.00  0.00     0.029 A 
ATOM     57  N   UNL A   1      40.386  33.098  30.989  1.00  0.00    -0.354 N 
ATOM     58  N   UNL A   1      38.757  28.884  29.451  1.00  0.00    -0.248 NA
ATOM     59  C   UNL A   1      38.743  27.034  30.706  1.00  0.00     0.031 C 
ATOM     60  C   UNL A   1      38.516  33.318  29.972  1.00  0.00     0.029 A 
ATOM     61  C   UNL A   1      39.164  32.265  30.639  1.00  0.00     0.049 A 
ATOM     62  H   UNL A   1      40.834  33.049  31.864  1.00  0.00     0.167 HD
ATOM     63  C   UNL A   1      38.530  29.451  30.785  1.00  0.00     0.074 A 
ATOM     64  C   UNL A   1      38.343  28.122  31.443  1.00  0.00     0.031 C 
ATOM     65  C   UNL A   1      38.662  30.839  31.359  1.00  0.00     0.031 A 
BRANCH  52  66
ATOM     66  C   UNL A   1      42.488  36.058  28.965  1.00  0.00    -0.014 A 
ATOM     67  C   UNL A   1      41.833  36.630  27.865  1.00  0.00     0.010 A 
ATOM     68  C   UNL A   1      43.304  36.936  29.721  1.00  0.00     0.010 A 
ATOM     69  C   UNL A   1      42.050  37.953  27.463  1.00  0.00     0.020 A 
ATOM     70  C   UNL A   1      43.567  38.255  29.306  1.00  0.00     0.020 A 
ATOM     71  C   UNL A   1      42.940  38.753  28.169  1.00  0.00     0.054 A 
BRANCH  71  72
ATOM     72  S   UNL A   1      43.262  40.428  27.561  1.00  0.00     0.124 S 
ATOM     73  O   UNL A   1      43.579  41.158  28.786  1.00  0.00    -0.237 OA
ATOM     74  O   UNL A   1      44.382  40.216  26.649  1.00  0.00    -0.237 OA
ATOM     75  O   UNL A   1      42.004  40.813  26.924  1.00  0.00    -0.744 OA
ENDBRANCH  71  72
ENDBRANCH  52  66
BRANCH  53  76
ATOM     76  C   UNL A   1      40.618  25.188  28.324  1.00  0.00    -0.014 A 
ATOM     77  C   UNL A   1      40.112  24.336  27.311  1.00  0.00     0.010 A 
ATOM     78  C   UNL A   1      41.906  24.874  28.837  1.00  0.00     0.010 A 
ATOM     79  C   UNL A   1      40.953  23.434  26.633  1.00  0.00     0.020 A 
ATOM     80  C   UNL A   1      42.744  23.942  28.172  1.00  0.00     0.020 A 
ATOM     81  C   UNL A   1      42.280  23.266  27.039  1.00  0.00     0.054 A 
BRANCH  81  82
ATOM     82  S   UNL A   1      43.434  22.348  25.947  1.00  0.00     0.124 S 
ATOM     83  O   UNL A   1      43.164  20.958  26.285  1.00  0.00    -0.237 OA
ATOM     84  O   UNL A   1      43.009  22.750  24.608  1.00  0.00    -0.237 OA
ATOM     85  O   UNL A   1      44.753  22.840  26.346  1.00  0.00    -0.744 OA
ENDBRANCH  81  82
ENDBRANCH  53  76
BRANCH  65  86
ATOM     86  C   UNL A   1      38.416  31.187  32.882  1.00  0.00    -0.014 A 
ATOM     87  C   UNL A   1      38.702  30.394  33.998  1.00  0.00     0.010 A 
ATOM     88  C   UNL A   1      37.971  32.506  33.206  1.00  0.00     0.010 A 
ATOM     89  C   UNL A   1      38.643  30.907  35.316  1.00  0.00     0.020 A 
ATOM     90  C   UNL A   1      37.983  33.056  34.490  1.00  0.00     0.020 A 
ATOM     91  C   UNL A   1      38.329  32.245  35.549  1.00  0.00     0.054 A 
BRANCH  91  92
ATOM     92  S   UNL A   1      38.425  32.928  37.221  1.00  0.00     0.124 S 
ATOM     93  O   UNL A   1      38.534  34.360  36.956  1.00  0.00    -0.237 OA
ATOM     94  O   UNL A   1      37.162  32.490  37.811  1.00  0.00    -0.237 OA
ATOM     95  O   UNL A   1      39.618  32.304  37.786  1.00  0.00    -0.744 OA
ENDBRANCH  91  92
ENDBRANCH  65  86
ENDBRANCH  39  40
ENDBRANCH  32  34
ENDBRANCH  31  32
ENDBRANCH  30  31
ENDBRANCH  29  30
ENDBRANCH  28  29
ENDBRANCH  27  28
ENDBRANCH  26  27
ENDBRANCH   1  26
TORSDOF 26
ENDMDL
