MODEL 1
REMARK VINA RESULT:      -7.0      0.000      0.000
REMARK SMILES CCC[NH2+][C@]1(C(=O)OCCOCCOCCOCCOC(=O)c2ccc(-c3c4nc(c(-c5ccc(S(=O)(=O)[O-])cc5)c5ccc([nH]5)c(-c5ccc(S(=O)(=O)[O-])cc5)c5nc(c(-c6ccc(S(=O)(=O)[O-])cc6)c6ccc3[nH]6)C=C5)C=C4)cc2)CC[C@@H](OC(C)(C)C)C1
REMARK SMILES IDX 14 1 13 2 12 3 11 4 10 5 9 6 8 7 6 8 7 9 5 10 83 11 91 12
REMARK SMILES IDX 84 13 85 14 4 15 3 18 2 19 1 20 86 21 87 22 88 23 89 24
REMARK SMILES IDX 90 25 15 26 16 27 17 28 18 29 19 30 20 31 21 32 22 33 23 34
REMARK SMILES IDX 24 35 82 36 25 37 81 38 26 39 27 40 28 41 75 42 29 43 80 44
REMARK SMILES IDX 74 45 76 46 30 47 79 48 73 49 72 50 31 52 61 53 42 54 60 55
REMARK SMILES IDX 43 56 46 57 59 58 77 59 44 60 45 61 58 63 78 64 47 65 32 66
REMARK SMILES IDX 33 67 41 68 34 69 40 70 35 71 36 72 37 73 38 74 39 75 62 76
REMARK SMILES IDX 63 77 71 78 64 79 70 80 65 81 66 82 67 83 68 84 69 85 48 86
REMARK SMILES IDX 49 87 57 88 50 89 56 90 51 91 52 92 53 93 54 94 55 95
REMARK H PARENT 4 16 4 17 76 51 46 62
REMARK Flexibility Score: inf
ROOT
ATOM      1  O   UNL A   1      43.687  23.625  32.801  1.00  0.00    -0.377 OA
ENDROOT
BRANCH   1   2
ATOM      2  C   UNL A   1      44.208  24.293  33.933  1.00  0.00     0.188 C 
BRANCH   2   3
ATOM      3  C   UNL A   1      45.215  23.474  34.766  1.00  0.00     0.188 C 
BRANCH   3   4
ATOM      4  O   UNL A   1      45.105  22.064  34.920  1.00  0.00    -0.376 OA
BRANCH   4   5
ATOM      5  C   UNL A   1      45.612  21.410  36.069  1.00  0.00     0.202 C 
BRANCH   5   6
ATOM      6  C   UNL A   1      45.600  19.871  36.143  1.00  0.00     0.261 C 
BRANCH   6   7
ATOM      7  O   UNL A   1      46.693  19.219  36.810  1.00  0.00    -0.459 OA
BRANCH   7   8
ATOM      8  C   UNL A   1      46.865  19.549  38.109  1.00  0.00     0.368 C 
ATOM      9  O   UNL A   1      45.940  19.717  38.907  1.00  0.00    -0.245 OA
BRANCH   8  10
ATOM     10  C   UNL A   1      48.360  19.752  38.554  1.00  0.00     0.196 C 
ATOM     11  C   UNL A   1      48.536  21.182  39.116  1.00  0.00     0.084 C 
ATOM     12  C   UNL A   1      48.839  18.862  39.725  1.00  0.00     0.113 C 
ATOM     13  C   UNL A   1      49.704  21.153  40.097  1.00  0.00     0.039 C 
ATOM     14  C   UNL A   1      49.850  19.696  40.530  1.00  0.00     0.126 C 
BRANCH  10  15
ATOM     15  N   UNL A   1      49.078  19.525  37.279  1.00  0.00    -0.332 N 
ATOM     16  H   UNL A   1      49.714  18.746  37.441  1.00  0.00     0.347 HD
ATOM     17  H   UNL A   1      48.313  19.403  36.616  1.00  0.00     0.347 HD
BRANCH  15  18
ATOM     18  C   UNL A   1      49.863  20.569  36.659  1.00  0.00     0.261 C 
BRANCH  18  19
ATOM     19  C   UNL A   1      49.207  20.969  35.328  1.00  0.00     0.058 C 
ATOM     20  C   UNL A   1      49.637  20.072  34.167  1.00  0.00     0.010 C 
ENDBRANCH  18  19
ENDBRANCH  15  18
ENDBRANCH  10  15
BRANCH  14  21
ATOM     21  O   UNL A   1      50.015  19.442  41.921  1.00  0.00    -0.372 OA
BRANCH  21  22
ATOM     22  C   UNL A   1      51.139  19.756  42.752  1.00  0.00     0.060 C 
ATOM     23  C   UNL A   1      52.504  19.538  42.093  1.00  0.00     0.042 C 
ATOM     24  C   UNL A   1      51.062  21.145  43.387  1.00  0.00     0.042 C 
ATOM     25  C   UNL A   1      51.044  18.744  43.916  1.00  0.00     0.042 C 
ENDBRANCH  21  22
ENDBRANCH  14  21
ENDBRANCH   8  10
ENDBRANCH   7   8
ENDBRANCH   6   7
ENDBRANCH   5   6
ENDBRANCH   4   5
ENDBRANCH   3   4
ENDBRANCH   2   3
ENDBRANCH   1   2
BRANCH   1  26
ATOM     26  C   UNL A   1      44.417  23.774  31.595  1.00  0.00     0.188 C 
BRANCH  26  27
ATOM     27  C   UNL A   1      43.600  23.685  30.297  1.00  0.00     0.188 C 
BRANCH  27  28
ATOM     28  O   UNL A   1      43.871  24.765  29.408  1.00  0.00    -0.376 OA
BRANCH  28  29
ATOM     29  C   UNL A   1      43.374  24.694  28.082  1.00  0.00     0.202 C 
BRANCH  29  30
ATOM     30  C   UNL A   1      41.888  24.348  27.908  1.00  0.00     0.261 C 
BRANCH  30  31
ATOM     31  O   UNL A   1      41.157  25.090  26.920  1.00  0.00    -0.460 OA
BRANCH  31  32
ATOM     32  C   UNL A   1      39.871  25.415  27.176  1.00  0.00     0.338 C 
ATOM     33  O   UNL A   1      38.878  24.867  26.730  1.00  0.00    -0.246 OA
BRANCH  32  34
ATOM     34  C   UNL A   1      39.880  26.417  28.268  1.00  0.00     0.060 A 
ATOM     35  C   UNL A   1      40.680  27.560  28.141  1.00  0.00     0.016 A 
ATOM     36  C   UNL A   1      39.051  26.261  29.382  1.00  0.00     0.016 A 
ATOM     37  C   UNL A   1      40.645  28.557  29.121  1.00  0.00     0.010 A 
ATOM     38  C   UNL A   1      39.044  27.241  30.379  1.00  0.00     0.010 A 
ATOM     39  C   UNL A   1      39.847  28.390  30.260  1.00  0.00    -0.014 A 
BRANCH  39  40
ATOM     40  C   UNL A   1      39.944  29.335  31.399  1.00  0.00     0.031 A 
ATOM     41  C   UNL A   1      41.054  29.141  32.397  1.00  0.00     0.074 A 
ATOM     42  C   UNL A   1      39.049  30.327  31.566  1.00  0.00     0.049 A 
ATOM     43  N   UNL A   1      41.268  29.762  33.526  1.00  0.00    -0.248 NA
ATOM     44  C   UNL A   1      42.052  28.106  32.078  1.00  0.00     0.031 C 
ATOM     45  C   UNL A   1      37.964  30.656  30.641  1.00  0.00     0.029 A 
ATOM     46  N   UNL A   1      38.901  31.232  32.590  1.00  0.00    -0.354 N 
ATOM     47  C   UNL A   1      42.411  29.180  34.064  1.00  0.00     0.074 A 
ATOM     48  C   UNL A   1      42.843  28.155  33.141  1.00  0.00     0.031 C 
ATOM     49  C   UNL A   1      37.251  31.676  31.152  1.00  0.00     0.029 A 
ATOM     50  C   UNL A   1      37.797  32.042  32.458  1.00  0.00     0.049 A 
ATOM     51  H   UNL A   1      39.528  31.293  33.348  1.00  0.00     0.167 HD
ATOM     52  C   UNL A   1      43.036  29.470  35.229  1.00  0.00     0.031 A 
ATOM     53  C   UNL A   1      37.267  32.943  33.310  1.00  0.00     0.031 A 
ATOM     54  C   UNL A   1      42.599  30.486  36.149  1.00  0.00     0.049 A 
ATOM     55  C   UNL A   1      37.929  33.171  34.650  1.00  0.00     0.074 A 
ATOM     56  C   UNL A   1      43.192  30.879  37.336  1.00  0.00     0.029 A 
ATOM     57  N   UNL A   1      41.455  31.253  35.999  1.00  0.00    -0.354 N 
ATOM     58  N   UNL A   1      39.040  32.653  35.121  1.00  0.00    -0.248 NA
ATOM     59  C   UNL A   1      37.261  34.098  35.575  1.00  0.00     0.031 C 
ATOM     60  C   UNL A   1      42.365  31.829  37.941  1.00  0.00     0.029 A 
ATOM     61  C   UNL A   1      41.295  32.079  37.098  1.00  0.00     0.049 A 
ATOM     62  H   UNL A   1      40.845  31.215  35.227  1.00  0.00     0.167 HD
ATOM     63  C   UNL A   1      39.212  33.212  36.385  1.00  0.00     0.074 A 
ATOM     64  C   UNL A   1      38.107  34.122  36.596  1.00  0.00     0.031 C 
ATOM     65  C   UNL A   1      40.194  32.987  37.292  1.00  0.00     0.031 A 
BRANCH  52  66
ATOM     66  C   UNL A   1      44.240  28.651  35.610  1.00  0.00    -0.014 A 
ATOM     67  C   UNL A   1      45.542  29.071  35.292  1.00  0.00     0.010 A 
ATOM     68  C   UNL A   1      44.062  27.487  36.382  1.00  0.00     0.010 A 
ATOM     69  C   UNL A   1      46.647  28.335  35.731  1.00  0.00     0.020 A 
ATOM     70  C   UNL A   1      45.163  26.764  36.845  1.00  0.00     0.020 A 
ATOM     71  C   UNL A   1      46.450  27.189  36.510  1.00  0.00     0.054 A 
BRANCH  71  72
ATOM     72  S   UNL A   1      47.904  26.295  37.123  1.00  0.00     0.124 S 
ATOM     73  O   UNL A   1      48.950  26.764  36.218  1.00  0.00    -0.237 OA
ATOM     74  O   UNL A   1      48.008  26.766  38.501  1.00  0.00    -0.237 OA
ATOM     75  O   UNL A   1      47.537  24.889  36.974  1.00  0.00    -0.744 OA
ENDBRANCH  71  72
ENDBRANCH  52  66
BRANCH  53  76
ATOM     76  C   UNL A   1      36.009  33.666  32.969  1.00  0.00    -0.014 A 
ATOM     77  C   UNL A   1      36.039  35.024  32.599  1.00  0.00     0.010 A 
ATOM     78  C   UNL A   1      34.762  33.019  33.070  1.00  0.00     0.010 A 
ATOM     79  C   UNL A   1      34.850  35.726  32.371  1.00  0.00     0.020 A 
ATOM     80  C   UNL A   1      33.574  33.708  32.811  1.00  0.00     0.020 A 
ATOM     81  C   UNL A   1      33.624  35.063  32.482  1.00  0.00     0.054 A 
BRANCH  81  82
ATOM     82  S   UNL A   1      32.097  35.992  32.173  1.00  0.00     0.124 S 
ATOM     83  O   UNL A   1      31.085  35.110  32.748  1.00  0.00    -0.237 OA
ATOM     84  O   UNL A   1      32.334  37.238  32.896  1.00  0.00    -0.237 OA
ATOM     85  O   UNL A   1      32.062  36.119  30.718  1.00  0.00    -0.744 OA
ENDBRANCH  81  82
ENDBRANCH  53  76
BRANCH  65  86
ATOM     86  C   UNL A   1      40.141  33.749  38.591  1.00  0.00    -0.014 A 
ATOM     87  C   UNL A   1      39.527  33.199  39.731  1.00  0.00     0.010 A 
ATOM     88  C   UNL A   1      40.790  34.993  38.697  1.00  0.00     0.010 A 
ATOM     89  C   UNL A   1      39.549  33.888  40.946  1.00  0.00     0.020 A 
ATOM     90  C   UNL A   1      40.841  35.669  39.919  1.00  0.00     0.020 A 
ATOM     91  C   UNL A   1      40.212  35.116  41.034  1.00  0.00     0.054 A 
BRANCH  91  92
ATOM     92  S   UNL A   1      40.287  35.950  42.643  1.00  0.00     0.124 S 
ATOM     93  O   UNL A   1      39.393  35.129  43.455  1.00  0.00    -0.237 OA
ATOM     94  O   UNL A   1      41.705  35.861  42.984  1.00  0.00    -0.237 OA
ATOM     95  O   UNL A   1      39.804  37.300  42.357  1.00  0.00    -0.744 OA
ENDBRANCH  91  92
ENDBRANCH  65  86
ENDBRANCH  39  40
ENDBRANCH  32  34
ENDBRANCH  31  32
ENDBRANCH  30  31
ENDBRANCH  29  30
ENDBRANCH  28  29
ENDBRANCH  27  28
ENDBRANCH  26  27
ENDBRANCH   1  26
TORSDOF 28
ENDMDL
MODEL 2
REMARK VINA RESULT:      -6.8      5.171     10.576
REMARK SMILES CCC[NH2+][C@]1(C(=O)OCCOCCOCCOCCOC(=O)c2ccc(-c3c4nc(c(-c5ccc(S(=O)(=O)[O-])cc5)c5ccc([nH]5)c(-c5ccc(S(=O)(=O)[O-])cc5)c5nc(c(-c6ccc(S(=O)(=O)[O-])cc6)c6ccc3[nH]6)C=C5)C=C4)cc2)CC[C@@H](OC(C)(C)C)C1
REMARK SMILES IDX 14 1 13 2 12 3 11 4 10 5 9 6 8 7 6 8 7 9 5 10 83 11 91 12
REMARK SMILES IDX 84 13 85 14 4 15 3 18 2 19 1 20 86 21 87 22 88 23 89 24
REMARK SMILES IDX 90 25 15 26 16 27 17 28 18 29 19 30 20 31 21 32 22 33 23 34
REMARK SMILES IDX 24 35 82 36 25 37 81 38 26 39 27 40 28 41 75 42 29 43 80 44
REMARK SMILES IDX 74 45 76 46 30 47 79 48 73 49 72 50 31 52 61 53 42 54 60 55
REMARK SMILES IDX 43 56 46 57 59 58 77 59 44 60 45 61 58 63 78 64 47 65 32 66
REMARK SMILES IDX 33 67 41 68 34 69 40 70 35 71 36 72 37 73 38 74 39 75 62 76
REMARK SMILES IDX 63 77 71 78 64 79 70 80 65 81 66 82 67 83 68 84 69 85 48 86
REMARK SMILES IDX 49 87 57 88 50 89 56 90 51 91 52 92 53 93 54 94 55 95
REMARK H PARENT 4 16 4 17 76 51 46 62
REMARK Flexibility Score: inf
ROOT
ATOM      1  O   UNL A   1      40.943  24.606  27.967  1.00  0.00    -0.377 OA
ENDROOT
BRANCH   1   2
ATOM      2  C   UNL A   1      39.806  23.962  27.430  1.00  0.00     0.188 C 
BRANCH   2   3
ATOM      3  C   UNL A   1      39.980  22.454  27.156  1.00  0.00     0.188 C 
BRANCH   3   4
ATOM      4  O   UNL A   1      39.009  21.693  26.447  1.00  0.00    -0.376 OA
BRANCH   4   5
ATOM      5  C   UNL A   1      38.444  22.169  25.238  1.00  0.00     0.202 C 
BRANCH   5   6
ATOM      6  C   UNL A   1      36.964  22.593  25.199  1.00  0.00     0.261 C 
BRANCH   6   7
ATOM      7  O   UNL A   1      36.017  21.804  25.938  1.00  0.00    -0.459 OA
BRANCH   7   8
ATOM      8  C   UNL A   1      35.538  20.714  25.296  1.00  0.00     0.368 C 
ATOM      9  O   UNL A   1      36.232  19.753  24.957  1.00  0.00    -0.245 OA
BRANCH   8  10
ATOM     10  C   UNL A   1      34.002  20.756  24.963  1.00  0.00     0.196 C 
ATOM     11  C   UNL A   1      33.211  21.110  26.244  1.00  0.00     0.084 C 
ATOM     12  C   UNL A   1      33.560  21.857  23.971  1.00  0.00     0.113 C 
ATOM     13  C   UNL A   1      31.907  21.773  25.813  1.00  0.00     0.039 C 
ATOM     14  C   UNL A   1      32.152  22.302  24.402  1.00  0.00     0.126 C 
BRANCH  10  15
ATOM     15  N   UNL A   1      33.768  19.374  24.487  1.00  0.00    -0.332 N 
ATOM     16  H   UNL A   1      34.408  19.224  23.708  1.00  0.00     0.347 HD
ATOM     17  H   UNL A   1      33.896  18.825  25.337  1.00  0.00     0.347 HD
BRANCH  15  18
ATOM     18  C   UNL A   1      32.466  18.942  24.032  1.00  0.00     0.261 C 
BRANCH  18  19
ATOM     19  C   UNL A   1      32.641  17.912  22.905  1.00  0.00     0.058 C 
ATOM     20  C   UNL A   1      33.673  16.836  23.246  1.00  0.00     0.010 C 
ENDBRANCH  18  19
ENDBRANCH  15  18
ENDBRANCH  10  15
BRANCH  14  21
ATOM     21  O   UNL A   1      31.720  23.628  24.117  1.00  0.00    -0.372 OA
BRANCH  21  22
ATOM     22  C   UNL A   1      32.291  24.862  24.568  1.00  0.00     0.060 C 
ATOM     23  C   UNL A   1      33.534  24.709  25.449  1.00  0.00     0.042 C 
ATOM     24  C   UNL A   1      32.547  25.865  23.442  1.00  0.00     0.042 C 
ATOM     25  C   UNL A   1      31.192  25.486  25.458  1.00  0.00     0.042 C 
ENDBRANCH  21  22
ENDBRANCH  14  21
ENDBRANCH   8  10
ENDBRANCH   7   8
ENDBRANCH   6   7
ENDBRANCH   5   6
ENDBRANCH   4   5
ENDBRANCH   3   4
ENDBRANCH   2   3
ENDBRANCH   1   2
BRANCH   1  26
ATOM     26  C   UNL A   1      41.337  25.811  27.333  1.00  0.00     0.188 C 
BRANCH  26  27
ATOM     27  C   UNL A   1      40.993  25.933  25.841  1.00  0.00     0.188 C 
BRANCH  27  28
ATOM     28  O   UNL A   1      42.144  25.835  25.007  1.00  0.00    -0.376 OA
BRANCH  28  29
ATOM     29  C   UNL A   1      43.291  25.170  25.508  1.00  0.00     0.202 C 
BRANCH  29  30
ATOM     30  C   UNL A   1      44.485  26.045  25.919  1.00  0.00     0.261 C 
BRANCH  30  31
ATOM     31  O   UNL A   1      45.582  25.387  26.568  1.00  0.00    -0.460 OA
BRANCH  31  32
ATOM     32  C   UNL A   1      45.394  24.888  27.809  1.00  0.00     0.338 C 
ATOM     33  O   UNL A   1      45.722  23.785  28.210  1.00  0.00    -0.246 OA
BRANCH  32  34
ATOM     34  C   UNL A   1      44.913  26.001  28.662  1.00  0.00     0.060 A 
ATOM     35  C   UNL A   1      45.417  27.292  28.449  1.00  0.00     0.016 A 
ATOM     36  C   UNL A   1      43.920  25.785  29.620  1.00  0.00     0.016 A 
ATOM     37  C   UNL A   1      44.921  28.371  29.186  1.00  0.00     0.010 A 
ATOM     38  C   UNL A   1      43.451  26.859  30.382  1.00  0.00     0.010 A 
ATOM     39  C   UNL A   1      43.954  28.157  30.177  1.00  0.00    -0.014 A 
BRANCH  39  40
ATOM     40  C   UNL A   1      43.560  29.249  31.101  1.00  0.00     0.031 A 
ATOM     41  C   UNL A   1      44.431  29.523  32.298  1.00  0.00     0.074 A 
ATOM     42  C   UNL A   1      42.435  29.962  30.904  1.00  0.00     0.049 A 
ATOM     43  N   UNL A   1      44.229  30.337  33.299  1.00  0.00    -0.248 NA
ATOM     44  C   UNL A   1      45.697  28.774  32.375  1.00  0.00     0.031 C 
ATOM     45  C   UNL A   1      41.539  29.835  29.756  1.00  0.00     0.029 A 
ATOM     46  N   UNL A   1      41.846  30.930  31.683  1.00  0.00    -0.354 N 
ATOM     47  C   UNL A   1      45.329  30.185  34.135  1.00  0.00     0.074 A 
ATOM     48  C   UNL A   1      46.194  29.198  33.529  1.00  0.00     0.031 C 
ATOM     49  C   UNL A   1      40.502  30.677  29.917  1.00  0.00     0.029 A 
ATOM     50  C   UNL A   1      40.635  31.369  31.198  1.00  0.00     0.049 A 
ATOM     51  H   UNL A   1      42.253  31.275  32.511  1.00  0.00     0.167 HD
ATOM     52  C   UNL A   1      45.588  30.807  35.310  1.00  0.00     0.031 A 
ATOM     53  C   UNL A   1      39.725  32.200  31.744  1.00  0.00     0.031 A 
ATOM     54  C   UNL A   1      44.721  31.783  35.914  1.00  0.00     0.049 A 
ATOM     55  C   UNL A   1      39.994  32.799  33.105  1.00  0.00     0.074 A 
ATOM     56  C   UNL A   1      44.919  32.496  37.083  1.00  0.00     0.029 A 
ATOM     57  N   UNL A   1      43.488  32.167  35.413  1.00  0.00    -0.354 N 
ATOM     58  N   UNL A   1      41.063  32.689  33.859  1.00  0.00    -0.248 NA
ATOM     59  C   UNL A   1      38.930  33.628  33.692  1.00  0.00     0.031 C 
ATOM     60  C   UNL A   1      43.771  33.255  37.329  1.00  0.00     0.029 A 
ATOM     61  C   UNL A   1      42.889  33.068  36.277  1.00  0.00     0.049 A 
ATOM     62  H   UNL A   1      43.095  31.847  34.569  1.00  0.00     0.167 HD
ATOM     63  C   UNL A   1      40.807  33.453  34.995  1.00  0.00     0.074 A 
ATOM     64  C   UNL A   1      39.494  34.038  34.820  1.00  0.00     0.031 C 
ATOM     65  C   UNL A   1      41.585  33.649  36.088  1.00  0.00     0.031 A 
BRANCH  52  66
ATOM     66  C   UNL A   1      46.838  30.424  36.054  1.00  0.00    -0.014 A 
ATOM     67  C   UNL A   1      46.849  29.356  36.967  1.00  0.00     0.010 A 
ATOM     68  C   UNL A   1      48.043  31.090  35.760  1.00  0.00     0.010 A 
ATOM     69  C   UNL A   1      48.043  28.967  37.581  1.00  0.00     0.020 A 
ATOM     70  C   UNL A   1      49.242  30.688  36.353  1.00  0.00     0.020 A 
ATOM     71  C   UNL A   1      49.233  29.632  37.265  1.00  0.00     0.054 A 
BRANCH  71  72
ATOM     72  S   UNL A   1      50.777  29.059  38.026  1.00  0.00     0.124 S 
ATOM     73  O   UNL A   1      51.480  30.317  38.265  1.00  0.00    -0.237 OA
ATOM     74  O   UNL A   1      50.304  28.367  39.222  1.00  0.00    -0.237 OA
ATOM     75  O   UNL A   1      51.370  28.199  37.005  1.00  0.00    -0.744 OA
ENDBRANCH  71  72
ENDBRANCH  52  66
BRANCH  53  76
ATOM     76  C   UNL A   1      38.437  32.483  31.047  1.00  0.00    -0.014 A 
ATOM     77  C   UNL A   1      37.338  31.615  31.187  1.00  0.00     0.010 A 
ATOM     78  C   UNL A   1      38.319  33.594  30.189  1.00  0.00     0.010 A 
ATOM     79  C   UNL A   1      36.164  31.831  30.458  1.00  0.00     0.020 A 
ATOM     80  C   UNL A   1      37.135  33.832  29.484  1.00  0.00     0.020 A 
ATOM     81  C   UNL A   1      36.071  32.937  29.609  1.00  0.00     0.054 A 
BRANCH  81  82
ATOM     82  S   UNL A   1      34.535  33.201  28.681  1.00  0.00     0.124 S 
ATOM     83  O   UNL A   1      33.737  33.972  29.630  1.00  0.00    -0.237 OA
ATOM     84  O   UNL A   1      34.999  33.931  27.504  1.00  0.00    -0.237 OA
ATOM     85  O   UNL A   1      34.057  31.846  28.417  1.00  0.00    -0.744 OA
ENDBRANCH  81  82
ENDBRANCH  53  76
BRANCH  65  86
ATOM     86  C   UNL A   1      41.058  34.548  37.176  1.00  0.00    -0.014 A 
ATOM     87  C   UNL A   1      41.479  35.886  37.278  1.00  0.00     0.010 A 
ATOM     88  C   UNL A   1      40.067  34.073  38.054  1.00  0.00     0.010 A 
ATOM     89  C   UNL A   1      40.928  36.727  38.249  1.00  0.00     0.020 A 
ATOM     90  C   UNL A   1      39.492  34.920  39.005  1.00  0.00     0.020 A 
ATOM     91  C   UNL A   1      39.932  36.240  39.102  1.00  0.00     0.054 A 
BRANCH  91  92
ATOM     92  S   UNL A   1      39.184  37.376  40.303  1.00  0.00     0.124 S 
ATOM     93  O   UNL A   1      38.353  38.219  39.448  1.00  0.00    -0.237 OA
ATOM     94  O   UNL A   1      38.459  36.471  41.190  1.00  0.00    -0.237 OA
ATOM     95  O   UNL A   1      40.333  38.047  40.909  1.00  0.00    -0.744 OA
ENDBRANCH  91  92
ENDBRANCH  65  86
ENDBRANCH  39  40
ENDBRANCH  32  34
ENDBRANCH  31  32
ENDBRANCH  30  31
ENDBRANCH  29  30
ENDBRANCH  28  29
ENDBRANCH  27  28
ENDBRANCH  26  27
ENDBRANCH   1  26
TORSDOF 28
ENDMDL
MODEL 3
REMARK VINA RESULT:      -6.7      1.854      2.401
REMARK SMILES CCC[NH2+][C@]1(C(=O)OCCOCCOCCOCCOC(=O)c2ccc(-c3c4nc(c(-c5ccc(S(=O)(=O)[O-])cc5)c5ccc([nH]5)c(-c5ccc(S(=O)(=O)[O-])cc5)c5nc(c(-c6ccc(S(=O)(=O)[O-])cc6)c6ccc3[nH]6)C=C5)C=C4)cc2)CC[C@@H](OC(C)(C)C)C1
REMARK SMILES IDX 14 1 13 2 12 3 11 4 10 5 9 6 8 7 6 8 7 9 5 10 83 11 91 12
REMARK SMILES IDX 84 13 85 14 4 15 3 18 2 19 1 20 86 21 87 22 88 23 89 24
REMARK SMILES IDX 90 25 15 26 16 27 17 28 18 29 19 30 20 31 21 32 22 33 23 34
REMARK SMILES IDX 24 35 82 36 25 37 81 38 26 39 27 40 28 41 75 42 29 43 80 44
REMARK SMILES IDX 74 45 76 46 30 47 79 48 73 49 72 50 31 52 61 53 42 54 60 55
REMARK SMILES IDX 43 56 46 57 59 58 77 59 44 60 45 61 58 63 78 64 47 65 32 66
REMARK SMILES IDX 33 67 41 68 34 69 40 70 35 71 36 72 37 73 38 74 39 75 62 76
REMARK SMILES IDX 63 77 71 78 64 79 70 80 65 81 66 82 67 83 68 84 69 85 48 86
REMARK SMILES IDX 49 87 57 88 50 89 56 90 51 91 52 92 53 93 54 94 55 95
REMARK H PARENT 4 16 4 17 76 51 46 62
REMARK Flexibility Score: inf
ROOT
ATOM      1  O   UNL A   1      43.800  23.524  33.118  1.00  0.00    -0.377 OA
ENDROOT
BRANCH   1   2
ATOM      2  C   UNL A   1      44.318  24.303  34.178  1.00  0.00     0.188 C 
BRANCH   2   3
ATOM      3  C   UNL A   1      45.745  23.926  34.626  1.00  0.00     0.188 C 
BRANCH   3   4
ATOM      4  O   UNL A   1      46.190  22.576  34.691  1.00  0.00    -0.376 OA
BRANCH   4   5
ATOM      5  C   UNL A   1      47.545  22.263  34.962  1.00  0.00     0.202 C 
BRANCH   5   6
ATOM      6  C   UNL A   1      48.020  20.799  34.892  1.00  0.00     0.261 C 
BRANCH   6   7
ATOM      7  O   UNL A   1      48.072  20.049  36.116  1.00  0.00    -0.459 OA
BRANCH   7   8
ATOM      8  C   UNL A   1      46.969  20.122  36.895  1.00  0.00     0.368 C 
ATOM      9  O   UNL A   1      45.832  20.319  36.462  1.00  0.00    -0.245 OA
BRANCH   8  10
ATOM     10  C   UNL A   1      47.230  19.974  38.438  1.00  0.00     0.196 C 
ATOM     11  C   UNL A   1      46.332  20.972  39.206  1.00  0.00     0.084 C 
ATOM     12  C   UNL A   1      46.839  18.613  39.059  1.00  0.00     0.113 C 
ATOM     13  C   UNL A   1      46.095  20.403  40.601  1.00  0.00     0.039 C 
ATOM     14  C   UNL A   1      46.351  18.902  40.489  1.00  0.00     0.126 C 
BRANCH  10  15
ATOM     15  N   UNL A   1      48.673  20.293  38.523  1.00  0.00    -0.332 N 
ATOM     16  H   UNL A   1      49.099  19.557  39.087  1.00  0.00     0.347 HD
ATOM     17  H   UNL A   1      48.939  20.371  37.541  1.00  0.00     0.347 HD
BRANCH  15  18
ATOM     18  C   UNL A   1      49.140  21.547  39.071  1.00  0.00     0.261 C 
BRANCH  18  19
ATOM     19  C   UNL A   1      49.847  22.348  37.967  1.00  0.00     0.058 C 
ATOM     20  C   UNL A   1      51.354  22.092  37.929  1.00  0.00     0.010 C 
ENDBRANCH  18  19
ENDBRANCH  15  18
ENDBRANCH  10  15
BRANCH  14  21
ATOM     21  O   UNL A   1      45.402  18.030  41.094  1.00  0.00    -0.372 OA
BRANCH  21  22
ATOM     22  C   UNL A   1      45.074  17.904  42.482  1.00  0.00     0.060 C 
ATOM     23  C   UNL A   1      46.266  17.620  43.400  1.00  0.00     0.042 C 
ATOM     24  C   UNL A   1      44.242  19.067  43.023  1.00  0.00     0.042 C 
ATOM     25  C   UNL A   1      44.162  16.657  42.544  1.00  0.00     0.042 C 
ENDBRANCH  21  22
ENDBRANCH  14  21
ENDBRANCH   8  10
ENDBRANCH   7   8
ENDBRANCH   6   7
ENDBRANCH   5   6
ENDBRANCH   4   5
ENDBRANCH   3   4
ENDBRANCH   2   3
ENDBRANCH   1   2
BRANCH   1  26
ATOM     26  C   UNL A   1      44.565  23.500  31.926  1.00  0.00     0.188 C 
BRANCH  26  27
ATOM     27  C   UNL A   1      43.769  23.411  30.615  1.00  0.00     0.188 C 
BRANCH  27  28
ATOM     28  O   UNL A   1      44.301  24.254  29.596  1.00  0.00    -0.376 OA
BRANCH  28  29
ATOM     29  C   UNL A   1      44.008  23.951  28.243  1.00  0.00     0.202 C 
BRANCH  29  30
ATOM     30  C   UNL A   1      42.583  23.476  27.924  1.00  0.00     0.261 C 
BRANCH  30  31
ATOM     31  O   UNL A   1      41.965  24.015  26.745  1.00  0.00    -0.460 OA
BRANCH  31  32
ATOM     32  C   UNL A   1      40.661  24.365  26.801  1.00  0.00     0.338 C 
ATOM     33  O   UNL A   1      39.724  23.766  26.306  1.00  0.00    -0.246 OA
BRANCH  32  34
ATOM     34  C   UNL A   1      40.550  25.490  27.760  1.00  0.00     0.060 A 
ATOM     35  C   UNL A   1      41.425  26.578  27.642  1.00  0.00     0.016 A 
ATOM     36  C   UNL A   1      39.543  25.501  28.728  1.00  0.00     0.016 A 
ATOM     37  C   UNL A   1      41.287  27.687  28.484  1.00  0.00     0.010 A 
ATOM     38  C   UNL A   1      39.430  26.594  29.593  1.00  0.00     0.010 A 
ATOM     39  C   UNL A   1      40.306  27.688  29.483  1.00  0.00    -0.014 A 
BRANCH  39  40
ATOM     40  C   UNL A   1      40.271  28.760  30.509  1.00  0.00     0.031 A 
ATOM     41  C   UNL A   1      41.181  28.639  31.702  1.00  0.00     0.074 A 
ATOM     42  C   UNL A   1      39.427  29.803  30.404  1.00  0.00     0.049 A 
ATOM     43  N   UNL A   1      41.240  29.381  32.775  1.00  0.00    -0.248 NA
ATOM     44  C   UNL A   1      42.148  27.529  31.681  1.00  0.00     0.031 C 
ATOM     45  C   UNL A   1      38.538  30.067  29.272  1.00  0.00     0.029 A 
ATOM     46  N   UNL A   1      39.167  30.832  31.279  1.00  0.00    -0.354 N 
ATOM     47  C   UNL A   1      42.235  28.818  33.567  1.00  0.00     0.074 A 
ATOM     48  C   UNL A   1      42.749  27.670  32.855  1.00  0.00     0.031 C 
ATOM     49  C   UNL A   1      37.817  31.172  29.532  1.00  0.00     0.029 A 
ATOM     50  C   UNL A   1      38.156  31.668  30.865  1.00  0.00     0.049 A 
ATOM     51  H   UNL A   1      39.659  30.956  32.123  1.00  0.00     0.167 HD
ATOM     52  C   UNL A   1      42.671  29.219  34.784  1.00  0.00     0.031 A 
ATOM     53  C   UNL A   1      37.550  32.689  31.504  1.00  0.00     0.031 A 
ATOM     54  C   UNL A   1      42.152  30.357  35.493  1.00  0.00     0.049 A 
ATOM     55  C   UNL A   1      37.988  33.048  32.905  1.00  0.00     0.074 A 
ATOM     56  C   UNL A   1      42.559  30.864  36.714  1.00  0.00     0.029 A 
ATOM     57  N   UNL A   1      41.103  31.151  35.060  1.00  0.00    -0.354 N 
ATOM     58  N   UNL A   1      38.967  32.542  33.619  1.00  0.00    -0.248 NA
ATOM     59  C   UNL A   1      37.236  34.110  33.590  1.00  0.00     0.031 C 
ATOM     60  C   UNL A   1      41.706  31.917  37.055  1.00  0.00     0.029 A 
ATOM     61  C   UNL A   1      40.813  32.111  36.014  1.00  0.00     0.049 A 
ATOM     62  H   UNL A   1      40.631  31.047  34.201  1.00  0.00     0.167 HD
ATOM     63  C   UNL A   1      38.960  33.242  34.823  1.00  0.00     0.074 A 
ATOM     64  C   UNL A   1      37.897  34.219  34.734  1.00  0.00     0.031 C 
ATOM     65  C   UNL A   1      39.756  33.084  35.909  1.00  0.00     0.031 A 
BRANCH  52  66
ATOM     66  C   UNL A   1      43.737  28.399  35.460  1.00  0.00    -0.014 A 
ATOM     67  C   UNL A   1      45.101  28.605  35.191  1.00  0.00     0.010 A 
ATOM     68  C   UNL A   1      43.364  27.470  36.450  1.00  0.00     0.010 A 
ATOM     69  C   UNL A   1      46.073  27.888  35.894  1.00  0.00     0.020 A 
ATOM     70  C   UNL A   1      44.333  26.772  37.173  1.00  0.00     0.020 A 
ATOM     71  C   UNL A   1      45.683  26.980  36.885  1.00  0.00     0.054 A 
BRANCH  71  72
ATOM     72  S   UNL A   1      46.969  26.117  37.829  1.00  0.00     0.124 S 
ATOM     73  O   UNL A   1      48.191  26.648  37.228  1.00  0.00    -0.237 OA
ATOM     74  O   UNL A   1      46.703  26.551  39.198  1.00  0.00    -0.237 OA
ATOM     75  O   UNL A   1      46.708  24.705  37.563  1.00  0.00    -0.744 OA
ENDBRANCH  71  72
ENDBRANCH  52  66
BRANCH  53  76
ATOM     76  C   UNL A   1      36.417  33.422  30.868  1.00  0.00    -0.014 A 
ATOM     77  C   UNL A   1      36.543  33.951  29.570  1.00  0.00     0.010 A 
ATOM     78  C   UNL A   1      35.224  33.649  31.580  1.00  0.00     0.010 A 
ATOM     79  C   UNL A   1      35.516  34.719  29.013  1.00  0.00     0.020 A 
ATOM     80  C   UNL A   1      34.181  34.388  31.013  1.00  0.00     0.020 A 
ATOM     81  C   UNL A   1      34.342  34.936  29.739  1.00  0.00     0.054 A 
BRANCH  81  82
ATOM     82  S   UNL A   1      33.020  35.927  28.992  1.00  0.00     0.124 S 
ATOM     83  O   UNL A   1      32.262  36.354  30.165  1.00  0.00    -0.237 OA
ATOM     84  O   UNL A   1      33.765  36.977  28.303  1.00  0.00    -0.237 OA
ATOM     85  O   UNL A   1      32.335  34.980  28.116  1.00  0.00    -0.744 OA
ENDBRANCH  81  82
ENDBRANCH  53  76
BRANCH  65  86
ATOM     86  C   UNL A   1      39.535  34.000  37.085  1.00  0.00    -0.014 A 
ATOM     87  C   UNL A   1      38.894  33.542  38.250  1.00  0.00     0.010 A 
ATOM     88  C   UNL A   1      40.051  35.308  37.057  1.00  0.00     0.010 A 
ATOM     89  C   UNL A   1      38.759  34.382  39.358  1.00  0.00     0.020 A 
ATOM     90  C   UNL A   1      39.945  36.140  38.175  1.00  0.00     0.020 A 
ATOM     91  C   UNL A   1      39.292  35.674  39.316  1.00  0.00     0.054 A 
BRANCH  91  92
ATOM     92  S   UNL A   1      39.167  36.716  40.796  1.00  0.00     0.124 S 
ATOM     93  O   UNL A   1      38.296  35.919  41.657  1.00  0.00    -0.237 OA
ATOM     94  O   UNL A   1      40.557  36.820  41.232  1.00  0.00    -0.237 OA
ATOM     95  O   UNL A   1      38.580  37.959  40.298  1.00  0.00    -0.744 OA
ENDBRANCH  91  92
ENDBRANCH  65  86
ENDBRANCH  39  40
ENDBRANCH  32  34
ENDBRANCH  31  32
ENDBRANCH  30  31
ENDBRANCH  29  30
ENDBRANCH  28  29
ENDBRANCH  27  28
ENDBRANCH  26  27
ENDBRANCH   1  26
TORSDOF 28
ENDMDL
