MODEL 1
REMARK VINA RESULT:      -5.6      0.000      0.000
REMARK SMILES CCOc1ccc2nc(S[C@@H](C(=O)OCCOCCOCCOCCOC(=O)c3ccc(-c4c5nc(c(-c6ccc(S(=O)(=O)[O-])cc6)c6ccc([nH]6)c(-c6ccc(S(=O)(=O)[O-])cc6)c6nc(c(-c7ccc(S(=O)(=O)[O-])cc7)c7ccc4[nH]7)C=C6)C=C5)cc3)c3ccccc3)[nH]c2c1
REMARK SMILES IDX 19 1 18 2 17 3 16 4 15 5 14 6 12 7 13 8 11 9 10 10 9 11 4 12
REMARK SMILES IDX 5 13 97 14 6 15 96 16 7 17 95 18 8 19 3 21 2 22 1 23 89 24
REMARK SMILES IDX 90 25 94 26 91 27 93 28 92 29 20 30 21 31 22 32 23 33 24 34
REMARK SMILES IDX 25 35 26 36 27 37 28 38 29 39 30 40 88 41 31 42 87 43 32 44
REMARK SMILES IDX 33 45 34 46 81 47 35 48 86 49 80 50 82 51 36 52 85 53 79 54
REMARK SMILES IDX 78 55 37 57 67 58 48 59 66 60 49 61 52 62 65 63 83 64 50 65
REMARK SMILES IDX 51 66 64 68 84 69 53 70 38 71 39 72 47 73 40 74 46 75 41 76
REMARK SMILES IDX 42 77 43 78 44 79 45 80 68 81 69 82 77 83 70 84 76 85 71 86
REMARK SMILES IDX 72 87 73 88 74 89 75 90 54 91 55 92 63 93 56 94 62 95 57 96
REMARK SMILES IDX 58 97 59 98 60 99 61 100
REMARK H PARENT 95 20 82 56 52 67
REMARK Flexibility Score: inf
ROOT
ATOM      1  C   UNL A   1      50.783  32.865  27.563  1.00  0.00     0.188 C 
ENDROOT
BRANCH   1   2
ATOM      2  C   UNL A   1      49.631  32.081  26.897  1.00  0.00     0.188 C 
BRANCH   2   3
ATOM      3  O   UNL A   1      48.510  31.600  27.610  1.00  0.00    -0.376 OA
BRANCH   3   4
ATOM      4  C   UNL A   1      47.199  31.605  27.085  1.00  0.00     0.202 C 
BRANCH   4   5
ATOM      5  C   UNL A   1      46.488  30.341  26.570  1.00  0.00     0.261 C 
BRANCH   5   6
ATOM      6  O   UNL A   1      45.281  29.964  27.261  1.00  0.00    -0.462 OA
BRANCH   6   7
ATOM      7  C   UNL A   1      45.262  28.785  27.923  1.00  0.00     0.324 C 
ATOM      8  O   UNL A   1      45.956  28.586  28.919  1.00  0.00    -0.251 OA
BRANCH   7   9
ATOM      9  C   UNL A   1      44.270  27.715  27.399  1.00  0.00     0.194 C 
BRANCH   9  10
ATOM     10  S   UNL A   1      44.683  26.790  25.884  1.00  0.00    -0.068 SA
BRANCH  10  11
ATOM     11  C   UNL A   1      46.220  25.951  25.961  1.00  0.00     0.167 A 
ATOM     12  C   UNL A   1      50.735  25.714  26.292  1.00  0.00     0.121 A 
ATOM     13  C   UNL A   1      50.377  25.259  27.562  1.00  0.00     0.049 A 
ATOM     14  C   UNL A   1      49.763  25.909  25.294  1.00  0.00     0.074 A 
ATOM     15  C   UNL A   1      49.027  25.028  27.888  1.00  0.00     0.034 A 
ATOM     16  C   UNL A   1      48.420  25.724  25.662  1.00  0.00     0.070 A 
ATOM     17  C   UNL A   1      48.034  25.323  26.935  1.00  0.00     0.090 A 
ATOM     18  N   UNL A   1      47.222  25.987  25.020  1.00  0.00    -0.333 N 
ATOM     19  N   UNL A   1      46.666  25.403  27.075  1.00  0.00    -0.223 NA
ATOM     20  H   UNL A   1      47.107  26.169  24.060  1.00  0.00     0.169 HD
BRANCH  12  21
ATOM     21  O   UNL A   1      51.968  26.273  26.060  1.00  0.00    -0.494 OA
BRANCH  21  22
ATOM     22  C   UNL A   1      53.086  25.646  26.693  1.00  0.00     0.226 C 
ATOM     23  C   UNL A   1      54.204  25.296  25.723  1.00  0.00     0.049 C 
ENDBRANCH  21  22
ENDBRANCH  12  21
ENDBRANCH  10  11
ENDBRANCH   9  10
BRANCH   9  24
ATOM     24  C   UNL A   1      42.813  28.128  27.500  1.00  0.00    -0.023 A 
ATOM     25  C   UNL A   1      42.082  28.612  26.401  1.00  0.00     0.005 A 
ATOM     26  C   UNL A   1      42.160  28.004  28.738  1.00  0.00     0.005 A 
ATOM     27  C   UNL A   1      40.736  28.943  26.538  1.00  0.00     0.000 A 
ATOM     28  C   UNL A   1      40.810  28.312  28.865  1.00  0.00     0.000 A 
ATOM     29  C   UNL A   1      40.100  28.784  27.765  1.00  0.00     0.000 A 
ENDBRANCH   9  24
ENDBRANCH   7   9
ENDBRANCH   6   7
ENDBRANCH   5   6
ENDBRANCH   4   5
ENDBRANCH   3   4
ENDBRANCH   2   3
ENDBRANCH   1   2
BRANCH   1  30
ATOM     30  O   UNL A   1      52.156  32.766  27.299  1.00  0.00    -0.377 OA
BRANCH  30  31
ATOM     31  C   UNL A   1      52.948  32.100  28.238  1.00  0.00     0.188 C 
BRANCH  31  32
ATOM     32  C   UNL A   1      54.272  31.683  27.606  1.00  0.00     0.188 C 
BRANCH  32  33
ATOM     33  O   UNL A   1      55.165  31.098  28.542  1.00  0.00    -0.376 OA
BRANCH  33  34
ATOM     34  C   UNL A   1      54.639  30.331  29.625  1.00  0.00     0.202 C 
BRANCH  34  35
ATOM     35  C   UNL A   1      54.732  30.747  31.111  1.00  0.00     0.261 C 
BRANCH  35  36
ATOM     36  O   UNL A   1      53.662  31.494  31.683  1.00  0.00    -0.460 OA
BRANCH  36  37
ATOM     37  C   UNL A   1      52.847  30.888  32.561  1.00  0.00     0.338 C 
ATOM     38  O   UNL A   1      53.146  30.313  33.582  1.00  0.00    -0.246 OA
BRANCH  37  39
ATOM     39  C   UNL A   1      51.489  31.287  32.138  1.00  0.00     0.060 A 
ATOM     40  C   UNL A   1      50.771  32.151  32.972  1.00  0.00     0.016 A 
ATOM     41  C   UNL A   1      50.980  30.896  30.894  1.00  0.00     0.016 A 
ATOM     42  C   UNL A   1      49.524  32.613  32.575  1.00  0.00     0.010 A 
ATOM     43  C   UNL A   1      49.709  31.322  30.514  1.00  0.00     0.010 A 
ATOM     44  C   UNL A   1      48.968  32.146  31.377  1.00  0.00    -0.014 A 
BRANCH  44  45
ATOM     45  C   UNL A   1      47.510  32.270  31.204  1.00  0.00     0.031 A 
ATOM     46  C   UNL A   1      46.670  31.140  31.731  1.00  0.00     0.074 A 
ATOM     47  C   UNL A   1      46.961  33.373  30.670  1.00  0.00     0.049 A 
ATOM     48  N   UNL A   1      45.374  30.994  31.720  1.00  0.00    -0.248 NA
ATOM     49  C   UNL A   1      47.397  30.022  32.364  1.00  0.00     0.031 C 
ATOM     50  C   UNL A   1      47.700  34.543  30.198  1.00  0.00     0.029 A 
ATOM     51  N   UNL A   1      45.647  33.685  30.444  1.00  0.00    -0.354 N 
ATOM     52  C   UNL A   1      45.134  29.770  32.332  1.00  0.00     0.074 A 
ATOM     53  C   UNL A   1      46.412  29.198  32.679  1.00  0.00     0.031 C 
ATOM     54  C   UNL A   1      46.823  35.449  29.729  1.00  0.00     0.029 A 
ATOM     55  C   UNL A   1      45.471  34.904  29.837  1.00  0.00     0.049 A 
ATOM     56  H   UNL A   1      44.901  33.093  30.693  1.00  0.00     0.167 HD
ATOM     57  C   UNL A   1      43.945  29.179  32.585  1.00  0.00     0.031 A 
ATOM     58  C   UNL A   1      44.340  35.493  29.401  1.00  0.00     0.031 A 
ATOM     59  C   UNL A   1      42.688  29.757  32.206  1.00  0.00     0.049 A 
ATOM     60  C   UNL A   1      43.031  34.775  29.614  1.00  0.00     0.074 A 
ATOM     61  C   UNL A   1      41.415  29.254  32.395  1.00  0.00     0.029 A 
ATOM     62  N   UNL A   1      42.549  30.973  31.549  1.00  0.00    -0.354 N 
ATOM     63  N   UNL A   1      42.811  33.620  30.201  1.00  0.00    -0.248 NA
ATOM     64  C   UNL A   1      41.820  35.439  29.119  1.00  0.00     0.031 C 
ATOM     65  C   UNL A   1      40.511  30.134  31.794  1.00  0.00     0.029 A 
ATOM     66  C   UNL A   1      41.214  31.225  31.302  1.00  0.00     0.049 A 
ATOM     67  H   UNL A   1      43.293  31.566  31.295  1.00  0.00     0.167 HD
ATOM     68  C   UNL A   1      41.432  33.437  30.177  1.00  0.00     0.074 A 
ATOM     69  C   UNL A   1      40.872  34.604  29.525  1.00  0.00     0.031 C 
ATOM     70  C   UNL A   1      40.693  32.406  30.657  1.00  0.00     0.031 A 
BRANCH  57  71
ATOM     71  C   UNL A   1      43.965  27.826  33.245  1.00  0.00    -0.014 A 
ATOM     72  C   UNL A   1      43.841  27.687  34.640  1.00  0.00     0.010 A 
ATOM     73  C   UNL A   1      44.103  26.672  32.453  1.00  0.00     0.010 A 
ATOM     74  C   UNL A   1      43.886  26.420  35.231  1.00  0.00     0.020 A 
ATOM     75  C   UNL A   1      44.117  25.404  33.037  1.00  0.00     0.020 A 
ATOM     76  C   UNL A   1      44.021  25.286  34.425  1.00  0.00     0.054 A 
BRANCH  76  77
ATOM     77  S   UNL A   1      44.041  23.655  35.216  1.00  0.00     0.124 S 
ATOM     78  O   UNL A   1      44.808  23.916  36.432  1.00  0.00    -0.237 OA
ATOM     79  O   UNL A   1      42.621  23.382  35.417  1.00  0.00    -0.237 OA
ATOM     80  O   UNL A   1      44.704  22.800  34.235  1.00  0.00    -0.744 OA
ENDBRANCH  76  77
ENDBRANCH  57  71
BRANCH  58  81
ATOM     81  C   UNL A   1      44.401  36.809  28.707  1.00  0.00    -0.014 A 
ATOM     82  C   UNL A   1      44.540  36.885  27.310  1.00  0.00     0.010 A 
ATOM     83  C   UNL A   1      44.310  38.002  29.447  1.00  0.00     0.010 A 
ATOM     84  C   UNL A   1      44.601  38.128  26.670  1.00  0.00     0.020 A 
ATOM     85  C   UNL A   1      44.339  39.246  28.810  1.00  0.00     0.020 A 
ATOM     86  C   UNL A   1      44.497  39.300  27.424  1.00  0.00     0.054 A 
BRANCH  86  87
ATOM     87  S   UNL A   1      44.529  40.899  26.566  1.00  0.00     0.124 S 
ATOM     88  O   UNL A   1      45.312  40.589  25.374  1.00  0.00    -0.237 OA
ATOM     89  O   UNL A   1      43.110  41.163  26.342  1.00  0.00    -0.237 OA
ATOM     90  O   UNL A   1      45.176  41.791  27.526  1.00  0.00    -0.744 OA
ENDBRANCH  86  87
ENDBRANCH  58  81
BRANCH  70  91
ATOM     91  C   UNL A   1      39.196  32.516  30.549  1.00  0.00    -0.014 A 
ATOM     92  C   UNL A   1      38.437  33.200  31.513  1.00  0.00     0.010 A 
ATOM     93  C   UNL A   1      38.555  31.993  29.410  1.00  0.00     0.010 A 
ATOM     94  C   UNL A   1      37.056  33.335  31.353  1.00  0.00     0.020 A 
ATOM     95  C   UNL A   1      37.181  32.156  29.229  1.00  0.00     0.020 A 
ATOM     96  C   UNL A   1      36.438  32.816  30.208  1.00  0.00     0.054 A 
BRANCH  96  97
ATOM     97  S   UNL A   1      34.654  33.059  29.997  1.00  0.00     0.124 S 
ATOM     98  O   UNL A   1      34.592  34.433  29.506  1.00  0.00    -0.237 OA
ATOM     99  O   UNL A   1      34.305  32.027  29.025  1.00  0.00    -0.237 OA
ATOM    100  O   UNL A   1      34.114  32.852  31.338  1.00  0.00    -0.744 OA
ENDBRANCH  96  97
ENDBRANCH  70  91
ENDBRANCH  44  45
ENDBRANCH  37  39
ENDBRANCH  36  37
ENDBRANCH  35  36
ENDBRANCH  34  35
ENDBRANCH  33  34
ENDBRANCH  32  33
ENDBRANCH  31  32
ENDBRANCH  30  31
ENDBRANCH   1  30
TORSDOF 28
ENDMDL
MODEL 2
REMARK VINA RESULT:      -5.5      5.853     11.520
REMARK SMILES CCOc1ccc2nc(S[C@@H](C(=O)OCCOCCOCCOCCOC(=O)c3ccc(-c4c5nc(c(-c6ccc(S(=O)(=O)[O-])cc6)c6ccc([nH]6)c(-c6ccc(S(=O)(=O)[O-])cc6)c6nc(c(-c7ccc(S(=O)(=O)[O-])cc7)c7ccc4[nH]7)C=C6)C=C5)cc3)c3ccccc3)[nH]c2c1
REMARK SMILES IDX 19 1 18 2 17 3 16 4 15 5 14 6 12 7 13 8 11 9 10 10 9 11 4 12
REMARK SMILES IDX 5 13 97 14 6 15 96 16 7 17 95 18 8 19 3 21 2 22 1 23 89 24
REMARK SMILES IDX 90 25 94 26 91 27 93 28 92 29 20 30 21 31 22 32 23 33 24 34
REMARK SMILES IDX 25 35 26 36 27 37 28 38 29 39 30 40 88 41 31 42 87 43 32 44
REMARK SMILES IDX 33 45 34 46 81 47 35 48 86 49 80 50 82 51 36 52 85 53 79 54
REMARK SMILES IDX 78 55 37 57 67 58 48 59 66 60 49 61 52 62 65 63 83 64 50 65
REMARK SMILES IDX 51 66 64 68 84 69 53 70 38 71 39 72 47 73 40 74 46 75 41 76
REMARK SMILES IDX 42 77 43 78 44 79 45 80 68 81 69 82 77 83 70 84 76 85 71 86
REMARK SMILES IDX 72 87 73 88 74 89 75 90 54 91 55 92 63 93 56 94 62 95 57 96
REMARK SMILES IDX 58 97 59 98 60 99 61 100
REMARK H PARENT 95 20 82 56 52 67
REMARK Flexibility Score: inf
ROOT
ATOM      1  C   UNL A   1      46.709  24.498  27.078  1.00  0.00     0.188 C 
ENDROOT
BRANCH   1   2
ATOM      2  C   UNL A   1      47.606  24.928  28.259  1.00  0.00     0.188 C 
BRANCH   2   3
ATOM      3  O   UNL A   1      47.205  25.873  29.230  1.00  0.00    -0.376 OA
BRANCH   3   4
ATOM      4  C   UNL A   1      45.854  26.155  29.522  1.00  0.00     0.202 C 
BRANCH   4   5
ATOM      5  C   UNL A   1      45.136  25.648  30.786  1.00  0.00     0.261 C 
BRANCH   5   6
ATOM      6  O   UNL A   1      45.971  25.035  31.788  1.00  0.00    -0.462 OA
BRANCH   6   7
ATOM      7  C   UNL A   1      46.521  25.825  32.737  1.00  0.00     0.324 C 
ATOM      8  O   UNL A   1      47.051  26.901  32.462  1.00  0.00    -0.251 OA
BRANCH   7   9
ATOM      9  C   UNL A   1      46.394  25.336  34.203  1.00  0.00     0.194 C 
BRANCH   9  10
ATOM     10  S   UNL A   1      47.678  24.237  34.885  1.00  0.00    -0.068 SA
BRANCH  10  11
ATOM     11  C   UNL A   1      47.043  22.910  35.839  1.00  0.00     0.167 A 
ATOM     12  C   UNL A   1      47.346  19.510  38.821  1.00  0.00     0.121 A 
ATOM     13  C   UNL A   1      46.660  20.448  39.595  1.00  0.00     0.049 A 
ATOM     14  C   UNL A   1      47.563  19.727  37.448  1.00  0.00     0.074 A 
ATOM     15  C   UNL A   1      46.209  21.655  39.028  1.00  0.00     0.034 A 
ATOM     16  C   UNL A   1      47.152  20.962  36.921  1.00  0.00     0.070 A 
ATOM     17  C   UNL A   1      46.514  21.934  37.683  1.00  0.00     0.090 A 
ATOM     18  N   UNL A   1      47.352  21.578  35.698  1.00  0.00    -0.333 N 
ATOM     19  N   UNL A   1      46.395  23.107  36.970  1.00  0.00    -0.223 NA
ATOM     20  H   UNL A   1      47.663  21.140  34.873  1.00  0.00     0.169 HD
BRANCH  12  21
ATOM     21  O   UNL A   1      48.089  18.514  39.407  1.00  0.00    -0.494 OA
BRANCH  21  22
ATOM     22  C   UNL A   1      48.964  18.907  40.467  1.00  0.00     0.226 C 
ATOM     23  C   UNL A   1      50.310  18.198  40.426  1.00  0.00     0.049 C 
ENDBRANCH  21  22
ENDBRANCH  12  21
ENDBRANCH  10  11
ENDBRANCH   9  10
BRANCH   9  24
ATOM     24  C   UNL A   1      44.978  24.965  34.605  1.00  0.00    -0.023 A 
ATOM     25  C   UNL A   1      44.191  25.769  35.448  1.00  0.00     0.005 A 
ATOM     26  C   UNL A   1      44.421  23.778  34.098  1.00  0.00     0.005 A 
ATOM     27  C   UNL A   1      42.883  25.401  35.756  1.00  0.00     0.000 A 
ATOM     28  C   UNL A   1      43.108  23.426  34.389  1.00  0.00     0.000 A 
ATOM     29  C   UNL A   1      42.341  24.237  35.220  1.00  0.00     0.000 A 
ENDBRANCH   9  24
ENDBRANCH   7   9
ENDBRANCH   6   7
ENDBRANCH   5   6
ENDBRANCH   4   5
ENDBRANCH   3   4
ENDBRANCH   2   3
ENDBRANCH   1   2
BRANCH   1  30
ATOM     30  O   UNL A   1      46.078  23.261  26.882  1.00  0.00    -0.377 OA
BRANCH  30  31
ATOM     31  C   UNL A   1      44.944  23.236  26.067  1.00  0.00     0.188 C 
BRANCH  31  32
ATOM     32  C   UNL A   1      44.293  24.616  26.032  1.00  0.00     0.188 C 
BRANCH  32  33
ATOM     33  O   UNL A   1      43.140  24.656  25.205  1.00  0.00    -0.376 OA
BRANCH  33  34
ATOM     34  C   UNL A   1      42.281  25.795  25.259  1.00  0.00     0.202 C 
BRANCH  34  35
ATOM     35  C   UNL A   1      41.141  25.977  26.287  1.00  0.00     0.261 C 
BRANCH  35  36
ATOM     36  O   UNL A   1      41.374  26.791  27.433  1.00  0.00    -0.460 OA
BRANCH  36  37
ATOM     37  C   UNL A   1      41.256  28.124  27.314  1.00  0.00     0.338 C 
ATOM     38  O   UNL A   1      40.822  28.754  26.378  1.00  0.00    -0.246 OA
BRANCH  37  39
ATOM     39  C   UNL A   1      41.546  28.640  28.668  1.00  0.00     0.060 A 
ATOM     40  C   UNL A   1      41.226  27.828  29.761  1.00  0.00     0.016 A 
ATOM     41  C   UNL A   1      42.214  29.858  28.844  1.00  0.00     0.016 A 
ATOM     42  C   UNL A   1      41.553  28.241  31.044  1.00  0.00     0.010 A 
ATOM     43  C   UNL A   1      42.502  30.295  30.136  1.00  0.00     0.010 A 
ATOM     44  C   UNL A   1      42.131  29.502  31.234  1.00  0.00    -0.014 A 
BRANCH  44  45
ATOM     45  C   UNL A   1      42.045  30.101  32.577  1.00  0.00     0.031 A 
ATOM     46  C   UNL A   1      40.844  30.959  32.857  1.00  0.00     0.074 A 
ATOM     47  C   UNL A   1      42.958  29.828  33.524  1.00  0.00     0.049 A 
ATOM     48  N   UNL A   1      40.515  31.597  33.947  1.00  0.00    -0.248 NA
ATOM     49  C   UNL A   1      39.877  31.116  31.752  1.00  0.00     0.031 C 
ATOM     50  C   UNL A   1      44.115  28.950  33.356  1.00  0.00     0.029 A 
ATOM     51  N   UNL A   1      43.044  30.262  34.820  1.00  0.00    -0.354 N 
ATOM     52  C   UNL A   1      39.314  32.233  33.655  1.00  0.00     0.074 A 
ATOM     53  C   UNL A   1      38.983  31.933  32.283  1.00  0.00     0.031 C 
ATOM     54  C   UNL A   1      44.804  28.916  34.511  1.00  0.00     0.029 A 
ATOM     55  C   UNL A   1      44.154  29.796  35.481  1.00  0.00     0.049 A 
ATOM     56  H   UNL A   1      42.376  30.851  35.237  1.00  0.00     0.167 HD
ATOM     57  C   UNL A   1      38.553  32.999  34.468  1.00  0.00     0.031 A 
ATOM     58  C   UNL A   1      44.597  30.075  36.722  1.00  0.00     0.031 A 
ATOM     59  C   UNL A   1      38.917  33.304  35.822  1.00  0.00     0.049 A 
ATOM     60  C   UNL A   1      43.776  31.003  37.583  1.00  0.00     0.074 A 
ATOM     61  C   UNL A   1      38.238  34.076  36.744  1.00  0.00     0.029 A 
ATOM     62  N   UNL A   1      40.074  32.852  36.444  1.00  0.00    -0.354 N 
ATOM     63  N   UNL A   1      42.638  31.595  37.303  1.00  0.00    -0.248 NA
ATOM     64  C   UNL A   1      44.292  31.293  38.926  1.00  0.00     0.031 C 
ATOM     65  C   UNL A   1      39.017  34.146  37.903  1.00  0.00     0.029 A 
ATOM     66  C   UNL A   1      40.141  33.351  37.730  1.00  0.00     0.049 A 
ATOM     67  H   UNL A   1      40.747  32.266  36.029  1.00  0.00     0.167 HD
ATOM     68  C   UNL A   1      42.282  32.299  38.448  1.00  0.00     0.074 A 
ATOM     69  C   UNL A   1      43.324  32.051  39.425  1.00  0.00     0.031 C 
ATOM     70  C   UNL A   1      41.193  33.073  38.679  1.00  0.00     0.031 A 
BRANCH  57  71
ATOM     71  C   UNL A   1      37.297  33.595  33.890  1.00  0.00    -0.014 A 
ATOM     72  C   UNL A   1      36.026  33.270  34.400  1.00  0.00     0.010 A 
ATOM     73  C   UNL A   1      37.392  34.504  32.822  1.00  0.00     0.010 A 
ATOM     74  C   UNL A   1      34.874  33.820  33.830  1.00  0.00     0.020 A 
ATOM     75  C   UNL A   1      36.245  35.080  32.270  1.00  0.00     0.020 A 
ATOM     76  C   UNL A   1      34.991  34.723  32.770  1.00  0.00     0.054 A 
BRANCH  76  77
ATOM     77  S   UNL A   1      33.481  35.448  32.074  1.00  0.00     0.124 S 
ATOM     78  O   UNL A   1      32.441  34.619  32.679  1.00  0.00    -0.237 OA
ATOM     79  O   UNL A   1      33.541  36.827  32.550  1.00  0.00    -0.237 OA
ATOM     80  O   UNL A   1      33.648  35.281  30.633  1.00  0.00    -0.744 OA
ENDBRANCH  76  77
ENDBRANCH  57  71
BRANCH  58  81
ATOM     81  C   UNL A   1      45.877  29.491  37.209  1.00  0.00    -0.014 A 
ATOM     82  C   UNL A   1      47.104  30.132  36.964  1.00  0.00     0.010 A 
ATOM     83  C   UNL A   1      45.872  28.285  37.935  1.00  0.00     0.010 A 
ATOM     84  C   UNL A   1      48.301  29.570  37.423  1.00  0.00     0.020 A 
ATOM     85  C   UNL A   1      47.062  27.737  38.421  1.00  0.00     0.020 A 
ATOM     86  C   UNL A   1      48.272  28.378  38.151  1.00  0.00     0.054 A 
BRANCH  86  87
ATOM     87  S   UNL A   1      49.833  27.696  38.778  1.00  0.00     0.124 S 
ATOM     88  O   UNL A   1      50.613  28.903  39.030  1.00  0.00    -0.237 OA
ATOM     89  O   UNL A   1      49.399  26.961  39.963  1.00  0.00    -0.237 OA
ATOM     90  O   UNL A   1      50.309  26.861  37.676  1.00  0.00    -0.744 OA
ENDBRANCH  86  87
ENDBRANCH  58  81
BRANCH  70  91
ATOM     91  C   UNL A   1      41.038  33.661  40.055  1.00  0.00    -0.014 A 
ATOM     92  C   UNL A   1      41.599  34.904  40.391  1.00  0.00     0.010 A 
ATOM     93  C   UNL A   1      40.239  32.988  40.999  1.00  0.00     0.010 A 
ATOM     94  C   UNL A   1      41.387  35.451  41.659  1.00  0.00     0.020 A 
ATOM     95  C   UNL A   1      39.996  33.546  42.254  1.00  0.00     0.020 A 
ATOM     96  C   UNL A   1      40.582  34.770  42.581  1.00  0.00     0.054 A 
BRANCH  96  97
ATOM     97  S   UNL A   1      40.274  35.531  44.196  1.00  0.00     0.124 S 
ATOM     98  O   UNL A   1      39.005  36.218  43.971  1.00  0.00    -0.237 OA
ATOM     99  O   UNL A   1      40.214  34.376  45.087  1.00  0.00    -0.237 OA
ATOM    100  O   UNL A   1      41.428  36.405  44.395  1.00  0.00    -0.744 OA
ENDBRANCH  96  97
ENDBRANCH  70  91
ENDBRANCH  44  45
ENDBRANCH  37  39
ENDBRANCH  36  37
ENDBRANCH  35  36
ENDBRANCH  34  35
ENDBRANCH  33  34
ENDBRANCH  32  33
ENDBRANCH  31  32
ENDBRANCH  30  31
ENDBRANCH   1  30
TORSDOF 28
ENDMDL
MODEL 3
REMARK VINA RESULT:      -5.2      4.263      8.977
REMARK SMILES CCOc1ccc2nc(S[C@@H](C(=O)OCCOCCOCCOCCOC(=O)c3ccc(-c4c5nc(c(-c6ccc(S(=O)(=O)[O-])cc6)c6ccc([nH]6)c(-c6ccc(S(=O)(=O)[O-])cc6)c6nc(c(-c7ccc(S(=O)(=O)[O-])cc7)c7ccc4[nH]7)C=C6)C=C5)cc3)c3ccccc3)[nH]c2c1
REMARK SMILES IDX 19 1 18 2 17 3 16 4 15 5 14 6 12 7 13 8 11 9 10 10 9 11 4 12
REMARK SMILES IDX 5 13 97 14 6 15 96 16 7 17 95 18 8 19 3 21 2 22 1 23 89 24
REMARK SMILES IDX 90 25 94 26 91 27 93 28 92 29 20 30 21 31 22 32 23 33 24 34
REMARK SMILES IDX 25 35 26 36 27 37 28 38 29 39 30 40 88 41 31 42 87 43 32 44
REMARK SMILES IDX 33 45 34 46 81 47 35 48 86 49 80 50 82 51 36 52 85 53 79 54
REMARK SMILES IDX 78 55 37 57 67 58 48 59 66 60 49 61 52 62 65 63 83 64 50 65
REMARK SMILES IDX 51 66 64 68 84 69 53 70 38 71 39 72 47 73 40 74 46 75 41 76
REMARK SMILES IDX 42 77 43 78 44 79 45 80 68 81 69 82 77 83 70 84 76 85 71 86
REMARK SMILES IDX 72 87 73 88 74 89 75 90 54 91 55 92 63 93 56 94 62 95 57 96
REMARK SMILES IDX 58 97 59 98 60 99 61 100
REMARK H PARENT 95 20 82 56 52 67
REMARK Flexibility Score: inf
ROOT
ATOM      1  C   UNL A   1      52.234  25.047  31.988  1.00  0.00     0.188 C 
ENDROOT
BRANCH   1   2
ATOM      2  C   UNL A   1      51.907  26.556  31.953  1.00  0.00     0.188 C 
BRANCH   2   3
ATOM      3  O   UNL A   1      50.716  27.076  31.399  1.00  0.00    -0.376 OA
BRANCH   3   4
ATOM      4  C   UNL A   1      50.201  28.347  31.729  1.00  0.00     0.202 C 
BRANCH   4   5
ATOM      5  C   UNL A   1      49.512  29.273  30.711  1.00  0.00     0.261 C 
BRANCH   5   6
ATOM      6  O   UNL A   1      48.249  28.816  30.189  1.00  0.00    -0.462 OA
BRANCH   6   7
ATOM      7  C   UNL A   1      48.222  28.284  28.946  1.00  0.00     0.324 C 
ATOM      8  O   UNL A   1      47.308  27.550  28.572  1.00  0.00    -0.251 OA
BRANCH   7   9
ATOM      9  C   UNL A   1      49.371  28.701  27.992  1.00  0.00     0.194 C 
BRANCH   9  10
ATOM     10  S   UNL A   1      49.045  29.951  26.706  1.00  0.00    -0.068 SA
BRANCH  10  11
ATOM     11  C   UNL A   1      48.161  31.350  27.284  1.00  0.00     0.167 A 
ATOM     12  C   UNL A   1      44.441  33.567  28.624  1.00  0.00     0.121 A 
ATOM     13  C   UNL A   1      45.087  33.417  29.852  1.00  0.00     0.049 A 
ATOM     14  C   UNL A   1      45.091  33.234  27.421  1.00  0.00     0.074 A 
ATOM     15  C   UNL A   1      46.389  32.885  29.919  1.00  0.00     0.034 A 
ATOM     16  C   UNL A   1      46.367  32.655  27.520  1.00  0.00     0.070 A 
ATOM     17  C   UNL A   1      47.009  32.446  28.735  1.00  0.00     0.090 A 
ATOM     18  N   UNL A   1      47.205  32.057  26.595  1.00  0.00    -0.333 N 
ATOM     19  N   UNL A   1      48.152  31.698  28.556  1.00  0.00    -0.223 NA
ATOM     20  H   UNL A   1      47.129  32.126  25.616  1.00  0.00     0.169 HD
BRANCH  12  21
ATOM     21  O   UNL A   1      43.081  33.743  28.555  1.00  0.00    -0.494 OA
BRANCH  21  22
ATOM     22  C   UNL A   1      42.529  34.795  29.350  1.00  0.00     0.226 C 
ATOM     23  C   UNL A   1      41.439  35.579  28.633  1.00  0.00     0.049 C 
ENDBRANCH  21  22
ENDBRANCH  12  21
ENDBRANCH  10  11
ENDBRANCH   9  10
BRANCH   9  24
ATOM     24  C   UNL A   1      50.235  27.542  27.529  1.00  0.00    -0.023 A 
ATOM     25  C   UNL A   1      51.370  27.110  28.236  1.00  0.00     0.005 A 
ATOM     26  C   UNL A   1      49.874  26.857  26.355  1.00  0.00     0.005 A 
ATOM     27  C   UNL A   1      52.109  26.017  27.789  1.00  0.00     0.000 A 
ATOM     28  C   UNL A   1      50.600  25.752  25.925  1.00  0.00     0.000 A 
ATOM     29  C   UNL A   1      51.718  25.334  26.641  1.00  0.00     0.000 A 
ENDBRANCH   9  24
ENDBRANCH   7   9
ENDBRANCH   6   7
ENDBRANCH   5   6
ENDBRANCH   4   5
ENDBRANCH   3   4
ENDBRANCH   2   3
ENDBRANCH   1   2
BRANCH   1  30
ATOM     30  O   UNL A   1      51.850  24.105  32.953  1.00  0.00    -0.377 OA
BRANCH  30  31
ATOM     31  C   UNL A   1      50.658  24.339  33.644  1.00  0.00     0.188 C 
BRANCH  31  32
ATOM     32  C   UNL A   1      49.994  23.014  34.007  1.00  0.00     0.188 C 
BRANCH  32  33
ATOM     33  O   UNL A   1      49.903  22.813  35.409  1.00  0.00    -0.376 OA
BRANCH  33  34
ATOM     34  C   UNL A   1      48.838  23.428  36.136  1.00  0.00     0.202 C 
BRANCH  34  35
ATOM     35  C   UNL A   1      48.944  24.799  36.842  1.00  0.00     0.261 C 
BRANCH  35  36
ATOM     36  O   UNL A   1      47.764  25.580  37.006  1.00  0.00    -0.460 OA
BRANCH  36  37
ATOM     37  C   UNL A   1      47.872  26.817  37.516  1.00  0.00     0.338 C 
ATOM     38  O   UNL A   1      48.794  27.288  38.141  1.00  0.00    -0.246 OA
BRANCH  37  39
ATOM     39  C   UNL A   1      46.728  27.554  36.940  1.00  0.00     0.060 A 
ATOM     40  C   UNL A   1      45.448  27.020  37.121  1.00  0.00     0.016 A 
ATOM     41  C   UNL A   1      46.911  28.798  36.325  1.00  0.00     0.016 A 
ATOM     42  C   UNL A   1      44.340  27.720  36.666  1.00  0.00     0.010 A 
ATOM     43  C   UNL A   1      45.803  29.480  35.826  1.00  0.00     0.010 A 
ATOM     44  C   UNL A   1      44.525  28.916  35.962  1.00  0.00    -0.014 A 
BRANCH  44  45
ATOM     45  C   UNL A   1      43.418  29.387  35.110  1.00  0.00     0.031 A 
ATOM     46  C   UNL A   1      42.519  30.440  35.694  1.00  0.00     0.074 A 
ATOM     47  C   UNL A   1      43.273  28.950  33.848  1.00  0.00     0.049 A 
ATOM     48  N   UNL A   1      41.483  31.032  35.166  1.00  0.00    -0.248 NA
ATOM     49  C   UNL A   1      42.835  30.888  37.064  1.00  0.00     0.031 C 
ATOM     50  C   UNL A   1      44.144  27.983  33.181  1.00  0.00     0.029 A 
ATOM     51  N   UNL A   1      42.338  29.275  32.903  1.00  0.00    -0.354 N 
ATOM     52  C   UNL A   1      41.024  31.912  36.140  1.00  0.00     0.074 A 
ATOM     53  C   UNL A   1      41.869  31.759  37.299  1.00  0.00     0.031 C 
ATOM     54  C   UNL A   1      43.694  27.786  31.929  1.00  0.00     0.029 A 
ATOM     55  C   UNL A   1      42.488  28.586  31.724  1.00  0.00     0.049 A 
ATOM     56  H   UNL A   1      41.626  29.938  33.053  1.00  0.00     0.167 HD
ATOM     57  C   UNL A   1      39.986  32.775  36.066  1.00  0.00     0.031 A 
ATOM     58  C   UNL A   1      41.717  28.592  30.620  1.00  0.00     0.031 A 
ATOM     59  C   UNL A   1      39.144  32.889  34.910  1.00  0.00     0.049 A 
ATOM     60  C   UNL A   1      40.511  29.498  30.593  1.00  0.00     0.074 A 
ATOM     61  C   UNL A   1      38.056  33.716  34.715  1.00  0.00     0.029 A 
ATOM     62  N   UNL A   1      39.297  32.140  33.750  1.00  0.00    -0.354 N 
ATOM     63  N   UNL A   1      40.088  30.333  31.515  1.00  0.00    -0.248 NA
ATOM     64  C   UNL A   1      39.688  29.473  29.378  1.00  0.00     0.031 C 
ATOM     65  C   UNL A   1      37.510  33.421  33.462  1.00  0.00     0.029 A 
ATOM     66  C   UNL A   1      38.307  32.467  32.845  1.00  0.00     0.049 A 
ATOM     67  H   UNL A   1      40.006  31.473  33.598  1.00  0.00     0.167 HD
ATOM     68  C   UNL A   1      38.968  30.959  30.977  1.00  0.00     0.074 A 
ATOM     69  C   UNL A   1      38.788  30.410  29.647  1.00  0.00     0.031 C 
ATOM     70  C   UNL A   1      38.166  31.905  31.524  1.00  0.00     0.031 A 
BRANCH  57  71
ATOM     71  C   UNL A   1      39.683  33.605  37.285  1.00  0.00    -0.014 A 
ATOM     72  C   UNL A   1      38.847  33.129  38.311  1.00  0.00     0.010 A 
ATOM     73  C   UNL A   1      40.255  34.884  37.409  1.00  0.00     0.010 A 
ATOM     74  C   UNL A   1      38.563  33.928  39.422  1.00  0.00     0.020 A 
ATOM     75  C   UNL A   1      39.999  35.674  38.532  1.00  0.00     0.020 A 
ATOM     76  C   UNL A   1      39.143  35.196  39.526  1.00  0.00     0.054 A 
BRANCH  76  77
ATOM     77  S   UNL A   1      38.786  36.198  40.995  1.00  0.00     0.124 S 
ATOM     78  O   UNL A   1      38.466  37.496  40.405  1.00  0.00    -0.237 OA
ATOM     79  O   UNL A   1      37.662  35.488  41.598  1.00  0.00    -0.237 OA
ATOM     80  O   UNL A   1      40.030  36.153  41.758  1.00  0.00    -0.744 OA
ENDBRANCH  76  77
ENDBRANCH  57  71
BRANCH  58  81
ATOM     81  C   UNL A   1      42.047  27.703  29.472  1.00  0.00    -0.014 A 
ATOM     82  C   UNL A   1      41.490  26.416  29.369  1.00  0.00     0.010 A 
ATOM     83  C   UNL A   1      42.921  28.148  28.462  1.00  0.00     0.010 A 
ATOM     84  C   UNL A   1      41.813  25.589  28.287  1.00  0.00     0.020 A 
ATOM     85  C   UNL A   1      43.222  27.337  27.364  1.00  0.00     0.020 A 
ATOM     86  C   UNL A   1      42.673  26.056  27.291  1.00  0.00     0.054 A 
BRANCH  86  87
ATOM     87  S   UNL A   1      43.037  24.982  25.873  1.00  0.00     0.124 S 
ATOM     88  O   UNL A   1      44.417  24.588  26.137  1.00  0.00    -0.237 OA
ATOM     89  O   UNL A   1      42.037  23.927  26.016  1.00  0.00    -0.237 OA
ATOM     90  O   UNL A   1      42.846  25.859  24.720  1.00  0.00    -0.744 OA
ENDBRANCH  86  87
ENDBRANCH  58  81
BRANCH  70  91
ATOM     91  C   UNL A   1      37.056  32.453  30.668  1.00  0.00    -0.014 A 
ATOM     92  C   UNL A   1      35.821  31.794  30.555  1.00  0.00     0.010 A 
ATOM     93  C   UNL A   1      37.233  33.699  30.037  1.00  0.00     0.010 A 
ATOM     94  C   UNL A   1      34.790  32.359  29.801  1.00  0.00     0.020 A 
ATOM     95  C   UNL A   1      36.194  34.284  29.311  1.00  0.00     0.020 A 
ATOM     96  C   UNL A   1      34.982  33.603  29.188  1.00  0.00     0.054 A 
BRANCH  96  97
ATOM     97  S   UNL A   1      33.607  34.341  28.266  1.00  0.00     0.124 S 
ATOM     98  O   UNL A   1      32.894  33.160  27.787  1.00  0.00    -0.237 OA
ATOM     99  O   UNL A   1      32.917  35.119  29.292  1.00  0.00    -0.237 OA
ATOM    100  O   UNL A   1      34.267  35.132  27.231  1.00  0.00    -0.744 OA
ENDBRANCH  96  97
ENDBRANCH  70  91
ENDBRANCH  44  45
ENDBRANCH  37  39
ENDBRANCH  36  37
ENDBRANCH  35  36
ENDBRANCH  34  35
ENDBRANCH  33  34
ENDBRANCH  32  33
ENDBRANCH  31  32
ENDBRANCH  30  31
ENDBRANCH   1  30
TORSDOF 28
ENDMDL
