MODEL 1
REMARK VINA RESULT:      -8.4      0.000      0.000
REMARK SMILES O=C(Cc1ccn(C(F)F)c(=O)c1)OCCOCCOCCOCCOC(=O)c1ccc(-c2c3nc(c(-c4ccc(S(=O)(=O)[O-])cc4)c4ccc([nH]4)c(-c4ccc(S(=O)(=O)[O-])cc4)c4nc(c(-c5ccc(S(=O)(=O)[O-])cc5)c5ccc2[nH]5)C=C4)C=C3)cc1
REMARK SMILES IDX 21 1 20 2 19 3 18 4 17 5 16 6 15 7 14 8 2 9 1 10 3 11 4 12
REMARK SMILES IDX 5 13 13 14 6 15 11 16 7 17 12 18 8 19 9 20 10 21 22 22 23 23
REMARK SMILES IDX 24 24 25 25 26 26 27 27 28 28 29 29 30 30 88 31 31 32 87 33
REMARK SMILES IDX 32 34 33 35 34 36 81 37 35 38 86 39 80 40 82 41 36 42 85 43
REMARK SMILES IDX 79 44 78 45 37 47 67 48 48 49 66 50 49 51 52 52 65 53 83 54
REMARK SMILES IDX 50 55 51 56 64 58 84 59 53 60 38 61 39 62 47 63 40 64 46 65
REMARK SMILES IDX 41 66 42 67 43 68 44 69 45 70 68 71 69 72 77 73 70 74 76 75
REMARK SMILES IDX 71 76 72 77 73 78 74 79 75 80 54 81 55 82 63 83 56 84 62 85
REMARK SMILES IDX 57 86 58 87 59 88 60 89 61 90
REMARK H PARENT 82 46 52 57
REMARK Flexibility Score: inf
ROOT
ATOM      1  C   UNL A   1      33.209  37.266  29.656  1.00  0.00     0.188 C 
ENDROOT
BRANCH   1   2
ATOM      2  O   UNL A   1      32.176  36.508  30.262  1.00  0.00    -0.377 OA
BRANCH   2   3
ATOM      3  C   UNL A   1      32.398  36.232  31.641  1.00  0.00     0.188 C 
BRANCH   3   4
ATOM      4  C   UNL A   1      33.845  35.864  31.968  1.00  0.00     0.188 C 
BRANCH   4   5
ATOM      5  O   UNL A   1      34.052  35.040  33.103  1.00  0.00    -0.376 OA
BRANCH   5   6
ATOM      6  C   UNL A   1      33.961  33.629  33.104  1.00  0.00     0.202 C 
BRANCH   6   7
ATOM      7  C   UNL A   1      34.874  32.709  32.292  1.00  0.00     0.261 C 
BRANCH   7   8
ATOM      8  O   UNL A   1      36.151  32.345  32.845  1.00  0.00    -0.463 OA
BRANCH   8   9
ATOM      9  C   UNL A   1      36.843  32.916  33.849  1.00  0.00     0.310 C 
ATOM     10  O   UNL A   1      36.810  32.412  34.969  1.00  0.00    -0.252 OA
BRANCH   9  11
ATOM     11  C   UNL A   1      37.534  34.246  33.624  1.00  0.00     0.158 C 
BRANCH  11  12
ATOM     12  C   UNL A   1      38.519  34.291  32.499  1.00  0.00    -0.030 A 
ATOM     13  C   UNL A   1      39.915  34.440  32.859  1.00  0.00     0.023 A 
ATOM     14  C   UNL A   1      38.167  34.251  31.204  1.00  0.00     0.076 A 
ATOM     15  C   UNL A   1      40.833  34.646  31.910  1.00  0.00     0.095 A 
ATOM     16  C   UNL A   1      39.188  34.419  30.136  1.00  0.00     0.255 A 
ATOM     17  N   UNL A   1      40.483  34.648  30.574  1.00  0.00    -0.258 N 
ATOM     18  O   UNL A   1      38.827  34.361  28.968  1.00  0.00    -0.269 OA
BRANCH  17  19
ATOM     19  C   UNL A   1      41.471  34.903  29.562  1.00  0.00     0.451 C 
ATOM     20  F   UNL A   1      41.902  33.751  28.994  1.00  0.00    -0.185 F 
ATOM     21  F   UNL A   1      40.970  35.699  28.589  1.00  0.00    -0.185 F 
ENDBRANCH  17  19
ENDBRANCH  11  12
ENDBRANCH   9  11
ENDBRANCH   8   9
ENDBRANCH   7   8
ENDBRANCH   6   7
ENDBRANCH   5   6
ENDBRANCH   4   5
ENDBRANCH   3   4
ENDBRANCH   2   3
ENDBRANCH   1   2
BRANCH   1  22
ATOM     22  C   UNL A   1      33.994  36.558  28.531  1.00  0.00     0.188 C 
BRANCH  22  23
ATOM     23  O   UNL A   1      34.374  35.190  28.616  1.00  0.00    -0.376 OA
BRANCH  23  24
ATOM     24  C   UNL A   1      33.392  34.171  28.703  1.00  0.00     0.202 C 
BRANCH  24  25
ATOM     25  C   UNL A   1      33.532  32.875  27.895  1.00  0.00     0.261 C 
BRANCH  25  26
ATOM     26  O   UNL A   1      34.775  32.186  28.065  1.00  0.00    -0.460 OA
BRANCH  26  27
ATOM     27  C   UNL A   1      34.791  30.887  27.685  1.00  0.00     0.338 C 
ATOM     28  O   UNL A   1      33.993  30.320  26.957  1.00  0.00    -0.246 OA
BRANCH  27  29
ATOM     29  C   UNL A   1      36.083  30.307  28.108  1.00  0.00     0.060 A 
ATOM     30  C   UNL A   1      37.145  30.177  27.210  1.00  0.00     0.016 A 
ATOM     31  C   UNL A   1      36.191  29.807  29.415  1.00  0.00     0.016 A 
ATOM     32  C   UNL A   1      38.326  29.561  27.627  1.00  0.00     0.010 A 
ATOM     33  C   UNL A   1      37.356  29.159  29.818  1.00  0.00     0.010 A 
ATOM     34  C   UNL A   1      38.440  29.056  28.935  1.00  0.00    -0.014 A 
BRANCH  34  35
ATOM     35  C   UNL A   1      39.761  28.644  29.456  1.00  0.00     0.031 A 
ATOM     36  C   UNL A   1      40.558  29.490  30.395  1.00  0.00     0.074 A 
ATOM     37  C   UNL A   1      40.246  27.469  29.013  1.00  0.00     0.049 A 
ATOM     38  N   UNL A   1      41.691  29.202  30.981  1.00  0.00    -0.248 NA
ATOM     39  C   UNL A   1      40.031  30.823  30.717  1.00  0.00     0.031 C 
ATOM     40  C   UNL A   1      39.546  26.587  28.077  1.00  0.00     0.029 A 
ATOM     41  N   UNL A   1      41.419  26.815  29.283  1.00  0.00    -0.354 N 
ATOM     42  C   UNL A   1      42.014  30.310  31.753  1.00  0.00     0.074 A 
ATOM     43  C   UNL A   1      40.971  31.291  31.532  1.00  0.00     0.031 C 
ATOM     44  C   UNL A   1      40.294  25.497  27.865  1.00  0.00     0.029 A 
ATOM     45  C   UNL A   1      41.535  25.613  28.627  1.00  0.00     0.049 A 
ATOM     46  H   UNL A   1      42.110  27.171  29.887  1.00  0.00     0.167 HD
ATOM     47  C   UNL A   1      43.081  30.474  32.571  1.00  0.00     0.031 A 
ATOM     48  C   UNL A   1      42.521  24.696  28.637  1.00  0.00     0.031 A 
ATOM     49  C   UNL A   1      44.112  29.481  32.756  1.00  0.00     0.049 A 
ATOM     50  C   UNL A   1      43.707  24.913  29.527  1.00  0.00     0.074 A 
ATOM     51  C   UNL A   1      45.186  29.520  33.628  1.00  0.00     0.029 A 
ATOM     52  N   UNL A   1      44.221  28.292  32.046  1.00  0.00    -0.354 N 
ATOM     53  N   UNL A   1      43.943  25.914  30.340  1.00  0.00    -0.248 NA
ATOM     54  C   UNL A   1      44.751  23.881  29.520  1.00  0.00     0.031 C 
ATOM     55  C   UNL A   1      45.991  28.406  33.381  1.00  0.00     0.029 A 
ATOM     56  C   UNL A   1      45.374  27.620  32.419  1.00  0.00     0.049 A 
ATOM     57  H   UNL A   1      43.574  27.973  31.377  1.00  0.00     0.167 HD
ATOM     58  C   UNL A   1      45.154  25.627  30.957  1.00  0.00     0.074 A 
ATOM     59  C   UNL A   1      45.598  24.352  30.428  1.00  0.00     0.031 C 
ATOM     60  C   UNL A   1      45.825  26.357  31.879  1.00  0.00     0.031 A 
BRANCH  47  61
ATOM     61  C   UNL A   1      43.214  31.764  33.341  1.00  0.00    -0.014 A 
ATOM     62  C   UNL A   1      42.440  31.967  34.501  1.00  0.00     0.010 A 
ATOM     63  C   UNL A   1      43.991  32.829  32.850  1.00  0.00     0.010 A 
ATOM     64  C   UNL A   1      42.417  33.211  35.135  1.00  0.00     0.020 A 
ATOM     65  C   UNL A   1      43.993  34.068  33.500  1.00  0.00     0.020 A 
ATOM     66  C   UNL A   1      43.189  34.257  34.626  1.00  0.00     0.054 A 
BRANCH  66  67
ATOM     67  S   UNL A   1      43.132  35.871  35.453  1.00  0.00     0.124 S 
ATOM     68  O   UNL A   1      44.543  36.243  35.501  1.00  0.00    -0.237 OA
ATOM     69  O   UNL A   1      42.301  36.662  34.548  1.00  0.00    -0.237 OA
ATOM     70  O   UNL A   1      42.520  35.570  36.746  1.00  0.00    -0.744 OA
ENDBRANCH  66  67
ENDBRANCH  47  61
BRANCH  48  71
ATOM     71  C   UNL A   1      42.341  23.471  27.814  1.00  0.00    -0.014 A 
ATOM     72  C   UNL A   1      41.730  22.331  28.373  1.00  0.00     0.010 A 
ATOM     73  C   UNL A   1      42.954  23.375  26.555  1.00  0.00     0.010 A 
ATOM     74  C   UNL A   1      41.817  21.096  27.726  1.00  0.00     0.020 A 
ATOM     75  C   UNL A   1      43.017  22.146  25.893  1.00  0.00     0.020 A 
ATOM     76  C   UNL A   1      42.485  21.007  26.503  1.00  0.00     0.054 A 
BRANCH  76  77
ATOM     77  S   UNL A   1      42.710  19.370  25.755  1.00  0.00     0.124 S 
ATOM     78  O   UNL A   1      43.238  18.599  26.877  1.00  0.00    -0.237 OA
ATOM     79  O   UNL A   1      41.355  19.024  25.335  1.00  0.00    -0.237 OA
ATOM     80  O   UNL A   1      43.653  19.617  24.667  1.00  0.00    -0.744 OA
ENDBRANCH  76  77
ENDBRANCH  48  71
BRANCH  60  81
ATOM     81  C   UNL A   1      47.144  25.834  32.391  1.00  0.00    -0.014 A 
ATOM     82  C   UNL A   1      48.310  26.012  31.621  1.00  0.00     0.010 A 
ATOM     83  C   UNL A   1      47.194  25.010  33.529  1.00  0.00     0.010 A 
ATOM     84  C   UNL A   1      49.481  25.322  31.939  1.00  0.00     0.020 A 
ATOM     85  C   UNL A   1      48.374  24.341  33.867  1.00  0.00     0.020 A 
ATOM     86  C   UNL A   1      49.499  24.474  33.049  1.00  0.00     0.054 A 
BRANCH  86  87
ATOM     87  S   UNL A   1      50.999  23.509  33.384  1.00  0.00     0.124 S 
ATOM     88  O   UNL A   1      51.869  24.502  34.009  1.00  0.00    -0.237 OA
ATOM     89  O   UNL A   1      50.510  22.454  34.268  1.00  0.00    -0.237 OA
ATOM     90  O   UNL A   1      51.420  23.056  32.060  1.00  0.00    -0.744 OA
ENDBRANCH  86  87
ENDBRANCH  60  81
ENDBRANCH  34  35
ENDBRANCH  27  29
ENDBRANCH  26  27
ENDBRANCH  25  26
ENDBRANCH  24  25
ENDBRANCH  23  24
ENDBRANCH  22  23
ENDBRANCH   1  22
TORSDOF 25
ENDMDL
MODEL 2
REMARK VINA RESULT:      -7.6      1.559      2.073
REMARK SMILES O=C(Cc1ccn(C(F)F)c(=O)c1)OCCOCCOCCOCCOC(=O)c1ccc(-c2c3nc(c(-c4ccc(S(=O)(=O)[O-])cc4)c4ccc([nH]4)c(-c4ccc(S(=O)(=O)[O-])cc4)c4nc(c(-c5ccc(S(=O)(=O)[O-])cc5)c5ccc2[nH]5)C=C4)C=C3)cc1
REMARK SMILES IDX 21 1 20 2 19 3 18 4 17 5 16 6 15 7 14 8 2 9 1 10 3 11 4 12
REMARK SMILES IDX 5 13 13 14 6 15 11 16 7 17 12 18 8 19 9 20 10 21 22 22 23 23
REMARK SMILES IDX 24 24 25 25 26 26 27 27 28 28 29 29 30 30 88 31 31 32 87 33
REMARK SMILES IDX 32 34 33 35 34 36 81 37 35 38 86 39 80 40 82 41 36 42 85 43
REMARK SMILES IDX 79 44 78 45 37 47 67 48 48 49 66 50 49 51 52 52 65 53 83 54
REMARK SMILES IDX 50 55 51 56 64 58 84 59 53 60 38 61 39 62 47 63 40 64 46 65
REMARK SMILES IDX 41 66 42 67 43 68 44 69 45 70 68 71 69 72 77 73 70 74 76 75
REMARK SMILES IDX 71 76 72 77 73 78 74 79 75 80 54 81 55 82 63 83 56 84 62 85
REMARK SMILES IDX 57 86 58 87 59 88 60 89 61 90
REMARK H PARENT 82 46 52 57
REMARK Flexibility Score: inf
ROOT
ATOM      1  C   UNL A   1      33.293  37.134  29.753  1.00  0.00     0.188 C 
ENDROOT
BRANCH   1   2
ATOM      2  O   UNL A   1      32.338  36.400  30.501  1.00  0.00    -0.377 OA
BRANCH   2   3
ATOM      3  C   UNL A   1      32.450  36.578  31.908  1.00  0.00     0.188 C 
BRANCH   3   4
ATOM      4  C   UNL A   1      33.844  37.009  32.364  1.00  0.00     0.188 C 
BRANCH   4   5
ATOM      5  O   UNL A   1      34.252  36.588  33.655  1.00  0.00    -0.376 OA
BRANCH   5   6
ATOM      6  C   UNL A   1      34.737  35.297  33.967  1.00  0.00     0.202 C 
BRANCH   6   7
ATOM      7  C   UNL A   1      34.772  34.131  32.979  1.00  0.00     0.261 C 
BRANCH   7   8
ATOM      8  O   UNL A   1      35.958  33.318  32.915  1.00  0.00    -0.463 OA
BRANCH   8   9
ATOM      9  C   UNL A   1      36.921  33.135  33.839  1.00  0.00     0.310 C 
ATOM     10  O   UNL A   1      36.891  32.135  34.552  1.00  0.00    -0.252 OA
BRANCH   9  11
ATOM     11  C   UNL A   1      37.942  34.227  34.088  1.00  0.00     0.158 C 
BRANCH  11  12
ATOM     12  C   UNL A   1      38.937  34.455  32.994  1.00  0.00    -0.030 A 
ATOM     13  C   UNL A   1      38.414  34.546  31.644  1.00  0.00     0.023 A 
ATOM     14  C   UNL A   1      40.262  34.525  33.199  1.00  0.00     0.076 A 
ATOM     15  C   UNL A   1      39.251  34.589  30.604  1.00  0.00     0.095 A 
ATOM     16  C   UNL A   1      41.201  34.635  32.052  1.00  0.00     0.255 A 
ATOM     17  N   UNL A   1      40.618  34.622  30.795  1.00  0.00    -0.258 N 
ATOM     18  O   UNL A   1      42.401  34.712  32.285  1.00  0.00    -0.269 OA
BRANCH  17  19
ATOM     19  C   UNL A   1      41.512  34.637  29.669  1.00  0.00     0.451 C 
ATOM     20  F   UNL A   1      42.080  33.422  29.477  1.00  0.00    -0.185 F 
ATOM     21  F   UNL A   1      40.857  34.988  28.538  1.00  0.00    -0.185 F 
ENDBRANCH  17  19
ENDBRANCH  11  12
ENDBRANCH   9  11
ENDBRANCH   8   9
ENDBRANCH   7   8
ENDBRANCH   6   7
ENDBRANCH   5   6
ENDBRANCH   4   5
ENDBRANCH   3   4
ENDBRANCH   2   3
ENDBRANCH   1   2
BRANCH   1  22
ATOM     22  C   UNL A   1      34.131  36.317  28.746  1.00  0.00     0.188 C 
BRANCH  22  23
ATOM     23  O   UNL A   1      34.177  34.897  28.771  1.00  0.00    -0.376 OA
BRANCH  23  24
ATOM     24  C   UNL A   1      33.086  34.129  28.288  1.00  0.00     0.202 C 
BRANCH  24  25
ATOM     25  C   UNL A   1      33.315  32.748  27.663  1.00  0.00     0.261 C 
BRANCH  25  26
ATOM     26  O   UNL A   1      34.528  32.098  28.058  1.00  0.00    -0.460 OA
BRANCH  26  27
ATOM     27  C   UNL A   1      34.669  30.811  27.660  1.00  0.00     0.338 C 
ATOM     28  O   UNL A   1      33.981  30.207  26.854  1.00  0.00    -0.246 OA
BRANCH  27  29
ATOM     29  C   UNL A   1      35.955  30.313  28.189  1.00  0.00     0.060 A 
ATOM     30  C   UNL A   1      37.140  30.460  27.463  1.00  0.00     0.016 A 
ATOM     31  C   UNL A   1      35.947  29.605  29.401  1.00  0.00     0.016 A 
ATOM     32  C   UNL A   1      38.324  29.914  27.964  1.00  0.00     0.010 A 
ATOM     33  C   UNL A   1      37.121  29.029  29.879  1.00  0.00     0.010 A 
ATOM     34  C   UNL A   1      38.322  29.203  29.177  1.00  0.00    -0.014 A 
BRANCH  34  35
ATOM     35  C   UNL A   1      39.600  28.855  29.832  1.00  0.00     0.031 A 
ATOM     36  C   UNL A   1      40.099  29.556  31.054  1.00  0.00     0.074 A 
ATOM     37  C   UNL A   1      40.332  27.885  29.252  1.00  0.00     0.049 A 
ATOM     38  N   UNL A   1      41.164  29.288  31.763  1.00  0.00    -0.248 NA
ATOM     39  C   UNL A   1      39.318  30.701  31.543  1.00  0.00     0.031 C 
ATOM     40  C   UNL A   1      39.934  27.161  28.044  1.00  0.00     0.029 A 
ATOM     41  N   UNL A   1      41.544  27.342  29.589  1.00  0.00    -0.354 N 
ATOM     42  C   UNL A   1      41.183  30.220  32.791  1.00  0.00     0.074 A 
ATOM     43  C   UNL A   1      40.037  31.085  32.592  1.00  0.00     0.031 C 
ATOM     44  C   UNL A   1      40.874  26.253  27.751  1.00  0.00     0.029 A 
ATOM     45  C   UNL A   1      41.952  26.349  28.732  1.00  0.00     0.049 A 
ATOM     46  H   UNL A   1      42.069  27.635  30.369  1.00  0.00     0.167 HD
ATOM     47  C   UNL A   1      42.075  30.326  33.805  1.00  0.00     0.031 A 
ATOM     48  C   UNL A   1      43.063  25.588  28.731  1.00  0.00     0.031 A 
ATOM     49  C   UNL A   1      43.217  29.457  33.965  1.00  0.00     0.049 A 
ATOM     50  C   UNL A   1      44.052  25.743  29.846  1.00  0.00     0.074 A 
ATOM     51  C   UNL A   1      44.129  29.431  35.006  1.00  0.00     0.029 A 
ATOM     52  N   UNL A   1      43.624  28.488  33.057  1.00  0.00    -0.354 N 
ATOM     53  N   UNL A   1      43.997  26.552  30.876  1.00  0.00    -0.248 NA
ATOM     54  C   UNL A   1      45.240  24.883  29.816  1.00  0.00     0.031 C 
ATOM     55  C   UNL A   1      45.134  28.517  34.685  1.00  0.00     0.029 A 
ATOM     56  C   UNL A   1      44.804  27.901  33.486  1.00  0.00     0.049 A 
ATOM     57  H   UNL A   1      43.144  28.252  32.231  1.00  0.00     0.167 HD
ATOM     58  C   UNL A   1      45.133  26.288  31.630  1.00  0.00     0.074 A 
ATOM     59  C   UNL A   1      45.855  25.237  30.940  1.00  0.00     0.031 C 
ATOM     60  C   UNL A   1      45.531  26.865  32.789  1.00  0.00     0.031 A 
BRANCH  47  61
ATOM     61  C   UNL A   1      41.879  31.410  34.835  1.00  0.00    -0.014 A 
ATOM     62  C   UNL A   1      42.713  32.546  34.819  1.00  0.00     0.010 A 
ATOM     63  C   UNL A   1      40.974  31.249  35.899  1.00  0.00     0.010 A 
ATOM     64  C   UNL A   1      42.667  33.481  35.856  1.00  0.00     0.020 A 
ATOM     65  C   UNL A   1      40.904  32.199  36.925  1.00  0.00     0.020 A 
ATOM     66  C   UNL A   1      41.767  33.297  36.907  1.00  0.00     0.054 A 
BRANCH  66  67
ATOM     67  S   UNL A   1      41.734  34.513  38.255  1.00  0.00     0.124 S 
ATOM     68  O   UNL A   1      43.064  35.107  38.167  1.00  0.00    -0.237 OA
ATOM     69  O   UNL A   1      40.626  35.383  37.869  1.00  0.00    -0.237 OA
ATOM     70  O   UNL A   1      41.490  33.697  39.443  1.00  0.00    -0.744 OA
ENDBRANCH  66  67
ENDBRANCH  47  61
BRANCH  48  71
ATOM     71  C   UNL A   1      43.211  24.573  27.655  1.00  0.00    -0.014 A 
ATOM     72  C   UNL A   1      43.223  23.201  27.977  1.00  0.00     0.010 A 
ATOM     73  C   UNL A   1      43.538  24.975  26.351  1.00  0.00     0.010 A 
ATOM     74  C   UNL A   1      43.651  22.260  27.038  1.00  0.00     0.020 A 
ATOM     75  C   UNL A   1      43.939  24.032  25.400  1.00  0.00     0.020 A 
ATOM     76  C   UNL A   1      44.033  22.686  25.764  1.00  0.00     0.054 A 
BRANCH  76  77
ATOM     77  S   UNL A   1      44.720  21.466  24.611  1.00  0.00     0.124 S 
ATOM     78  O   UNL A   1      46.095  21.344  25.090  1.00  0.00    -0.237 OA
ATOM     79  O   UNL A   1      43.869  20.301  24.837  1.00  0.00    -0.237 OA
ATOM     80  O   UNL A   1      44.567  22.103  23.306  1.00  0.00    -0.744 OA
ENDBRANCH  76  77
ENDBRANCH  48  71
BRANCH  60  81
ATOM     81  C   UNL A   1      46.828  26.411  33.412  1.00  0.00    -0.014 A 
ATOM     82  C   UNL A   1      46.801  25.531  34.511  1.00  0.00     0.010 A 
ATOM     83  C   UNL A   1      48.047  26.999  33.034  1.00  0.00     0.010 A 
ATOM     84  C   UNL A   1      47.955  25.301  35.263  1.00  0.00     0.020 A 
ATOM     85  C   UNL A   1      49.211  26.747  33.767  1.00  0.00     0.020 A 
ATOM     86  C   UNL A   1      49.149  25.929  34.898  1.00  0.00     0.054 A 
BRANCH  86  87
ATOM     87  S   UNL A   1      50.611  25.697  35.947  1.00  0.00     0.124 S 
ATOM     88  O   UNL A   1      51.694  25.688  34.968  1.00  0.00    -0.237 OA
ATOM     89  O   UNL A   1      50.564  26.865  36.824  1.00  0.00    -0.237 OA
ATOM     90  O   UNL A   1      50.360  24.419  36.610  1.00  0.00    -0.744 OA
ENDBRANCH  86  87
ENDBRANCH  60  81
ENDBRANCH  34  35
ENDBRANCH  27  29
ENDBRANCH  26  27
ENDBRANCH  25  26
ENDBRANCH  24  25
ENDBRANCH  23  24
ENDBRANCH  22  23
ENDBRANCH   1  22
TORSDOF 25
ENDMDL
MODEL 3
REMARK VINA RESULT:      -7.6      5.084     11.274
REMARK SMILES O=C(Cc1ccn(C(F)F)c(=O)c1)OCCOCCOCCOCCOC(=O)c1ccc(-c2c3nc(c(-c4ccc(S(=O)(=O)[O-])cc4)c4ccc([nH]4)c(-c4ccc(S(=O)(=O)[O-])cc4)c4nc(c(-c5ccc(S(=O)(=O)[O-])cc5)c5ccc2[nH]5)C=C4)C=C3)cc1
REMARK SMILES IDX 21 1 20 2 19 3 18 4 17 5 16 6 15 7 14 8 2 9 1 10 3 11 4 12
REMARK SMILES IDX 5 13 13 14 6 15 11 16 7 17 12 18 8 19 9 20 10 21 22 22 23 23
REMARK SMILES IDX 24 24 25 25 26 26 27 27 28 28 29 29 30 30 88 31 31 32 87 33
REMARK SMILES IDX 32 34 33 35 34 36 81 37 35 38 86 39 80 40 82 41 36 42 85 43
REMARK SMILES IDX 79 44 78 45 37 47 67 48 48 49 66 50 49 51 52 52 65 53 83 54
REMARK SMILES IDX 50 55 51 56 64 58 84 59 53 60 38 61 39 62 47 63 40 64 46 65
REMARK SMILES IDX 41 66 42 67 43 68 44 69 45 70 68 71 69 72 77 73 70 74 76 75
REMARK SMILES IDX 71 76 72 77 73 78 74 79 75 80 54 81 55 82 63 83 56 84 62 85
REMARK SMILES IDX 57 86 58 87 59 88 60 89 61 90
REMARK H PARENT 82 46 52 57
REMARK Flexibility Score: inf
ROOT
ATOM      1  C   UNL A   1      32.665  28.708  23.509  1.00  0.00     0.188 C 
ENDROOT
BRANCH   1   2
ATOM      2  O   UNL A   1      31.489  28.798  22.723  1.00  0.00    -0.377 OA
BRANCH   2   3
ATOM      3  C   UNL A   1      30.778  27.570  22.609  1.00  0.00     0.188 C 
BRANCH   3   4
ATOM      4  C   UNL A   1      29.529  27.499  23.488  1.00  0.00     0.188 C 
BRANCH   4   5
ATOM      5  O   UNL A   1      29.606  26.677  24.639  1.00  0.00    -0.376 OA
BRANCH   5   6
ATOM      6  C   UNL A   1      30.772  26.007  25.078  1.00  0.00     0.202 C 
BRANCH   6   7
ATOM      7  C   UNL A   1      31.474  24.902  24.289  1.00  0.00     0.261 C 
BRANCH   7   8
ATOM      8  O   UNL A   1      30.960  23.560  24.377  1.00  0.00    -0.463 OA
BRANCH   8   9
ATOM      9  C   UNL A   1      31.346  22.548  25.177  1.00  0.00     0.310 C 
ATOM     10  O   UNL A   1      31.099  22.601  26.380  1.00  0.00    -0.252 OA
BRANCH   9  11
ATOM     11  C   UNL A   1      32.200  21.429  24.615  1.00  0.00     0.158 C 
BRANCH  11  12
ATOM     12  C   UNL A   1      33.679  21.653  24.652  1.00  0.00    -0.030 A 
ATOM     13  C   UNL A   1      34.380  21.189  25.833  1.00  0.00     0.023 A 
ATOM     14  C   UNL A   1      34.356  22.293  23.685  1.00  0.00     0.076 A 
ATOM     15  C   UNL A   1      35.668  21.493  26.010  1.00  0.00     0.095 A 
ATOM     16  C   UNL A   1      35.806  22.584  23.843  1.00  0.00     0.255 A 
ATOM     17  N   UNL A   1      36.372  22.185  25.044  1.00  0.00    -0.258 N 
ATOM     18  O   UNL A   1      36.389  23.156  22.931  1.00  0.00    -0.269 OA
BRANCH  17  19
ATOM     19  C   UNL A   1      37.750  22.536  25.255  1.00  0.00     0.451 C 
ATOM     20  F   UNL A   1      37.864  23.758  25.827  1.00  0.00    -0.185 F 
ATOM     21  F   UNL A   1      38.360  21.630  26.054  1.00  0.00    -0.185 F 
ENDBRANCH  17  19
ENDBRANCH  11  12
ENDBRANCH   9  11
ENDBRANCH   8   9
ENDBRANCH   7   8
ENDBRANCH   6   7
ENDBRANCH   5   6
ENDBRANCH   4   5
ENDBRANCH   3   4
ENDBRANCH   2   3
ENDBRANCH   1   2
BRANCH   1  22
ATOM     22  C   UNL A   1      32.731  29.648  24.732  1.00  0.00     0.188 C 
BRANCH  22  23
ATOM     23  O   UNL A   1      31.868  29.497  25.852  1.00  0.00    -0.376 OA
BRANCH  23  24
ATOM     24  C   UNL A   1      32.073  30.260  27.030  1.00  0.00     0.202 C 
BRANCH  24  25
ATOM     25  C   UNL A   1      32.196  31.787  26.964  1.00  0.00     0.261 C 
BRANCH  25  26
ATOM     26  O   UNL A   1      33.521  32.297  27.143  1.00  0.00    -0.460 OA
BRANCH  26  27
ATOM     27  C   UNL A   1      33.652  33.314  28.027  1.00  0.00     0.338 C 
ATOM     28  O   UNL A   1      32.870  34.229  28.222  1.00  0.00    -0.246 OA
BRANCH  27  29
ATOM     29  C   UNL A   1      34.803  33.008  28.902  1.00  0.00     0.060 A 
ATOM     30  C   UNL A   1      34.661  32.177  30.017  1.00  0.00     0.016 A 
ATOM     31  C   UNL A   1      36.026  33.643  28.639  1.00  0.00     0.016 A 
ATOM     32  C   UNL A   1      35.755  31.967  30.860  1.00  0.00     0.010 A 
ATOM     33  C   UNL A   1      37.105  33.462  29.501  1.00  0.00     0.010 A 
ATOM     34  C   UNL A   1      36.983  32.602  30.602  1.00  0.00    -0.014 A 
BRANCH  34  35
ATOM     35  C   UNL A   1      38.199  32.182  31.330  1.00  0.00     0.031 A 
ATOM     36  C   UNL A   1      39.183  31.209  30.766  1.00  0.00     0.074 A 
ATOM     37  C   UNL A   1      38.372  32.694  32.564  1.00  0.00     0.049 A 
ATOM     38  N   UNL A   1      40.324  30.825  31.276  1.00  0.00    -0.248 NA
ATOM     39  C   UNL A   1      38.852  30.582  29.479  1.00  0.00     0.031 C 
ATOM     40  C   UNL A   1      37.450  33.634  33.204  1.00  0.00     0.029 A 
ATOM     41  N   UNL A   1      39.363  32.506  33.490  1.00  0.00    -0.354 N 
ATOM     42  C   UNL A   1      40.860  29.918  30.371  1.00  0.00     0.074 A 
ATOM     43  C   UNL A   1      39.898  29.784  29.295  1.00  0.00     0.031 C 
ATOM     44  C   UNL A   1      37.929  33.958  34.412  1.00  0.00     0.029 A 
ATOM     45  C   UNL A   1      39.174  33.230  34.643  1.00  0.00     0.049 A 
ATOM     46  H   UNL A   1      40.134  31.912  33.344  1.00  0.00     0.167 HD
ATOM     47  C   UNL A   1      42.048  29.273  30.442  1.00  0.00     0.031 A 
ATOM     48  C   UNL A   1      39.918  33.312  35.762  1.00  0.00     0.031 A 
ATOM     49  C   UNL A   1      42.977  29.416  31.538  1.00  0.00     0.049 A 
ATOM     50  C   UNL A   1      41.215  32.566  35.831  1.00  0.00     0.074 A 
ATOM     51  C   UNL A   1      44.243  28.871  31.659  1.00  0.00     0.029 A 
ATOM     52  N   UNL A   1      42.737  30.125  32.708  1.00  0.00    -0.354 N 
ATOM     53  N   UNL A   1      41.764  31.802  34.917  1.00  0.00    -0.248 NA
ATOM     54  C   UNL A   1      42.003  32.697  37.062  1.00  0.00     0.031 C 
ATOM     55  C   UNL A   1      44.729  29.170  32.933  1.00  0.00     0.029 A 
ATOM     56  C   UNL A   1      43.807  29.982  33.577  1.00  0.00     0.049 A 
ATOM     57  H   UNL A   1      41.927  30.653  32.892  1.00  0.00     0.167 HD
ATOM     58  C   UNL A   1      42.972  31.374  35.454  1.00  0.00     0.074 A 
ATOM     59  C   UNL A   1      43.076  31.971  36.771  1.00  0.00     0.031 C 
ATOM     60  C   UNL A   1      43.903  30.564  34.897  1.00  0.00     0.031 A 
BRANCH  47  61
ATOM     61  C   UNL A   1      42.440  28.346  29.318  1.00  0.00    -0.014 A 
ATOM     62  C   UNL A   1      43.090  28.865  28.180  1.00  0.00     0.010 A 
ATOM     63  C   UNL A   1      42.045  26.996  29.316  1.00  0.00     0.010 A 
ATOM     64  C   UNL A   1      43.311  28.064  27.057  1.00  0.00     0.020 A 
ATOM     65  C   UNL A   1      42.292  26.183  28.204  1.00  0.00     0.020 A 
ATOM     66  C   UNL A   1      42.904  26.729  27.073  1.00  0.00     0.054 A 
BRANCH  66  67
ATOM     67  S   UNL A   1      43.183  25.710  25.598  1.00  0.00     0.124 S 
ATOM     68  O   UNL A   1      42.767  24.388  26.054  1.00  0.00    -0.237 OA
ATOM     69  O   UNL A   1      42.314  26.340  24.607  1.00  0.00    -0.237 OA
ATOM     70  O   UNL A   1      44.615  25.862  25.346  1.00  0.00    -0.744 OA
ENDBRANCH  66  67
ENDBRANCH  47  61
BRANCH  48  71
ATOM     71  C   UNL A   1      39.443  34.210  36.848  1.00  0.00    -0.014 A 
ATOM     72  C   UNL A   1      39.858  35.556  36.883  1.00  0.00     0.010 A 
ATOM     73  C   UNL A   1      38.750  33.676  37.947  1.00  0.00     0.010 A 
ATOM     74  C   UNL A   1      39.670  36.323  38.034  1.00  0.00     0.020 A 
ATOM     75  C   UNL A   1      38.535  34.452  39.090  1.00  0.00     0.020 A 
ATOM     76  C   UNL A   1      39.034  35.756  39.140  1.00  0.00     0.054 A 
BRANCH  76  77
ATOM     77  S   UNL A   1      38.928  36.724  40.671  1.00  0.00     0.124 S 
ATOM     78  O   UNL A   1      40.316  36.715  41.126  1.00  0.00    -0.237 OA
ATOM     79  O   UNL A   1      38.429  38.012  40.199  1.00  0.00    -0.237 OA
ATOM     80  O   UNL A   1      37.995  35.961  41.496  1.00  0.00    -0.744 OA
ENDBRANCH  76  77
ENDBRANCH  48  71
BRANCH  60  81
ATOM     81  C   UNL A   1      45.137  30.229  35.697  1.00  0.00    -0.014 A 
ATOM     82  C   UNL A   1      45.130  29.110  36.552  1.00  0.00     0.010 A 
ATOM     83  C   UNL A   1      46.223  31.121  35.744  1.00  0.00     0.010 A 
ATOM     84  C   UNL A   1      46.151  28.927  37.487  1.00  0.00     0.020 A 
ATOM     85  C   UNL A   1      47.261  30.923  36.659  1.00  0.00     0.020 A 
ATOM     86  C   UNL A   1      47.200  29.848  37.549  1.00  0.00     0.054 A 
BRANCH  86  87
ATOM     87  S   UNL A   1      48.461  29.647  38.838  1.00  0.00     0.124 S 
ATOM     88  O   UNL A   1      49.658  29.356  38.055  1.00  0.00    -0.237 OA
ATOM     89  O   UNL A   1      48.444  30.945  39.506  1.00  0.00    -0.237 OA
ATOM     90  O   UNL A   1      47.957  28.535  39.642  1.00  0.00    -0.744 OA
ENDBRANCH  86  87
ENDBRANCH  60  81
ENDBRANCH  34  35
ENDBRANCH  27  29
ENDBRANCH  26  27
ENDBRANCH  25  26
ENDBRANCH  24  25
ENDBRANCH  23  24
ENDBRANCH  22  23
ENDBRANCH   1  22
TORSDOF 25
ENDMDL
