MODEL 1
REMARK VINA RESULT:      -9.5      0.000      0.000
REMARK SMILES COc1ccc(S(=O)(=O)N[C@@H](CO)C(=O)OCCOCCOCCOCCOC(=O)c2ccc(-c3c4nc(c(-c5ccc(S(=O)(=O)[O-])cc5)c5ccc([nH]5)c(-c5ccc(S(=O)(=O)[O-])cc5)c5nc(c(-c6ccc(S(=O)(=O)[O-])cc6)c6ccc3[nH]6)C=C5)C=C4)cc2)cc1C
REMARK SMILES IDX 21 1 20 2 19 3 18 4 17 5 16 6 14 7 15 8 11 9 10 10 7 12 8 13
REMARK SMILES IDX 9 14 6 15 3 16 4 17 92 18 5 19 91 20 93 21 2 22 1 23 12 24
REMARK SMILES IDX 13 25 22 27 23 28 24 29 25 30 26 31 27 32 28 33 29 34 30 35
REMARK SMILES IDX 31 36 32 37 90 38 33 39 89 40 34 41 35 42 36 43 83 44 37 45
REMARK SMILES IDX 88 46 82 47 84 48 38 49 87 50 81 51 80 52 39 54 69 55 50 56
REMARK SMILES IDX 68 57 51 58 54 59 67 60 85 61 52 62 53 63 66 65 86 66 55 67
REMARK SMILES IDX 40 68 41 69 49 70 42 71 48 72 43 73 44 74 45 75 46 76 47 77
REMARK SMILES IDX 70 78 71 79 79 80 72 81 78 82 73 83 74 84 75 85 76 86 77 87
REMARK SMILES IDX 56 88 57 89 65 90 58 91 64 92 59 93 60 94 61 95 62 96 63 97
REMARK H PARENT 10 11 13 26 84 53 54 64
REMARK Flexibility Score: inf
ROOT
ATOM      1  C   UNL A   1      32.602  26.078  26.589  1.00  0.00     0.188 C 
ENDROOT
BRANCH   1   2
ATOM      2  C   UNL A   1      31.226  25.908  25.933  1.00  0.00     0.188 C 
BRANCH   2   3
ATOM      3  O   UNL A   1      30.347  26.986  25.703  1.00  0.00    -0.376 OA
BRANCH   3   4
ATOM      4  C   UNL A   1      30.271  27.367  24.328  1.00  0.00     0.202 C 
BRANCH   4   5
ATOM      5  C   UNL A   1      31.200  28.481  23.818  1.00  0.00     0.261 C 
BRANCH   5   6
ATOM      6  O   UNL A   1      31.719  28.184  22.503  1.00  0.00    -0.462 OA
BRANCH   6   7
ATOM      7  C   UNL A   1      33.006  27.759  22.442  1.00  0.00     0.326 C 
ATOM      8  O   UNL A   1      33.958  28.317  22.974  1.00  0.00    -0.250 OA
BRANCH   7   9
ATOM      9  C   UNL A   1      33.136  26.425  21.722  1.00  0.00     0.205 C 
BRANCH   9  10
ATOM     10  N   UNL A   1      33.791  25.359  22.530  1.00  0.00    -0.194 NA
ATOM     11  H   UNL A   1      34.764  25.317  22.231  1.00  0.00     0.142 HD
BRANCH  10  12
ATOM     12  S   UNL A   1      33.203  23.793  22.481  1.00  0.00     0.241 S 
ATOM     13  O   UNL A   1      33.285  23.376  21.100  1.00  0.00    -0.207 OA
ATOM     14  O   UNL A   1      31.960  23.747  23.218  1.00  0.00    -0.207 OA
BRANCH  12  15
ATOM     15  C   UNL A   1      34.408  22.853  23.402  1.00  0.00     0.083 A 
ATOM     16  C   UNL A   1      36.249  21.914  25.297  1.00  0.00     0.121 A 
ATOM     17  C   UNL A   1      36.667  22.438  24.056  1.00  0.00     0.048 A 
ATOM     18  C   UNL A   1      34.891  21.868  25.600  1.00  0.00    -0.008 A 
ATOM     19  C   UNL A   1      35.756  22.934  23.115  1.00  0.00     0.025 A 
ATOM     20  C   UNL A   1      34.007  22.255  24.590  1.00  0.00     0.029 A 
ATOM     21  C   UNL A   1      34.311  21.550  26.953  1.00  0.00     0.048 C 
BRANCH  16  22
ATOM     22  O   UNL A   1      37.275  21.585  26.140  1.00  0.00    -0.496 OA
ATOM     23  C   UNL A   1      38.561  21.460  25.543  1.00  0.00     0.278 C 
ENDBRANCH  16  22
ENDBRANCH  12  15
ENDBRANCH  10  12
ENDBRANCH   9  10
BRANCH   9  24
ATOM     24  C   UNL A   1      31.799  25.960  21.146  1.00  0.00     0.188 C 
BRANCH  24  25
ATOM     25  O   UNL A   1      31.800  25.915  19.720  1.00  0.00    -0.394 OA
ATOM     26  H   UNL A   1      32.309  26.664  19.374  1.00  0.00     0.210 HD
ENDBRANCH  24  25
ENDBRANCH   9  24
ENDBRANCH   7   9
ENDBRANCH   6   7
ENDBRANCH   5   6
ENDBRANCH   4   5
ENDBRANCH   3   4
ENDBRANCH   2   3
ENDBRANCH   1   2
BRANCH   1  27
ATOM     27  O   UNL A   1      33.344  27.203  26.178  1.00  0.00    -0.377 OA
BRANCH  27  28
ATOM     28  C   UNL A   1      33.274  28.366  27.024  1.00  0.00     0.188 C 
BRANCH  28  29
ATOM     29  C   UNL A   1      34.327  29.460  26.878  1.00  0.00     0.188 C 
BRANCH  29  30
ATOM     30  O   UNL A   1      33.860  30.601  27.604  1.00  0.00    -0.376 OA
BRANCH  30  31
ATOM     31  C   UNL A   1      34.849  31.407  28.218  1.00  0.00     0.202 C 
BRANCH  31  32
ATOM     32  C   UNL A   1      36.248  30.806  28.124  1.00  0.00     0.261 C 
BRANCH  32  33
ATOM     33  O   UNL A   1      36.861  30.711  29.430  1.00  0.00    -0.460 OA
BRANCH  33  34
ATOM     34  C   UNL A   1      37.678  29.637  29.647  1.00  0.00     0.338 C 
ATOM     35  O   UNL A   1      37.343  28.672  30.314  1.00  0.00    -0.246 OA
BRANCH  34  36
ATOM     36  C   UNL A   1      38.941  29.724  28.858  1.00  0.00     0.060 A 
ATOM     37  C   UNL A   1      39.029  29.239  27.544  1.00  0.00     0.016 A 
ATOM     38  C   UNL A   1      40.093  30.171  29.479  1.00  0.00     0.016 A 
ATOM     39  C   UNL A   1      40.285  29.036  26.927  1.00  0.00     0.010 A 
ATOM     40  C   UNL A   1      41.320  29.888  28.905  1.00  0.00     0.010 A 
ATOM     41  C   UNL A   1      41.457  29.298  27.634  1.00  0.00    -0.014 A 
BRANCH  41  42
ATOM     42  C   UNL A   1      42.847  28.898  27.273  1.00  0.00     0.031 A 
ATOM     43  C   UNL A   1      43.813  29.974  26.812  1.00  0.00     0.074 A 
ATOM     44  C   UNL A   1      43.349  27.737  27.781  1.00  0.00     0.049 A 
ATOM     45  N   UNL A   1      45.095  29.840  26.725  1.00  0.00    -0.248 NA
ATOM     46  C   UNL A   1      43.404  31.335  26.440  1.00  0.00     0.031 C 
ATOM     47  C   UNL A   1      44.712  27.551  28.300  1.00  0.00     0.029 A 
ATOM     48  N   UNL A   1      42.774  26.520  28.107  1.00  0.00    -0.354 N 
ATOM     49  C   UNL A   1      45.680  31.088  26.599  1.00  0.00     0.074 A 
ATOM     50  C   UNL A   1      44.576  31.983  26.365  1.00  0.00     0.031 C 
ATOM     51  C   UNL A   1      44.864  26.334  28.838  1.00  0.00     0.029 A 
ATOM     52  C   UNL A   1      43.763  25.558  28.346  1.00  0.00     0.049 A 
ATOM     53  H   UNL A   1      41.805  26.355  28.164  1.00  0.00     0.167 HD
ATOM     54  C   UNL A   1      47.023  31.232  26.819  1.00  0.00     0.031 A 
ATOM     55  C   UNL A   1      43.970  24.486  27.524  1.00  0.00     0.031 A 
ATOM     56  C   UNL A   1      47.704  29.932  26.993  1.00  0.00     0.049 A 
ATOM     57  C   UNL A   1      45.274  24.615  26.717  1.00  0.00     0.074 A 
ATOM     58  C   UNL A   1      48.600  29.422  27.920  1.00  0.00     0.029 A 
ATOM     59  N   UNL A   1      47.367  28.860  26.167  1.00  0.00    -0.354 N 
ATOM     60  N   UNL A   1      45.960  25.732  26.605  1.00  0.00    -0.248 NA
ATOM     61  C   UNL A   1      45.952  23.520  26.033  1.00  0.00     0.031 C 
ATOM     62  C   UNL A   1      48.754  28.029  27.667  1.00  0.00     0.029 A 
ATOM     63  C   UNL A   1      48.007  27.704  26.545  1.00  0.00     0.049 A 
ATOM     64  H   UNL A   1      46.746  28.924  25.406  1.00  0.00     0.167 HD
ATOM     65  C   UNL A   1      47.115  25.540  25.895  1.00  0.00     0.074 A 
ATOM     66  C   UNL A   1      47.049  24.132  25.545  1.00  0.00     0.031 C 
ATOM     67  C   UNL A   1      48.017  26.546  25.654  1.00  0.00     0.031 A 
BRANCH  54  68
ATOM     68  C   UNL A   1      47.771  32.549  27.053  1.00  0.00    -0.014 A 
ATOM     69  C   UNL A   1      47.024  33.750  27.125  1.00  0.00     0.010 A 
ATOM     70  C   UNL A   1      49.173  32.710  27.088  1.00  0.00     0.010 A 
ATOM     71  C   UNL A   1      47.620  35.024  27.170  1.00  0.00     0.020 A 
ATOM     72  C   UNL A   1      49.787  33.984  27.177  1.00  0.00     0.020 A 
ATOM     73  C   UNL A   1      49.004  35.136  27.191  1.00  0.00     0.054 A 
BRANCH  73  74
ATOM     74  S   UNL A   1      49.747  36.796  27.246  1.00  0.00     0.124 S 
ATOM     75  O   UNL A   1      50.718  36.670  28.329  1.00  0.00    -0.237 OA
ATOM     76  O   UNL A   1      50.315  36.940  25.907  1.00  0.00    -0.237 OA
ATOM     77  O   UNL A   1      48.615  37.674  27.531  1.00  0.00    -0.744 OA
ENDBRANCH  73  74
ENDBRANCH  54  68
BRANCH  55  78
ATOM     78  C   UNL A   1      42.692  23.737  27.275  1.00  0.00    -0.014 A 
ATOM     79  C   UNL A   1      42.504  23.407  25.907  1.00  0.00     0.010 A 
ATOM     80  C   UNL A   1      42.276  22.800  28.243  1.00  0.00     0.010 A 
ATOM     81  C   UNL A   1      42.284  22.077  25.525  1.00  0.00     0.020 A 
ATOM     82  C   UNL A   1      42.037  21.465  27.859  1.00  0.00     0.020 A 
ATOM     83  C   UNL A   1      42.136  21.101  26.509  1.00  0.00     0.054 A 
BRANCH  83  84
ATOM     84  S   UNL A   1      42.422  19.361  26.036  1.00  0.00     0.124 S 
ATOM     85  O   UNL A   1      43.560  19.460  25.132  1.00  0.00    -0.237 OA
ATOM     86  O   UNL A   1      42.685  18.723  27.326  1.00  0.00    -0.237 OA
ATOM     87  O   UNL A   1      41.156  18.977  25.418  1.00  0.00    -0.744 OA
ENDBRANCH  83  84
ENDBRANCH  55  78
BRANCH  67  88
ATOM     88  C   UNL A   1      49.047  26.607  24.530  1.00  0.00    -0.014 A 
ATOM     89  C   UNL A   1      48.769  26.854  23.185  1.00  0.00     0.010 A 
ATOM     90  C   UNL A   1      50.429  26.493  24.868  1.00  0.00     0.010 A 
ATOM     91  C   UNL A   1      49.797  27.026  22.246  1.00  0.00     0.020 A 
ATOM     92  C   UNL A   1      51.462  26.678  23.949  1.00  0.00     0.020 A 
ATOM     93  C   UNL A   1      51.135  26.960  22.636  1.00  0.00     0.054 A 
BRANCH  93  94
ATOM     94  S   UNL A   1      52.420  27.274  21.409  1.00  0.00     0.124 S 
ATOM     95  O   UNL A   1      52.768  28.668  21.680  1.00  0.00    -0.237 OA
ATOM     96  O   UNL A   1      53.439  26.293  21.774  1.00  0.00    -0.237 OA
ATOM     97  O   UNL A   1      51.758  27.034  20.130  1.00  0.00    -0.744 OA
ENDBRANCH  93  94
ENDBRANCH  67  88
ENDBRANCH  41  42
ENDBRANCH  34  36
ENDBRANCH  33  34
ENDBRANCH  32  33
ENDBRANCH  31  32
ENDBRANCH  30  31
ENDBRANCH  29  30
ENDBRANCH  28  29
ENDBRANCH  27  28
ENDBRANCH   1  27
TORSDOF 29
ENDMDL
MODEL 2
REMARK VINA RESULT:      -8.6      2.411      8.764
REMARK SMILES COc1ccc(S(=O)(=O)N[C@@H](CO)C(=O)OCCOCCOCCOCCOC(=O)c2ccc(-c3c4nc(c(-c5ccc(S(=O)(=O)[O-])cc5)c5ccc([nH]5)c(-c5ccc(S(=O)(=O)[O-])cc5)c5nc(c(-c6ccc(S(=O)(=O)[O-])cc6)c6ccc3[nH]6)C=C5)C=C4)cc2)cc1C
REMARK SMILES IDX 21 1 20 2 19 3 18 4 17 5 16 6 14 7 15 8 11 9 10 10 7 12 8 13
REMARK SMILES IDX 9 14 6 15 3 16 4 17 92 18 5 19 91 20 93 21 2 22 1 23 12 24
REMARK SMILES IDX 13 25 22 27 23 28 24 29 25 30 26 31 27 32 28 33 29 34 30 35
REMARK SMILES IDX 31 36 32 37 90 38 33 39 89 40 34 41 35 42 36 43 83 44 37 45
REMARK SMILES IDX 88 46 82 47 84 48 38 49 87 50 81 51 80 52 39 54 69 55 50 56
REMARK SMILES IDX 68 57 51 58 54 59 67 60 85 61 52 62 53 63 66 65 86 66 55 67
REMARK SMILES IDX 40 68 41 69 49 70 42 71 48 72 43 73 44 74 45 75 46 76 47 77
REMARK SMILES IDX 70 78 71 79 79 80 72 81 78 82 73 83 74 84 75 85 76 86 77 87
REMARK SMILES IDX 56 88 57 89 65 90 58 91 64 92 59 93 60 94 61 95 62 96 63 97
REMARK H PARENT 10 11 13 26 84 53 54 64
REMARK Flexibility Score: inf
ROOT
ATOM      1  C   UNL A   1      35.505  21.715  24.403  1.00  0.00     0.188 C 
ENDROOT
BRANCH   1   2
ATOM      2  C   UNL A   1      35.766  22.935  23.511  1.00  0.00     0.188 C 
BRANCH   2   3
ATOM      3  O   UNL A   1      34.835  23.404  22.561  1.00  0.00    -0.376 OA
BRANCH   3   4
ATOM      4  C   UNL A   1      33.488  23.039  22.866  1.00  0.00     0.202 C 
BRANCH   4   5
ATOM      5  C   UNL A   1      32.683  23.926  23.830  1.00  0.00     0.261 C 
BRANCH   5   6
ATOM      6  O   UNL A   1      31.718  24.740  23.127  1.00  0.00    -0.462 OA
BRANCH   6   7
ATOM      7  C   UNL A   1      32.071  26.027  22.888  1.00  0.00     0.326 C 
ATOM      8  O   UNL A   1      32.856  26.392  22.020  1.00  0.00    -0.250 OA
BRANCH   7   9
ATOM      9  C   UNL A   1      31.292  27.007  23.753  1.00  0.00     0.205 C 
BRANCH   9  10
ATOM     10  N   UNL A   1      32.147  27.965  24.508  1.00  0.00    -0.194 NA
ATOM     11  H   UNL A   1      33.026  28.042  23.998  1.00  0.00     0.142 HD
BRANCH  10  12
ATOM     12  S   UNL A   1      32.540  27.653  26.105  1.00  0.00     0.241 S 
ATOM     13  O   UNL A   1      33.440  26.523  26.084  1.00  0.00    -0.207 OA
ATOM     14  O   UNL A   1      31.322  27.643  26.883  1.00  0.00    -0.207 OA
BRANCH  12  15
ATOM     15  C   UNL A   1      33.483  29.086  26.601  1.00  0.00     0.083 A 
ATOM     16  C   UNL A   1      34.975  31.003  28.000  1.00  0.00     0.121 A 
ATOM     17  C   UNL A   1      33.622  31.219  27.665  1.00  0.00     0.048 A 
ATOM     18  C   UNL A   1      35.589  29.806  27.640  1.00  0.00    -0.008 A 
ATOM     19  C   UNL A   1      32.862  30.255  26.991  1.00  0.00     0.025 A 
ATOM     20  C   UNL A   1      34.837  28.922  26.861  1.00  0.00     0.029 A 
ATOM     21  C   UNL A   1      36.940  29.342  28.117  1.00  0.00     0.048 C 
BRANCH  16  22
ATOM     22  O   UNL A   1      35.530  31.997  28.759  1.00  0.00    -0.496 OA
ATOM     23  C   UNL A   1      35.432  33.315  28.233  1.00  0.00     0.278 C 
ENDBRANCH  16  22
ENDBRANCH  12  15
ENDBRANCH  10  12
ENDBRANCH   9  10
BRANCH   9  24
ATOM     24  C   UNL A   1      30.205  27.724  22.955  1.00  0.00     0.188 C 
BRANCH  24  25
ATOM     25  O   UNL A   1      30.620  28.051  21.629  1.00  0.00    -0.394 OA
ATOM     26  H   UNL A   1      30.248  28.909  21.376  1.00  0.00     0.210 HD
ENDBRANCH  24  25
ENDBRANCH   9  24
ENDBRANCH   7   9
ENDBRANCH   6   7
ENDBRANCH   5   6
ENDBRANCH   4   5
ENDBRANCH   3   4
ENDBRANCH   2   3
ENDBRANCH   1   2
BRANCH   1  27
ATOM     27  O   UNL A   1      36.645  21.120  24.979  1.00  0.00    -0.377 OA
BRANCH  27  28
ATOM     28  C   UNL A   1      37.496  21.979  25.761  1.00  0.00     0.188 C 
BRANCH  28  29
ATOM     29  C   UNL A   1      38.999  21.720  25.784  1.00  0.00     0.188 C 
BRANCH  29  30
ATOM     30  O   UNL A   1      39.205  20.467  26.444  1.00  0.00    -0.376 OA
BRANCH  30  31
ATOM     31  C   UNL A   1      40.402  19.778  26.130  1.00  0.00     0.202 C 
BRANCH  31  32
ATOM     32  C   UNL A   1      41.589  20.713  25.925  1.00  0.00     0.261 C 
BRANCH  32  33
ATOM     33  O   UNL A   1      42.785  19.970  25.593  1.00  0.00    -0.460 OA
BRANCH  33  34
ATOM     34  C   UNL A   1      43.922  20.699  25.382  1.00  0.00     0.338 C 
ATOM     35  O   UNL A   1      44.931  20.227  24.885  1.00  0.00    -0.246 OA
BRANCH  34  36
ATOM     36  C   UNL A   1      43.724  22.145  25.687  1.00  0.00     0.060 A 
ATOM     37  C   UNL A   1      43.725  23.122  24.680  1.00  0.00     0.016 A 
ATOM     38  C   UNL A   1      43.673  22.553  27.008  1.00  0.00     0.016 A 
ATOM     39  C   UNL A   1      43.856  24.495  24.999  1.00  0.00     0.010 A 
ATOM     40  C   UNL A   1      43.890  23.886  27.309  1.00  0.00     0.010 A 
ATOM     41  C   UNL A   1      44.010  24.888  26.327  1.00  0.00    -0.014 A 
BRANCH  41  42
ATOM     42  C   UNL A   1      44.431  26.223  26.837  1.00  0.00     0.031 A 
ATOM     43  C   UNL A   1      43.355  27.228  27.208  1.00  0.00     0.074 A 
ATOM     44  C   UNL A   1      45.672  26.356  27.386  1.00  0.00     0.049 A 
ATOM     45  N   UNL A   1      43.542  28.301  27.903  1.00  0.00    -0.248 NA
ATOM     46  C   UNL A   1      41.938  27.079  26.850  1.00  0.00     0.031 C 
ATOM     47  C   UNL A   1      45.992  27.125  28.597  1.00  0.00     0.029 A 
ATOM     48  N   UNL A   1      46.889  25.748  27.129  1.00  0.00    -0.354 N 
ATOM     49  C   UNL A   1      42.320  28.793  28.327  1.00  0.00     0.074 A 
ATOM     50  C   UNL A   1      41.347  28.028  27.591  1.00  0.00     0.031 C 
ATOM     51  C   UNL A   1      47.275  26.964  28.949  1.00  0.00     0.029 A 
ATOM     52  C   UNL A   1      47.924  26.422  27.791  1.00  0.00     0.049 A 
ATOM     53  H   UNL A   1      47.010  24.953  26.562  1.00  0.00     0.167 HD
ATOM     54  C   UNL A   1      42.275  29.716  29.336  1.00  0.00     0.031 A 
ATOM     55  C   UNL A   1      48.890  27.128  27.131  1.00  0.00     0.031 A 
ATOM     56  C   UNL A   1      43.619  30.199  29.715  1.00  0.00     0.049 A 
ATOM     57  C   UNL A   1      48.726  28.647  27.312  1.00  0.00     0.074 A 
ATOM     58  C   UNL A   1      44.289  30.362  30.917  1.00  0.00     0.029 A 
ATOM     59  N   UNL A   1      44.557  30.477  28.721  1.00  0.00    -0.354 N 
ATOM     60  N   UNL A   1      47.639  29.216  27.791  1.00  0.00    -0.248 NA
ATOM     61  C   UNL A   1      49.757  29.643  27.044  1.00  0.00     0.031 C 
ATOM     62  C   UNL A   1      45.644  30.692  30.628  1.00  0.00     0.029 A 
ATOM     63  C   UNL A   1      45.783  30.797  29.253  1.00  0.00     0.049 A 
ATOM     64  H   UNL A   1      44.364  30.447  27.756  1.00  0.00     0.167 HD
ATOM     65  C   UNL A   1      47.797  30.570  27.913  1.00  0.00     0.074 A 
ATOM     66  C   UNL A   1      49.143  30.786  27.412  1.00  0.00     0.031 C 
ATOM     67  C   UNL A   1      46.816  31.393  28.408  1.00  0.00     0.031 A 
BRANCH  54  68
ATOM     68  C   UNL A   1      41.038  30.114  30.150  1.00  0.00    -0.014 A 
ATOM     69  C   UNL A   1      39.980  30.787  29.492  1.00  0.00     0.010 A 
ATOM     70  C   UNL A   1      40.890  29.984  31.549  1.00  0.00     0.010 A 
ATOM     71  C   UNL A   1      38.881  31.341  30.173  1.00  0.00     0.020 A 
ATOM     72  C   UNL A   1      39.767  30.499  32.242  1.00  0.00     0.020 A 
ATOM     73  C   UNL A   1      38.781  31.199  31.551  1.00  0.00     0.054 A 
BRANCH  73  74
ATOM     74  S   UNL A   1      37.350  31.929  32.405  1.00  0.00     0.124 S 
ATOM     75  O   UNL A   1      37.254  33.249  31.786  1.00  0.00    -0.237 OA
ATOM     76  O   UNL A   1      36.270  31.001  32.075  1.00  0.00    -0.237 OA
ATOM     77  O   UNL A   1      37.749  31.933  33.810  1.00  0.00    -0.744 OA
ENDBRANCH  73  74
ENDBRANCH  54  68
BRANCH  55  78
ATOM     78  C   UNL A   1      49.535  26.297  26.058  1.00  0.00    -0.014 A 
ATOM     79  C   UNL A   1      49.511  26.926  24.786  1.00  0.00     0.010 A 
ATOM     80  C   UNL A   1      50.676  25.545  26.402  1.00  0.00     0.010 A 
ATOM     81  C   UNL A   1      50.701  27.119  24.071  1.00  0.00     0.020 A 
ATOM     82  C   UNL A   1      51.870  25.724  25.675  1.00  0.00     0.020 A 
ATOM     83  C   UNL A   1      51.889  26.585  24.569  1.00  0.00     0.054 A 
BRANCH  83  84
ATOM     84  S   UNL A   1      53.461  27.299  23.976  1.00  0.00     0.124 S 
ATOM     85  O   UNL A   1      53.890  26.333  22.973  1.00  0.00    -0.237 OA
ATOM     86  O   UNL A   1      53.042  28.605  23.466  1.00  0.00    -0.237 OA
ATOM     87  O   UNL A   1      54.273  27.355  25.188  1.00  0.00    -0.744 OA
ENDBRANCH  83  84
ENDBRANCH  55  78
BRANCH  67  88
ATOM     88  C   UNL A   1      46.664  32.892  28.165  1.00  0.00    -0.014 A 
ATOM     89  C   UNL A   1      46.952  33.898  29.088  1.00  0.00     0.010 A 
ATOM     90  C   UNL A   1      46.282  33.333  26.863  1.00  0.00     0.010 A 
ATOM     91  C   UNL A   1      46.912  35.254  28.727  1.00  0.00     0.020 A 
ATOM     92  C   UNL A   1      46.253  34.676  26.484  1.00  0.00     0.020 A 
ATOM     93  C   UNL A   1      46.584  35.633  27.425  1.00  0.00     0.054 A 
BRANCH  93  94
ATOM     94  S   UNL A   1      46.630  37.383  26.986  1.00  0.00     0.124 S 
ATOM     95  O   UNL A   1      46.976  38.010  28.260  1.00  0.00    -0.237 OA
ATOM     96  O   UNL A   1      47.677  37.416  25.967  1.00  0.00    -0.237 OA
ATOM     97  O   UNL A   1      45.283  37.663  26.499  1.00  0.00    -0.744 OA
ENDBRANCH  93  94
ENDBRANCH  67  88
ENDBRANCH  41  42
ENDBRANCH  34  36
ENDBRANCH  33  34
ENDBRANCH  32  33
ENDBRANCH  31  32
ENDBRANCH  30  31
ENDBRANCH  29  30
ENDBRANCH  28  29
ENDBRANCH  27  28
ENDBRANCH   1  27
TORSDOF 29
ENDMDL
MODEL 3
REMARK VINA RESULT:      -8.3      1.811      2.174
REMARK SMILES COc1ccc(S(=O)(=O)N[C@@H](CO)C(=O)OCCOCCOCCOCCOC(=O)c2ccc(-c3c4nc(c(-c5ccc(S(=O)(=O)[O-])cc5)c5ccc([nH]5)c(-c5ccc(S(=O)(=O)[O-])cc5)c5nc(c(-c6ccc(S(=O)(=O)[O-])cc6)c6ccc3[nH]6)C=C5)C=C4)cc2)cc1C
REMARK SMILES IDX 21 1 20 2 19 3 18 4 17 5 16 6 14 7 15 8 11 9 10 10 7 12 8 13
REMARK SMILES IDX 9 14 6 15 3 16 4 17 92 18 5 19 91 20 93 21 2 22 1 23 12 24
REMARK SMILES IDX 13 25 22 27 23 28 24 29 25 30 26 31 27 32 28 33 29 34 30 35
REMARK SMILES IDX 31 36 32 37 90 38 33 39 89 40 34 41 35 42 36 43 83 44 37 45
REMARK SMILES IDX 88 46 82 47 84 48 38 49 87 50 81 51 80 52 39 54 69 55 50 56
REMARK SMILES IDX 68 57 51 58 54 59 67 60 85 61 52 62 53 63 66 65 86 66 55 67
REMARK SMILES IDX 40 68 41 69 49 70 42 71 48 72 43 73 44 74 45 75 46 76 47 77
REMARK SMILES IDX 70 78 71 79 79 80 72 81 78 82 73 83 74 84 75 85 76 86 77 87
REMARK SMILES IDX 56 88 57 89 65 90 58 91 64 92 59 93 60 94 61 95 62 96 63 97
REMARK H PARENT 10 11 13 26 84 53 54 64
REMARK Flexibility Score: inf
ROOT
ATOM      1  C   UNL A   1      33.034  25.012  26.389  1.00  0.00     0.188 C 
ENDROOT
BRANCH   1   2
ATOM      2  C   UNL A   1      31.548  24.732  26.127  1.00  0.00     0.188 C 
BRANCH   2   3
ATOM      3  O   UNL A   1      30.553  25.727  26.215  1.00  0.00    -0.376 OA
BRANCH   3   4
ATOM      4  C   UNL A   1      30.174  26.257  24.943  1.00  0.00     0.202 C 
BRANCH   4   5
ATOM      5  C   UNL A   1      30.795  27.586  24.483  1.00  0.00     0.261 C 
BRANCH   5   6
ATOM      6  O   UNL A   1      31.074  27.583  23.065  1.00  0.00    -0.462 OA
BRANCH   6   7
ATOM      7  C   UNL A   1      32.363  27.794  22.701  1.00  0.00     0.326 C 
ATOM      8  O   UNL A   1      33.032  28.773  23.014  1.00  0.00    -0.250 OA
BRANCH   7   9
ATOM      9  C   UNL A   1      32.946  26.612  21.941  1.00  0.00     0.205 C 
BRANCH   9  10
ATOM     10  N   UNL A   1      33.404  25.494  22.813  1.00  0.00    -0.194 NA
ATOM     11  H   UNL A   1      34.412  25.595  22.918  1.00  0.00     0.142 HD
BRANCH  10  12
ATOM     12  S   UNL A   1      33.122  23.909  22.356  1.00  0.00     0.241 S 
ATOM     13  O   UNL A   1      33.383  23.847  20.937  1.00  0.00    -0.207 OA
ATOM     14  O   UNL A   1      31.857  23.489  22.917  1.00  0.00    -0.207 OA
BRANCH  12  15
ATOM     15  C   UNL A   1      34.409  22.989  23.183  1.00  0.00     0.083 A 
ATOM     16  C   UNL A   1      36.046  21.690  25.051  1.00  0.00     0.121 A 
ATOM     17  C   UNL A   1      36.420  22.919  24.467  1.00  0.00     0.048 A 
ATOM     18  C   UNL A   1      34.831  21.106  24.703  1.00  0.00    -0.008 A 
ATOM     19  C   UNL A   1      35.595  23.587  23.554  1.00  0.00     0.025 A 
ATOM     20  C   UNL A   1      34.094  21.738  23.698  1.00  0.00     0.029 A 
ATOM     21  C   UNL A   1      34.199  19.929  25.398  1.00  0.00     0.048 C 
BRANCH  16  22
ATOM     22  O   UNL A   1      36.913  21.237  26.007  1.00  0.00    -0.496 OA
ATOM     23  C   UNL A   1      38.266  21.662  25.878  1.00  0.00     0.278 C 
ENDBRANCH  16  22
ENDBRANCH  12  15
ENDBRANCH  10  12
ENDBRANCH   9  10
BRANCH   9  24
ATOM     24  C   UNL A   1      32.003  26.126  20.843  1.00  0.00     0.188 C 
BRANCH  24  25
ATOM     25  O   UNL A   1      32.639  26.041  19.569  1.00  0.00    -0.394 OA
ATOM     26  H   UNL A   1      33.101  26.873  19.382  1.00  0.00     0.210 HD
ENDBRANCH  24  25
ENDBRANCH   9  24
ENDBRANCH   7   9
ENDBRANCH   6   7
ENDBRANCH   5   6
ENDBRANCH   4   5
ENDBRANCH   3   4
ENDBRANCH   2   3
ENDBRANCH   1   2
BRANCH   1  27
ATOM     27  O   UNL A   1      33.531  26.225  25.874  1.00  0.00    -0.377 OA
BRANCH  27  28
ATOM     28  C   UNL A   1      33.305  27.403  26.669  1.00  0.00     0.188 C 
BRANCH  28  29
ATOM     29  C   UNL A   1      34.120  28.662  26.387  1.00  0.00     0.188 C 
BRANCH  29  30
ATOM     30  O   UNL A   1      33.391  29.771  26.923  1.00  0.00    -0.376 OA
BRANCH  30  31
ATOM     31  C   UNL A   1      34.160  30.822  27.478  1.00  0.00     0.202 C 
BRANCH  31  32
ATOM     32  C   UNL A   1      35.612  30.429  27.727  1.00  0.00     0.261 C 
BRANCH  32  33
ATOM     33  O   UNL A   1      36.043  30.841  29.045  1.00  0.00    -0.460 OA
BRANCH  33  34
ATOM     34  C   UNL A   1      36.831  29.964  29.735  1.00  0.00     0.338 C 
ATOM     35  O   UNL A   1      36.436  29.332  30.700  1.00  0.00    -0.246 OA
BRANCH  34  36
ATOM     36  C   UNL A   1      38.156  29.765  29.079  1.00  0.00     0.060 A 
ATOM     37  C   UNL A   1      38.403  28.686  28.217  1.00  0.00     0.016 A 
ATOM     38  C   UNL A   1      39.211  30.588  29.432  1.00  0.00     0.016 A 
ATOM     39  C   UNL A   1      39.725  28.329  27.859  1.00  0.00     0.010 A 
ATOM     40  C   UNL A   1      40.504  30.182  29.151  1.00  0.00     0.010 A 
ATOM     41  C   UNL A   1      40.803  29.041  28.383  1.00  0.00    -0.014 A 
BRANCH  41  42
ATOM     42  C   UNL A   1      42.244  28.663  28.352  1.00  0.00     0.031 A 
ATOM     43  C   UNL A   1      43.282  29.769  28.320  1.00  0.00     0.074 A 
ATOM     44  C   UNL A   1      42.609  27.430  28.807  1.00  0.00     0.049 A 
ATOM     45  N   UNL A   1      44.543  29.618  28.559  1.00  0.00    -0.248 NA
ATOM     46  C   UNL A   1      42.968  31.178  28.048  1.00  0.00     0.031 C 
ATOM     47  C   UNL A   1      43.787  27.142  29.639  1.00  0.00     0.029 A 
ATOM     48  N   UNL A   1      41.986  26.194  28.795  1.00  0.00    -0.354 N 
ATOM     49  C   UNL A   1      45.122  30.857  28.770  1.00  0.00     0.074 A 
ATOM     50  C   UNL A   1      44.108  31.802  28.379  1.00  0.00     0.031 C 
ATOM     51  C   UNL A   1      43.808  25.859  30.022  1.00  0.00     0.029 A 
ATOM     52  C   UNL A   1      42.889  25.185  29.151  1.00  0.00     0.049 A 
ATOM     53  H   UNL A   1      41.040  26.046  28.568  1.00  0.00     0.167 HD
ATOM     54  C   UNL A   1      46.355  30.938  29.358  1.00  0.00     0.031 A 
ATOM     55  C   UNL A   1      43.323  24.234  28.272  1.00  0.00     0.031 A 
ATOM     56  C   UNL A   1      46.985  29.611  29.523  1.00  0.00     0.049 A 
ATOM     57  C   UNL A   1      44.794  24.442  27.868  1.00  0.00     0.074 A 
ATOM     58  C   UNL A   1      47.608  28.956  30.574  1.00  0.00     0.029 A 
ATOM     59  N   UNL A   1      46.895  28.673  28.495  1.00  0.00    -0.354 N 
ATOM     60  N   UNL A   1      45.468  25.548  28.100  1.00  0.00    -0.248 NA
ATOM     61  C   UNL A   1      45.645  23.437  27.242  1.00  0.00     0.031 C 
ATOM     62  C   UNL A   1      47.844  27.609  30.178  1.00  0.00     0.029 A 
ATOM     63  C   UNL A   1      47.428  27.460  28.864  1.00  0.00     0.049 A 
ATOM     64  H   UNL A   1      46.499  28.856  27.613  1.00  0.00     0.167 HD
ATOM     65  C   UNL A   1      46.773  25.429  27.703  1.00  0.00     0.074 A 
ATOM     66  C   UNL A   1      46.824  24.086  27.154  1.00  0.00     0.031 C 
ATOM     67  C   UNL A   1      47.693  26.438  27.855  1.00  0.00     0.031 A 
BRANCH  54  68
ATOM     68  C   UNL A   1      46.994  32.192  29.965  1.00  0.00    -0.014 A 
ATOM     69  C   UNL A   1      46.215  33.002  30.827  1.00  0.00     0.010 A 
ATOM     70  C   UNL A   1      48.273  32.703  29.653  1.00  0.00     0.010 A 
ATOM     71  C   UNL A   1      46.645  34.254  31.302  1.00  0.00     0.020 A 
ATOM     72  C   UNL A   1      48.737  33.942  30.160  1.00  0.00     0.020 A 
ATOM     73  C   UNL A   1      47.908  34.723  30.961  1.00  0.00     0.054 A 
BRANCH  73  74
ATOM     74  S   UNL A   1      48.436  36.347  31.588  1.00  0.00     0.124 S 
ATOM     75  O   UNL A   1      49.273  36.847  30.500  1.00  0.00    -0.237 OA
ATOM     76  O   UNL A   1      47.168  37.048  31.777  1.00  0.00    -0.237 OA
ATOM     77  O   UNL A   1      49.152  36.028  32.821  1.00  0.00    -0.744 OA
ENDBRANCH  73  74
ENDBRANCH  54  68
BRANCH  55  78
ATOM     78  C   UNL A   1      42.169  23.556  27.589  1.00  0.00    -0.014 A 
ATOM     79  C   UNL A   1      42.415  23.301  26.214  1.00  0.00     0.010 A 
ATOM     80  C   UNL A   1      41.442  22.594  28.320  1.00  0.00     0.010 A 
ATOM     81  C   UNL A   1      42.289  22.002  25.703  1.00  0.00     0.020 A 
ATOM     82  C   UNL A   1      41.299  21.292  27.800  1.00  0.00     0.020 A 
ATOM     83  C   UNL A   1      41.810  20.988  26.531  1.00  0.00     0.054 A 
BRANCH  83  84
ATOM     84  S   UNL A   1      42.181  19.261  26.069  1.00  0.00     0.124 S 
ATOM     85  O   UNL A   1      40.890  18.773  25.604  1.00  0.00    -0.237 OA
ATOM     86  O   UNL A   1      43.209  19.424  25.040  1.00  0.00    -0.237 OA
ATOM     87  O   UNL A   1      42.662  18.683  27.320  1.00  0.00    -0.744 OA
ENDBRANCH  83  84
ENDBRANCH  55  78
BRANCH  67  88
ATOM     88  C   UNL A   1      48.984  26.630  27.065  1.00  0.00    -0.014 A 
ATOM     89  C   UNL A   1      49.932  25.639  26.805  1.00  0.00     0.010 A 
ATOM     90  C   UNL A   1      49.225  27.896  26.455  1.00  0.00     0.010 A 
ATOM     91  C   UNL A   1      51.022  25.877  25.953  1.00  0.00     0.020 A 
ATOM     92  C   UNL A   1      50.294  28.143  25.593  1.00  0.00     0.020 A 
ATOM     93  C   UNL A   1      51.185  27.118  25.337  1.00  0.00     0.054 A 
BRANCH  93  94
ATOM     94  S   UNL A   1      52.552  27.348  24.182  1.00  0.00     0.124 S 
ATOM     95  O   UNL A   1      52.997  25.974  23.955  1.00  0.00    -0.237 OA
ATOM     96  O   UNL A   1      51.892  27.988  23.048  1.00  0.00    -0.237 OA
ATOM     97  O   UNL A   1      53.494  28.195  24.910  1.00  0.00    -0.744 OA
ENDBRANCH  93  94
ENDBRANCH  67  88
ENDBRANCH  41  42
ENDBRANCH  34  36
ENDBRANCH  33  34
ENDBRANCH  32  33
ENDBRANCH  31  32
ENDBRANCH  30  31
ENDBRANCH  29  30
ENDBRANCH  28  29
ENDBRANCH  27  28
ENDBRANCH   1  27
TORSDOF 29
ENDMDL
