MODEL 1
REMARK VINA RESULT:      -9.3      0.000      0.000
REMARK SMILES Cc1cccc(-n2c(C)cc(/C=N\c3ccc(O)c(C(=O)OCCOCCOCCOCCOC(=O)c4ccc(-c5c6nc(c(-c7ccc(S(=O)(=O)[O-])cc7)c7ccc([nH]7)c(-c7ccc(S(=O)(=O)[O-])cc7)c7nc(c(-c8ccc(S(=O)(=O)[O-])cc8)c8ccc5[nH]8)C=C7)C=C6)cc4)c3)c2C)c1
REMARK SMILES IDX 28 1 27 2 26 3 25 4 24 5 23 6 22 7 20 8 21 9 19 10 14 11
REMARK SMILES IDX 15 12 97 13 16 14 17 15 13 16 12 17 11 18 7 19 8 20 98 21
REMARK SMILES IDX 9 22 10 23 99 24 6 25 1 26 2 27 3 28 100 29 4 30 5 31 18 32
REMARK SMILES IDX 29 34 30 35 31 36 32 37 33 38 34 39 35 40 36 41 37 42 38 43
REMARK SMILES IDX 96 44 39 45 95 46 40 47 41 48 42 49 89 50 43 51 94 52 88 53
REMARK SMILES IDX 90 54 44 55 93 56 87 57 86 58 45 60 75 61 56 62 74 63 57 64
REMARK SMILES IDX 60 65 73 66 91 67 58 68 59 69 72 71 92 72 61 73 46 74 47 75
REMARK SMILES IDX 55 76 48 77 54 78 49 79 50 80 51 81 52 82 53 83 76 84 77 85
REMARK SMILES IDX 85 86 78 87 84 88 79 89 80 90 81 91 82 92 83 93 62 94 63 95
REMARK SMILES IDX 71 96 64 97 70 98 65 99 66 100 67 101 68 102 69 103
REMARK H PARENT 18 33 90 59 60 70
REMARK Flexibility Score: inf
ROOT
ATOM      1  O   UNL A   1      33.248  28.050  25.230  1.00  0.00    -0.377 OA
ENDROOT
BRANCH   1   2
ATOM      2  C   UNL A   1      34.248  28.610  26.051  1.00  0.00     0.188 C 
BRANCH   2   3
ATOM      3  C   UNL A   1      33.761  29.342  27.326  1.00  0.00     0.188 C 
BRANCH   3   4
ATOM      4  O   UNL A   1      33.540  30.747  27.395  1.00  0.00    -0.376 OA
BRANCH   4   5
ATOM      5  C   UNL A   1      34.476  31.605  28.025  1.00  0.00     0.202 C 
BRANCH   5   6
ATOM      6  C   UNL A   1      33.932  32.973  28.343  1.00  0.00     0.261 C 
BRANCH   6   7
ATOM      7  O   UNL A   1      34.593  33.362  29.545  1.00  0.00    -0.460 OA
BRANCH   7   8
ATOM      8  C   UNL A   1      33.876  34.293  30.172  1.00  0.00     0.342 C 
ATOM      9  O   UNL A   1      32.828  34.765  29.788  1.00  0.00    -0.246 OA
BRANCH   8  10
ATOM     10  C   UNL A   1      34.468  34.515  31.506  1.00  0.00     0.103 A 
ATOM     11  C   UNL A   1      35.778  33.356  33.133  1.00  0.00     0.064 A 
ATOM     12  C   UNL A   1      35.497  34.320  34.098  1.00  0.00     0.032 A 
ATOM     13  C   UNL A   1      35.397  33.539  31.818  1.00  0.00     0.048 A 
ATOM     14  C   UNL A   1      34.649  35.380  33.772  1.00  0.00     0.049 A 
ATOM     15  C   UNL A   1      34.084  35.438  32.490  1.00  0.00     0.130 A 
BRANCH  11  16
ATOM     16  N   UNL A   1      36.372  32.143  33.403  1.00  0.00    -0.256 NA
ATOM     17  C   UNL A   1      37.657  31.991  33.250  1.00  0.00     0.121 C 
BRANCH  17  18
ATOM     18  C   UNL A   1      38.728  32.748  32.569  1.00  0.00     0.014 A 
ATOM     19  N   UNL A   1      40.426  33.620  31.317  1.00  0.00    -0.318 N 
ATOM     20  C   UNL A   1      40.689  33.933  32.630  1.00  0.00     0.021 A 
ATOM     21  C   UNL A   1      39.217  32.931  31.267  1.00  0.00     0.029 A 
ATOM     22  C   UNL A   1      41.912  34.633  33.073  1.00  0.00     0.065 C 
ATOM     23  C   UNL A   1      39.622  33.507  33.385  1.00  0.00     0.033 A 
ATOM     24  C   UNL A   1      38.760  32.476  29.941  1.00  0.00     0.065 C 
BRANCH  19  25
ATOM     25  C   UNL A   1      41.333  33.725  30.221  1.00  0.00     0.046 A 
ATOM     26  C   UNL A   1      42.353  36.442  27.764  1.00  0.00     0.044 C 
ATOM     27  C   UNL A   1      42.361  35.189  28.586  1.00  0.00    -0.049 A 
ATOM     28  C   UNL A   1      43.454  34.313  28.511  1.00  0.00     0.003 A 
ATOM     29  C   UNL A   1      41.299  34.893  29.450  1.00  0.00     0.030 A 
ATOM     30  C   UNL A   1      43.476  33.137  29.264  1.00  0.00     0.002 A 
ATOM     31  C   UNL A   1      42.405  32.829  30.104  1.00  0.00     0.026 A 
ENDBRANCH  19  25
ENDBRANCH  17  18
ENDBRANCH  11  16
BRANCH  15  32
ATOM     32  O   UNL A   1      33.108  36.369  32.324  1.00  0.00    -0.507 OA
ATOM     33  H   UNL A   1      32.232  36.099  32.129  1.00  0.00     0.293 HD
ENDBRANCH  15  32
ENDBRANCH   8  10
ENDBRANCH   7   8
ENDBRANCH   6   7
ENDBRANCH   5   6
ENDBRANCH   4   5
ENDBRANCH   3   4
ENDBRANCH   2   3
ENDBRANCH   1   2
BRANCH   1  34
ATOM     34  C   UNL A   1      33.677  26.950  24.440  1.00  0.00     0.188 C 
BRANCH  34  35
ATOM     35  C   UNL A   1      33.544  25.555  25.032  1.00  0.00     0.188 C 
BRANCH  35  36
ATOM     36  O   UNL A   1      34.752  24.907  25.345  1.00  0.00    -0.376 OA
BRANCH  36  37
ATOM     37  C   UNL A   1      35.075  23.758  24.562  1.00  0.00     0.202 C 
BRANCH  37  38
ATOM     38  C   UNL A   1      36.079  22.673  25.057  1.00  0.00     0.261 C 
BRANCH  38  39
ATOM     39  O   UNL A   1      36.774  23.101  26.259  1.00  0.00    -0.460 OA
BRANCH  39  40
ATOM     40  C   UNL A   1      38.143  23.017  26.264  1.00  0.00     0.338 C 
ATOM     41  O   UNL A   1      38.787  22.039  25.935  1.00  0.00    -0.246 OA
BRANCH  40  42
ATOM     42  C   UNL A   1      38.735  24.347  26.628  1.00  0.00     0.060 A 
ATOM     43  C   UNL A   1      39.555  25.053  25.741  1.00  0.00     0.016 A 
ATOM     44  C   UNL A   1      38.650  24.783  27.944  1.00  0.00     0.016 A 
ATOM     45  C   UNL A   1      40.486  25.986  26.236  1.00  0.00     0.010 A 
ATOM     46  C   UNL A   1      39.661  25.588  28.448  1.00  0.00     0.010 A 
ATOM     47  C   UNL A   1      40.641  26.141  27.617  1.00  0.00    -0.014 A 
BRANCH  47  48
ATOM     48  C   UNL A   1      41.870  26.643  28.276  1.00  0.00     0.031 A 
ATOM     49  C   UNL A   1      41.823  27.892  29.114  1.00  0.00     0.074 A 
ATOM     50  C   UNL A   1      42.940  25.801  28.382  1.00  0.00     0.049 A 
ATOM     51  N   UNL A   1      42.827  28.360  29.768  1.00  0.00    -0.248 NA
ATOM     52  C   UNL A   1      40.624  28.683  29.389  1.00  0.00     0.031 C 
ATOM     53  C   UNL A   1      44.140  25.955  29.200  1.00  0.00     0.029 A 
ATOM     54  N   UNL A   1      43.204  24.600  27.730  1.00  0.00    -0.354 N 
ATOM     55  C   UNL A   1      42.398  29.246  30.734  1.00  0.00     0.074 A 
ATOM     56  C   UNL A   1      41.003  29.434  30.434  1.00  0.00     0.031 C 
ATOM     57  C   UNL A   1      45.063  25.028  28.917  1.00  0.00     0.029 A 
ATOM     58  C   UNL A   1      44.581  24.331  27.760  1.00  0.00     0.049 A 
ATOM     59  H   UNL A   1      42.524  24.025  27.309  1.00  0.00     0.167 HD
ATOM     60  C   UNL A   1      43.282  29.622  31.712  1.00  0.00     0.031 A 
ATOM     61  C   UNL A   1      45.242  24.358  26.575  1.00  0.00     0.031 A 
ATOM     62  C   UNL A   1      44.654  29.156  31.378  1.00  0.00     0.049 A 
ATOM     63  C   UNL A   1      45.993  25.716  26.509  1.00  0.00     0.074 A 
ATOM     64  C   UNL A   1      45.618  28.374  31.992  1.00  0.00     0.029 A 
ATOM     65  N   UNL A   1      45.107  29.324  30.060  1.00  0.00    -0.354 N 
ATOM     66  N   UNL A   1      45.591  26.818  27.129  1.00  0.00    -0.248 NA
ATOM     67  C   UNL A   1      47.397  25.827  26.113  1.00  0.00     0.031 C 
ATOM     68  C   UNL A   1      46.531  27.926  30.975  1.00  0.00     0.029 A 
ATOM     69  C   UNL A   1      46.155  28.471  29.748  1.00  0.00     0.049 A 
ATOM     70  H   UNL A   1      44.722  29.974  29.429  1.00  0.00     0.167 HD
ATOM     71  C   UNL A   1      46.676  27.618  27.437  1.00  0.00     0.074 A 
ATOM     72  C   UNL A   1      47.766  26.987  26.693  1.00  0.00     0.031 C 
ATOM     73  C   UNL A   1      46.813  28.566  28.435  1.00  0.00     0.031 A 
BRANCH  60  74
ATOM     74  C   UNL A   1      42.914  30.308  33.036  1.00  0.00    -0.014 A 
ATOM     75  C   UNL A   1      41.704  29.981  33.689  1.00  0.00     0.010 A 
ATOM     76  C   UNL A   1      43.678  31.312  33.676  1.00  0.00     0.010 A 
ATOM     77  C   UNL A   1      41.300  30.580  34.902  1.00  0.00     0.020 A 
ATOM     78  C   UNL A   1      43.299  31.906  34.901  1.00  0.00     0.020 A 
ATOM     79  C   UNL A   1      42.110  31.531  35.514  1.00  0.00     0.054 A 
BRANCH  79  80
ATOM     80  S   UNL A   1      41.609  32.233  37.116  1.00  0.00     0.124 S 
ATOM     81  O   UNL A   1      42.013  33.631  36.995  1.00  0.00    -0.237 OA
ATOM     82  O   UNL A   1      40.167  31.995  37.131  1.00  0.00    -0.237 OA
ATOM     83  O   UNL A   1      42.369  31.454  38.093  1.00  0.00    -0.744 OA
ENDBRANCH  79  80
ENDBRANCH  60  74
BRANCH  61  84
ATOM     84  C   UNL A   1      44.577  23.328  25.676  1.00  0.00    -0.014 A 
ATOM     85  C   UNL A   1      45.365  22.968  24.538  1.00  0.00     0.010 A 
ATOM     86  C   UNL A   1      43.730  22.310  26.169  1.00  0.00     0.010 A 
ATOM     87  C   UNL A   1      45.468  21.641  24.066  1.00  0.00     0.020 A 
ATOM     88  C   UNL A   1      43.817  20.972  25.681  1.00  0.00     0.020 A 
ATOM     89  C   UNL A   1      44.726  20.637  24.672  1.00  0.00     0.054 A 
BRANCH  89  90
ATOM     90  S   UNL A   1      45.098  18.893  24.254  1.00  0.00     0.124 S 
ATOM     91  O   UNL A   1      44.110  18.163  25.039  1.00  0.00    -0.237 OA
ATOM     92  O   UNL A   1      44.908  18.850  22.805  1.00  0.00    -0.237 OA
ATOM     93  O   UNL A   1      46.486  18.738  24.676  1.00  0.00    -0.744 OA
ENDBRANCH  89  90
ENDBRANCH  61  84
BRANCH  73  94
ATOM     94  C   UNL A   1      47.628  29.837  28.224  1.00  0.00    -0.014 A 
ATOM     95  C   UNL A   1      49.001  29.920  28.475  1.00  0.00     0.010 A 
ATOM     96  C   UNL A   1      47.035  30.938  27.543  1.00  0.00     0.010 A 
ATOM     97  C   UNL A   1      49.738  31.045  28.087  1.00  0.00     0.020 A 
ATOM     98  C   UNL A   1      47.770  32.031  27.093  1.00  0.00     0.020 A 
ATOM     99  C   UNL A   1      49.122  32.086  27.387  1.00  0.00     0.054 A 
BRANCH  99 100
ATOM    100  S   UNL A   1      50.119  33.481  26.832  1.00  0.00     0.124 S 
ATOM    101  O   UNL A   1      50.389  33.116  25.443  1.00  0.00    -0.237 OA
ATOM    102  O   UNL A   1      49.213  34.612  27.020  1.00  0.00    -0.237 OA
ATOM    103  O   UNL A   1      51.276  33.461  27.723  1.00  0.00    -0.744 OA
ENDBRANCH  99 100
ENDBRANCH  73  94
ENDBRANCH  47  48
ENDBRANCH  40  42
ENDBRANCH  39  40
ENDBRANCH  38  39
ENDBRANCH  37  38
ENDBRANCH  36  37
ENDBRANCH  35  36
ENDBRANCH  34  35
ENDBRANCH   1  34
TORSDOF 27
ENDMDL
MODEL 2
REMARK VINA RESULT:      -9.0      2.045      3.283
REMARK SMILES Cc1cccc(-n2c(C)cc(/C=N\c3ccc(O)c(C(=O)OCCOCCOCCOCCOC(=O)c4ccc(-c5c6nc(c(-c7ccc(S(=O)(=O)[O-])cc7)c7ccc([nH]7)c(-c7ccc(S(=O)(=O)[O-])cc7)c7nc(c(-c8ccc(S(=O)(=O)[O-])cc8)c8ccc5[nH]8)C=C7)C=C6)cc4)c3)c2C)c1
REMARK SMILES IDX 28 1 27 2 26 3 25 4 24 5 23 6 22 7 20 8 21 9 19 10 14 11
REMARK SMILES IDX 15 12 97 13 16 14 17 15 13 16 12 17 11 18 7 19 8 20 98 21
REMARK SMILES IDX 9 22 10 23 99 24 6 25 1 26 2 27 3 28 100 29 4 30 5 31 18 32
REMARK SMILES IDX 29 34 30 35 31 36 32 37 33 38 34 39 35 40 36 41 37 42 38 43
REMARK SMILES IDX 96 44 39 45 95 46 40 47 41 48 42 49 89 50 43 51 94 52 88 53
REMARK SMILES IDX 90 54 44 55 93 56 87 57 86 58 45 60 75 61 56 62 74 63 57 64
REMARK SMILES IDX 60 65 73 66 91 67 58 68 59 69 72 71 92 72 61 73 46 74 47 75
REMARK SMILES IDX 55 76 48 77 54 78 49 79 50 80 51 81 52 82 53 83 76 84 77 85
REMARK SMILES IDX 85 86 78 87 84 88 79 89 80 90 81 91 82 92 83 93 62 94 63 95
REMARK SMILES IDX 71 96 64 97 70 98 65 99 66 100 67 101 68 102 69 103
REMARK H PARENT 18 33 90 59 60 70
REMARK Flexibility Score: inf
ROOT
ATOM      1  O   UNL A   1      32.707  26.543  23.589  1.00  0.00    -0.377 OA
ENDROOT
BRANCH   1   2
ATOM      2  C   UNL A   1      33.362  27.447  24.450  1.00  0.00     0.188 C 
BRANCH   2   3
ATOM      3  C   UNL A   1      32.652  27.756  25.792  1.00  0.00     0.188 C 
BRANCH   3   4
ATOM      4  O   UNL A   1      31.827  28.898  26.005  1.00  0.00    -0.376 OA
BRANCH   4   5
ATOM      5  C   UNL A   1      31.964  29.692  27.170  1.00  0.00     0.202 C 
BRANCH   5   6
ATOM      6  C   UNL A   1      32.702  30.986  26.943  1.00  0.00     0.261 C 
BRANCH   6   7
ATOM      7  O   UNL A   1      33.738  30.997  27.922  1.00  0.00    -0.460 OA
BRANCH   7   8
ATOM      8  C   UNL A   1      34.236  32.227  28.037  1.00  0.00     0.342 C 
ATOM      9  O   UNL A   1      33.597  33.255  28.076  1.00  0.00    -0.246 OA
BRANCH   8  10
ATOM     10  C   UNL A   1      35.684  32.118  28.304  1.00  0.00     0.103 A 
ATOM     11  C   UNL A   1      37.301  30.477  28.936  1.00  0.00     0.064 A 
ATOM     12  C   UNL A   1      38.247  31.461  29.209  1.00  0.00     0.032 A 
ATOM     13  C   UNL A   1      36.095  30.798  28.344  1.00  0.00     0.048 A 
ATOM     14  C   UNL A   1      37.890  32.803  29.067  1.00  0.00     0.049 A 
ATOM     15  C   UNL A   1      36.584  33.129  28.676  1.00  0.00     0.130 A 
BRANCH  11  16
ATOM     16  N   UNL A   1      37.443  29.152  29.288  1.00  0.00    -0.256 NA
ATOM     17  C   UNL A   1      37.543  28.811  30.541  1.00  0.00     0.121 C 
BRANCH  17  18
ATOM     18  C   UNL A   1      37.820  29.527  31.803  1.00  0.00     0.014 A 
ATOM     19  N   UNL A   1      38.181  30.934  33.564  1.00  0.00    -0.318 N 
ATOM     20  C   UNL A   1      39.210  30.022  33.558  1.00  0.00     0.021 A 
ATOM     21  C   UNL A   1      37.311  30.618  32.523  1.00  0.00     0.029 A 
ATOM     22  C   UNL A   1      40.347  30.068  34.499  1.00  0.00     0.065 C 
ATOM     23  C   UNL A   1      38.951  29.104  32.568  1.00  0.00     0.033 A 
ATOM     24  C   UNL A   1      36.141  31.496  32.337  1.00  0.00     0.065 C 
BRANCH  19  25
ATOM     25  C   UNL A   1      38.126  32.148  34.311  1.00  0.00     0.046 A 
ATOM     26  C   UNL A   1      37.443  33.110  37.926  1.00  0.00     0.044 C 
ATOM     27  C   UNL A   1      37.904  33.162  36.501  1.00  0.00    -0.049 A 
ATOM     28  C   UNL A   1      38.595  34.289  36.033  1.00  0.00     0.003 A 
ATOM     29  C   UNL A   1      37.673  32.086  35.634  1.00  0.00     0.030 A 
ATOM     30  C   UNL A   1      39.026  34.359  34.707  1.00  0.00     0.002 A 
ATOM     31  C   UNL A   1      38.773  33.298  33.836  1.00  0.00     0.026 A 
ENDBRANCH  19  25
ENDBRANCH  17  18
ENDBRANCH  11  16
BRANCH  15  32
ATOM     32  O   UNL A   1      36.255  34.444  28.773  1.00  0.00    -0.507 OA
ATOM     33  H   UNL A   1      36.117  34.951  27.997  1.00  0.00     0.293 HD
ENDBRANCH  15  32
ENDBRANCH   8  10
ENDBRANCH   7   8
ENDBRANCH   6   7
ENDBRANCH   5   6
ENDBRANCH   4   5
ENDBRANCH   3   4
ENDBRANCH   2   3
ENDBRANCH   1   2
BRANCH   1  34
ATOM     34  C   UNL A   1      33.554  25.571  22.994  1.00  0.00     0.188 C 
BRANCH  34  35
ATOM     35  C   UNL A   1      33.815  24.287  23.766  1.00  0.00     0.188 C 
BRANCH  35  36
ATOM     36  O   UNL A   1      35.016  24.246  24.496  1.00  0.00    -0.376 OA
BRANCH  36  37
ATOM     37  C   UNL A   1      36.058  23.435  23.954  1.00  0.00     0.202 C 
BRANCH  37  38
ATOM     38  C   UNL A   1      37.128  22.747  24.856  1.00  0.00     0.261 C 
BRANCH  38  39
ATOM     39  O   UNL A   1      37.635  23.659  25.867  1.00  0.00    -0.460 OA
BRANCH  39  40
ATOM     40  C   UNL A   1      38.854  23.370  26.426  1.00  0.00     0.338 C 
ATOM     41  O   UNL A   1      39.357  22.265  26.481  1.00  0.00    -0.246 OA
BRANCH  40  42
ATOM     42  C   UNL A   1      39.529  24.638  26.864  1.00  0.00     0.060 A 
ATOM     43  C   UNL A   1      40.369  25.356  26.007  1.00  0.00     0.016 A 
ATOM     44  C   UNL A   1      39.496  24.986  28.208  1.00  0.00     0.016 A 
ATOM     45  C   UNL A   1      41.362  26.201  26.540  1.00  0.00     0.010 A 
ATOM     46  C   UNL A   1      40.561  25.698  28.741  1.00  0.00     0.010 A 
ATOM     47  C   UNL A   1      41.553  26.252  27.924  1.00  0.00    -0.014 A 
BRANCH  47  48
ATOM     48  C   UNL A   1      42.823  26.638  28.585  1.00  0.00     0.031 A 
ATOM     49  C   UNL A   1      42.865  27.830  29.504  1.00  0.00     0.074 A 
ATOM     50  C   UNL A   1      43.845  25.733  28.611  1.00  0.00     0.049 A 
ATOM     51  N   UNL A   1      43.908  28.196  30.162  1.00  0.00    -0.248 NA
ATOM     52  C   UNL A   1      41.719  28.667  29.858  1.00  0.00     0.031 C 
ATOM     53  C   UNL A   1      45.067  25.764  29.407  1.00  0.00     0.029 A 
ATOM     54  N   UNL A   1      44.025  24.565  27.875  1.00  0.00    -0.354 N 
ATOM     55  C   UNL A   1      43.550  29.038  31.195  1.00  0.00     0.074 A 
ATOM     56  C   UNL A   1      42.162  29.324  30.941  1.00  0.00     0.031 C 
ATOM     57  C   UNL A   1      45.929  24.807  29.043  1.00  0.00     0.029 A 
ATOM     58  C   UNL A   1      45.385  24.217  27.855  1.00  0.00     0.049 A 
ATOM     59  H   UNL A   1      43.305  24.058  27.434  1.00  0.00     0.167 HD
ATOM     60  C   UNL A   1      44.474  29.298  32.174  1.00  0.00     0.031 A 
ATOM     61  C   UNL A   1      46.022  24.285  26.658  1.00  0.00     0.031 A 
ATOM     62  C   UNL A   1      45.809  28.779  31.776  1.00  0.00     0.049 A 
ATOM     63  C   UNL A   1      46.849  25.600  26.663  1.00  0.00     0.074 A 
ATOM     64  C   UNL A   1      46.739  27.905  32.316  1.00  0.00     0.029 A 
ATOM     65  N   UNL A   1      46.244  29.009  30.462  1.00  0.00    -0.354 N 
ATOM     66  N   UNL A   1      46.524  26.680  27.363  1.00  0.00    -0.248 NA
ATOM     67  C   UNL A   1      48.249  25.658  26.242  1.00  0.00     0.031 C 
ATOM     68  C   UNL A   1      47.603  27.475  31.250  1.00  0.00     0.029 A 
ATOM     69  C   UNL A   1      47.235  28.121  30.070  1.00  0.00     0.049 A 
ATOM     70  H   UNL A   1      45.885  29.719  29.884  1.00  0.00     0.167 HD
ATOM     71  C   UNL A   1      47.659  27.396  27.696  1.00  0.00     0.074 A 
ATOM     72  C   UNL A   1      48.696  26.755  26.887  1.00  0.00     0.031 C 
ATOM     73  C   UNL A   1      47.870  28.266  28.751  1.00  0.00     0.031 A 
BRANCH  60  74
ATOM     74  C   UNL A   1      44.173  29.914  33.548  1.00  0.00    -0.014 A 
ATOM     75  C   UNL A   1      44.046  29.082  34.683  1.00  0.00     0.010 A 
ATOM     76  C   UNL A   1      43.957  31.289  33.797  1.00  0.00     0.010 A 
ATOM     77  C   UNL A   1      43.761  29.581  35.973  1.00  0.00     0.020 A 
ATOM     78  C   UNL A   1      43.692  31.808  35.085  1.00  0.00     0.020 A 
ATOM     79  C   UNL A   1      43.602  30.948  36.173  1.00  0.00     0.054 A 
BRANCH  79  80
ATOM     80  S   UNL A   1      43.313  31.578  37.855  1.00  0.00     0.124 S 
ATOM     81  O   UNL A   1      44.112  30.674  38.678  1.00  0.00    -0.237 OA
ATOM     82  O   UNL A   1      43.805  32.951  37.769  1.00  0.00    -0.237 OA
ATOM     83  O   UNL A   1      41.866  31.455  38.031  1.00  0.00    -0.744 OA
ENDBRANCH  79  80
ENDBRANCH  60  74
BRANCH  61  84
ATOM     84  C   UNL A   1      45.280  23.357  25.710  1.00  0.00    -0.014 A 
ATOM     85  C   UNL A   1      46.125  22.749  24.728  1.00  0.00     0.010 A 
ATOM     86  C   UNL A   1      44.164  22.586  26.106  1.00  0.00     0.010 A 
ATOM     87  C   UNL A   1      45.994  21.399  24.336  1.00  0.00     0.020 A 
ATOM     88  C   UNL A   1      44.018  21.228  25.696  1.00  0.00     0.020 A 
ATOM     89  C   UNL A   1      44.965  20.627  24.860  1.00  0.00     0.054 A 
BRANCH  89  90
ATOM     90  S   UNL A   1      44.993  18.818  24.581  1.00  0.00     0.124 S 
ATOM     91  O   UNL A   1      43.789  18.374  25.273  1.00  0.00    -0.237 OA
ATOM     92  O   UNL A   1      44.960  18.704  23.124  1.00  0.00    -0.237 OA
ATOM     93  O   UNL A   1      46.257  18.407  25.181  1.00  0.00    -0.744 OA
ENDBRANCH  89  90
ENDBRANCH  61  84
BRANCH  73  94
ATOM     94  C   UNL A   1      48.754  29.500  28.603  1.00  0.00    -0.014 A 
ATOM     95  C   UNL A   1      48.474  30.544  27.718  1.00  0.00     0.010 A 
ATOM     96  C   UNL A   1      49.799  29.722  29.545  1.00  0.00     0.010 A 
ATOM     97  C   UNL A   1      49.207  31.737  27.755  1.00  0.00     0.020 A 
ATOM     98  C   UNL A   1      50.489  30.928  29.635  1.00  0.00     0.020 A 
ATOM     99  C   UNL A   1      50.198  31.926  28.721  1.00  0.00     0.054 A 
BRANCH  99 100
ATOM    100  S   UNL A   1      51.065  33.505  28.791  1.00  0.00     0.124 S 
ATOM    101  O   UNL A   1      51.787  33.389  30.056  1.00  0.00    -0.237 OA
ATOM    102  O   UNL A   1      51.892  33.466  27.588  1.00  0.00    -0.237 OA
ATOM    103  O   UNL A   1      49.992  34.495  28.770  1.00  0.00    -0.744 OA
ENDBRANCH  99 100
ENDBRANCH  73  94
ENDBRANCH  47  48
ENDBRANCH  40  42
ENDBRANCH  39  40
ENDBRANCH  38  39
ENDBRANCH  37  38
ENDBRANCH  36  37
ENDBRANCH  35  36
ENDBRANCH  34  35
ENDBRANCH   1  34
TORSDOF 27
ENDMDL
MODEL 3
REMARK VINA RESULT:      -9.0      1.664      2.475
REMARK SMILES Cc1cccc(-n2c(C)cc(/C=N\c3ccc(O)c(C(=O)OCCOCCOCCOCCOC(=O)c4ccc(-c5c6nc(c(-c7ccc(S(=O)(=O)[O-])cc7)c7ccc([nH]7)c(-c7ccc(S(=O)(=O)[O-])cc7)c7nc(c(-c8ccc(S(=O)(=O)[O-])cc8)c8ccc5[nH]8)C=C7)C=C6)cc4)c3)c2C)c1
REMARK SMILES IDX 28 1 27 2 26 3 25 4 24 5 23 6 22 7 20 8 21 9 19 10 14 11
REMARK SMILES IDX 15 12 97 13 16 14 17 15 13 16 12 17 11 18 7 19 8 20 98 21
REMARK SMILES IDX 9 22 10 23 99 24 6 25 1 26 2 27 3 28 100 29 4 30 5 31 18 32
REMARK SMILES IDX 29 34 30 35 31 36 32 37 33 38 34 39 35 40 36 41 37 42 38 43
REMARK SMILES IDX 96 44 39 45 95 46 40 47 41 48 42 49 89 50 43 51 94 52 88 53
REMARK SMILES IDX 90 54 44 55 93 56 87 57 86 58 45 60 75 61 56 62 74 63 57 64
REMARK SMILES IDX 60 65 73 66 91 67 58 68 59 69 72 71 92 72 61 73 46 74 47 75
REMARK SMILES IDX 55 76 48 77 54 78 49 79 50 80 51 81 52 82 53 83 76 84 77 85
REMARK SMILES IDX 85 86 78 87 84 88 79 89 80 90 81 91 82 92 83 93 62 94 63 95
REMARK SMILES IDX 71 96 64 97 70 98 65 99 66 100 67 101 68 102 69 103
REMARK H PARENT 18 33 90 59 60 70
REMARK Flexibility Score: inf
ROOT
ATOM      1  O   UNL A   1      32.936  27.219  25.300  1.00  0.00    -0.377 OA
ENDROOT
BRANCH   1   2
ATOM      2  C   UNL A   1      33.013  27.693  26.626  1.00  0.00     0.188 C 
BRANCH   2   3
ATOM      3  C   UNL A   1      34.117  28.739  26.920  1.00  0.00     0.188 C 
BRANCH   3   4
ATOM      4  O   UNL A   1      33.892  30.146  26.920  1.00  0.00    -0.376 OA
BRANCH   4   5
ATOM      5  C   UNL A   1      34.821  31.035  27.515  1.00  0.00     0.202 C 
BRANCH   5   6
ATOM      6  C   UNL A   1      34.240  31.868  28.628  1.00  0.00     0.261 C 
BRANCH   6   7
ATOM      7  O   UNL A   1      35.346  32.178  29.473  1.00  0.00    -0.460 OA
BRANCH   7   8
ATOM      8  C   UNL A   1      34.906  32.684  30.624  1.00  0.00     0.342 C 
ATOM      9  O   UNL A   1      33.950  33.415  30.762  1.00  0.00    -0.246 OA
BRANCH   8  10
ATOM     10  C   UNL A   1      35.656  32.050  31.726  1.00  0.00     0.103 A 
ATOM     11  C   UNL A   1      36.958  32.663  33.632  1.00  0.00     0.064 A 
ATOM     12  C   UNL A   1      37.435  31.363  33.770  1.00  0.00     0.032 A 
ATOM     13  C   UNL A   1      35.964  32.960  32.720  1.00  0.00     0.048 A 
ATOM     14  C   UNL A   1      37.048  30.396  32.840  1.00  0.00     0.049 A 
ATOM     15  C   UNL A   1      36.208  30.760  31.780  1.00  0.00     0.130 A 
BRANCH  11  16
ATOM     16  N   UNL A   1      37.466  33.748  34.313  1.00  0.00    -0.256 NA
ATOM     17  C   UNL A   1      38.414  34.471  33.786  1.00  0.00     0.121 C 
BRANCH  17  18
ATOM     18  C   UNL A   1      39.361  34.300  32.665  1.00  0.00     0.014 A 
ATOM     19  N   UNL A   1      41.062  34.208  31.145  1.00  0.00    -0.318 N 
ATOM     20  C   UNL A   1      39.934  34.606  30.467  1.00  0.00     0.021 A 
ATOM     21  C   UNL A   1      40.715  33.985  32.475  1.00  0.00     0.029 A 
ATOM     22  C   UNL A   1      39.929  34.971  29.035  1.00  0.00     0.065 C 
ATOM     23  C   UNL A   1      38.879  34.564  31.346  1.00  0.00     0.033 A 
ATOM     24  C   UNL A   1      41.796  33.572  33.390  1.00  0.00     0.065 C 
BRANCH  19  25
ATOM     25  C   UNL A   1      42.405  34.267  30.669  1.00  0.00     0.046 A 
ATOM     26  C   UNL A   1      45.342  36.652  31.048  1.00  0.00     0.044 C 
ATOM     27  C   UNL A   1      44.534  35.421  30.770  1.00  0.00    -0.049 A 
ATOM     28  C   UNL A   1      45.177  34.238  30.380  1.00  0.00     0.003 A 
ATOM     29  C   UNL A   1      43.141  35.432  30.918  1.00  0.00     0.030 A 
ATOM     30  C   UNL A   1      44.440  33.083  30.110  1.00  0.00     0.002 A 
ATOM     31  C   UNL A   1      43.050  33.101  30.232  1.00  0.00     0.026 A 
ENDBRANCH  19  25
ENDBRANCH  17  18
ENDBRANCH  11  16
BRANCH  15  32
ATOM     32  O   UNL A   1      36.057  29.825  30.805  1.00  0.00    -0.507 OA
ATOM     33  H   UNL A   1      35.447  29.123  30.921  1.00  0.00     0.293 HD
ENDBRANCH  15  32
ENDBRANCH   8  10
ENDBRANCH   7   8
ENDBRANCH   6   7
ENDBRANCH   5   6
ENDBRANCH   4   5
ENDBRANCH   3   4
ENDBRANCH   2   3
ENDBRANCH   1   2
BRANCH   1  34
ATOM     34  C   UNL A   1      32.798  25.810  25.180  1.00  0.00     0.188 C 
BRANCH  34  35
ATOM     35  C   UNL A   1      33.862  25.055  24.398  1.00  0.00     0.188 C 
BRANCH  35  36
ATOM     36  O   UNL A   1      34.596  24.103  25.127  1.00  0.00    -0.376 OA
BRANCH  36  37
ATOM     37  C   UNL A   1      35.440  23.238  24.366  1.00  0.00     0.202 C 
BRANCH  37  38
ATOM     38  C   UNL A   1      36.502  22.315  25.038  1.00  0.00     0.261 C 
BRANCH  38  39
ATOM     39  O   UNL A   1      37.810  22.946  25.071  1.00  0.00    -0.460 OA
BRANCH  39  40
ATOM     40  C   UNL A   1      38.808  22.301  25.755  1.00  0.00     0.338 C 
ATOM     41  O   UNL A   1      39.313  21.244  25.429  1.00  0.00    -0.246 OA
BRANCH  40  42
ATOM     42  C   UNL A   1      39.265  23.145  26.909  1.00  0.00     0.060 A 
ATOM     43  C   UNL A   1      38.817  24.460  27.079  1.00  0.00     0.016 A 
ATOM     44  C   UNL A   1      40.316  22.694  27.697  1.00  0.00     0.016 A 
ATOM     45  C   UNL A   1      39.596  25.378  27.809  1.00  0.00     0.010 A 
ATOM     46  C   UNL A   1      41.156  23.626  28.288  1.00  0.00     0.010 A 
ATOM     47  C   UNL A   1      40.851  24.991  28.289  1.00  0.00    -0.014 A 
BRANCH  47  48
ATOM     48  C   UNL A   1      41.965  25.924  28.582  1.00  0.00     0.031 A 
ATOM     49  C   UNL A   1      41.741  27.112  29.480  1.00  0.00     0.074 A 
ATOM     50  C   UNL A   1      43.241  25.522  28.305  1.00  0.00     0.049 A 
ATOM     51  N   UNL A   1      42.665  27.934  29.833  1.00  0.00    -0.248 NA
ATOM     52  C   UNL A   1      40.485  27.438  30.155  1.00  0.00     0.031 C 
ATOM     53  C   UNL A   1      44.497  26.127  28.734  1.00  0.00     0.029 A 
ATOM     54  N   UNL A   1      43.697  24.465  27.523  1.00  0.00    -0.354 N 
ATOM     55  C   UNL A   1      42.269  28.651  30.942  1.00  0.00     0.074 A 
ATOM     56  C   UNL A   1      40.875  28.320  31.087  1.00  0.00     0.031 C 
ATOM     57  C   UNL A   1      45.554  25.575  28.125  1.00  0.00     0.029 A 
ATOM     58  C   UNL A   1      45.020  24.703  27.120  1.00  0.00     0.049 A 
ATOM     59  H   UNL A   1      43.167  23.668  27.286  1.00  0.00     0.167 HD
ATOM     60  C   UNL A   1      43.218  29.359  31.634  1.00  0.00     0.031 A 
ATOM     61  C   UNL A   1      45.235  24.909  25.797  1.00  0.00     0.031 A 
ATOM     62  C   UNL A   1      44.494  29.395  30.872  1.00  0.00     0.049 A 
ATOM     63  C   UNL A   1      45.405  26.441  25.602  1.00  0.00     0.074 A 
ATOM     64  C   UNL A   1      45.809  29.034  31.115  1.00  0.00     0.029 A 
ATOM     65  N   UNL A   1      44.436  29.654  29.495  1.00  0.00    -0.354 N 
ATOM     66  N   UNL A   1      44.851  27.356  26.388  1.00  0.00    -0.248 NA
ATOM     67  C   UNL A   1      46.490  27.025  24.812  1.00  0.00     0.031 C 
ATOM     68  C   UNL A   1      46.465  28.893  29.843  1.00  0.00     0.029 A 
ATOM     69  C   UNL A   1      45.568  29.215  28.825  1.00  0.00     0.049 A 
ATOM     70  H   UNL A   1      43.675  30.097  29.053  1.00  0.00     0.167 HD
ATOM     71  C   UNL A   1      45.626  28.502  26.411  1.00  0.00     0.074 A 
ATOM     72  C   UNL A   1      46.586  28.266  25.333  1.00  0.00     0.031 C 
ATOM     73  C   UNL A   1      45.718  29.479  27.385  1.00  0.00     0.031 A 
BRANCH  60  74
ATOM     74  C   UNL A   1      43.054  29.928  33.050  1.00  0.00    -0.014 A 
ATOM     75  C   UNL A   1      44.091  30.694  33.629  1.00  0.00     0.010 A 
ATOM     76  C   UNL A   1      41.937  29.717  33.892  1.00  0.00     0.010 A 
ATOM     77  C   UNL A   1      44.011  31.239  34.930  1.00  0.00     0.020 A 
ATOM     78  C   UNL A   1      41.831  30.273  35.188  1.00  0.00     0.020 A 
ATOM     79  C   UNL A   1      42.870  31.040  35.699  1.00  0.00     0.054 A 
BRANCH  79  80
ATOM     80  S   UNL A   1      42.753  31.815  37.341  1.00  0.00     0.124 S 
ATOM     81  O   UNL A   1      43.703  31.037  38.132  1.00  0.00    -0.237 OA
ATOM     82  O   UNL A   1      43.146  33.196  37.069  1.00  0.00    -0.237 OA
ATOM     83  O   UNL A   1      41.350  31.638  37.713  1.00  0.00    -0.744 OA
ENDBRANCH  79  80
ENDBRANCH  60  74
BRANCH  61  84
ATOM     84  C   UNL A   1      44.733  23.672  25.070  1.00  0.00    -0.014 A 
ATOM     85  C   UNL A   1      45.547  22.515  25.282  1.00  0.00     0.010 A 
ATOM     86  C   UNL A   1      43.362  23.413  24.851  1.00  0.00     0.010 A 
ATOM     87  C   UNL A   1      45.007  21.225  25.479  1.00  0.00     0.020 A 
ATOM     88  C   UNL A   1      42.816  22.108  25.031  1.00  0.00     0.020 A 
ATOM     89  C   UNL A   1      43.635  21.035  25.400  1.00  0.00     0.054 A 
BRANCH  89  90
ATOM     90  S   UNL A   1      42.934  19.437  25.956  1.00  0.00     0.124 S 
ATOM     91  O   UNL A   1      41.647  19.402  25.271  1.00  0.00    -0.237 OA
ATOM     92  O   UNL A   1      43.921  18.462  25.494  1.00  0.00    -0.237 OA
ATOM     93  O   UNL A   1      42.877  19.584  27.406  1.00  0.00    -0.744 OA
ENDBRANCH  89  90
ENDBRANCH  61  84
BRANCH  73  94
ATOM     94  C   UNL A   1      45.931  30.946  27.027  1.00  0.00    -0.014 A 
ATOM     95  C   UNL A   1      44.932  31.758  26.483  1.00  0.00     0.010 A 
ATOM     96  C   UNL A   1      47.125  31.597  27.449  1.00  0.00     0.010 A 
ATOM     97  C   UNL A   1      45.119  33.139  26.350  1.00  0.00     0.020 A 
ATOM     98  C   UNL A   1      47.295  32.978  27.383  1.00  0.00     0.020 A 
ATOM     99  C   UNL A   1      46.291  33.741  26.813  1.00  0.00     0.054 A 
BRANCH  99 100
ATOM    100  S   UNL A   1      46.462  35.532  26.699  1.00  0.00     0.124 S 
ATOM    101  O   UNL A   1      46.907  35.872  28.048  1.00  0.00    -0.237 OA
ATOM    102  O   UNL A   1      47.465  35.688  25.648  1.00  0.00    -0.237 OA
ATOM    103  O   UNL A   1      45.121  35.990  26.346  1.00  0.00    -0.744 OA
ENDBRANCH  99 100
ENDBRANCH  73  94
ENDBRANCH  47  48
ENDBRANCH  40  42
ENDBRANCH  39  40
ENDBRANCH  38  39
ENDBRANCH  37  38
ENDBRANCH  36  37
ENDBRANCH  35  36
ENDBRANCH  34  35
ENDBRANCH   1  34
TORSDOF 27
ENDMDL
