MODEL 1
REMARK VINA RESULT:      -8.0      0.000      0.000
REMARK SMILES NS(=O)(=O)c1ccc(/N=C/c2ccc(O)c(C(=O)OCCOCCOCCOCCOC(=O)c3ccc(-c4c5nc(c(-c6ccc(S(=O)(=O)[O-])cc6)c6ccc([nH]6)c(-c6ccc(S(=O)(=O)[O-])cc6)c6nc(c(-c7ccc(S(=O)(=O)[O-])cc7)c7ccc4[nH]7)C=C6)C=C5)cc3)c2)cc1
REMARK SMILES IDX 24 1 23 2 22 3 21 4 20 5 19 6 17 7 18 8 16 9 11 10 12 11
REMARK SMILES IDX 94 12 13 13 14 14 10 15 9 16 8 17 5 18 6 19 96 20 7 21 95 22
REMARK SMILES IDX 2 23 3 24 4 25 1 26 15 29 25 31 26 32 27 33 28 34 29 35
REMARK SMILES IDX 30 36 31 37 32 38 33 39 34 40 35 41 93 42 36 43 92 44 37 45
REMARK SMILES IDX 38 46 39 47 86 48 40 49 91 50 85 51 87 52 41 53 90 54 84 55
REMARK SMILES IDX 83 56 42 58 72 59 53 60 71 61 54 62 57 63 70 64 88 65 55 66
REMARK SMILES IDX 56 67 69 69 89 70 58 71 43 72 44 73 52 74 45 75 51 76 46 77
REMARK SMILES IDX 47 78 48 79 49 80 50 81 73 82 74 83 82 84 75 85 81 86 76 87
REMARK SMILES IDX 77 88 78 89 79 90 80 91 59 92 60 93 68 94 61 95 67 96 62 97
REMARK SMILES IDX 63 98 64 99 65 100 66 101
REMARK H PARENT 1 27 1 28 15 30 87 57 57 68
REMARK Flexibility Score: inf
ROOT
ATOM      1  C   UNL A   1      37.278  32.814  35.682  1.00  0.00     0.188 C 
ENDROOT
BRANCH   1   2
ATOM      2  C   UNL A   1      36.994  34.010  34.752  1.00  0.00     0.188 C 
BRANCH   2   3
ATOM      3  O   UNL A   1      36.221  33.680  33.615  1.00  0.00    -0.376 OA
BRANCH   3   4
ATOM      4  C   UNL A   1      34.819  33.529  33.720  1.00  0.00     0.202 C 
BRANCH   4   5
ATOM      5  C   UNL A   1      33.853  34.241  32.757  1.00  0.00     0.261 C 
BRANCH   5   6
ATOM      6  O   UNL A   1      34.411  35.191  31.843  1.00  0.00    -0.460 OA
BRANCH   6   7
ATOM      7  C   UNL A   1      33.843  35.300  30.625  1.00  0.00     0.342 C 
ATOM      8  O   UNL A   1      33.184  36.237  30.200  1.00  0.00    -0.246 OA
BRANCH   7   9
ATOM      9  C   UNL A   1      34.408  34.249  29.748  1.00  0.00     0.102 A 
ATOM     10  C   UNL A   1      34.138  32.428  28.180  1.00  0.00    -0.006 A 
ATOM     11  C   UNL A   1      35.486  32.085  28.338  1.00  0.00     0.013 A 
ATOM     12  C   UNL A   1      33.589  33.503  28.888  1.00  0.00     0.029 A 
ATOM     13  C   UNL A   1      36.299  32.832  29.189  1.00  0.00     0.048 A 
ATOM     14  C   UNL A   1      35.765  33.917  29.881  1.00  0.00     0.130 A 
BRANCH  10  15
ATOM     15  C   UNL A   1      33.320  31.619  27.254  1.00  0.00     0.119 C 
ATOM     16  N   UNL A   1      33.468  30.341  27.160  1.00  0.00    -0.256 NA
BRANCH  16  17
ATOM     17  C   UNL A   1      32.690  29.558  26.288  1.00  0.00     0.063 A 
ATOM     18  C   UNL A   1      31.293  27.798  24.593  1.00  0.00     0.082 A 
ATOM     19  C   UNL A   1      32.119  27.284  25.590  1.00  0.00     0.024 A 
ATOM     20  C   UNL A   1      31.152  29.177  24.432  1.00  0.00     0.024 A 
ATOM     21  C   UNL A   1      32.808  28.167  26.428  1.00  0.00     0.030 A 
ATOM     22  C   UNL A   1      31.851  30.048  25.277  1.00  0.00     0.030 A 
BRANCH  18  23
ATOM     23  S   UNL A   1      30.445  26.712  23.489  1.00  0.00     0.238 S 
ATOM     24  O   UNL A   1      29.021  26.767  23.737  1.00  0.00    -0.207 OA
ATOM     25  O   UNL A   1      31.178  25.475  23.391  1.00  0.00    -0.207 OA
BRANCH  23  26
ATOM     26  N   UNL A   1      30.652  27.481  22.004  1.00  0.00    -0.225 NA
ATOM     27  H   UNL A   1      29.793  27.401  21.458  1.00  0.00     0.137 HD
ATOM     28  H   UNL A   1      31.419  27.041  21.497  1.00  0.00     0.137 HD
ENDBRANCH  23  26
ENDBRANCH  18  23
ENDBRANCH  16  17
ENDBRANCH  10  15
BRANCH  14  29
ATOM     29  O   UNL A   1      36.623  34.577  30.720  1.00  0.00    -0.507 OA
ATOM     30  H   UNL A   1      36.286  35.085  31.432  1.00  0.00     0.293 HD
ENDBRANCH  14  29
ENDBRANCH   7   9
ENDBRANCH   6   7
ENDBRANCH   5   6
ENDBRANCH   4   5
ENDBRANCH   3   4
ENDBRANCH   2   3
ENDBRANCH   1   2
BRANCH   1  31
ATOM     31  O   UNL A   1      37.037  32.968  37.070  1.00  0.00    -0.377 OA
BRANCH  31  32
ATOM     32  C   UNL A   1      37.468  31.964  37.988  1.00  0.00     0.188 C 
BRANCH  32  33
ATOM     33  C   UNL A   1      36.668  31.611  39.267  1.00  0.00     0.188 C 
BRANCH  33  34
ATOM     34  O   UNL A   1      37.126  32.242  40.451  1.00  0.00    -0.376 OA
BRANCH  34  35
ATOM     35  C   UNL A   1      37.381  31.433  41.583  1.00  0.00     0.202 C 
BRANCH  35  36
ATOM     36  C   UNL A   1      38.813  31.428  42.133  1.00  0.00     0.261 C 
BRANCH  36  37
ATOM     37  O   UNL A   1      39.864  31.586  41.169  1.00  0.00    -0.460 OA
BRANCH  37  38
ATOM     38  C   UNL A   1      40.644  32.684  41.281  1.00  0.00     0.338 C 
ATOM     39  O   UNL A   1      41.160  33.116  42.296  1.00  0.00    -0.246 OA
BRANCH  38  40
ATOM     40  C   UNL A   1      40.924  33.167  39.913  1.00  0.00     0.060 A 
ATOM     41  C   UNL A   1      42.110  32.776  39.276  1.00  0.00     0.016 A 
ATOM     42  C   UNL A   1      40.004  33.987  39.258  1.00  0.00     0.016 A 
ATOM     43  C   UNL A   1      42.391  33.232  37.987  1.00  0.00     0.010 A 
ATOM     44  C   UNL A   1      40.298  34.462  37.977  1.00  0.00     0.010 A 
ATOM     45  C   UNL A   1      41.508  34.114  37.350  1.00  0.00    -0.014 A 
BRANCH  45  46
ATOM     46  C   UNL A   1      41.933  34.831  36.125  1.00  0.00     0.031 A 
ATOM     47  C   UNL A   1      41.678  34.174  34.794  1.00  0.00     0.074 A 
ATOM     48  C   UNL A   1      42.523  36.038  36.184  1.00  0.00     0.049 A 
ATOM     49  N   UNL A   1      42.007  34.574  33.594  1.00  0.00    -0.248 NA
ATOM     50  C   UNL A   1      40.957  32.890  34.825  1.00  0.00     0.031 C 
ATOM     51  C   UNL A   1      42.782  36.797  37.407  1.00  0.00     0.029 A 
ATOM     52  N   UNL A   1      43.021  36.834  35.181  1.00  0.00    -0.354 N 
ATOM     53  C   UNL A   1      41.548  33.587  32.730  1.00  0.00     0.074 A 
ATOM     54  C   UNL A   1      40.942  32.557  33.544  1.00  0.00     0.031 C 
ATOM     55  C   UNL A   1      43.401  37.945  37.082  1.00  0.00     0.029 A 
ATOM     56  C   UNL A   1      43.618  37.986  35.636  1.00  0.00     0.049 A 
ATOM     57  H   UNL A   1      42.956  36.601  34.227  1.00  0.00     0.167 HD
ATOM     58  C   UNL A   1      41.620  33.543  31.378  1.00  0.00     0.031 A 
ATOM     59  C   UNL A   1      44.285  38.946  34.966  1.00  0.00     0.031 A 
ATOM     60  C   UNL A   1      42.241  34.563  30.575  1.00  0.00     0.049 A 
ATOM     61  C   UNL A   1      44.426  38.837  33.467  1.00  0.00     0.074 A 
ATOM     62  C   UNL A   1      42.353  34.621  29.198  1.00  0.00     0.029 A 
ATOM     63  N   UNL A   1      42.863  35.697  31.076  1.00  0.00    -0.354 N 
ATOM     64  N   UNL A   1      43.961  37.913  32.659  1.00  0.00    -0.248 NA
ATOM     65  C   UNL A   1      45.174  39.905  32.790  1.00  0.00     0.031 C 
ATOM     66  C   UNL A   1      43.104  35.754  28.869  1.00  0.00     0.029 A 
ATOM     67  C   UNL A   1      43.391  36.444  30.037  1.00  0.00     0.049 A 
ATOM     68  H   UNL A   1      42.923  35.935  32.030  1.00  0.00     0.167 HD
ATOM     69  C   UNL A   1      44.332  38.307  31.376  1.00  0.00     0.074 A 
ATOM     70  C   UNL A   1      45.046  39.560  31.516  1.00  0.00     0.031 C 
ATOM     71  C   UNL A   1      44.099  37.692  30.190  1.00  0.00     0.031 A 
BRANCH  58  72
ATOM     72  C   UNL A   1      41.052  32.331  30.688  1.00  0.00    -0.014 A 
ATOM     73  C   UNL A   1      39.683  32.236  30.382  1.00  0.00     0.010 A 
ATOM     74  C   UNL A   1      41.912  31.284  30.307  1.00  0.00     0.010 A 
ATOM     75  C   UNL A   1      39.177  31.099  29.743  1.00  0.00     0.020 A 
ATOM     76  C   UNL A   1      41.417  30.161  29.639  1.00  0.00     0.020 A 
ATOM     77  C   UNL A   1      40.049  30.070  29.375  1.00  0.00     0.054 A 
BRANCH  77  78
ATOM     78  S   UNL A   1      39.370  28.621  28.521  1.00  0.00     0.124 S 
ATOM     79  O   UNL A   1      39.778  27.532  29.405  1.00  0.00    -0.237 OA
ATOM     80  O   UNL A   1      37.938  28.907  28.497  1.00  0.00    -0.237 OA
ATOM     81  O   UNL A   1      40.029  28.643  27.217  1.00  0.00    -0.744 OA
ENDBRANCH  77  78
ENDBRANCH  58  72
BRANCH  59  82
ATOM     82  C   UNL A   1      44.892  40.089  35.705  1.00  0.00    -0.014 A 
ATOM     83  C   UNL A   1      44.172  41.281  35.906  1.00  0.00     0.010 A 
ATOM     84  C   UNL A   1      46.203  39.993  36.207  1.00  0.00     0.010 A 
ATOM     85  C   UNL A   1      44.755  42.357  36.582  1.00  0.00     0.020 A 
ATOM     86  C   UNL A   1      46.779  41.056  36.911  1.00  0.00     0.020 A 
ATOM     87  C   UNL A   1      46.054  42.235  37.085  1.00  0.00     0.054 A 
BRANCH  87  88
ATOM     88  S   UNL A   1      46.767  43.626  38.007  1.00  0.00     0.124 S 
ATOM     89  O   UNL A   1      46.405  44.766  37.170  1.00  0.00    -0.237 OA
ATOM     90  O   UNL A   1      46.075  43.538  39.291  1.00  0.00    -0.237 OA
ATOM     91  O   UNL A   1      48.193  43.312  38.055  1.00  0.00    -0.744 OA
ENDBRANCH  87  88
ENDBRANCH  59  82
BRANCH  71  92
ATOM     92  C   UNL A   1      44.574  38.381  28.936  1.00  0.00    -0.014 A 
ATOM     93  C   UNL A   1      43.907  39.502  28.411  1.00  0.00     0.010 A 
ATOM     94  C   UNL A   1      45.752  37.933  28.308  1.00  0.00     0.010 A 
ATOM     95  C   UNL A   1      44.389  40.139  27.263  1.00  0.00     0.020 A 
ATOM     96  C   UNL A   1      46.257  38.588  27.182  1.00  0.00     0.020 A 
ATOM     97  C   UNL A   1      45.564  39.679  26.658  1.00  0.00     0.054 A 
BRANCH  97  98
ATOM     98  S   UNL A   1      46.193  40.552  25.198  1.00  0.00     0.124 S 
ATOM     99  O   UNL A   1      46.760  39.461  24.411  1.00  0.00    -0.237 OA
ATOM    100  O   UNL A   1      44.985  41.164  24.646  1.00  0.00    -0.237 OA
ATOM    101  O   UNL A   1      47.165  41.494  25.747  1.00  0.00    -0.744 OA
ENDBRANCH  97  98
ENDBRANCH  71  92
ENDBRANCH  45  46
ENDBRANCH  38  40
ENDBRANCH  37  38
ENDBRANCH  36  37
ENDBRANCH  35  36
ENDBRANCH  34  35
ENDBRANCH  33  34
ENDBRANCH  32  33
ENDBRANCH  31  32
ENDBRANCH   1  31
TORSDOF 28
ENDMDL
MODEL 2
REMARK VINA RESULT:      -7.9      4.579     10.010
REMARK SMILES NS(=O)(=O)c1ccc(/N=C/c2ccc(O)c(C(=O)OCCOCCOCCOCCOC(=O)c3ccc(-c4c5nc(c(-c6ccc(S(=O)(=O)[O-])cc6)c6ccc([nH]6)c(-c6ccc(S(=O)(=O)[O-])cc6)c6nc(c(-c7ccc(S(=O)(=O)[O-])cc7)c7ccc4[nH]7)C=C6)C=C5)cc3)c2)cc1
REMARK SMILES IDX 24 1 23 2 22 3 21 4 20 5 19 6 17 7 18 8 16 9 11 10 12 11
REMARK SMILES IDX 94 12 13 13 14 14 10 15 9 16 8 17 5 18 6 19 96 20 7 21 95 22
REMARK SMILES IDX 2 23 3 24 4 25 1 26 15 29 25 31 26 32 27 33 28 34 29 35
REMARK SMILES IDX 30 36 31 37 32 38 33 39 34 40 35 41 93 42 36 43 92 44 37 45
REMARK SMILES IDX 38 46 39 47 86 48 40 49 91 50 85 51 87 52 41 53 90 54 84 55
REMARK SMILES IDX 83 56 42 58 72 59 53 60 71 61 54 62 57 63 70 64 88 65 55 66
REMARK SMILES IDX 56 67 69 69 89 70 58 71 43 72 44 73 52 74 45 75 51 76 46 77
REMARK SMILES IDX 47 78 48 79 49 80 50 81 73 82 74 83 82 84 75 85 81 86 76 87
REMARK SMILES IDX 77 88 78 89 79 90 80 91 59 92 60 93 68 94 61 95 67 96 62 97
REMARK SMILES IDX 63 98 64 99 65 100 66 101
REMARK H PARENT 1 27 1 28 15 30 87 57 57 68
REMARK Flexibility Score: inf
ROOT
ATOM      1  C   UNL A   1      34.028  36.765  32.284  1.00  0.00     0.188 C 
ENDROOT
BRANCH   1   2
ATOM      2  C   UNL A   1      32.633  36.970  31.660  1.00  0.00     0.188 C 
BRANCH   2   3
ATOM      3  O   UNL A   1      32.534  36.523  30.322  1.00  0.00    -0.376 OA
BRANCH   3   4
ATOM      4  C   UNL A   1      33.257  35.388  29.890  1.00  0.00     0.202 C 
BRANCH   4   5
ATOM      5  C   UNL A   1      34.280  35.468  28.743  1.00  0.00     0.261 C 
BRANCH   5   6
ATOM      6  O   UNL A   1      34.856  34.240  28.284  1.00  0.00    -0.460 OA
BRANCH   6   7
ATOM      7  C   UNL A   1      35.700  33.594  29.112  1.00  0.00     0.342 C 
ATOM      8  O   UNL A   1      36.101  33.976  30.201  1.00  0.00    -0.246 OA
BRANCH   7   9
ATOM      9  C   UNL A   1      35.825  32.191  28.654  1.00  0.00     0.102 A 
ATOM     10  C   UNL A   1      37.159  30.240  28.145  1.00  0.00    -0.006 A 
ATOM     11  C   UNL A   1      36.063  29.650  27.505  1.00  0.00     0.013 A 
ATOM     12  C   UNL A   1      37.052  31.514  28.714  1.00  0.00     0.029 A 
ATOM     13  C   UNL A   1      34.844  30.324  27.451  1.00  0.00     0.048 A 
ATOM     14  C   UNL A   1      34.722  31.583  28.035  1.00  0.00     0.130 A 
BRANCH  10  15
ATOM     15  C   UNL A   1      38.426  29.481  28.193  1.00  0.00     0.119 C 
ATOM     16  N   UNL A   1      38.445  28.208  28.403  1.00  0.00    -0.256 NA
BRANCH  16  17
ATOM     17  C   UNL A   1      39.644  27.473  28.442  1.00  0.00     0.063 A 
ATOM     18  C   UNL A   1      42.165  26.222  28.485  1.00  0.00     0.082 A 
ATOM     19  C   UNL A   1      42.069  27.588  28.739  1.00  0.00     0.024 A 
ATOM     20  C   UNL A   1      41.020  25.471  28.212  1.00  0.00     0.024 A 
ATOM     21  C   UNL A   1      40.811  28.200  28.718  1.00  0.00     0.030 A 
ATOM     22  C   UNL A   1      39.769  26.099  28.190  1.00  0.00     0.030 A 
BRANCH  18  23
ATOM     23  S   UNL A   1      43.741  25.427  28.460  1.00  0.00     0.238 S 
ATOM     24  O   UNL A   1      43.570  23.991  28.438  1.00  0.00    -0.207 OA
ATOM     25  O   UNL A   1      44.622  26.099  29.382  1.00  0.00    -0.207 OA
BRANCH  23  26
ATOM     26  N   UNL A   1      44.312  25.815  26.923  1.00  0.00    -0.225 NA
ATOM     27  H   UNL A   1      44.958  25.091  26.608  1.00  0.00     0.137 HD
ATOM     28  H   UNL A   1      44.796  26.712  26.956  1.00  0.00     0.137 HD
ENDBRANCH  23  26
ENDBRANCH  18  23
ENDBRANCH  16  17
ENDBRANCH  10  15
BRANCH  14  29
ATOM     29  O   UNL A   1      33.500  32.190  27.910  1.00  0.00    -0.507 OA
ATOM     30  H   UNL A   1      33.446  33.117  27.787  1.00  0.00     0.293 HD
ENDBRANCH  14  29
ENDBRANCH   7   9
ENDBRANCH   6   7
ENDBRANCH   5   6
ENDBRANCH   4   5
ENDBRANCH   3   4
ENDBRANCH   2   3
ENDBRANCH   1   2
BRANCH   1  31
ATOM     31  O   UNL A   1      34.159  35.844  33.354  1.00  0.00    -0.377 OA
BRANCH  31  32
ATOM     32  C   UNL A   1      35.275  34.957  33.404  1.00  0.00     0.188 C 
BRANCH  32  33
ATOM     33  C   UNL A   1      35.192  33.555  34.059  1.00  0.00     0.188 C 
BRANCH  33  34
ATOM     34  O   UNL A   1      36.371  33.137  34.726  1.00  0.00    -0.376 OA
BRANCH  34  35
ATOM     35  C   UNL A   1      37.105  32.062  34.173  1.00  0.00     0.202 C 
BRANCH  35  36
ATOM     36  C   UNL A   1      36.479  31.326  32.981  1.00  0.00     0.261 C 
BRANCH  36  37
ATOM     37  O   UNL A   1      37.378  30.568  32.159  1.00  0.00    -0.460 OA
BRANCH  37  38
ATOM     38  C   UNL A   1      38.478  30.057  32.756  1.00  0.00     0.338 C 
ATOM     39  O   UNL A   1      38.542  29.048  33.435  1.00  0.00    -0.246 OA
BRANCH  38  40
ATOM     40  C   UNL A   1      39.640  30.836  32.281  1.00  0.00     0.060 A 
ATOM     41  C   UNL A   1      39.581  31.462  31.028  1.00  0.00     0.016 A 
ATOM     42  C   UNL A   1      40.775  30.962  33.084  1.00  0.00     0.016 A 
ATOM     43  C   UNL A   1      40.674  32.194  30.562  1.00  0.00     0.010 A 
ATOM     44  C   UNL A   1      41.877  31.675  32.606  1.00  0.00     0.010 A 
ATOM     45  C   UNL A   1      41.844  32.265  31.330  1.00  0.00    -0.014 A 
BRANCH  45  46
ATOM     46  C   UNL A   1      43.096  32.778  30.725  1.00  0.00     0.031 A 
ATOM     47  C   UNL A   1      43.439  34.230  30.928  1.00  0.00     0.074 A 
ATOM     48  C   UNL A   1      43.917  31.978  30.020  1.00  0.00     0.049 A 
ATOM     49  N   UNL A   1      44.442  34.920  30.453  1.00  0.00    -0.248 NA
ATOM     50  C   UNL A   1      42.522  35.007  31.779  1.00  0.00     0.031 C 
ATOM     51  C   UNL A   1      43.719  30.548  29.794  1.00  0.00     0.029 A 
ATOM     52  N   UNL A   1      45.083  32.268  29.355  1.00  0.00    -0.354 N 
ATOM     53  C   UNL A   1      44.270  36.213  30.934  1.00  0.00     0.074 A 
ATOM     54  C   UNL A   1      43.052  36.218  31.713  1.00  0.00     0.031 C 
ATOM     55  C   UNL A   1      44.725  30.085  29.032  1.00  0.00     0.029 A 
ATOM     56  C   UNL A   1      45.616  31.192  28.684  1.00  0.00     0.049 A 
ATOM     57  H   UNL A   1      45.498  33.160  29.359  1.00  0.00     0.167 HD
ATOM     58  C   UNL A   1      45.057  37.299  30.746  1.00  0.00     0.031 A 
ATOM     59  C   UNL A   1      46.683  31.117  27.864  1.00  0.00     0.031 A 
ATOM     60  C   UNL A   1      46.258  37.291  29.954  1.00  0.00     0.049 A 
ATOM     61  C   UNL A   1      47.500  32.359  27.602  1.00  0.00     0.074 A 
ATOM     62  C   UNL A   1      47.135  38.334  29.714  1.00  0.00     0.029 A 
ATOM     63  N   UNL A   1      46.746  36.191  29.264  1.00  0.00    -0.354 N 
ATOM     64  N   UNL A   1      47.343  33.569  28.087  1.00  0.00    -0.248 NA
ATOM     65  C   UNL A   1      48.644  32.222  26.689  1.00  0.00     0.031 C 
ATOM     66  C   UNL A   1      48.114  37.884  28.823  1.00  0.00     0.029 A 
ATOM     67  C   UNL A   1      47.893  36.538  28.571  1.00  0.00     0.049 A 
ATOM     68  H   UNL A   1      46.336  35.296  29.265  1.00  0.00     0.167 HD
ATOM     69  C   UNL A   1      48.388  34.327  27.564  1.00  0.00     0.074 A 
ATOM     70  C   UNL A   1      49.177  33.435  26.739  1.00  0.00     0.031 C 
ATOM     71  C   UNL A   1      48.671  35.640  27.754  1.00  0.00     0.031 A 
BRANCH  58  72
ATOM     72  C   UNL A   1      44.619  38.596  31.374  1.00  0.00    -0.014 A 
ATOM     73  C   UNL A   1      43.722  39.460  30.721  1.00  0.00     0.010 A 
ATOM     74  C   UNL A   1      45.088  38.939  32.656  1.00  0.00     0.010 A 
ATOM     75  C   UNL A   1      43.330  40.661  31.323  1.00  0.00     0.020 A 
ATOM     76  C   UNL A   1      44.674  40.121  33.274  1.00  0.00     0.020 A 
ATOM     77  C   UNL A   1      43.809  40.982  32.596  1.00  0.00     0.054 A 
BRANCH  77  78
ATOM     78  S   UNL A   1      43.263  42.532  33.364  1.00  0.00     0.124 S 
ATOM     79  O   UNL A   1      42.010  42.129  33.997  1.00  0.00    -0.237 OA
ATOM     80  O   UNL A   1      44.359  42.839  34.278  1.00  0.00    -0.237 OA
ATOM     81  O   UNL A   1      43.121  43.449  32.235  1.00  0.00    -0.744 OA
ENDBRANCH  77  78
ENDBRANCH  58  72
BRANCH  59  82
ATOM     82  C   UNL A   1      47.033  29.825  27.209  1.00  0.00    -0.014 A 
ATOM     83  C   UNL A   1      47.922  28.924  27.824  1.00  0.00     0.010 A 
ATOM     84  C   UNL A   1      46.482  29.490  25.958  1.00  0.00     0.010 A 
ATOM     85  C   UNL A   1      48.263  27.722  27.194  1.00  0.00     0.020 A 
ATOM     86  C   UNL A   1      46.796  28.276  25.340  1.00  0.00     0.020 A 
ATOM     87  C   UNL A   1      47.693  27.404  25.958  1.00  0.00     0.054 A 
BRANCH  87  88
ATOM     88  S   UNL A   1      48.108  25.813  25.189  1.00  0.00     0.124 S 
ATOM     89  O   UNL A   1      48.092  26.148  23.768  1.00  0.00    -0.237 OA
ATOM     90  O   UNL A   1      49.422  25.525  25.757  1.00  0.00    -0.237 OA
ATOM     91  O   UNL A   1      47.037  24.926  25.636  1.00  0.00    -0.744 OA
ENDBRANCH  87  88
ENDBRANCH  59  82
BRANCH  71  92
ATOM     92  C   UNL A   1      49.912  36.192  27.099  1.00  0.00    -0.014 A 
ATOM     93  C   UNL A   1      49.905  36.643  25.768  1.00  0.00     0.010 A 
ATOM     94  C   UNL A   1      51.092  36.318  27.856  1.00  0.00     0.010 A 
ATOM     95  C   UNL A   1      51.064  37.179  25.196  1.00  0.00     0.020 A 
ATOM     96  C   UNL A   1      52.243  36.884  27.300  1.00  0.00     0.020 A 
ATOM     97  C   UNL A   1      52.225  37.298  25.968  1.00  0.00     0.054 A 
BRANCH  97  98
ATOM     98  S   UNL A   1      53.701  38.038  25.217  1.00  0.00     0.124 S 
ATOM     99  O   UNL A   1      54.746  37.096  25.606  1.00  0.00    -0.237 OA
ATOM    100  O   UNL A   1      53.363  38.051  23.795  1.00  0.00    -0.237 OA
ATOM    101  O   UNL A   1      53.787  39.355  25.842  1.00  0.00    -0.744 OA
ENDBRANCH  97  98
ENDBRANCH  71  92
ENDBRANCH  45  46
ENDBRANCH  38  40
ENDBRANCH  37  38
ENDBRANCH  36  37
ENDBRANCH  35  36
ENDBRANCH  34  35
ENDBRANCH  33  34
ENDBRANCH  32  33
ENDBRANCH  31  32
ENDBRANCH   1  31
TORSDOF 28
ENDMDL
MODEL 3
REMARK VINA RESULT:      -7.7      1.155      7.827
REMARK SMILES NS(=O)(=O)c1ccc(/N=C/c2ccc(O)c(C(=O)OCCOCCOCCOCCOC(=O)c3ccc(-c4c5nc(c(-c6ccc(S(=O)(=O)[O-])cc6)c6ccc([nH]6)c(-c6ccc(S(=O)(=O)[O-])cc6)c6nc(c(-c7ccc(S(=O)(=O)[O-])cc7)c7ccc4[nH]7)C=C6)C=C5)cc3)c2)cc1
REMARK SMILES IDX 24 1 23 2 22 3 21 4 20 5 19 6 17 7 18 8 16 9 11 10 12 11
REMARK SMILES IDX 94 12 13 13 14 14 10 15 9 16 8 17 5 18 6 19 96 20 7 21 95 22
REMARK SMILES IDX 2 23 3 24 4 25 1 26 15 29 25 31 26 32 27 33 28 34 29 35
REMARK SMILES IDX 30 36 31 37 32 38 33 39 34 40 35 41 93 42 36 43 92 44 37 45
REMARK SMILES IDX 38 46 39 47 86 48 40 49 91 50 85 51 87 52 41 53 90 54 84 55
REMARK SMILES IDX 83 56 42 58 72 59 53 60 71 61 54 62 57 63 70 64 88 65 55 66
REMARK SMILES IDX 56 67 69 69 89 70 58 71 43 72 44 73 52 74 45 75 51 76 46 77
REMARK SMILES IDX 47 78 48 79 49 80 50 81 73 82 74 83 82 84 75 85 81 86 76 87
REMARK SMILES IDX 77 88 78 89 79 90 80 91 59 92 60 93 68 94 61 95 67 96 62 97
REMARK SMILES IDX 63 98 64 99 65 100 66 101
REMARK H PARENT 1 27 1 28 15 30 87 57 57 68
REMARK Flexibility Score: inf
ROOT
ATOM      1  C   UNL A   1      37.341  32.772  35.876  1.00  0.00     0.188 C 
ENDROOT
BRANCH   1   2
ATOM      2  C   UNL A   1      37.269  34.028  34.985  1.00  0.00     0.188 C 
BRANCH   2   3
ATOM      3  O   UNL A   1      36.682  33.798  33.719  1.00  0.00    -0.376 OA
BRANCH   3   4
ATOM      4  C   UNL A   1      35.446  33.122  33.613  1.00  0.00     0.202 C 
BRANCH   4   5
ATOM      5  C   UNL A   1      34.483  33.372  32.440  1.00  0.00     0.261 C 
BRANCH   5   6
ATOM      6  O   UNL A   1      34.857  34.363  31.477  1.00  0.00    -0.460 OA
BRANCH   6   7
ATOM      7  C   UNL A   1      34.122  34.452  30.350  1.00  0.00     0.342 C 
ATOM      8  O   UNL A   1      33.312  35.321  30.065  1.00  0.00    -0.246 OA
BRANCH   7   9
ATOM      9  C   UNL A   1      34.678  33.511  29.351  1.00  0.00     0.102 A 
ATOM     10  C   UNL A   1      34.482  31.549  27.950  1.00  0.00    -0.006 A 
ATOM     11  C   UNL A   1      35.858  31.585  27.698  1.00  0.00     0.013 A 
ATOM     12  C   UNL A   1      33.885  32.503  28.784  1.00  0.00     0.029 A 
ATOM     13  C   UNL A   1      36.642  32.591  28.260  1.00  0.00     0.048 A 
ATOM     14  C   UNL A   1      36.053  33.557  29.072  1.00  0.00     0.130 A 
BRANCH  10  15
ATOM     15  C   UNL A   1      33.688  30.475  27.320  1.00  0.00     0.119 C 
ATOM     16  N   UNL A   1      33.929  29.229  27.553  1.00  0.00    -0.256 NA
BRANCH  16  17
ATOM     17  C   UNL A   1      33.176  28.197  26.965  1.00  0.00     0.063 A 
ATOM     18  C   UNL A   1      31.849  26.118  25.608  1.00  0.00     0.082 A 
ATOM     19  C   UNL A   1      33.210  26.321  25.396  1.00  0.00     0.024 A 
ATOM     20  C   UNL A   1      31.141  26.937  26.490  1.00  0.00     0.024 A 
ATOM     21  C   UNL A   1      33.861  27.355  26.077  1.00  0.00     0.030 A 
ATOM     22  C   UNL A   1      31.806  27.971  27.161  1.00  0.00     0.030 A 
BRANCH  18  23
ATOM     23  S   UNL A   1      30.986  24.851  24.731  1.00  0.00     0.238 S 
ATOM     24  O   UNL A   1      31.921  23.857  24.254  1.00  0.00    -0.207 OA
ATOM     25  O   UNL A   1      29.988  25.460  23.888  1.00  0.00    -0.207 OA
BRANCH  23  26
ATOM     26  N   UNL A   1      30.132  24.082  25.963  1.00  0.00    -0.225 NA
ATOM     27  H   UNL A   1      30.067  24.704  26.770  1.00  0.00     0.137 HD
ATOM     28  H   UNL A   1      30.618  23.227  26.231  1.00  0.00     0.137 HD
ENDBRANCH  23  26
ENDBRANCH  18  23
ENDBRANCH  16  17
ENDBRANCH  10  15
BRANCH  14  29
ATOM     29  O   UNL A   1      36.899  34.491  29.609  1.00  0.00    -0.507 OA
ATOM     30  H   UNL A   1      37.511  34.243  30.274  1.00  0.00     0.293 HD
ENDBRANCH  14  29
ENDBRANCH   7   9
ENDBRANCH   6   7
ENDBRANCH   5   6
ENDBRANCH   4   5
ENDBRANCH   3   4
ENDBRANCH   2   3
ENDBRANCH   1   2
BRANCH   1  31
ATOM     31  O   UNL A   1      36.995  32.895  37.244  1.00  0.00    -0.377 OA
BRANCH  31  32
ATOM     32  C   UNL A   1      37.523  31.981  38.204  1.00  0.00     0.188 C 
BRANCH  32  33
ATOM     33  C   UNL A   1      36.761  31.605  39.499  1.00  0.00     0.188 C 
BRANCH  33  34
ATOM     34  O   UNL A   1      36.837  32.567  40.537  1.00  0.00    -0.376 OA
BRANCH  34  35
ATOM     35  C   UNL A   1      36.762  32.112  41.875  1.00  0.00     0.202 C 
BRANCH  35  36
ATOM     36  C   UNL A   1      38.057  32.143  42.698  1.00  0.00     0.261 C 
BRANCH  36  37
ATOM     37  O   UNL A   1      39.281  32.206  41.953  1.00  0.00    -0.460 OA
BRANCH  37  38
ATOM     38  C   UNL A   1      39.934  33.389  41.937  1.00  0.00     0.338 C 
ATOM     39  O   UNL A   1      40.269  34.055  42.900  1.00  0.00    -0.246 OA
BRANCH  38  40
ATOM     40  C   UNL A   1      40.346  33.647  40.541  1.00  0.00     0.060 A 
ATOM     41  C   UNL A   1      41.489  33.013  40.035  1.00  0.00     0.016 A 
ATOM     42  C   UNL A   1      39.589  34.497  39.733  1.00  0.00     0.016 A 
ATOM     43  C   UNL A   1      41.894  33.254  38.721  1.00  0.00     0.010 A 
ATOM     44  C   UNL A   1      40.009  34.755  38.426  1.00  0.00     0.010 A 
ATOM     45  C   UNL A   1      41.182  34.161  37.926  1.00  0.00    -0.014 A 
BRANCH  45  46
ATOM     46  C   UNL A   1      41.765  34.647  36.652  1.00  0.00     0.031 A 
ATOM     47  C   UNL A   1      42.572  35.917  36.681  1.00  0.00     0.074 A 
ATOM     48  C   UNL A   1      41.593  33.977  35.499  1.00  0.00     0.049 A 
ATOM     49  N   UNL A   1      43.131  36.568  35.695  1.00  0.00    -0.248 NA
ATOM     50  C   UNL A   1      42.772  36.537  38.002  1.00  0.00     0.031 C 
ATOM     51  C   UNL A   1      40.874  32.713  35.351  1.00  0.00     0.029 A 
ATOM     52  N   UNL A   1      42.011  34.280  34.225  1.00  0.00    -0.354 N 
ATOM     53  C   UNL A   1      43.735  37.680  36.272  1.00  0.00     0.074 A 
ATOM     54  C   UNL A   1      43.450  37.630  37.689  1.00  0.00     0.031 C 
ATOM     55  C   UNL A   1      40.890  32.353  34.055  1.00  0.00     0.029 A 
ATOM     56  C   UNL A   1      41.585  33.379  33.277  1.00  0.00     0.049 A 
ATOM     57  H   UNL A   1      42.561  35.067  34.012  1.00  0.00     0.167 HD
ATOM     58  C   UNL A   1      44.463  38.653  35.676  1.00  0.00     0.031 A 
ATOM     59  C   UNL A   1      41.720  33.395  31.936  1.00  0.00     0.031 A 
ATOM     60  C   UNL A   1      44.727  38.706  34.263  1.00  0.00     0.049 A 
ATOM     61  C   UNL A   1      42.466  34.534  31.284  1.00  0.00     0.074 A 
ATOM     62  C   UNL A   1      45.468  39.642  33.563  1.00  0.00     0.029 A 
ATOM     63  N   UNL A   1      44.251  37.794  33.333  1.00  0.00    -0.354 N 
ATOM     64  N   UNL A   1      43.057  35.563  31.845  1.00  0.00    -0.248 NA
ATOM     65  C   UNL A   1      42.571  34.506  29.818  1.00  0.00     0.031 C 
ATOM     66  C   UNL A   1      45.381  39.335  32.201  1.00  0.00     0.029 A 
ATOM     67  C   UNL A   1      44.654  38.162  32.061  1.00  0.00     0.049 A 
ATOM     68  H   UNL A   1      43.706  37.002  33.546  1.00  0.00     0.167 HD
ATOM     69  C   UNL A   1      43.631  36.286  30.802  1.00  0.00     0.074 A 
ATOM     70  C   UNL A   1      43.329  35.568  29.581  1.00  0.00     0.031 C 
ATOM     71  C   UNL A   1      44.348  37.437  30.852  1.00  0.00     0.031 A 
BRANCH  58  72
ATOM     72  C   UNL A   1      44.989  39.763  36.548  1.00  0.00    -0.014 A 
ATOM     73  C   UNL A   1      44.245  40.935  36.773  1.00  0.00     0.010 A 
ATOM     74  C   UNL A   1      46.238  39.616  37.180  1.00  0.00     0.010 A 
ATOM     75  C   UNL A   1      44.755  41.953  37.585  1.00  0.00     0.020 A 
ATOM     76  C   UNL A   1      46.737  40.616  38.017  1.00  0.00     0.020 A 
ATOM     77  C   UNL A   1      45.998  41.786  38.201  1.00  0.00     0.054 A 
BRANCH  77  78
ATOM     78  S   UNL A   1      46.621  43.112  39.271  1.00  0.00     0.124 S 
ATOM     79  O   UNL A   1      45.462  43.389  40.115  1.00  0.00    -0.237 OA
ATOM     80  O   UNL A   1      47.750  42.475  39.943  1.00  0.00    -0.237 OA
ATOM     81  O   UNL A   1      46.977  44.177  38.336  1.00  0.00    -0.744 OA
ENDBRANCH  77  78
ENDBRANCH  58  72
BRANCH  59  82
ATOM     82  C   UNL A   1      41.118  32.309  31.112  1.00  0.00    -0.014 A 
ATOM     83  C   UNL A   1      39.769  32.368  30.717  1.00  0.00     0.010 A 
ATOM     84  C   UNL A   1      41.894  31.202  30.721  1.00  0.00     0.010 A 
ATOM     85  C   UNL A   1      39.205  31.334  29.961  1.00  0.00     0.020 A 
ATOM     86  C   UNL A   1      41.343  30.182  29.939  1.00  0.00     0.020 A 
ATOM     87  C   UNL A   1      39.998  30.250  29.573  1.00  0.00     0.054 A 
BRANCH  87  88
ATOM     88  S   UNL A   1      39.257  28.951  28.545  1.00  0.00     0.124 S 
ATOM     89  O   UNL A   1      38.180  28.462  29.400  1.00  0.00    -0.237 OA
ATOM     90  O   UNL A   1      38.837  29.692  27.358  1.00  0.00    -0.237 OA
ATOM     91  O   UNL A   1      40.358  28.015  28.328  1.00  0.00    -0.744 OA
ENDBRANCH  87  88
ENDBRANCH  59  82
BRANCH  71  92
ATOM     92  C   UNL A   1      44.901  37.975  29.557  1.00  0.00    -0.014 A 
ATOM     93  C   UNL A   1      44.295  39.052  28.886  1.00  0.00     0.010 A 
ATOM     94  C   UNL A   1      46.091  37.430  29.037  1.00  0.00     0.010 A 
ATOM     95  C   UNL A   1      44.849  39.550  27.702  1.00  0.00     0.020 A 
ATOM     96  C   UNL A   1      46.667  37.947  27.874  1.00  0.00     0.020 A 
ATOM     97  C   UNL A   1      46.033  38.995  27.205  1.00  0.00     0.054 A 
BRANCH  97  98
ATOM     98  S   UNL A   1      46.755  39.690  25.693  1.00  0.00     0.124 S 
ATOM     99  O   UNL A   1      47.681  40.686  26.227  1.00  0.00    -0.237 OA
ATOM    100  O   UNL A   1      47.376  38.523  25.070  1.00  0.00    -0.237 OA
ATOM    101  O   UNL A   1      45.604  40.233  24.975  1.00  0.00    -0.744 OA
ENDBRANCH  97  98
ENDBRANCH  71  92
ENDBRANCH  45  46
ENDBRANCH  38  40
ENDBRANCH  37  38
ENDBRANCH  36  37
ENDBRANCH  35  36
ENDBRANCH  34  35
ENDBRANCH  33  34
ENDBRANCH  32  33
ENDBRANCH  31  32
ENDBRANCH   1  31
TORSDOF 28
ENDMDL
