MODEL 1
REMARK VINA RESULT:      -8.9      0.000      0.000
REMARK SMILES CC[C@@H](C)c1ccccc1NC(=O)[C@@H]1[C@@H](C(=O)OCCOCCOCCOCCOC(=O)c2ccc(-c3c4nc(c(-c5ccc(S(=O)(=O)[O-])cc5)c5ccc([nH]5)c(-c5ccc(S(=O)(=O)[O-])cc5)c5nc(c(-c6ccc(S(=O)(=O)[O-])cc6)c6ccc3[nH]6)C=C5)C=C4)cc2)[C@@H]2C=C[C@H]1C2
REMARK SMILES IDX 23 1 22 2 21 3 20 4 19 5 18 6 16 7 17 8 15 9 14 10 96 11
REMARK SMILES IDX 93 12 95 13 97 14 94 15 12 16 11 17 13 19 10 20 5 21 6 22
REMARK SMILES IDX 7 23 9 24 8 25 3 26 4 27 2 28 1 29 24 30 25 31 26 32 27 33
REMARK SMILES IDX 28 34 29 35 30 36 31 37 32 38 33 39 34 40 92 41 35 42 91 43
REMARK SMILES IDX 36 44 37 45 38 46 85 47 39 48 90 49 84 50 86 51 40 52 89 53
REMARK SMILES IDX 83 54 82 55 41 57 71 58 52 59 70 60 53 61 56 62 69 63 87 64
REMARK SMILES IDX 54 65 55 66 68 68 88 69 57 70 42 71 43 72 51 73 44 74 50 75
REMARK SMILES IDX 45 76 46 77 47 78 48 79 49 80 72 81 73 82 81 83 74 84 80 85
REMARK SMILES IDX 75 86 76 87 77 88 78 89 79 90 58 91 59 92 67 93 60 94 66 95
REMARK SMILES IDX 61 96 62 97 63 98 64 99 65 100
REMARK H PARENT 11 18 86 56 56 67
REMARK Flexibility Score: inf
ROOT
ATOM      1  C   UNL A   1      36.724  30.737  28.669  1.00  0.00     0.188 C 
ENDROOT
BRANCH   1   2
ATOM      2  C   UNL A   1      35.685  29.724  28.140  1.00  0.00     0.188 C 
BRANCH   2   3
ATOM      3  O   UNL A   1      34.794  30.255  27.167  1.00  0.00    -0.376 OA
BRANCH   3   4
ATOM      4  C   UNL A   1      33.453  30.600  27.471  1.00  0.00     0.202 C 
BRANCH   4   5
ATOM      5  C   UNL A   1      32.340  29.653  26.987  1.00  0.00     0.261 C 
BRANCH   5   6
ATOM      6  O   UNL A   1      32.462  28.320  27.497  1.00  0.00    -0.463 OA
BRANCH   6   7
ATOM      7  C   UNL A   1      32.840  27.428  26.567  1.00  0.00     0.310 C 
ATOM      8  O   UNL A   1      34.009  27.188  26.278  1.00  0.00    -0.252 OA
BRANCH   7   9
ATOM      9  C   UNL A   1      31.695  26.685  25.934  1.00  0.00     0.119 C 
ATOM     10  C   UNL A   1      32.389  25.394  25.445  1.00  0.00     0.100 C 
ATOM     11  C   UNL A   1      31.844  25.213  24.021  1.00  0.00     0.025 C 
ATOM     12  C   UNL A   1      31.005  27.196  24.651  1.00  0.00     0.027 C 
ATOM     13  C   UNL A   1      30.347  25.067  24.042  1.00  0.00    -0.027 C 
ATOM     14  C   UNL A   1      31.928  26.680  23.545  1.00  0.00     0.017 C 
ATOM     15  C   UNL A   1      29.836  26.255  24.398  1.00  0.00    -0.027 C 
BRANCH  10  16
ATOM     16  C   UNL A   1      32.301  24.309  26.504  1.00  0.00     0.228 C 
ATOM     17  N   UNL A   1      33.386  23.503  26.750  1.00  0.00    -0.326 N 
ATOM     18  H   UNL A   1      33.470  23.109  27.648  1.00  0.00     0.169 HD
ATOM     19  O   UNL A   1      31.285  24.133  27.184  1.00  0.00    -0.274 OA
BRANCH  17  20
ATOM     20  C   UNL A   1      34.381  23.204  25.808  1.00  0.00     0.044 A 
ATOM     21  C   UNL A   1      34.030  22.442  24.680  1.00  0.00    -0.022 A 
ATOM     22  C   UNL A   1      34.886  22.533  23.569  1.00  0.00     0.006 A 
ATOM     23  C   UNL A   1      36.101  23.227  23.635  1.00  0.00     0.000 A 
ATOM     24  C   UNL A   1      35.664  23.750  25.925  1.00  0.00     0.026 A 
ATOM     25  C   UNL A   1      36.519  23.786  24.832  1.00  0.00     0.002 A 
BRANCH  21  26
ATOM     26  C   UNL A   1      32.832  21.488  24.715  1.00  0.00     0.018 C 
ATOM     27  C   UNL A   1      33.140  20.168  25.439  1.00  0.00     0.013 C 
BRANCH  26  28
ATOM     28  C   UNL A   1      32.161  21.204  23.351  1.00  0.00     0.005 C 
ATOM     29  C   UNL A   1      32.286  19.732  22.953  1.00  0.00     0.004 C 
ENDBRANCH  26  28
ENDBRANCH  21  26
ENDBRANCH  17  20
ENDBRANCH  10  16
ENDBRANCH   7   9
ENDBRANCH   6   7
ENDBRANCH   5   6
ENDBRANCH   4   5
ENDBRANCH   3   4
ENDBRANCH   2   3
ENDBRANCH   1   2
BRANCH   1  30
ATOM     30  O   UNL A   1      37.606  30.279  29.687  1.00  0.00    -0.377 OA
BRANCH  30  31
ATOM     31  C   UNL A   1      37.984  31.264  30.639  1.00  0.00     0.188 C 
BRANCH  31  32
ATOM     32  C   UNL A   1      38.618  32.526  30.015  1.00  0.00     0.188 C 
BRANCH  32  33
ATOM     33  O   UNL A   1      38.494  33.794  30.638  1.00  0.00    -0.376 OA
BRANCH  33  34
ATOM     34  C   UNL A   1      38.979  34.972  30.020  1.00  0.00     0.202 C 
BRANCH  34  35
ATOM     35  C   UNL A   1      40.026  34.981  28.888  1.00  0.00     0.261 C 
BRANCH  35  36
ATOM     36  O   UNL A   1      41.193  35.790  29.048  1.00  0.00    -0.460 OA
BRANCH  36  37
ATOM     37  C   UNL A   1      41.788  36.211  27.910  1.00  0.00     0.338 C 
ATOM     38  O   UNL A   1      41.622  37.279  27.343  1.00  0.00    -0.246 OA
BRANCH  37  39
ATOM     39  C   UNL A   1      42.843  35.234  27.566  1.00  0.00     0.060 A 
ATOM     40  C   UNL A   1      43.549  34.601  28.601  1.00  0.00     0.016 A 
ATOM     41  C   UNL A   1      43.115  34.920  26.232  1.00  0.00     0.016 A 
ATOM     42  C   UNL A   1      44.538  33.668  28.309  1.00  0.00     0.010 A 
ATOM     43  C   UNL A   1      44.140  34.020  25.938  1.00  0.00     0.010 A 
ATOM     44  C   UNL A   1      44.875  33.417  26.975  1.00  0.00    -0.014 A 
BRANCH  44  45
ATOM     45  C   UNL A   1      46.148  32.725  26.675  1.00  0.00     0.031 A 
ATOM     46  C   UNL A   1      46.121  31.225  26.579  1.00  0.00     0.074 A 
ATOM     47  C   UNL A   1      47.286  33.407  26.462  1.00  0.00     0.049 A 
ATOM     48  N   UNL A   1      47.105  30.389  26.379  1.00  0.00    -0.248 NA
ATOM     49  C   UNL A   1      44.804  30.580  26.733  1.00  0.00     0.031 C 
ATOM     50  C   UNL A   1      47.417  34.862  26.466  1.00  0.00     0.029 A 
ATOM     51  N   UNL A   1      48.555  32.953  26.206  1.00  0.00    -0.354 N 
ATOM     52  C   UNL A   1      46.532  29.124  26.397  1.00  0.00     0.074 A 
ATOM     53  C   UNL A   1      45.120  29.297  26.654  1.00  0.00     0.031 C 
ATOM     54  C   UNL A   1      48.703  35.183  26.235  1.00  0.00     0.029 A 
ATOM     55  C   UNL A   1      49.488  33.955  26.108  1.00  0.00     0.049 A 
ATOM     56  H   UNL A   1      48.776  31.998  26.103  1.00  0.00     0.167 HD
ATOM     57  C   UNL A   1      47.128  27.923  26.213  1.00  0.00     0.031 A 
ATOM     58  C   UNL A   1      50.827  33.886  25.960  1.00  0.00     0.031 A 
ATOM     59  C   UNL A   1      48.537  27.759  25.977  1.00  0.00     0.049 A 
ATOM     60  C   UNL A   1      51.483  32.532  25.847  1.00  0.00     0.074 A 
ATOM     61  C   UNL A   1      49.242  26.587  25.770  1.00  0.00     0.029 A 
ATOM     62  N   UNL A   1      49.457  28.796  25.926  1.00  0.00    -0.354 N 
ATOM     63  N   UNL A   1      50.928  31.342  25.847  1.00  0.00    -0.248 NA
ATOM     64  C   UNL A   1      52.945  32.514  25.706  1.00  0.00     0.031 C 
ATOM     65  C   UNL A   1      50.599  26.911  25.663  1.00  0.00     0.029 A 
ATOM     66  C   UNL A   1      50.729  28.289  25.725  1.00  0.00     0.049 A 
ATOM     67  H   UNL A   1      49.238  29.751  26.021  1.00  0.00     0.167 HD
ATOM     68  C   UNL A   1      51.971  30.437  25.674  1.00  0.00     0.074 A 
ATOM     69  C   UNL A   1      53.186  31.217  25.558  1.00  0.00     0.031 C 
ATOM     70  C   UNL A   1      51.929  29.082  25.611  1.00  0.00     0.031 A 
BRANCH  57  71
ATOM     71  C   UNL A   1      46.264  26.694  26.310  1.00  0.00    -0.014 A 
ATOM     72  C   UNL A   1      45.927  25.942  25.170  1.00  0.00     0.010 A 
ATOM     73  C   UNL A   1      45.805  26.269  27.570  1.00  0.00     0.010 A 
ATOM     74  C   UNL A   1      45.121  24.806  25.286  1.00  0.00     0.020 A 
ATOM     75  C   UNL A   1      45.025  25.117  27.693  1.00  0.00     0.020 A 
ATOM     76  C   UNL A   1      44.674  24.401  26.547  1.00  0.00     0.054 A 
BRANCH  76  77
ATOM     77  S   UNL A   1      43.655  22.907  26.670  1.00  0.00     0.124 S 
ATOM     78  O   UNL A   1      42.364  23.382  26.180  1.00  0.00    -0.237 OA
ATOM     79  O   UNL A   1      44.354  21.971  25.792  1.00  0.00    -0.237 OA
ATOM     80  O   UNL A   1      43.697  22.572  28.092  1.00  0.00    -0.744 OA
ENDBRANCH  76  77
ENDBRANCH  57  71
BRANCH  58  81
ATOM     81  C   UNL A   1      51.640  35.133  25.935  1.00  0.00    -0.014 A 
ATOM     82  C   UNL A   1      51.893  35.805  24.727  1.00  0.00     0.010 A 
ATOM     83  C   UNL A   1      52.174  35.654  27.129  1.00  0.00     0.010 A 
ATOM     84  C   UNL A   1      52.675  36.964  24.710  1.00  0.00     0.020 A 
ATOM     85  C   UNL A   1      52.930  36.829  27.121  1.00  0.00     0.020 A 
ATOM     86  C   UNL A   1      53.183  37.473  25.909  1.00  0.00     0.054 A 
BRANCH  86  87
ATOM     87  S   UNL A   1      54.146  39.010  25.869  1.00  0.00     0.124 S 
ATOM     88  O   UNL A   1      55.496  38.532  26.148  1.00  0.00    -0.237 OA
ATOM     89  O   UNL A   1      53.912  39.491  24.510  1.00  0.00    -0.237 OA
ATOM     90  O   UNL A   1      53.538  39.822  26.921  1.00  0.00    -0.744 OA
ENDBRANCH  86  87
ENDBRANCH  58  81
BRANCH  70  91
ATOM     91  C   UNL A   1      53.225  28.352  25.366  1.00  0.00    -0.014 A 
ATOM     92  C   UNL A   1      54.006  27.863  26.426  1.00  0.00     0.010 A 
ATOM     93  C   UNL A   1      53.633  28.099  24.042  1.00  0.00     0.010 A 
ATOM     94  C   UNL A   1      55.190  27.165  26.168  1.00  0.00     0.020 A 
ATOM     95  C   UNL A   1      54.796  27.373  23.780  1.00  0.00     0.020 A 
ATOM     96  C   UNL A   1      55.576  26.922  24.846  1.00  0.00     0.054 A 
BRANCH  96  97
ATOM     97  S   UNL A   1      57.093  25.977  24.540  1.00  0.00     0.124 S 
ATOM     98  O   UNL A   1      56.716  24.641  24.996  1.00  0.00    -0.237 OA
ATOM     99  O   UNL A   1      57.273  26.120  23.097  1.00  0.00    -0.237 OA
ATOM    100  O   UNL A   1      58.096  26.654  25.358  1.00  0.00    -0.744 OA
ENDBRANCH  96  97
ENDBRANCH  70  91
ENDBRANCH  44  45
ENDBRANCH  37  39
ENDBRANCH  36  37
ENDBRANCH  35  36
ENDBRANCH  34  35
ENDBRANCH  33  34
ENDBRANCH  32  33
ENDBRANCH  31  32
ENDBRANCH  30  31
ENDBRANCH   1  30
TORSDOF 27
ENDMDL
MODEL 2
REMARK VINA RESULT:      -8.5      3.037      8.298
REMARK SMILES CC[C@@H](C)c1ccccc1NC(=O)[C@@H]1[C@@H](C(=O)OCCOCCOCCOCCOC(=O)c2ccc(-c3c4nc(c(-c5ccc(S(=O)(=O)[O-])cc5)c5ccc([nH]5)c(-c5ccc(S(=O)(=O)[O-])cc5)c5nc(c(-c6ccc(S(=O)(=O)[O-])cc6)c6ccc3[nH]6)C=C5)C=C4)cc2)[C@@H]2C=C[C@H]1C2
REMARK SMILES IDX 23 1 22 2 21 3 20 4 19 5 18 6 16 7 17 8 15 9 14 10 96 11
REMARK SMILES IDX 93 12 95 13 97 14 94 15 12 16 11 17 13 19 10 20 5 21 6 22
REMARK SMILES IDX 7 23 9 24 8 25 3 26 4 27 2 28 1 29 24 30 25 31 26 32 27 33
REMARK SMILES IDX 28 34 29 35 30 36 31 37 32 38 33 39 34 40 92 41 35 42 91 43
REMARK SMILES IDX 36 44 37 45 38 46 85 47 39 48 90 49 84 50 86 51 40 52 89 53
REMARK SMILES IDX 83 54 82 55 41 57 71 58 52 59 70 60 53 61 56 62 69 63 87 64
REMARK SMILES IDX 54 65 55 66 68 68 88 69 57 70 42 71 43 72 51 73 44 74 50 75
REMARK SMILES IDX 45 76 46 77 47 78 48 79 49 80 72 81 73 82 81 83 74 84 80 85
REMARK SMILES IDX 75 86 76 87 77 88 78 89 79 90 58 91 59 92 67 93 60 94 66 95
REMARK SMILES IDX 61 96 62 97 63 98 64 99 65 100
REMARK H PARENT 11 18 86 56 56 67
REMARK Flexibility Score: inf
ROOT
ATOM      1  C   UNL A   1      37.695  28.759  28.442  1.00  0.00     0.188 C 
ENDROOT
BRANCH   1   2
ATOM      2  C   UNL A   1      37.066  30.072  27.928  1.00  0.00     0.188 C 
BRANCH   2   3
ATOM      3  O   UNL A   1      35.914  29.889  27.115  1.00  0.00    -0.376 OA
BRANCH   3   4
ATOM      4  C   UNL A   1      34.782  29.157  27.553  1.00  0.00     0.202 C 
BRANCH   4   5
ATOM      5  C   UNL A   1      33.729  28.765  26.501  1.00  0.00     0.261 C 
BRANCH   5   6
ATOM      6  O   UNL A   1      33.268  27.414  26.629  1.00  0.00    -0.463 OA
BRANCH   6   7
ATOM      7  C   UNL A   1      31.978  27.325  26.989  1.00  0.00     0.310 C 
ATOM      8  O   UNL A   1      31.492  27.901  27.958  1.00  0.00    -0.252 OA
BRANCH   7   9
ATOM      9  C   UNL A   1      31.140  26.493  26.056  1.00  0.00     0.119 C 
ATOM     10  C   UNL A   1      32.131  25.378  25.653  1.00  0.00     0.100 C 
ATOM     11  C   UNL A   1      31.949  25.271  24.132  1.00  0.00     0.025 C 
ATOM     12  C   UNL A   1      30.673  27.030  24.686  1.00  0.00     0.027 C 
ATOM     13  C   UNL A   1      30.530  24.905  23.793  1.00  0.00    -0.027 C 
ATOM     14  C   UNL A   1      31.888  26.776  23.792  1.00  0.00     0.017 C 
ATOM     15  C   UNL A   1      29.761  25.961  24.103  1.00  0.00    -0.027 C 
BRANCH  10  16
ATOM     16  C   UNL A   1      31.995  24.184  26.583  1.00  0.00     0.228 C 
ATOM     17  N   UNL A   1      33.067  23.348  26.783  1.00  0.00    -0.326 N 
ATOM     18  H   UNL A   1      33.113  22.858  27.635  1.00  0.00     0.169 HD
ATOM     19  O   UNL A   1      30.953  23.945  27.199  1.00  0.00    -0.274 OA
BRANCH  17  20
ATOM     20  C   UNL A   1      34.098  23.145  25.854  1.00  0.00     0.044 A 
ATOM     21  C   UNL A   1      33.846  22.325  24.741  1.00  0.00    -0.022 A 
ATOM     22  C   UNL A   1      34.697  22.489  23.634  1.00  0.00     0.006 A 
ATOM     23  C   UNL A   1      35.823  23.319  23.692  1.00  0.00     0.000 A 
ATOM     24  C   UNL A   1      35.310  23.836  25.967  1.00  0.00     0.026 A 
ATOM     25  C   UNL A   1      36.164  23.947  24.880  1.00  0.00     0.002 A 
BRANCH  21  26
ATOM     26  C   UNL A   1      32.765  21.240  24.789  1.00  0.00     0.018 C 
ATOM     27  C   UNL A   1      33.162  20.039  25.661  1.00  0.00     0.013 C 
BRANCH  26  28
ATOM     28  C   UNL A   1      32.241  20.754  23.418  1.00  0.00     0.005 C 
ATOM     29  C   UNL A   1      32.401  19.242  23.253  1.00  0.00     0.004 C 
ENDBRANCH  26  28
ENDBRANCH  21  26
ENDBRANCH  17  20
ENDBRANCH  10  16
ENDBRANCH   7   9
ENDBRANCH   6   7
ENDBRANCH   5   6
ENDBRANCH   4   5
ENDBRANCH   3   4
ENDBRANCH   2   3
ENDBRANCH   1   2
BRANCH   1  30
ATOM     30  O   UNL A   1      39.116  28.697  28.474  1.00  0.00    -0.377 OA
BRANCH  30  31
ATOM     31  C   UNL A   1      39.706  27.926  27.436  1.00  0.00     0.188 C 
BRANCH  31  32
ATOM     32  C   UNL A   1      39.913  26.440  27.803  1.00  0.00     0.188 C 
BRANCH  32  33
ATOM     33  O   UNL A   1      39.658  25.410  26.862  1.00  0.00    -0.376 OA
BRANCH  33  34
ATOM     34  C   UNL A   1      39.012  24.207  27.238  1.00  0.00     0.202 C 
BRANCH  34  35
ATOM     35  C   UNL A   1      39.615  22.804  27.024  1.00  0.00     0.261 C 
BRANCH  35  36
ATOM     36  O   UNL A   1      40.669  22.656  26.071  1.00  0.00    -0.460 OA
BRANCH  36  37
ATOM     37  C   UNL A   1      41.880  22.320  26.568  1.00  0.00     0.338 C 
ATOM     38  O   UNL A   1      42.429  21.232  26.500  1.00  0.00    -0.246 OA
BRANCH  37  39
ATOM     39  C   UNL A   1      42.532  23.560  27.041  1.00  0.00     0.060 A 
ATOM     40  C   UNL A   1      42.791  24.587  26.120  1.00  0.00     0.016 A 
ATOM     41  C   UNL A   1      42.857  23.723  28.390  1.00  0.00     0.016 A 
ATOM     42  C   UNL A   1      43.391  25.771  26.538  1.00  0.00     0.010 A 
ATOM     43  C   UNL A   1      43.504  24.891  28.800  1.00  0.00     0.010 A 
ATOM     44  C   UNL A   1      43.801  25.903  27.868  1.00  0.00    -0.014 A 
BRANCH  44  45
ATOM     45  C   UNL A   1      44.752  26.979  28.223  1.00  0.00     0.031 A 
ATOM     46  C   UNL A   1      44.203  28.194  28.919  1.00  0.00     0.074 A 
ATOM     47  C   UNL A   1      46.065  26.870  27.964  1.00  0.00     0.049 A 
ATOM     48  N   UNL A   1      44.817  29.287  29.285  1.00  0.00    -0.248 NA
ATOM     49  C   UNL A   1      42.765  28.172  29.243  1.00  0.00     0.031 C 
ATOM     50  C   UNL A   1      46.717  25.713  27.354  1.00  0.00     0.029 A 
ATOM     51  N   UNL A   1      47.087  27.759  28.184  1.00  0.00    -0.354 N 
ATOM     52  C   UNL A   1      43.842  30.087  29.868  1.00  0.00     0.074 A 
ATOM     53  C   UNL A   1      42.591  29.368  29.783  1.00  0.00     0.031 C 
ATOM     54  C   UNL A   1      48.033  25.969  27.235  1.00  0.00     0.029 A 
ATOM     55  C   UNL A   1      48.305  27.321  27.724  1.00  0.00     0.049 A 
ATOM     56  H   UNL A   1      46.960  28.628  28.628  1.00  0.00     0.167 HD
ATOM     57  C   UNL A   1      43.977  31.312  30.427  1.00  0.00     0.031 A 
ATOM     58  C   UNL A   1      49.496  27.951  27.680  1.00  0.00     0.031 A 
ATOM     59  C   UNL A   1      45.222  32.028  30.489  1.00  0.00     0.049 A 
ATOM     60  C   UNL A   1      49.604  29.352  28.228  1.00  0.00     0.074 A 
ATOM     61  C   UNL A   1      45.470  33.273  31.041  1.00  0.00     0.029 A 
ATOM     62  N   UNL A   1      46.426  31.570  29.975  1.00  0.00    -0.354 N 
ATOM     63  N   UNL A   1      48.679  30.093  28.793  1.00  0.00    -0.248 NA
ATOM     64  C   UNL A   1      50.920  30.000  28.137  1.00  0.00     0.031 C 
ATOM     65  C   UNL A   1      46.810  33.595  30.798  1.00  0.00     0.029 A 
ATOM     66  C   UNL A   1      47.414  32.520  30.167  1.00  0.00     0.049 A 
ATOM     67  H   UNL A   1      46.558  30.697  29.538  1.00  0.00     0.167 HD
ATOM     68  C   UNL A   1      49.310  31.280  29.154  1.00  0.00     0.074 A 
ATOM     69  C   UNL A   1      50.698  31.152  28.757  1.00  0.00     0.031 C 
ATOM     70  C   UNL A   1      48.792  32.376  29.764  1.00  0.00     0.031 A 
BRANCH  57  71
ATOM     71  C   UNL A   1      42.737  31.971  30.969  1.00  0.00    -0.014 A 
ATOM     72  C   UNL A   1      42.378  31.859  32.324  1.00  0.00     0.010 A 
ATOM     73  C   UNL A   1      41.932  32.742  30.110  1.00  0.00     0.010 A 
ATOM     74  C   UNL A   1      41.219  32.477  32.802  1.00  0.00     0.020 A 
ATOM     75  C   UNL A   1      40.790  33.387  30.591  1.00  0.00     0.020 A 
ATOM     76  C   UNL A   1      40.433  33.238  31.932  1.00  0.00     0.054 A 
BRANCH  76  77
ATOM     77  S   UNL A   1      38.952  34.054  32.587  1.00  0.00     0.124 S 
ATOM     78  O   UNL A   1      38.437  34.739  31.404  1.00  0.00    -0.237 OA
ATOM     79  O   UNL A   1      38.150  32.929  33.060  1.00  0.00    -0.237 OA
ATOM     80  O   UNL A   1      39.472  34.929  33.635  1.00  0.00    -0.744 OA
ENDBRANCH  76  77
ENDBRANCH  57  71
BRANCH  58  81
ATOM     81  C   UNL A   1      50.677  27.275  27.074  1.00  0.00    -0.014 A 
ATOM     82  C   UNL A   1      51.553  26.510  27.863  1.00  0.00     0.010 A 
ATOM     83  C   UNL A   1      50.932  27.399  25.696  1.00  0.00     0.010 A 
ATOM     84  C   UNL A   1      52.671  25.896  27.289  1.00  0.00     0.020 A 
ATOM     85  C   UNL A   1      52.030  26.761  25.112  1.00  0.00     0.020 A 
ATOM     86  C   UNL A   1      52.898  26.019  25.916  1.00  0.00     0.054 A 
BRANCH  86  87
ATOM     87  S   UNL A   1      54.322  25.165  25.184  1.00  0.00     0.124 S 
ATOM     88  O   UNL A   1      53.761  23.858  24.862  1.00  0.00    -0.237 OA
ATOM     89  O   UNL A   1      54.644  26.017  24.041  1.00  0.00    -0.237 OA
ATOM     90  O   UNL A   1      55.315  25.175  26.256  1.00  0.00    -0.744 OA
ENDBRANCH  86  87
ENDBRANCH  58  81
BRANCH  70  91
ATOM     91  C   UNL A   1      49.732  33.510  30.081  1.00  0.00    -0.014 A 
ATOM     92  C   UNL A   1      50.458  33.551  31.283  1.00  0.00     0.010 A 
ATOM     93  C   UNL A   1      49.937  34.523  29.124  1.00  0.00     0.010 A 
ATOM     94  C   UNL A   1      51.345  34.601  31.538  1.00  0.00     0.020 A 
ATOM     95  C   UNL A   1      50.847  35.555  29.360  1.00  0.00     0.020 A 
ATOM     96  C   UNL A   1      51.536  35.596  30.573  1.00  0.00     0.054 A 
BRANCH  96  97
ATOM     97  S   UNL A   1      52.724  36.923  30.911  1.00  0.00     0.124 S 
ATOM     98  O   UNL A   1      53.497  36.364  32.018  1.00  0.00    -0.237 OA
ATOM     99  O   UNL A   1      53.440  37.042  29.643  1.00  0.00    -0.237 OA
ATOM    100  O   UNL A   1      51.881  38.065  31.255  1.00  0.00    -0.744 OA
ENDBRANCH  96  97
ENDBRANCH  70  91
ENDBRANCH  44  45
ENDBRANCH  37  39
ENDBRANCH  36  37
ENDBRANCH  35  36
ENDBRANCH  34  35
ENDBRANCH  33  34
ENDBRANCH  32  33
ENDBRANCH  31  32
ENDBRANCH  30  31
ENDBRANCH   1  30
TORSDOF 27
ENDMDL
MODEL 3
REMARK VINA RESULT:      -8.5      3.911      9.905
REMARK SMILES CC[C@@H](C)c1ccccc1NC(=O)[C@@H]1[C@@H](C(=O)OCCOCCOCCOCCOC(=O)c2ccc(-c3c4nc(c(-c5ccc(S(=O)(=O)[O-])cc5)c5ccc([nH]5)c(-c5ccc(S(=O)(=O)[O-])cc5)c5nc(c(-c6ccc(S(=O)(=O)[O-])cc6)c6ccc3[nH]6)C=C5)C=C4)cc2)[C@@H]2C=C[C@H]1C2
REMARK SMILES IDX 23 1 22 2 21 3 20 4 19 5 18 6 16 7 17 8 15 9 14 10 96 11
REMARK SMILES IDX 93 12 95 13 97 14 94 15 12 16 11 17 13 19 10 20 5 21 6 22
REMARK SMILES IDX 7 23 9 24 8 25 3 26 4 27 2 28 1 29 24 30 25 31 26 32 27 33
REMARK SMILES IDX 28 34 29 35 30 36 31 37 32 38 33 39 34 40 92 41 35 42 91 43
REMARK SMILES IDX 36 44 37 45 38 46 85 47 39 48 90 49 84 50 86 51 40 52 89 53
REMARK SMILES IDX 83 54 82 55 41 57 71 58 52 59 70 60 53 61 56 62 69 63 87 64
REMARK SMILES IDX 54 65 55 66 68 68 88 69 57 70 42 71 43 72 51 73 44 74 50 75
REMARK SMILES IDX 45 76 46 77 47 78 48 79 49 80 72 81 73 82 81 83 74 84 80 85
REMARK SMILES IDX 75 86 76 87 77 88 78 89 79 90 58 91 59 92 67 93 60 94 66 95
REMARK SMILES IDX 61 96 62 97 63 98 64 99 65 100
REMARK H PARENT 11 18 86 56 56 67
REMARK Flexibility Score: inf
ROOT
ATOM      1  C   UNL A   1      41.930  22.601  26.643  1.00  0.00     0.188 C 
ENDROOT
BRANCH   1   2
ATOM      2  C   UNL A   1      40.430  22.583  27.009  1.00  0.00     0.188 C 
BRANCH   2   3
ATOM      3  O   UNL A   1      39.567  22.280  25.921  1.00  0.00    -0.376 OA
BRANCH   3   4
ATOM      4  C   UNL A   1      38.300  22.897  25.760  1.00  0.00     0.202 C 
BRANCH   4   5
ATOM      5  C   UNL A   1      37.190  22.088  25.066  1.00  0.00     0.261 C 
BRANCH   5   6
ATOM      6  O   UNL A   1      35.956  22.805  24.934  1.00  0.00    -0.463 OA
BRANCH   6   7
ATOM      7  C   UNL A   1      35.669  23.139  23.666  1.00  0.00     0.310 C 
ATOM      8  O   UNL A   1      36.509  23.468  22.833  1.00  0.00    -0.252 OA
BRANCH   7   9
ATOM      9  C   UNL A   1      34.210  23.018  23.319  1.00  0.00     0.119 C 
ATOM     10  C   UNL A   1      33.646  24.351  23.857  1.00  0.00     0.100 C 
ATOM     11  C   UNL A   1      32.368  23.927  24.595  1.00  0.00     0.025 C 
ATOM     12  C   UNL A   1      33.297  21.974  23.999  1.00  0.00     0.027 C 
ATOM     13  C   UNL A   1      31.408  23.258  23.650  1.00  0.00    -0.027 C 
ATOM     14  C   UNL A   1      32.909  22.668  25.306  1.00  0.00     0.017 C 
ATOM     15  C   UNL A   1      31.948  22.078  23.303  1.00  0.00    -0.027 C 
BRANCH  10  16
ATOM     16  C   UNL A   1      33.653  25.410  22.768  1.00  0.00     0.228 C 
ATOM     17  N   UNL A   1      33.684  26.741  23.108  1.00  0.00    -0.326 N 
ATOM     18  H   UNL A   1      34.082  27.370  22.464  1.00  0.00     0.169 HD
ATOM     19  O   UNL A   1      33.660  25.121  21.568  1.00  0.00    -0.274 OA
BRANCH  17  20
ATOM     20  C   UNL A   1      33.188  27.263  24.311  1.00  0.00     0.044 A 
ATOM     21  C   UNL A   1      31.805  27.483  24.428  1.00  0.00    -0.022 A 
ATOM     22  C   UNL A   1      31.289  27.570  25.733  1.00  0.00     0.006 A 
ATOM     23  C   UNL A   1      32.130  27.586  26.853  1.00  0.00     0.000 A 
ATOM     24  C   UNL A   1      34.031  27.450  25.413  1.00  0.00     0.026 A 
ATOM     25  C   UNL A   1      33.507  27.586  26.690  1.00  0.00     0.002 A 
BRANCH  21  26
ATOM     26  C   UNL A   1      30.937  27.717  23.188  1.00  0.00     0.018 C 
ATOM     27  C   UNL A   1      31.208  29.071  22.515  1.00  0.00     0.013 C 
BRANCH  26  28
ATOM     28  C   UNL A   1      29.416  27.515  23.385  1.00  0.00     0.005 C 
ATOM     29  C   UNL A   1      29.098  26.133  23.958  1.00  0.00     0.004 C 
ENDBRANCH  26  28
ENDBRANCH  21  26
ENDBRANCH  17  20
ENDBRANCH  10  16
ENDBRANCH   7   9
ENDBRANCH   6   7
ENDBRANCH   5   6
ENDBRANCH   4   5
ENDBRANCH   3   4
ENDBRANCH   2   3
ENDBRANCH   1   2
BRANCH   1  30
ATOM     30  O   UNL A   1      42.285  22.088  25.365  1.00  0.00    -0.377 OA
BRANCH  30  31
ATOM     31  C   UNL A   1      43.598  22.417  24.930  1.00  0.00     0.188 C 
BRANCH  31  32
ATOM     32  C   UNL A   1      44.704  21.558  25.579  1.00  0.00     0.188 C 
BRANCH  32  33
ATOM     33  O   UNL A   1      45.939  22.130  25.978  1.00  0.00    -0.376 OA
BRANCH  33  34
ATOM     34  C   UNL A   1      46.305  23.443  25.591  1.00  0.00     0.202 C 
BRANCH  34  35
ATOM     35  C   UNL A   1      46.097  24.689  26.475  1.00  0.00     0.261 C 
BRANCH  35  36
ATOM     36  O   UNL A   1      46.896  25.846  26.217  1.00  0.00    -0.460 OA
BRANCH  36  37
ATOM     37  C   UNL A   1      47.656  26.287  27.244  1.00  0.00     0.338 C 
ATOM     38  O   UNL A   1      48.568  25.693  27.795  1.00  0.00    -0.246 OA
BRANCH  37  39
ATOM     39  C   UNL A   1      47.330  27.712  27.465  1.00  0.00     0.060 A 
ATOM     40  C   UNL A   1      46.691  28.430  26.442  1.00  0.00     0.016 A 
ATOM     41  C   UNL A   1      47.623  28.329  28.683  1.00  0.00     0.016 A 
ATOM     42  C   UNL A   1      46.359  29.769  26.625  1.00  0.00     0.010 A 
ATOM     43  C   UNL A   1      47.335  29.685  28.849  1.00  0.00     0.010 A 
ATOM     44  C   UNL A   1      46.732  30.415  27.808  1.00  0.00    -0.014 A 
BRANCH  44  45
ATOM     45  C   UNL A   1      46.717  31.894  27.854  1.00  0.00     0.031 A 
ATOM     46  C   UNL A   1      45.488  32.563  28.403  1.00  0.00     0.074 A 
ATOM     47  C   UNL A   1      47.773  32.620  27.451  1.00  0.00     0.049 A 
ATOM     48  N   UNL A   1      45.211  33.836  28.500  1.00  0.00    -0.248 NA
ATOM     49  C   UNL A   1      44.426  31.674  28.907  1.00  0.00     0.031 C 
ATOM     50  C   UNL A   1      49.040  32.079  26.963  1.00  0.00     0.029 A 
ATOM     51  N   UNL A   1      47.939  33.981  27.386  1.00  0.00    -0.354 N 
ATOM     52  C   UNL A   1      43.942  33.901  29.062  1.00  0.00     0.074 A 
ATOM     53  C   UNL A   1      43.491  32.542  29.259  1.00  0.00     0.031 C 
ATOM     54  C   UNL A   1      49.851  33.101  26.635  1.00  0.00     0.029 A 
ATOM     55  C   UNL A   1      49.145  34.363  26.853  1.00  0.00     0.049 A 
ATOM     56  H   UNL A   1      47.257  34.622  27.692  1.00  0.00     0.167 HD
ATOM     57  C   UNL A   1      43.217  34.997  29.387  1.00  0.00     0.031 A 
ATOM     58  C   UNL A   1      49.613  35.592  26.553  1.00  0.00     0.031 A 
ATOM     59  C   UNL A   1      43.666  36.344  29.169  1.00  0.00     0.049 A 
ATOM     60  C   UNL A   1      48.751  36.795  26.841  1.00  0.00     0.074 A 
ATOM     61  C   UNL A   1      43.013  37.527  29.470  1.00  0.00     0.029 A 
ATOM     62  N   UNL A   1      44.877  36.692  28.589  1.00  0.00    -0.354 N 
ATOM     63  N   UNL A   1      47.559  36.846  27.389  1.00  0.00    -0.248 NA
ATOM     64  C   UNL A   1      49.301  38.108  26.476  1.00  0.00     0.031 C 
ATOM     65  C   UNL A   1      43.799  38.587  29.007  1.00  0.00     0.029 A 
ATOM     66  C   UNL A   1      44.976  38.069  28.491  1.00  0.00     0.049 A 
ATOM     67  H   UNL A   1      45.564  36.052  28.289  1.00  0.00     0.167 HD
ATOM     68  C   UNL A   1      47.232  38.197  27.464  1.00  0.00     0.074 A 
ATOM     69  C   UNL A   1      48.357  38.929  26.919  1.00  0.00     0.031 C 
ATOM     70  C   UNL A   1      46.105  38.781  27.945  1.00  0.00     0.031 A 
BRANCH  57  71
ATOM     71  C   UNL A   1      41.845  34.777  29.967  1.00  0.00    -0.014 A 
ATOM     72  C   UNL A   1      40.698  34.755  29.152  1.00  0.00     0.010 A 
ATOM     73  C   UNL A   1      41.706  34.557  31.349  1.00  0.00     0.010 A 
ATOM     74  C   UNL A   1      39.436  34.552  29.715  1.00  0.00     0.020 A 
ATOM     75  C   UNL A   1      40.448  34.322  31.911  1.00  0.00     0.020 A 
ATOM     76  C   UNL A   1      39.318  34.337  31.092  1.00  0.00     0.054 A 
BRANCH  76  77
ATOM     77  S   UNL A   1      37.671  34.045  31.789  1.00  0.00     0.124 S 
ATOM     78  O   UNL A   1      37.754  32.641  32.182  1.00  0.00    -0.237 OA
ATOM     79  O   UNL A   1      37.616  35.003  32.890  1.00  0.00    -0.237 OA
ATOM     80  O   UNL A   1      36.767  34.328  30.676  1.00  0.00    -0.744 OA
ENDBRANCH  76  77
ENDBRANCH  57  71
BRANCH  58  81
ATOM     81  C   UNL A   1      50.953  35.746  25.921  1.00  0.00    -0.014 A 
ATOM     82  C   UNL A   1      51.089  35.815  24.525  1.00  0.00     0.010 A 
ATOM     83  C   UNL A   1      52.108  35.820  26.723  1.00  0.00     0.010 A 
ATOM     84  C   UNL A   1      52.352  35.939  23.939  1.00  0.00     0.020 A 
ATOM     85  C   UNL A   1      53.370  35.976  26.144  1.00  0.00     0.020 A 
ATOM     86  C   UNL A   1      53.485  36.026  24.754  1.00  0.00     0.054 A 
BRANCH  86  87
ATOM     87  S   UNL A   1      55.109  36.245  23.974  1.00  0.00     0.124 S 
ATOM     88  O   UNL A   1      55.702  34.921  24.126  1.00  0.00    -0.237 OA
ATOM     89  O   UNL A   1      54.752  36.627  22.610  1.00  0.00    -0.237 OA
ATOM     90  O   UNL A   1      55.729  37.305  24.766  1.00  0.00    -0.744 OA
ENDBRANCH  86  87
ENDBRANCH  58  81
BRANCH  70  91
ATOM     91  C   UNL A   1      46.044  40.287  27.945  1.00  0.00    -0.014 A 
ATOM     92  C   UNL A   1      46.526  41.044  29.026  1.00  0.00     0.010 A 
ATOM     93  C   UNL A   1      45.550  40.957  26.808  1.00  0.00     0.010 A 
ATOM     94  C   UNL A   1      46.484  42.440  28.987  1.00  0.00     0.020 A 
ATOM     95  C   UNL A   1      45.538  42.352  26.751  1.00  0.00     0.020 A 
ATOM     96  C   UNL A   1      45.991  43.086  27.848  1.00  0.00     0.054 A 
BRANCH  96  97
ATOM     97  S   UNL A   1      45.987  44.899  27.806  1.00  0.00     0.124 S 
ATOM     98  O   UNL A   1      45.060  45.226  28.886  1.00  0.00    -0.237 OA
ATOM     99  O   UNL A   1      47.388  45.228  28.060  1.00  0.00    -0.237 OA
ATOM    100  O   UNL A   1      45.513  45.215  26.461  1.00  0.00    -0.744 OA
ENDBRANCH  96  97
ENDBRANCH  70  91
ENDBRANCH  44  45
ENDBRANCH  37  39
ENDBRANCH  36  37
ENDBRANCH  35  36
ENDBRANCH  34  35
ENDBRANCH  33  34
ENDBRANCH  32  33
ENDBRANCH  31  32
ENDBRANCH  30  31
ENDBRANCH   1  30
TORSDOF 27
ENDMDL
