MODEL 1
REMARK VINA RESULT:      -9.5      0.000      0.000
REMARK SMILES Cn1c(COc2ccc(C(=O)OCCOCCOCCOCCOC(=O)c3ccc(-c4c5nc(c(-c6ccc(S(=O)(=O)[O-])cc6)c6ccc([nH]6)c(-c6ccc(S(=O)(=O)[O-])cc6)c6nc(c(-c7ccc(S(=O)(=O)[O-])cc7)c7ccc4[nH]7)C=C6)C=C5)cc3)cc2)nc2ccccc21
REMARK SMILES IDX 18 1 17 2 16 3 15 4 14 5 13 6 12 7 10 8 11 9 9 10 6 11 7 12
REMARK SMILES IDX 88 13 8 14 87 15 5 16 4 17 3 18 1 19 2 20 95 21 89 22 90 23
REMARK SMILES IDX 94 24 91 25 93 26 92 27 19 28 20 29 21 30 22 31 23 32 24 33
REMARK SMILES IDX 25 34 26 35 27 36 28 37 86 38 29 39 85 40 30 41 31 42 32 43
REMARK SMILES IDX 79 44 33 45 84 46 78 47 80 48 34 49 83 50 77 51 76 52 35 54
REMARK SMILES IDX 65 55 46 56 64 57 47 58 50 59 63 60 81 61 48 62 49 63 62 65
REMARK SMILES IDX 82 66 51 67 36 68 37 69 45 70 38 71 44 72 39 73 40 74 41 75
REMARK SMILES IDX 42 76 43 77 66 78 67 79 75 80 68 81 74 82 69 83 70 84 71 85
REMARK SMILES IDX 72 86 73 87 52 88 53 89 61 90 54 91 60 92 55 93 56 94 57 95
REMARK SMILES IDX 58 96 59 97
REMARK H PARENT 80 53 50 64
REMARK Flexibility Score: inf
ROOT
ATOM      1  O   UNL A   1      39.891  22.350  27.154  1.00  0.00    -0.377 OA
ENDROOT
BRANCH   1   2
ATOM      2  C   UNL A   1      39.482  23.575  26.572  1.00  0.00     0.188 C 
BRANCH   2   3
ATOM      3  C   UNL A   1      37.975  23.707  26.273  1.00  0.00     0.188 C 
BRANCH   3   4
ATOM      4  O   UNL A   1      37.467  22.676  25.445  1.00  0.00    -0.376 OA
BRANCH   4   5
ATOM      5  C   UNL A   1      36.345  21.908  25.838  1.00  0.00     0.202 C 
BRANCH   5   6
ATOM      6  C   UNL A   1      35.622  20.950  24.880  1.00  0.00     0.261 C 
BRANCH   6   7
ATOM      7  O   UNL A   1      34.526  20.218  25.420  1.00  0.00    -0.460 OA
BRANCH   7   8
ATOM      8  C   UNL A   1      33.527  19.859  24.589  1.00  0.00     0.338 C 
ATOM      9  O   UNL A   1      33.251  18.736  24.213  1.00  0.00    -0.246 OA
BRANCH   8  10
ATOM     10  C   UNL A   1      32.691  21.064  24.359  1.00  0.00     0.060 A 
ATOM     11  C   UNL A   1      31.123  23.305  23.870  1.00  0.00     0.120 A 
ATOM     12  C   UNL A   1      31.717  22.644  22.800  1.00  0.00     0.047 A 
ATOM     13  C   UNL A   1      31.189  22.775  25.157  1.00  0.00     0.047 A 
ATOM     14  C   UNL A   1      32.506  21.519  23.045  1.00  0.00     0.019 A 
ATOM     15  C   UNL A   1      32.009  21.684  25.414  1.00  0.00     0.019 A 
BRANCH  11  16
ATOM     16  O   UNL A   1      30.466  24.486  23.642  1.00  0.00    -0.486 OA
BRANCH  16  17
ATOM     17  C   UNL A   1      31.396  25.525  23.240  1.00  0.00     0.304 C 
BRANCH  17  18
ATOM     18  C   UNL A   1      31.419  26.607  24.279  1.00  0.00     0.147 A 
ATOM     19  C   UNL A   1      30.204  28.425  22.978  1.00  0.00     0.151 C 
ATOM     20  N   UNL A   1      30.941  27.893  24.100  1.00  0.00    -0.328 N 
ATOM     21  C   UNL A   1      31.445  28.678  25.116  1.00  0.00     0.068 A 
ATOM     22  N   UNL A   1      32.048  26.510  25.438  1.00  0.00    -0.229 NA
ATOM     23  C   UNL A   1      32.137  27.786  25.926  1.00  0.00     0.089 A 
ATOM     24  C   UNL A   1      31.404  30.054  25.372  1.00  0.00     0.028 A 
ATOM     25  C   UNL A   1      32.844  28.265  27.038  1.00  0.00     0.030 A 
ATOM     26  C   UNL A   1      32.125  30.518  26.478  1.00  0.00     0.002 A 
ATOM     27  C   UNL A   1      32.839  29.641  27.297  1.00  0.00     0.002 A 
ENDBRANCH  17  18
ENDBRANCH  16  17
ENDBRANCH  11  16
ENDBRANCH   8  10
ENDBRANCH   7   8
ENDBRANCH   6   7
ENDBRANCH   5   6
ENDBRANCH   4   5
ENDBRANCH   3   4
ENDBRANCH   2   3
ENDBRANCH   1   2
BRANCH   1  28
ATOM     28  C   UNL A   1      40.646  21.419  26.377  1.00  0.00     0.188 C 
BRANCH  28  29
ATOM     29  C   UNL A   1      40.110  20.024  25.965  1.00  0.00     0.188 C 
BRANCH  29  30
ATOM     30  O   UNL A   1      41.102  19.084  25.586  1.00  0.00    -0.376 OA
BRANCH  30  31
ATOM     31  C   UNL A   1      42.403  19.227  26.124  1.00  0.00     0.202 C 
BRANCH  31  32
ATOM     32  C   UNL A   1      43.552  18.606  25.320  1.00  0.00     0.261 C 
BRANCH  32  33
ATOM     33  O   UNL A   1      44.001  19.357  24.183  1.00  0.00    -0.460 OA
BRANCH  33  34
ATOM     34  C   UNL A   1      45.251  19.876  24.243  1.00  0.00     0.338 C 
ATOM     35  O   UNL A   1      46.268  19.390  23.803  1.00  0.00    -0.246 OA
BRANCH  34  36
ATOM     36  C   UNL A   1      45.127  21.249  24.784  1.00  0.00     0.060 A 
ATOM     37  C   UNL A   1      44.738  22.288  23.929  1.00  0.00     0.016 A 
ATOM     38  C   UNL A   1      45.383  21.498  26.134  1.00  0.00     0.016 A 
ATOM     39  C   UNL A   1      44.636  23.592  24.420  1.00  0.00     0.010 A 
ATOM     40  C   UNL A   1      45.301  22.806  26.618  1.00  0.00     0.010 A 
ATOM     41  C   UNL A   1      44.959  23.863  25.756  1.00  0.00    -0.014 A 
BRANCH  41  42
ATOM     42  C   UNL A   1      45.135  25.265  26.207  1.00  0.00     0.031 A 
ATOM     43  C   UNL A   1      46.510  25.874  26.106  1.00  0.00     0.074 A 
ATOM     44  C   UNL A   1      44.105  25.992  26.677  1.00  0.00     0.049 A 
ATOM     45  N   UNL A   1      46.927  27.050  26.495  1.00  0.00    -0.248 NA
ATOM     46  C   UNL A   1      47.552  25.043  25.479  1.00  0.00     0.031 C 
ATOM     47  C   UNL A   1      42.718  25.537  26.771  1.00  0.00     0.029 A 
ATOM     48  N   UNL A   1      44.072  27.273  27.169  1.00  0.00    -0.354 N 
ATOM     49  C   UNL A   1      48.275  27.101  26.160  1.00  0.00     0.074 A 
ATOM     50  C   UNL A   1      48.617  25.824  25.574  1.00  0.00     0.031 C 
ATOM     51  C   UNL A   1      41.970  26.526  27.294  1.00  0.00     0.029 A 
ATOM     52  C   UNL A   1      42.830  27.665  27.611  1.00  0.00     0.049 A 
ATOM     53  H   UNL A   1      44.864  27.857  27.203  1.00  0.00     0.167 HD
ATOM     54  C   UNL A   1      49.149  28.124  26.312  1.00  0.00     0.031 A 
ATOM     55  C   UNL A   1      42.441  28.803  28.222  1.00  0.00     0.031 A 
ATOM     56  C   UNL A   1      48.813  29.386  26.914  1.00  0.00     0.049 A 
ATOM     57  C   UNL A   1      43.464  29.883  28.487  1.00  0.00     0.074 A 
ATOM     58  C   UNL A   1      49.632  30.480  27.131  1.00  0.00     0.029 A 
ATOM     59  N   UNL A   1      47.558  29.723  27.394  1.00  0.00    -0.354 N 
ATOM     60  N   UNL A   1      44.735  29.919  28.159  1.00  0.00    -0.248 NA
ATOM     61  C   UNL A   1      42.996  31.080  29.201  1.00  0.00     0.031 C 
ATOM     62  C   UNL A   1      48.885  31.459  27.793  1.00  0.00     0.029 A 
ATOM     63  C   UNL A   1      47.584  31.001  27.924  1.00  0.00     0.049 A 
ATOM     64  H   UNL A   1      46.765  29.141  27.362  1.00  0.00     0.167 HD
ATOM     65  C   UNL A   1      45.202  31.158  28.589  1.00  0.00     0.074 A 
ATOM     66  C   UNL A   1      44.077  31.846  29.186  1.00  0.00     0.031 C 
ATOM     67  C   UNL A   1      46.450  31.681  28.499  1.00  0.00     0.031 A 
BRANCH  54  68
ATOM     68  C   UNL A   1      50.561  27.913  25.833  1.00  0.00    -0.014 A 
ATOM     69  C   UNL A   1      51.547  27.395  26.692  1.00  0.00     0.010 A 
ATOM     70  C   UNL A   1      50.893  28.177  24.492  1.00  0.00     0.010 A 
ATOM     71  C   UNL A   1      52.843  27.166  26.226  1.00  0.00     0.020 A 
ATOM     72  C   UNL A   1      52.181  27.923  24.014  1.00  0.00     0.020 A 
ATOM     73  C   UNL A   1      53.151  27.427  24.887  1.00  0.00     0.054 A 
BRANCH  73  74
ATOM     74  S   UNL A   1      54.829  27.070  24.300  1.00  0.00     0.124 S 
ATOM     75  O   UNL A   1      54.567  26.365  23.048  1.00  0.00    -0.237 OA
ATOM     76  O   UNL A   1      55.408  28.404  24.160  1.00  0.00    -0.237 OA
ATOM     77  O   UNL A   1      55.404  26.253  25.366  1.00  0.00    -0.744 OA
ENDBRANCH  73  74
ENDBRANCH  54  68
BRANCH  55  78
ATOM     78  C   UNL A   1      41.027  28.987  28.661  1.00  0.00    -0.014 A 
ATOM     79  C   UNL A   1      40.104  29.668  27.846  1.00  0.00     0.010 A 
ATOM     80  C   UNL A   1      40.611  28.535  29.927  1.00  0.00     0.010 A 
ATOM     81  C   UNL A   1      38.808  29.930  28.305  1.00  0.00     0.020 A 
ATOM     82  C   UNL A   1      39.307  28.763  30.375  1.00  0.00     0.020 A 
ATOM     83  C   UNL A   1      38.420  29.478  29.569  1.00  0.00     0.054 A 
BRANCH  83  84
ATOM     84  S   UNL A   1      36.733  29.823  30.142  1.00  0.00     0.124 S 
ATOM     85  O   UNL A   1      36.650  29.008  31.351  1.00  0.00    -0.237 OA
ATOM     86  O   UNL A   1      36.760  31.268  30.351  1.00  0.00    -0.237 OA
ATOM     87  O   UNL A   1      35.896  29.378  29.029  1.00  0.00    -0.744 OA
ENDBRANCH  83  84
ENDBRANCH  55  78
BRANCH  67  88
ATOM     88  C   UNL A   1      46.659  33.088  28.999  1.00  0.00    -0.014 A 
ATOM     89  C   UNL A   1      47.005  33.350  30.335  1.00  0.00     0.010 A 
ATOM     90  C   UNL A   1      46.562  34.163  28.094  1.00  0.00     0.010 A 
ATOM     91  C   UNL A   1      47.216  34.663  30.767  1.00  0.00     0.020 A 
ATOM     92  C   UNL A   1      46.805  35.474  28.513  1.00  0.00     0.020 A 
ATOM     93  C   UNL A   1      47.116  35.717  29.852  1.00  0.00     0.054 A 
BRANCH  93  94
ATOM     94  S   UNL A   1      47.438  37.406  30.429  1.00  0.00     0.124 S 
ATOM     95  O   UNL A   1      46.728  37.433  31.705  1.00  0.00    -0.237 OA
ATOM     96  O   UNL A   1      48.896  37.441  30.518  1.00  0.00    -0.237 OA
ATOM     97  O   UNL A   1      46.863  38.247  29.380  1.00  0.00    -0.744 OA
ENDBRANCH  93  94
ENDBRANCH  67  88
ENDBRANCH  41  42
ENDBRANCH  34  36
ENDBRANCH  33  34
ENDBRANCH  32  33
ENDBRANCH  31  32
ENDBRANCH  30  31
ENDBRANCH  29  30
ENDBRANCH  28  29
ENDBRANCH   1  28
TORSDOF 26
ENDMDL
MODEL 2
REMARK VINA RESULT:      -9.4      5.899      8.280
REMARK SMILES Cn1c(COc2ccc(C(=O)OCCOCCOCCOCCOC(=O)c3ccc(-c4c5nc(c(-c6ccc(S(=O)(=O)[O-])cc6)c6ccc([nH]6)c(-c6ccc(S(=O)(=O)[O-])cc6)c6nc(c(-c7ccc(S(=O)(=O)[O-])cc7)c7ccc4[nH]7)C=C6)C=C5)cc3)cc2)nc2ccccc21
REMARK SMILES IDX 18 1 17 2 16 3 15 4 14 5 13 6 12 7 10 8 11 9 9 10 6 11 7 12
REMARK SMILES IDX 88 13 8 14 87 15 5 16 4 17 3 18 1 19 2 20 95 21 89 22 90 23
REMARK SMILES IDX 94 24 91 25 93 26 92 27 19 28 20 29 21 30 22 31 23 32 24 33
REMARK SMILES IDX 25 34 26 35 27 36 28 37 86 38 29 39 85 40 30 41 31 42 32 43
REMARK SMILES IDX 79 44 33 45 84 46 78 47 80 48 34 49 83 50 77 51 76 52 35 54
REMARK SMILES IDX 65 55 46 56 64 57 47 58 50 59 63 60 81 61 48 62 49 63 62 65
REMARK SMILES IDX 82 66 51 67 36 68 37 69 45 70 38 71 44 72 39 73 40 74 41 75
REMARK SMILES IDX 42 76 43 77 66 78 67 79 75 80 68 81 74 82 69 83 70 84 71 85
REMARK SMILES IDX 72 86 73 87 52 88 53 89 61 90 54 91 60 92 55 93 56 94 57 95
REMARK SMILES IDX 58 96 59 97
REMARK H PARENT 80 53 50 64
REMARK Flexibility Score: inf
ROOT
ATOM      1  O   UNL A   1      44.025  18.647  25.900  1.00  0.00    -0.377 OA
ENDROOT
BRANCH   1   2
ATOM      2  C   UNL A   1      42.690  18.449  26.331  1.00  0.00     0.188 C 
BRANCH   2   3
ATOM      3  C   UNL A   1      42.190  19.405  27.432  1.00  0.00     0.188 C 
BRANCH   3   4
ATOM      4  O   UNL A   1      41.956  20.725  26.976  1.00  0.00    -0.376 OA
BRANCH   4   5
ATOM      5  C   UNL A   1      40.643  21.192  26.727  1.00  0.00     0.202 C 
BRANCH   5   6
ATOM      6  C   UNL A   1      39.735  20.572  25.654  1.00  0.00     0.261 C 
BRANCH   6   7
ATOM      7  O   UNL A   1      38.492  21.227  25.418  1.00  0.00    -0.460 OA
BRANCH   7   8
ATOM      8  C   UNL A   1      37.487  20.511  24.878  1.00  0.00     0.338 C 
ATOM      9  O   UNL A   1      37.392  19.299  24.825  1.00  0.00    -0.246 OA
BRANCH   8  10
ATOM     10  C   UNL A   1      36.406  21.465  24.522  1.00  0.00     0.060 A 
ATOM     11  C   UNL A   1      34.419  23.273  23.813  1.00  0.00     0.120 A 
ATOM     12  C   UNL A   1      35.711  23.457  23.331  1.00  0.00     0.047 A 
ATOM     13  C   UNL A   1      34.086  22.121  24.523  1.00  0.00     0.047 A 
ATOM     14  C   UNL A   1      36.710  22.550  23.687  1.00  0.00     0.019 A 
ATOM     15  C   UNL A   1      35.083  21.240  24.921  1.00  0.00     0.019 A 
BRANCH  11  16
ATOM     16  O   UNL A   1      33.475  24.237  23.577  1.00  0.00    -0.486 OA
BRANCH  16  17
ATOM     17  C   UNL A   1      33.647  25.360  24.479  1.00  0.00     0.304 C 
BRANCH  17  18
ATOM     18  C   UNL A   1      32.422  26.225  24.443  1.00  0.00     0.147 A 
ATOM     19  C   UNL A   1      30.654  24.397  24.370  1.00  0.00     0.151 C 
ATOM     20  N   UNL A   1      31.123  25.761  24.328  1.00  0.00    -0.328 N 
ATOM     21  C   UNL A   1      30.323  26.828  23.977  1.00  0.00     0.068 A 
ATOM     22  N   UNL A   1      32.447  27.544  24.352  1.00  0.00    -0.229 NA
ATOM     23  C   UNL A   1      31.181  27.920  23.991  1.00  0.00     0.089 A 
ATOM     24  C   UNL A   1      28.975  26.932  23.609  1.00  0.00     0.028 A 
ATOM     25  C   UNL A   1      30.703  29.182  23.609  1.00  0.00     0.030 A 
ATOM     26  C   UNL A   1      28.517  28.195  23.219  1.00  0.00     0.002 A 
ATOM     27  C   UNL A   1      29.367  29.304  23.212  1.00  0.00     0.002 A 
ENDBRANCH  17  18
ENDBRANCH  16  17
ENDBRANCH  11  16
ENDBRANCH   8  10
ENDBRANCH   7   8
ENDBRANCH   6   7
ENDBRANCH   5   6
ENDBRANCH   4   5
ENDBRANCH   3   4
ENDBRANCH   2   3
ENDBRANCH   1   2
BRANCH   1  28
ATOM     28  C   UNL A   1      44.272  19.267  24.637  1.00  0.00     0.188 C 
BRANCH  28  29
ATOM     29  C   UNL A   1      44.939  20.660  24.491  1.00  0.00     0.188 C 
BRANCH  29  30
ATOM     30  O   UNL A   1      44.087  21.766  24.744  1.00  0.00    -0.376 OA
BRANCH  30  31
ATOM     31  C   UNL A   1      44.677  22.988  25.147  1.00  0.00     0.202 C 
BRANCH  31  32
ATOM     32  C   UNL A   1      43.810  24.247  25.013  1.00  0.00     0.261 C 
BRANCH  32  33
ATOM     33  O   UNL A   1      42.864  24.475  26.067  1.00  0.00    -0.460 OA
BRANCH  33  34
ATOM     34  C   UNL A   1      41.947  25.452  25.869  1.00  0.00     0.338 C 
ATOM     35  O   UNL A   1      41.227  25.598  24.908  1.00  0.00    -0.246 OA
BRANCH  34  36
ATOM     36  C   UNL A   1      41.845  26.215  27.134  1.00  0.00     0.060 A 
ATOM     37  C   UNL A   1      40.823  25.905  28.039  1.00  0.00     0.016 A 
ATOM     38  C   UNL A   1      42.767  27.223  27.424  1.00  0.00     0.016 A 
ATOM     39  C   UNL A   1      40.702  26.629  29.228  1.00  0.00     0.010 A 
ATOM     40  C   UNL A   1      42.632  27.960  28.602  1.00  0.00     0.010 A 
ATOM     41  C   UNL A   1      41.579  27.688  29.494  1.00  0.00    -0.014 A 
BRANCH  41  42
ATOM     42  C   UNL A   1      41.284  28.638  30.595  1.00  0.00     0.031 A 
ATOM     43  C   UNL A   1      42.142  28.577  31.832  1.00  0.00     0.074 A 
ATOM     44  C   UNL A   1      40.297  29.548  30.498  1.00  0.00     0.049 A 
ATOM     45  N   UNL A   1      42.040  29.253  32.946  1.00  0.00    -0.248 NA
ATOM     46  C   UNL A   1      43.266  27.625  31.805  1.00  0.00     0.031 C 
ATOM     47  C   UNL A   1      39.436  29.746  29.332  1.00  0.00     0.029 A 
ATOM     48  N   UNL A   1      39.852  30.476  31.406  1.00  0.00    -0.354 N 
ATOM     49  C   UNL A   1      43.084  28.811  33.750  1.00  0.00     0.074 A 
ATOM     50  C   UNL A   1      43.783  27.782  33.015  1.00  0.00     0.031 C 
ATOM     51  C   UNL A   1      38.562  30.734  29.600  1.00  0.00     0.029 A 
ATOM     52  C   UNL A   1      38.773  31.208  30.968  1.00  0.00     0.049 A 
ATOM     53  H   UNL A   1      40.266  30.607  32.290  1.00  0.00     0.167 HD
ATOM     54  C   UNL A   1      43.440  29.234  34.987  1.00  0.00     0.031 A 
ATOM     55  C   UNL A   1      38.029  32.134  31.607  1.00  0.00     0.031 A 
ATOM     56  C   UNL A   1      42.733  30.244  35.726  1.00  0.00     0.049 A 
ATOM     57  C   UNL A   1      38.377  32.503  33.030  1.00  0.00     0.074 A 
ATOM     58  C   UNL A   1      43.002  30.730  36.993  1.00  0.00     0.029 A 
ATOM     59  N   UNL A   1      41.616  30.923  35.265  1.00  0.00    -0.354 N 
ATOM     60  N   UNL A   1      39.371  32.080  33.776  1.00  0.00    -0.248 NA
ATOM     61  C   UNL A   1      37.503  33.480  33.695  1.00  0.00     0.031 C 
ATOM     62  C   UNL A   1      42.016  31.664  37.321  1.00  0.00     0.029 A 
ATOM     63  C   UNL A   1      41.173  31.811  36.231  1.00  0.00     0.049 A 
ATOM     64  H   UNL A   1      41.199  30.794  34.383  1.00  0.00     0.167 HD
ATOM     65  C   UNL A   1      39.264  32.773  34.979  1.00  0.00     0.074 A 
ATOM     66  C   UNL A   1      38.119  33.651  34.856  1.00  0.00     0.031 C 
ATOM     67  C   UNL A   1      40.042  32.692  36.087  1.00  0.00     0.031 A 
BRANCH  54  68
ATOM     68  C   UNL A   1      44.644  28.592  35.625  1.00  0.00    -0.014 A 
ATOM     69  C   UNL A   1      44.511  27.446  36.429  1.00  0.00     0.010 A 
ATOM     70  C   UNL A   1      45.930  29.102  35.368  1.00  0.00     0.010 A 
ATOM     71  C   UNL A   1      45.638  26.836  36.983  1.00  0.00     0.020 A 
ATOM     72  C   UNL A   1      47.062  28.478  35.897  1.00  0.00     0.020 A 
ATOM     73  C   UNL A   1      46.908  27.353  36.709  1.00  0.00     0.054 A 
BRANCH  73  74
ATOM     74  S   UNL A   1      48.355  26.506  37.401  1.00  0.00     0.124 S 
ATOM     75  O   UNL A   1      47.846  25.152  37.599  1.00  0.00    -0.237 OA
ATOM     76  O   UNL A   1      49.348  26.655  36.341  1.00  0.00    -0.237 OA
ATOM     77  O   UNL A   1      48.639  27.249  38.627  1.00  0.00    -0.744 OA
ENDBRANCH  73  74
ENDBRANCH  54  68
BRANCH  55  78
ATOM     78  C   UNL A   1      36.858  32.767  30.934  1.00  0.00    -0.014 A 
ATOM     79  C   UNL A   1      37.039  33.641  29.846  1.00  0.00     0.010 A 
ATOM     80  C   UNL A   1      35.555  32.547  31.418  1.00  0.00     0.010 A 
ATOM     81  C   UNL A   1      35.949  34.314  29.285  1.00  0.00     0.020 A 
ATOM     82  C   UNL A   1      34.459  33.189  30.837  1.00  0.00     0.020 A 
ATOM     83  C   UNL A   1      34.665  34.086  29.788  1.00  0.00     0.054 A 
BRANCH  83  84
ATOM     84  S   UNL A   1      33.263  34.963  29.041  1.00  0.00     0.124 S 
ATOM     85  O   UNL A   1      32.378  35.151  30.186  1.00  0.00    -0.237 OA
ATOM     86  O   UNL A   1      33.891  36.173  28.519  1.00  0.00    -0.237 OA
ATOM     87  O   UNL A   1      32.780  34.032  28.023  1.00  0.00    -0.744 OA
ENDBRANCH  83  84
ENDBRANCH  55  78
BRANCH  67  88
ATOM     88  C   UNL A   1      39.725  33.617  37.235  1.00  0.00    -0.014 A 
ATOM     89  C   UNL A   1      38.929  33.202  38.316  1.00  0.00     0.010 A 
ATOM     90  C   UNL A   1      40.288  34.908  37.256  1.00  0.00     0.010 A 
ATOM     91  C   UNL A   1      38.672  34.073  39.379  1.00  0.00     0.020 A 
ATOM     92  C   UNL A   1      40.060  35.769  38.332  1.00  0.00     0.020 A 
ATOM     93  C   UNL A   1      39.241  35.351  39.381  1.00  0.00     0.054 A 
BRANCH  93  94
ATOM     94  S   UNL A   1      38.925  36.443  40.794  1.00  0.00     0.124 S 
ATOM     95  O   UNL A   1      38.493  37.674  40.137  1.00  0.00    -0.237 OA
ATOM     96  O   UNL A   1      37.887  35.724  41.528  1.00  0.00    -0.237 OA
ATOM     97  O   UNL A   1      40.219  36.520  41.470  1.00  0.00    -0.744 OA
ENDBRANCH  93  94
ENDBRANCH  67  88
ENDBRANCH  41  42
ENDBRANCH  34  36
ENDBRANCH  33  34
ENDBRANCH  32  33
ENDBRANCH  31  32
ENDBRANCH  30  31
ENDBRANCH  29  30
ENDBRANCH  28  29
ENDBRANCH   1  28
TORSDOF 26
ENDMDL
MODEL 3
REMARK VINA RESULT:      -9.0      5.962     10.240
REMARK SMILES Cn1c(COc2ccc(C(=O)OCCOCCOCCOCCOC(=O)c3ccc(-c4c5nc(c(-c6ccc(S(=O)(=O)[O-])cc6)c6ccc([nH]6)c(-c6ccc(S(=O)(=O)[O-])cc6)c6nc(c(-c7ccc(S(=O)(=O)[O-])cc7)c7ccc4[nH]7)C=C6)C=C5)cc3)cc2)nc2ccccc21
REMARK SMILES IDX 18 1 17 2 16 3 15 4 14 5 13 6 12 7 10 8 11 9 9 10 6 11 7 12
REMARK SMILES IDX 88 13 8 14 87 15 5 16 4 17 3 18 1 19 2 20 95 21 89 22 90 23
REMARK SMILES IDX 94 24 91 25 93 26 92 27 19 28 20 29 21 30 22 31 23 32 24 33
REMARK SMILES IDX 25 34 26 35 27 36 28 37 86 38 29 39 85 40 30 41 31 42 32 43
REMARK SMILES IDX 79 44 33 45 84 46 78 47 80 48 34 49 83 50 77 51 76 52 35 54
REMARK SMILES IDX 65 55 46 56 64 57 47 58 50 59 63 60 81 61 48 62 49 63 62 65
REMARK SMILES IDX 82 66 51 67 36 68 37 69 45 70 38 71 44 72 39 73 40 74 41 75
REMARK SMILES IDX 42 76 43 77 66 78 67 79 75 80 68 81 74 82 69 83 70 84 71 85
REMARK SMILES IDX 72 86 73 87 52 88 53 89 61 90 54 91 60 92 55 93 56 94 57 95
REMARK SMILES IDX 58 96 59 97
REMARK H PARENT 80 53 50 64
REMARK Flexibility Score: inf
ROOT
ATOM      1  O   UNL A   1      38.753  22.442  26.739  1.00  0.00    -0.377 OA
ENDROOT
BRANCH   1   2
ATOM      2  C   UNL A   1      38.302  23.618  26.089  1.00  0.00     0.188 C 
BRANCH   2   3
ATOM      3  C   UNL A   1      36.976  23.491  25.312  1.00  0.00     0.188 C 
BRANCH   3   4
ATOM      4  O   UNL A   1      36.360  22.222  25.444  1.00  0.00    -0.376 OA
BRANCH   4   5
ATOM      5  C   UNL A   1      35.214  22.045  26.256  1.00  0.00     0.202 C 
BRANCH   5   6
ATOM      6  C   UNL A   1      34.220  20.895  26.044  1.00  0.00     0.261 C 
BRANCH   6   7
ATOM      7  O   UNL A   1      32.954  21.242  25.492  1.00  0.00    -0.460 OA
BRANCH   7   8
ATOM      8  C   UNL A   1      32.783  21.120  24.161  1.00  0.00     0.338 C 
ATOM      9  O   UNL A   1      32.707  20.089  23.521  1.00  0.00    -0.246 OA
BRANCH   8  10
ATOM     10  C   UNL A   1      32.509  22.477  23.625  1.00  0.00     0.060 A 
ATOM     11  C   UNL A   1      32.048  25.016  22.595  1.00  0.00     0.120 A 
ATOM     12  C   UNL A   1      33.341  24.502  22.585  1.00  0.00     0.047 A 
ATOM     13  C   UNL A   1      30.971  24.220  22.980  1.00  0.00     0.047 A 
ATOM     14  C   UNL A   1      33.573  23.227  23.104  1.00  0.00     0.019 A 
ATOM     15  C   UNL A   1      31.200  22.970  23.540  1.00  0.00     0.019 A 
BRANCH  11  16
ATOM     16  O   UNL A   1      31.845  26.317  22.216  1.00  0.00    -0.486 OA
BRANCH  16  17
ATOM     17  C   UNL A   1      30.701  26.884  22.905  1.00  0.00     0.304 C 
BRANCH  17  18
ATOM     18  C   UNL A   1      31.160  27.576  24.155  1.00  0.00     0.147 A 
ATOM     19  C   UNL A   1      30.120  29.861  23.742  1.00  0.00     0.151 C 
ATOM     20  N   UNL A   1      30.938  28.908  24.454  1.00  0.00    -0.328 N 
ATOM     21  C   UNL A   1      31.790  29.259  25.480  1.00  0.00     0.068 A 
ATOM     22  N   UNL A   1      31.974  27.036  25.045  1.00  0.00    -0.229 NA
ATOM     23  C   UNL A   1      32.427  28.072  25.818  1.00  0.00     0.089 A 
ATOM     24  C   UNL A   1      32.093  30.480  26.097  1.00  0.00     0.028 A 
ATOM     25  C   UNL A   1      33.428  28.077  26.799  1.00  0.00     0.030 A 
ATOM     26  C   UNL A   1      33.102  30.470  27.066  1.00  0.00     0.002 A 
ATOM     27  C   UNL A   1      33.765  29.291  27.410  1.00  0.00     0.002 A 
ENDBRANCH  17  18
ENDBRANCH  16  17
ENDBRANCH  11  16
ENDBRANCH   8  10
ENDBRANCH   7   8
ENDBRANCH   6   7
ENDBRANCH   5   6
ENDBRANCH   4   5
ENDBRANCH   3   4
ENDBRANCH   2   3
ENDBRANCH   1   2
BRANCH   1  28
ATOM     28  C   UNL A   1      39.430  21.436  25.983  1.00  0.00     0.188 C 
BRANCH  28  29
ATOM     29  C   UNL A   1      40.852  20.926  26.331  1.00  0.00     0.188 C 
BRANCH  29  30
ATOM     30  O   UNL A   1      41.915  21.631  25.710  1.00  0.00    -0.376 OA
BRANCH  30  31
ATOM     31  C   UNL A   1      42.309  22.874  26.261  1.00  0.00     0.202 C 
BRANCH  31  32
ATOM     32  C   UNL A   1      42.901  23.900  25.287  1.00  0.00     0.261 C 
BRANCH  32  33
ATOM     33  O   UNL A   1      42.546  25.270  25.524  1.00  0.00    -0.460 OA
BRANCH  33  34
ATOM     34  C   UNL A   1      43.523  26.088  25.982  1.00  0.00     0.338 C 
ATOM     35  O   UNL A   1      44.610  26.280  25.487  1.00  0.00    -0.246 OA
BRANCH  34  36
ATOM     36  C   UNL A   1      42.952  26.860  27.109  1.00  0.00     0.060 A 
ATOM     37  C   UNL A   1      43.261  28.220  27.232  1.00  0.00     0.016 A 
ATOM     38  C   UNL A   1      42.105  26.239  28.029  1.00  0.00     0.016 A 
ATOM     39  C   UNL A   1      42.746  28.958  28.301  1.00  0.00     0.010 A 
ATOM     40  C   UNL A   1      41.608  26.973  29.109  1.00  0.00     0.010 A 
ATOM     41  C   UNL A   1      41.952  28.327  29.267  1.00  0.00    -0.014 A 
BRANCH  41  42
ATOM     42  C   UNL A   1      41.646  29.017  30.544  1.00  0.00     0.031 A 
ATOM     43  C   UNL A   1      40.477  29.967  30.573  1.00  0.00     0.074 A 
ATOM     44  C   UNL A   1      42.368  28.798  31.658  1.00  0.00     0.049 A 
ATOM     45  N   UNL A   1      40.054  30.733  31.544  1.00  0.00    -0.248 NA
ATOM     46  C   UNL A   1      39.677  30.062  29.339  1.00  0.00     0.031 C 
ATOM     47  C   UNL A   1      43.486  27.861  31.775  1.00  0.00     0.029 A 
ATOM     48  N   UNL A   1      42.267  29.357  32.908  1.00  0.00    -0.354 N 
ATOM     49  C   UNL A   1      38.942  31.398  31.040  1.00  0.00     0.074 A 
ATOM     50  C   UNL A   1      38.779  30.978  29.667  1.00  0.00     0.031 C 
ATOM     51  C   UNL A   1      43.970  27.915  33.029  1.00  0.00     0.029 A 
ATOM     52  C   UNL A   1      43.226  28.918  33.791  1.00  0.00     0.049 A 
ATOM     53  H   UNL A   1      41.573  30.012  33.150  1.00  0.00     0.167 HD
ATOM     54  C   UNL A   1      38.119  32.271  31.669  1.00  0.00     0.031 A 
ATOM     55  C   UNL A   1      43.486  29.300  35.058  1.00  0.00     0.031 A 
ATOM     56  C   UNL A   1      38.293  32.704  33.029  1.00  0.00     0.049 A 
ATOM     57  C   UNL A   1      42.623  30.363  35.697  1.00  0.00     0.074 A 
ATOM     58  C   UNL A   1      37.525  33.599  33.752  1.00  0.00     0.029 A 
ATOM     59  N   UNL A   1      39.306  32.273  33.871  1.00  0.00    -0.354 N 
ATOM     60  N   UNL A   1      41.571  30.980  35.210  1.00  0.00    -0.248 NA
ATOM     61  C   UNL A   1      42.982  30.779  37.061  1.00  0.00     0.031 C 
ATOM     62  C   UNL A   1      38.105  33.752  35.014  1.00  0.00     0.029 A 
ATOM     63  C   UNL A   1      39.194  32.899  35.101  1.00  0.00     0.049 A 
ATOM     64  H   UNL A   1      40.002  31.620  33.632  1.00  0.00     0.167 HD
ATOM     65  C   UNL A   1      41.120  31.820  36.224  1.00  0.00     0.074 A 
ATOM     66  C   UNL A   1      42.004  31.624  37.355  1.00  0.00     0.031 C 
ATOM     67  C   UNL A   1      40.071  32.679  36.224  1.00  0.00     0.031 A 
BRANCH  54  68
ATOM     68  C   UNL A   1      36.961  32.829  30.884  1.00  0.00    -0.014 A 
ATOM     69  C   UNL A   1      35.652  32.360  31.094  1.00  0.00     0.010 A 
ATOM     70  C   UNL A   1      37.174  33.877  29.969  1.00  0.00     0.010 A 
ATOM     71  C   UNL A   1      34.581  32.912  30.389  1.00  0.00     0.020 A 
ATOM     72  C   UNL A   1      36.101  34.451  29.283  1.00  0.00     0.020 A 
ATOM     73  C   UNL A   1      34.812  33.959  29.490  1.00  0.00     0.054 A 
BRANCH  73  74
ATOM     74  S   UNL A   1      33.392  34.689  28.629  1.00  0.00     0.124 S 
ATOM     75  O   UNL A   1      32.532  35.079  29.743  1.00  0.00    -0.237 OA
ATOM     76  O   UNL A   1      34.002  35.791  27.890  1.00  0.00    -0.237 OA
ATOM     77  O   UNL A   1      32.885  33.594  27.805  1.00  0.00    -0.744 OA
ENDBRANCH  73  74
ENDBRANCH  54  68
BRANCH  55  78
ATOM     78  C   UNL A   1      44.627  28.708  35.814  1.00  0.00    -0.014 A 
ATOM     79  C   UNL A   1      44.405  27.734  36.805  1.00  0.00     0.010 A 
ATOM     80  C   UNL A   1      45.941  29.160  35.589  1.00  0.00     0.010 A 
ATOM     81  C   UNL A   1      45.465  27.258  37.584  1.00  0.00     0.020 A 
ATOM     82  C   UNL A   1      47.007  28.660  36.340  1.00  0.00     0.020 A 
ATOM     83  C   UNL A   1      46.759  27.727  37.348  1.00  0.00     0.054 A 
BRANCH  83  84
ATOM     84  S   UNL A   1      48.121  27.091  38.365  1.00  0.00     0.124 S 
ATOM     85  O   UNL A   1      47.561  27.176  39.710  1.00  0.00    -0.237 OA
ATOM     86  O   UNL A   1      48.303  25.741  37.837  1.00  0.00    -0.237 OA
ATOM     87  O   UNL A   1      49.218  28.014  38.083  1.00  0.00    -0.744 OA
ENDBRANCH  83  84
ENDBRANCH  55  78
BRANCH  67  88
ATOM     88  C   UNL A   1      39.775  33.427  37.499  1.00  0.00    -0.014 A 
ATOM     89  C   UNL A   1      38.846  32.944  38.437  1.00  0.00     0.010 A 
ATOM     90  C   UNL A   1      40.487  34.607  37.787  1.00  0.00     0.010 A 
ATOM     91  C   UNL A   1      38.608  33.646  39.622  1.00  0.00     0.020 A 
ATOM     92  C   UNL A   1      40.277  35.294  38.986  1.00  0.00     0.020 A 
ATOM     93  C   UNL A   1      39.327  34.816  39.890  1.00  0.00     0.054 A 
BRANCH  93  94
ATOM     94  S   UNL A   1      39.030  35.683  41.455  1.00  0.00     0.124 S 
ATOM     95  O   UNL A   1      38.751  37.042  41.003  1.00  0.00    -0.237 OA
ATOM     96  O   UNL A   1      37.889  34.957  42.010  1.00  0.00    -0.237 OA
ATOM     97  O   UNL A   1      40.284  35.516  42.188  1.00  0.00    -0.744 OA
ENDBRANCH  93  94
ENDBRANCH  67  88
ENDBRANCH  41  42
ENDBRANCH  34  36
ENDBRANCH  33  34
ENDBRANCH  32  33
ENDBRANCH  31  32
ENDBRANCH  30  31
ENDBRANCH  29  30
ENDBRANCH  28  29
ENDBRANCH   1  28
TORSDOF 26
ENDMDL
