MODEL 1
REMARK VINA RESULT:      -8.7      0.000      0.000
REMARK SMILES CC[C@@H]1CCCN1C(=O)N1CC[C@@H](C(=O)OCCOCCOCCOCCOC(=O)c2ccc(-c3c4nc(c(-c5ccc(S(=O)(=O)[O-])cc5)c5ccc([nH]5)c(-c5ccc(S(=O)(=O)[O-])cc5)c5nc(c(-c6ccc(S(=O)(=O)[O-])cc6)c6ccc3[nH]6)C=C5)C=C4)cc2)[C@@H]1C
REMARK SMILES IDX 22 1 21 2 20 3 19 4 18 5 17 6 16 7 14 8 15 9 13 10 10 11
REMARK SMILES IDX 11 12 91 13 12 14 92 15 8 16 9 17 7 18 3 19 4 20 5 21 6 22
REMARK SMILES IDX 2 23 1 24 23 25 24 26 25 27 26 28 27 29 28 30 29 31 30 32
REMARK SMILES IDX 31 33 32 34 90 35 33 36 89 37 34 38 35 39 36 40 83 41 37 42
REMARK SMILES IDX 88 43 82 44 84 45 38 46 87 47 81 48 80 49 39 51 69 52 50 53
REMARK SMILES IDX 68 54 51 55 54 56 67 57 85 58 52 59 53 60 66 62 86 63 55 64
REMARK SMILES IDX 40 65 41 66 49 67 42 68 48 69 43 70 44 71 45 72 46 73 47 74
REMARK SMILES IDX 70 75 71 76 79 77 72 78 78 79 73 80 74 81 75 82 76 83 77 84
REMARK SMILES IDX 56 85 57 86 65 87 58 88 64 89 59 90 60 91 61 92 62 93 63 94
REMARK H PARENT 84 50 54 61
REMARK Flexibility Score: inf
ROOT
ATOM      1  O   UNL A   1      34.708  23.322  23.587  1.00  0.00    -0.377 OA
ENDROOT
BRANCH   1   2
ATOM      2  C   UNL A   1      33.713  22.993  22.633  1.00  0.00     0.188 C 
BRANCH   2   3
ATOM      3  C   UNL A   1      33.189  24.155  21.769  1.00  0.00     0.188 C 
BRANCH   3   4
ATOM      4  O   UNL A   1      31.869  24.543  22.096  1.00  0.00    -0.376 OA
BRANCH   4   5
ATOM      5  C   UNL A   1      31.227  23.971  23.224  1.00  0.00     0.202 C 
BRANCH   5   6
ATOM      6  C   UNL A   1      30.886  24.818  24.470  1.00  0.00     0.261 C 
BRANCH   6   7
ATOM      7  O   UNL A   1      31.941  24.981  25.419  1.00  0.00    -0.463 OA
BRANCH   7   8
ATOM      8  C   UNL A   1      32.677  26.115  25.323  1.00  0.00     0.311 C 
ATOM      9  O   UNL A   1      33.752  26.190  24.743  1.00  0.00    -0.252 OA
BRANCH   8  10
ATOM     10  C   UNL A   1      31.862  27.299  25.824  1.00  0.00     0.123 C 
ATOM     11  N   UNL A   1      33.124  29.266  26.307  1.00  0.00    -0.321 N 
ATOM     12  C   UNL A   1      33.032  29.093  24.883  1.00  0.00     0.122 C 
ATOM     13  C   UNL A   1      32.510  28.091  26.961  1.00  0.00     0.098 C 
ATOM     14  C   UNL A   1      31.746  28.327  24.703  1.00  0.00     0.039 C 
ATOM     15  C   UNL A   1      31.451  28.555  27.968  1.00  0.00     0.032 C 
BRANCH  11  16
ATOM     16  C   UNL A   1      34.085  29.966  26.971  1.00  0.00     0.320 C 
ATOM     17  O   UNL A   1      35.130  29.377  27.278  1.00  0.00    -0.248 OA
BRANCH  16  18
ATOM     18  N   UNL A   1      33.894  31.276  27.360  1.00  0.00    -0.322 N 
ATOM     19  C   UNL A   1      32.702  32.138  27.561  1.00  0.00     0.086 C 
ATOM     20  C   UNL A   1      33.299  33.437  28.134  1.00  0.00     0.027 C 
ATOM     21  C   UNL A   1      34.461  32.966  28.967  1.00  0.00     0.024 C 
ATOM     22  C   UNL A   1      35.002  31.800  28.165  1.00  0.00     0.122 C 
BRANCH  19  23
ATOM     23  C   UNL A   1      31.757  32.561  26.427  1.00  0.00     0.022 C 
ATOM     24  C   UNL A   1      30.725  31.514  26.014  1.00  0.00     0.006 C 
ENDBRANCH  19  23
ENDBRANCH  16  18
ENDBRANCH  11  16
ENDBRANCH   8  10
ENDBRANCH   7   8
ENDBRANCH   6   7
ENDBRANCH   5   6
ENDBRANCH   4   5
ENDBRANCH   3   4
ENDBRANCH   2   3
ENDBRANCH   1   2
BRANCH   1  25
ATOM     25  C   UNL A   1      35.400  22.268  24.261  1.00  0.00     0.188 C 
BRANCH  25  26
ATOM     26  C   UNL A   1      36.949  22.164  24.273  1.00  0.00     0.188 C 
BRANCH  26  27
ATOM     27  O   UNL A   1      37.604  22.936  25.266  1.00  0.00    -0.376 OA
BRANCH  27  28
ATOM     28  C   UNL A   1      38.693  22.342  25.953  1.00  0.00     0.202 C 
BRANCH  28  29
ATOM     29  C   UNL A   1      39.525  23.254  26.865  1.00  0.00     0.261 C 
BRANCH  29  30
ATOM     30  O   UNL A   1      39.114  24.626  26.941  1.00  0.00    -0.460 OA
BRANCH  30  31
ATOM     31  C   UNL A   1      40.030  25.581  26.665  1.00  0.00     0.338 C 
ATOM     32  O   UNL A   1      40.722  25.673  25.667  1.00  0.00    -0.246 OA
BRANCH  31  33
ATOM     33  C   UNL A   1      39.898  26.621  27.707  1.00  0.00     0.060 A 
ATOM     34  C   UNL A   1      40.342  27.927  27.451  1.00  0.00     0.016 A 
ATOM     35  C   UNL A   1      39.297  26.301  28.924  1.00  0.00     0.016 A 
ATOM     36  C   UNL A   1      40.215  28.913  28.430  1.00  0.00     0.010 A 
ATOM     37  C   UNL A   1      39.198  27.279  29.913  1.00  0.00     0.010 A 
ATOM     38  C   UNL A   1      39.689  28.577  29.683  1.00  0.00    -0.014 A 
BRANCH  38  39
ATOM     39  C   UNL A   1      39.872  29.473  30.848  1.00  0.00     0.031 A 
ATOM     40  C   UNL A   1      41.047  29.200  31.747  1.00  0.00     0.074 A 
ATOM     41  C   UNL A   1      39.000  30.452  31.142  1.00  0.00     0.049 A 
ATOM     42  N   UNL A   1      41.326  29.695  32.923  1.00  0.00    -0.248 NA
ATOM     43  C   UNL A   1      42.033  28.223  31.252  1.00  0.00     0.031 C 
ATOM     44  C   UNL A   1      37.863  30.854  30.317  1.00  0.00     0.029 A 
ATOM     45  N   UNL A   1      38.928  31.272  32.241  1.00  0.00    -0.354 N 
ATOM     46  C   UNL A   1      42.501  29.068  33.321  1.00  0.00     0.074 A 
ATOM     47  C   UNL A   1      42.873  28.148  32.272  1.00  0.00     0.031 C 
ATOM     48  C   UNL A   1      37.189  31.831  30.954  1.00  0.00     0.029 A 
ATOM     49  C   UNL A   1      37.817  32.081  32.252  1.00  0.00     0.049 A 
ATOM     50  H   UNL A   1      39.607  31.278  32.954  1.00  0.00     0.167 HD
ATOM     51  C   UNL A   1      43.203  29.240  34.465  1.00  0.00     0.031 A 
ATOM     52  C   UNL A   1      37.342  32.896  33.215  1.00  0.00     0.031 A 
ATOM     53  C   UNL A   1      42.812  30.143  35.512  1.00  0.00     0.049 A 
ATOM     54  C   UNL A   1      38.090  33.008  34.523  1.00  0.00     0.074 A 
ATOM     55  C   UNL A   1      43.453  30.396  36.711  1.00  0.00     0.029 A 
ATOM     56  N   UNL A   1      41.673  30.934  35.488  1.00  0.00    -0.354 N 
ATOM     57  N   UNL A   1      39.202  32.413  34.891  1.00  0.00    -0.248 NA
ATOM     58  C   UNL A   1      37.523  33.899  35.544  1.00  0.00     0.031 C 
ATOM     59  C   UNL A   1      42.669  31.294  37.439  1.00  0.00     0.029 A 
ATOM     60  C   UNL A   1      41.581  31.660  36.661  1.00  0.00     0.049 A 
ATOM     61  H   UNL A   1      41.026  30.972  34.747  1.00  0.00     0.167 HD
ATOM     62  C   UNL A   1      39.489  32.896  36.165  1.00  0.00     0.074 A 
ATOM     63  C   UNL A   1      38.433  33.826  36.508  1.00  0.00     0.031 C 
ATOM     64  C   UNL A   1      40.537  32.603  36.974  1.00  0.00     0.031 A 
BRANCH  51  65
ATOM     65  C   UNL A   1      44.434  28.397  34.660  1.00  0.00    -0.014 A 
ATOM     66  C   UNL A   1      44.419  27.256  35.484  1.00  0.00     0.010 A 
ATOM     67  C   UNL A   1      45.619  28.737  33.984  1.00  0.00     0.010 A 
ATOM     68  C   UNL A   1      45.576  26.496  35.658  1.00  0.00     0.020 A 
ATOM     69  C   UNL A   1      46.770  27.959  34.129  1.00  0.00     0.020 A 
ATOM     70  C   UNL A   1      46.746  26.852  34.979  1.00  0.00     0.054 A 
BRANCH  70  71
ATOM     71  S   UNL A   1      48.227  25.831  35.205  1.00  0.00     0.124 S 
ATOM     72  O   UNL A   1      47.889  24.635  34.436  1.00  0.00    -0.237 OA
ATOM     73  O   UNL A   1      49.280  26.668  34.637  1.00  0.00    -0.237 OA
ATOM     74  O   UNL A   1      48.300  25.640  36.652  1.00  0.00    -0.744 OA
ENDBRANCH  70  71
ENDBRANCH  51  65
BRANCH  52  75
ATOM     75  C   UNL A   1      36.078  33.655  32.999  1.00  0.00    -0.014 A 
ATOM     76  C   UNL A   1      36.112  34.986  32.544  1.00  0.00     0.010 A 
ATOM     77  C   UNL A   1      34.831  33.054  33.252  1.00  0.00     0.010 A 
ATOM     78  C   UNL A   1      34.926  35.706  32.366  1.00  0.00     0.020 A 
ATOM     79  C   UNL A   1      33.641  33.761  33.046  1.00  0.00     0.020 A 
ATOM     80  C   UNL A   1      33.698  35.086  32.614  1.00  0.00     0.054 A 
BRANCH  80  81
ATOM     81  S   UNL A   1      32.174  36.030  32.333  1.00  0.00     0.124 S 
ATOM     82  O   UNL A   1      32.311  36.419  30.933  1.00  0.00    -0.237 OA
ATOM     83  O   UNL A   1      31.137  35.041  32.615  1.00  0.00    -0.237 OA
ATOM     84  O   UNL A   1      32.264  37.123  33.298  1.00  0.00    -0.744 OA
ENDBRANCH  80  81
ENDBRANCH  52  75
BRANCH  64  85
ATOM     85  C   UNL A   1      40.659  33.344  38.281  1.00  0.00    -0.014 A 
ATOM     86  C   UNL A   1      39.906  32.981  39.410  1.00  0.00     0.010 A 
ATOM     87  C   UNL A   1      41.640  34.346  38.404  1.00  0.00     0.010 A 
ATOM     88  C   UNL A   1      40.129  33.612  40.638  1.00  0.00     0.020 A 
ATOM     89  C   UNL A   1      41.887  34.958  39.635  1.00  0.00     0.020 A 
ATOM     90  C   UNL A   1      41.126  34.588  40.745  1.00  0.00     0.054 A 
BRANCH  90  91
ATOM     91  S   UNL A   1      41.460  35.322  42.370  1.00  0.00     0.124 S 
ATOM     92  O   UNL A   1      42.738  35.992  42.146  1.00  0.00    -0.237 OA
ATOM     93  O   UNL A   1      40.313  36.206  42.562  1.00  0.00    -0.237 OA
ATOM     94  O   UNL A   1      41.509  34.171  43.268  1.00  0.00    -0.744 OA
ENDBRANCH  90  91
ENDBRANCH  64  85
ENDBRANCH  38  39
ENDBRANCH  31  33
ENDBRANCH  30  31
ENDBRANCH  29  30
ENDBRANCH  28  29
ENDBRANCH  27  28
ENDBRANCH  26  27
ENDBRANCH  25  26
ENDBRANCH   1  25
TORSDOF 26
ENDMDL
MODEL 2
REMARK VINA RESULT:      -8.5      6.812      9.217
REMARK SMILES CC[C@@H]1CCCN1C(=O)N1CC[C@@H](C(=O)OCCOCCOCCOCCOC(=O)c2ccc(-c3c4nc(c(-c5ccc(S(=O)(=O)[O-])cc5)c5ccc([nH]5)c(-c5ccc(S(=O)(=O)[O-])cc5)c5nc(c(-c6ccc(S(=O)(=O)[O-])cc6)c6ccc3[nH]6)C=C5)C=C4)cc2)[C@@H]1C
REMARK SMILES IDX 22 1 21 2 20 3 19 4 18 5 17 6 16 7 14 8 15 9 13 10 10 11
REMARK SMILES IDX 11 12 91 13 12 14 92 15 8 16 9 17 7 18 3 19 4 20 5 21 6 22
REMARK SMILES IDX 2 23 1 24 23 25 24 26 25 27 26 28 27 29 28 30 29 31 30 32
REMARK SMILES IDX 31 33 32 34 90 35 33 36 89 37 34 38 35 39 36 40 83 41 37 42
REMARK SMILES IDX 88 43 82 44 84 45 38 46 87 47 81 48 80 49 39 51 69 52 50 53
REMARK SMILES IDX 68 54 51 55 54 56 67 57 85 58 52 59 53 60 66 62 86 63 55 64
REMARK SMILES IDX 40 65 41 66 49 67 42 68 48 69 43 70 44 71 45 72 46 73 47 74
REMARK SMILES IDX 70 75 71 76 79 77 72 78 78 79 73 80 74 81 75 82 76 83 77 84
REMARK SMILES IDX 56 85 57 86 65 87 58 88 64 89 59 90 60 91 61 92 62 93 63 94
REMARK H PARENT 84 50 54 61
REMARK Flexibility Score: inf
ROOT
ATOM      1  O   UNL A   1      38.328  22.371  26.134  1.00  0.00    -0.377 OA
ENDROOT
BRANCH   1   2
ATOM      2  C   UNL A   1      37.376  22.000  25.153  1.00  0.00     0.188 C 
BRANCH   2   3
ATOM      3  C   UNL A   1      36.106  21.298  25.670  1.00  0.00     0.188 C 
BRANCH   3   4
ATOM      4  O   UNL A   1      35.362  20.667  24.646  1.00  0.00    -0.376 OA
BRANCH   4   5
ATOM      5  C   UNL A   1      34.426  19.654  24.979  1.00  0.00     0.202 C 
BRANCH   5   6
ATOM      6  C   UNL A   1      32.940  19.985  25.235  1.00  0.00     0.261 C 
BRANCH   6   7
ATOM      7  O   UNL A   1      32.452  21.176  24.614  1.00  0.00    -0.463 OA
BRANCH   7   8
ATOM      8  C   UNL A   1      31.771  22.040  25.404  1.00  0.00     0.311 C 
ATOM      9  O   UNL A   1      30.620  21.866  25.782  1.00  0.00    -0.252 OA
BRANCH   8  10
ATOM     10  C   UNL A   1      32.720  23.107  25.932  1.00  0.00     0.123 C 
ATOM     11  N   UNL A   1      32.170  25.346  25.316  1.00  0.00    -0.321 N 
ATOM     12  C   UNL A   1      31.245  24.883  26.315  1.00  0.00     0.122 C 
ATOM     13  C   UNL A   1      33.052  24.222  24.939  1.00  0.00     0.098 C 
ATOM     14  C   UNL A   1      32.037  23.851  27.076  1.00  0.00     0.039 C 
ATOM     15  C   UNL A   1      34.519  24.647  25.075  1.00  0.00     0.032 C 
BRANCH  11  16
ATOM     16  C   UNL A   1      31.947  26.344  24.416  1.00  0.00     0.320 C 
ATOM     17  O   UNL A   1      31.750  26.032  23.235  1.00  0.00    -0.248 OA
BRANCH  16  18
ATOM     18  N   UNL A   1      32.003  27.676  24.777  1.00  0.00    -0.322 N 
ATOM     19  C   UNL A   1      31.027  28.793  24.784  1.00  0.00     0.086 C 
ATOM     20  C   UNL A   1      31.807  29.939  25.455  1.00  0.00     0.027 C 
ATOM     21  C   UNL A   1      32.678  29.242  26.464  1.00  0.00     0.024 C 
ATOM     22  C   UNL A   1      33.058  27.958  25.756  1.00  0.00     0.122 C 
BRANCH  19  23
ATOM     23  C   UNL A   1      30.401  29.384  23.513  1.00  0.00     0.022 C 
ATOM     24  C   UNL A   1      29.112  28.710  23.046  1.00  0.00     0.006 C 
ENDBRANCH  19  23
ENDBRANCH  16  18
ENDBRANCH  11  16
ENDBRANCH   8  10
ENDBRANCH   7   8
ENDBRANCH   6   7
ENDBRANCH   5   6
ENDBRANCH   4   5
ENDBRANCH   3   4
ENDBRANCH   2   3
ENDBRANCH   1   2
BRANCH   1  25
ATOM     25  C   UNL A   1      39.605  21.729  26.141  1.00  0.00     0.188 C 
BRANCH  25  26
ATOM     26  C   UNL A   1      40.760  22.181  27.074  1.00  0.00     0.188 C 
BRANCH  26  27
ATOM     27  O   UNL A   1      41.597  21.142  27.555  1.00  0.00    -0.376 OA
BRANCH  27  28
ATOM     28  C   UNL A   1      41.230  19.806  27.259  1.00  0.00     0.202 C 
BRANCH  28  29
ATOM     29  C   UNL A   1      42.157  19.017  26.324  1.00  0.00     0.261 C 
BRANCH  29  30
ATOM     30  O   UNL A   1      42.622  19.707  25.155  1.00  0.00    -0.460 OA
BRANCH  30  31
ATOM     31  C   UNL A   1      43.947  19.693  24.893  1.00  0.00     0.338 C 
ATOM     32  O   UNL A   1      44.595  18.778  24.413  1.00  0.00    -0.246 OA
BRANCH  31  33
ATOM     33  C   UNL A   1      44.444  21.069  25.101  1.00  0.00     0.060 A 
ATOM     34  C   UNL A   1      44.847  21.481  26.380  1.00  0.00     0.016 A 
ATOM     35  C   UNL A   1      44.542  21.936  24.013  1.00  0.00     0.016 A 
ATOM     36  C   UNL A   1      45.321  22.778  26.580  1.00  0.00     0.010 A 
ATOM     37  C   UNL A   1      44.987  23.240  24.218  1.00  0.00     0.010 A 
ATOM     38  C   UNL A   1      45.344  23.677  25.507  1.00  0.00    -0.014 A 
BRANCH  38  39
ATOM     39  C   UNL A   1      45.482  25.133  25.740  1.00  0.00     0.031 A 
ATOM     40  C   UNL A   1      46.865  25.717  25.637  1.00  0.00     0.074 A 
ATOM     41  C   UNL A   1      44.439  25.904  26.091  1.00  0.00     0.049 A 
ATOM     42  N   UNL A   1      47.293  26.902  25.979  1.00  0.00    -0.248 NA
ATOM     43  C   UNL A   1      47.906  24.833  25.083  1.00  0.00     0.031 C 
ATOM     44  C   UNL A   1      43.046  25.470  26.162  1.00  0.00     0.029 A 
ATOM     45  N   UNL A   1      44.405  27.220  26.483  1.00  0.00    -0.354 N 
ATOM     46  C   UNL A   1      48.658  26.896  25.712  1.00  0.00     0.074 A 
ATOM     47  C   UNL A   1      48.987  25.588  25.194  1.00  0.00     0.031 C 
ATOM     48  C   UNL A   1      42.293  26.497  26.598  1.00  0.00     0.029 A 
ATOM     49  C   UNL A   1      43.160  27.640  26.888  1.00  0.00     0.049 A 
ATOM     50  H   UNL A   1      45.196  27.805  26.476  1.00  0.00     0.167 HD
ATOM     51  C   UNL A   1      49.557  27.891  25.890  1.00  0.00     0.031 A 
ATOM     52  C   UNL A   1      42.776  28.797  27.463  1.00  0.00     0.031 A 
ATOM     53  C   UNL A   1      49.222  29.181  26.425  1.00  0.00     0.049 A 
ATOM     54  C   UNL A   1      43.810  29.865  27.737  1.00  0.00     0.074 A 
ATOM     55  C   UNL A   1      50.055  30.263  26.643  1.00  0.00     0.029 A 
ATOM     56  N   UNL A   1      47.952  29.561  26.833  1.00  0.00    -0.354 N 
ATOM     57  N   UNL A   1      45.097  29.851  27.479  1.00  0.00    -0.248 NA
ATOM     58  C   UNL A   1      43.340  31.101  28.378  1.00  0.00     0.031 C 
ATOM     59  C   UNL A   1      49.302  31.276  27.242  1.00  0.00     0.029 A 
ATOM     60  C   UNL A   1      47.984  30.855  27.323  1.00  0.00     0.049 A 
ATOM     61  H   UNL A   1      47.148  28.995  26.783  1.00  0.00     0.167 HD
ATOM     62  C   UNL A   1      45.579  31.094  27.883  1.00  0.00     0.074 A 
ATOM     63  C   UNL A   1      44.449  31.831  28.407  1.00  0.00     0.031 C 
ATOM     64  C   UNL A   1      46.842  31.583  27.816  1.00  0.00     0.031 A 
BRANCH  51  65
ATOM     65  C   UNL A   1      50.993  27.601  25.548  1.00  0.00    -0.014 A 
ATOM     66  C   UNL A   1      51.788  26.773  26.363  1.00  0.00     0.010 A 
ATOM     67  C   UNL A   1      51.549  28.144  24.376  1.00  0.00     0.010 A 
ATOM     68  C   UNL A   1      53.121  26.527  26.030  1.00  0.00     0.020 A 
ATOM     69  C   UNL A   1      52.873  27.873  24.023  1.00  0.00     0.020 A 
ATOM     70  C   UNL A   1      53.656  27.079  24.862  1.00  0.00     0.054 A 
BRANCH  70  71
ATOM     71  S   UNL A   1      55.384  26.721  24.445  1.00  0.00     0.124 S 
ATOM     72  O   UNL A   1      55.501  25.316  24.826  1.00  0.00    -0.237 OA
ATOM     73  O   UNL A   1      55.426  26.989  23.009  1.00  0.00    -0.237 OA
ATOM     74  O   UNL A   1      56.142  27.656  25.273  1.00  0.00    -0.744 OA
ENDBRANCH  70  71
ENDBRANCH  51  65
BRANCH  52  75
ATOM     75  C   UNL A   1      41.352  29.006  27.847  1.00  0.00    -0.014 A 
ATOM     76  C   UNL A   1      40.383  29.303  26.871  1.00  0.00     0.010 A 
ATOM     77  C   UNL A   1      40.954  28.917  29.195  1.00  0.00     0.010 A 
ATOM     78  C   UNL A   1      39.051  29.524  27.236  1.00  0.00     0.020 A 
ATOM     79  C   UNL A   1      39.617  29.108  29.561  1.00  0.00     0.020 A 
ATOM     80  C   UNL A   1      38.676  29.421  28.579  1.00  0.00     0.054 A 
BRANCH  80  81
ATOM     81  S   UNL A   1      36.934  29.670  29.019  1.00  0.00     0.124 S 
ATOM     82  O   UNL A   1      36.245  29.084  27.874  1.00  0.00    -0.237 OA
ATOM     83  O   UNL A   1      36.819  28.930  30.273  1.00  0.00    -0.237 OA
ATOM     84  O   UNL A   1      36.816  31.121  29.145  1.00  0.00    -0.744 OA
ENDBRANCH  80  81
ENDBRANCH  52  75
BRANCH  64  85
ATOM     85  C   UNL A   1      47.078  33.010  28.242  1.00  0.00    -0.014 A 
ATOM     86  C   UNL A   1      47.548  33.329  29.526  1.00  0.00     0.010 A 
ATOM     87  C   UNL A   1      46.939  34.035  27.286  1.00  0.00     0.010 A 
ATOM     88  C   UNL A   1      47.869  34.652  29.849  1.00  0.00     0.020 A 
ATOM     89  C   UNL A   1      47.286  35.352  27.596  1.00  0.00     0.020 A 
ATOM     90  C   UNL A   1      47.747  35.653  28.878  1.00  0.00     0.054 A 
BRANCH  90  91
ATOM     91  S   UNL A   1      48.260  37.342  29.294  1.00  0.00     0.124 S 
ATOM     92  O   UNL A   1      49.427  37.527  28.437  1.00  0.00    -0.237 OA
ATOM     93  O   UNL A   1      47.084  38.130  28.933  1.00  0.00    -0.237 OA
ATOM     94  O   UNL A   1      48.544  37.277  30.726  1.00  0.00    -0.744 OA
ENDBRANCH  90  91
ENDBRANCH  64  85
ENDBRANCH  38  39
ENDBRANCH  31  33
ENDBRANCH  30  31
ENDBRANCH  29  30
ENDBRANCH  28  29
ENDBRANCH  27  28
ENDBRANCH  26  27
ENDBRANCH  25  26
ENDBRANCH   1  25
TORSDOF 26
ENDMDL
MODEL 3
REMARK VINA RESULT:      -8.4      2.566      4.424
REMARK SMILES CC[C@@H]1CCCN1C(=O)N1CC[C@@H](C(=O)OCCOCCOCCOCCOC(=O)c2ccc(-c3c4nc(c(-c5ccc(S(=O)(=O)[O-])cc5)c5ccc([nH]5)c(-c5ccc(S(=O)(=O)[O-])cc5)c5nc(c(-c6ccc(S(=O)(=O)[O-])cc6)c6ccc3[nH]6)C=C5)C=C4)cc2)[C@@H]1C
REMARK SMILES IDX 22 1 21 2 20 3 19 4 18 5 17 6 16 7 14 8 15 9 13 10 10 11
REMARK SMILES IDX 11 12 91 13 12 14 92 15 8 16 9 17 7 18 3 19 4 20 5 21 6 22
REMARK SMILES IDX 2 23 1 24 23 25 24 26 25 27 26 28 27 29 28 30 29 31 30 32
REMARK SMILES IDX 31 33 32 34 90 35 33 36 89 37 34 38 35 39 36 40 83 41 37 42
REMARK SMILES IDX 88 43 82 44 84 45 38 46 87 47 81 48 80 49 39 51 69 52 50 53
REMARK SMILES IDX 68 54 51 55 54 56 67 57 85 58 52 59 53 60 66 62 86 63 55 64
REMARK SMILES IDX 40 65 41 66 49 67 42 68 48 69 43 70 44 71 45 72 46 73 47 74
REMARK SMILES IDX 70 75 71 76 79 77 72 78 78 79 73 80 74 81 75 82 76 83 77 84
REMARK SMILES IDX 56 85 57 86 65 87 58 88 64 89 59 90 60 91 61 92 62 93 63 94
REMARK H PARENT 84 50 54 61
REMARK Flexibility Score: inf
ROOT
ATOM      1  O   UNL A   1      33.421  22.890  27.674  1.00  0.00    -0.377 OA
ENDROOT
BRANCH   1   2
ATOM      2  C   UNL A   1      32.507  23.398  26.718  1.00  0.00     0.188 C 
BRANCH   2   3
ATOM      3  C   UNL A   1      31.034  22.986  26.900  1.00  0.00     0.188 C 
BRANCH   3   4
ATOM      4  O   UNL A   1      30.167  24.086  27.096  1.00  0.00    -0.376 OA
BRANCH   4   5
ATOM      5  C   UNL A   1      30.183  25.167  26.179  1.00  0.00     0.202 C 
BRANCH   5   6
ATOM      6  C   UNL A   1      30.910  26.489  26.508  1.00  0.00     0.261 C 
BRANCH   6   7
ATOM      7  O   UNL A   1      31.036  27.416  25.429  1.00  0.00    -0.463 OA
BRANCH   7   8
ATOM      8  C   UNL A   1      32.174  28.148  25.383  1.00  0.00     0.311 C 
ATOM      9  O   UNL A   1      32.974  28.235  26.306  1.00  0.00    -0.252 OA
BRANCH   8  10
ATOM     10  C   UNL A   1      32.417  28.630  23.959  1.00  0.00     0.123 C 
ATOM     11  N   UNL A   1      32.457  26.914  22.302  1.00  0.00    -0.321 N 
ATOM     12  C   UNL A   1      31.104  27.128  22.737  1.00  0.00     0.122 C 
ATOM     13  C   UNL A   1      33.352  27.748  23.131  1.00  0.00     0.098 C 
ATOM     14  C   UNL A   1      31.102  28.566  23.188  1.00  0.00     0.039 C 
ATOM     15  C   UNL A   1      34.244  28.606  22.228  1.00  0.00     0.032 C 
BRANCH  11  16
ATOM     16  C   UNL A   1      32.949  25.777  21.735  1.00  0.00     0.320 C 
ATOM     17  O   UNL A   1      33.003  25.716  20.500  1.00  0.00    -0.248 OA
BRANCH  16  18
ATOM     18  N   UNL A   1      33.317  24.685  22.495  1.00  0.00    -0.322 N 
ATOM     19  C   UNL A   1      32.887  23.266  22.555  1.00  0.00     0.086 C 
ATOM     20  C   UNL A   1      33.866  22.643  23.567  1.00  0.00     0.027 C 
ATOM     21  C   UNL A   1      35.153  23.386  23.332  1.00  0.00     0.024 C 
ATOM     22  C   UNL A   1      34.681  24.792  23.023  1.00  0.00     0.122 C 
BRANCH  19  23
ATOM     23  C   UNL A   1      31.481  22.821  22.983  1.00  0.00     0.022 C 
ATOM     24  C   UNL A   1      30.425  23.924  23.002  1.00  0.00     0.006 C 
ENDBRANCH  19  23
ENDBRANCH  16  18
ENDBRANCH  11  16
ENDBRANCH   8  10
ENDBRANCH   7   8
ENDBRANCH   6   7
ENDBRANCH   5   6
ENDBRANCH   4   5
ENDBRANCH   3   4
ENDBRANCH   2   3
ENDBRANCH   1   2
BRANCH   1  25
ATOM     25  C   UNL A   1      33.941  21.569  27.506  1.00  0.00     0.188 C 
BRANCH  25  26
ATOM     26  C   UNL A   1      34.730  21.140  26.241  1.00  0.00     0.188 C 
BRANCH  26  27
ATOM     27  O   UNL A   1      36.071  21.595  26.175  1.00  0.00    -0.376 OA
BRANCH  27  28
ATOM     28  C   UNL A   1      36.934  20.978  25.234  1.00  0.00     0.202 C 
BRANCH  28  29
ATOM     29  C   UNL A   1      38.442  21.197  25.419  1.00  0.00     0.261 C 
BRANCH  29  30
ATOM     30  O   UNL A   1      38.829  22.322  26.221  1.00  0.00    -0.460 OA
BRANCH  30  31
ATOM     31  C   UNL A   1      40.138  22.655  26.261  1.00  0.00     0.338 C 
ATOM     32  O   UNL A   1      41.068  22.055  25.749  1.00  0.00    -0.246 OA
BRANCH  31  33
ATOM     33  C   UNL A   1      40.224  24.000  26.867  1.00  0.00     0.060 A 
ATOM     34  C   UNL A   1      41.176  24.918  26.398  1.00  0.00     0.016 A 
ATOM     35  C   UNL A   1      39.331  24.357  27.877  1.00  0.00     0.016 A 
ATOM     36  C   UNL A   1      41.258  26.191  26.965  1.00  0.00     0.010 A 
ATOM     37  C   UNL A   1      39.432  25.617  28.463  1.00  0.00     0.010 A 
ATOM     38  C   UNL A   1      40.419  26.525  28.035  1.00  0.00    -0.014 A 
BRANCH  38  39
ATOM     39  C   UNL A   1      40.711  27.697  28.891  1.00  0.00     0.031 A 
ATOM     40  C   UNL A   1      41.935  27.623  29.763  1.00  0.00     0.074 A 
ATOM     41  C   UNL A   1      39.895  28.762  28.949  1.00  0.00     0.049 A 
ATOM     42  N   UNL A   1      42.310  28.409  30.736  1.00  0.00    -0.248 NA
ATOM     43  C   UNL A   1      42.852  26.497  29.505  1.00  0.00     0.031 C 
ATOM     44  C   UNL A   1      38.718  28.979  28.110  1.00  0.00     0.029 A 
ATOM     45  N   UNL A   1      39.926  29.857  29.778  1.00  0.00    -0.354 N 
ATOM     46  C   UNL A   1      43.488  27.856  31.227  1.00  0.00     0.074 A 
ATOM     47  C   UNL A   1      43.757  26.664  30.457  1.00  0.00     0.031 C 
ATOM     48  C   UNL A   1      38.123  30.127  28.486  1.00  0.00     0.029 A 
ATOM     49  C   UNL A   1      38.846  30.693  29.625  1.00  0.00     0.049 A 
ATOM     50  H   UNL A   1      40.652  30.025  30.421  1.00  0.00     0.167 HD
ATOM     51  C   UNL A   1      44.272  28.301  32.236  1.00  0.00     0.031 A 
ATOM     52  C   UNL A   1      38.467  31.766  30.348  1.00  0.00     0.031 A 
ATOM     53  C   UNL A   1      43.985  29.477  33.010  1.00  0.00     0.049 A 
ATOM     54  C   UNL A   1      39.306  32.196  31.528  1.00  0.00     0.074 A 
ATOM     55  C   UNL A   1      44.714  30.019  34.052  1.00  0.00     0.029 A 
ATOM     56  N   UNL A   1      42.874  30.288  32.830  1.00  0.00    -0.354 N 
ATOM     57  N   UNL A   1      40.419  31.670  31.984  1.00  0.00    -0.248 NA
ATOM     58  C   UNL A   1      38.840  33.363  32.291  1.00  0.00     0.031 C 
ATOM     59  C   UNL A   1      44.013  31.122  34.544  1.00  0.00     0.029 A 
ATOM     60  C   UNL A   1      42.887  31.314  33.757  1.00  0.00     0.049 A 
ATOM     61  H   UNL A   1      42.179  30.154  32.146  1.00  0.00     0.167 HD
ATOM     62  C   UNL A   1      40.808  32.470  33.055  1.00  0.00     0.074 A 
ATOM     63  C   UNL A   1      39.811  33.512  33.183  1.00  0.00     0.031 C 
ATOM     64  C   UNL A   1      41.899  32.359  33.852  1.00  0.00     0.031 A 
BRANCH  51  65
ATOM     65  C   UNL A   1      45.485  27.483  32.588  1.00  0.00    -0.014 A 
ATOM     66  C   UNL A   1      45.383  26.329  33.387  1.00  0.00     0.010 A 
ATOM     67  C   UNL A   1      46.743  27.860  32.088  1.00  0.00     0.010 A 
ATOM     68  C   UNL A   1      46.524  25.591  33.710  1.00  0.00     0.020 A 
ATOM     69  C   UNL A   1      47.882  27.106  32.381  1.00  0.00     0.020 A 
ATOM     70  C   UNL A   1      47.767  25.984  33.204  1.00  0.00     0.054 A 
BRANCH  70  71
ATOM     71  S   UNL A   1      49.227  24.993  33.620  1.00  0.00     0.124 S 
ATOM     72  O   UNL A   1      49.860  24.826  32.314  1.00  0.00    -0.237 OA
ATOM     73  O   UNL A   1      49.940  25.855  34.559  1.00  0.00    -0.237 OA
ATOM     74  O   UNL A   1      48.666  23.775  34.201  1.00  0.00    -0.744 OA
ENDBRANCH  70  71
ENDBRANCH  51  65
BRANCH  52  75
ATOM     75  C   UNL A   1      37.217  32.500  30.000  1.00  0.00    -0.014 A 
ATOM     76  C   UNL A   1      35.969  32.051  30.468  1.00  0.00     0.010 A 
ATOM     77  C   UNL A   1      37.266  33.651  29.191  1.00  0.00     0.010 A 
ATOM     78  C   UNL A   1      34.795  32.725  30.120  1.00  0.00     0.020 A 
ATOM     79  C   UNL A   1      36.097  34.346  28.865  1.00  0.00     0.020 A 
ATOM     80  C   UNL A   1      34.867  33.872  29.323  1.00  0.00     0.054 A 
BRANCH  80  81
ATOM     81  S   UNL A   1      33.332  34.752  28.923  1.00  0.00     0.124 S 
ATOM     82  O   UNL A   1      32.653  34.782  30.214  1.00  0.00    -0.237 OA
ATOM     83  O   UNL A   1      33.827  36.038  28.438  1.00  0.00    -0.237 OA
ATOM     84  O   UNL A   1      32.708  33.908  27.907  1.00  0.00    -0.744 OA
ENDBRANCH  80  81
ENDBRANCH  52  75
BRANCH  64  85
ATOM     85  C   UNL A   1      42.135  33.425  34.892  1.00  0.00    -0.014 A 
ATOM     86  C   UNL A   1      41.669  33.288  36.210  1.00  0.00     0.010 A 
ATOM     87  C   UNL A   1      42.947  34.527  34.562  1.00  0.00     0.010 A 
ATOM     88  C   UNL A   1      42.007  34.240  37.178  1.00  0.00     0.020 A 
ATOM     89  C   UNL A   1      43.311  35.463  35.532  1.00  0.00     0.020 A 
ATOM     90  C   UNL A   1      42.835  35.315  36.836  1.00  0.00     0.054 A 
BRANCH  90  91
ATOM     91  S   UNL A   1      43.335  36.481  38.132  1.00  0.00     0.124 S 
ATOM     92  O   UNL A   1      44.587  35.895  38.603  1.00  0.00    -0.237 OA
ATOM     93  O   UNL A   1      43.466  37.737  37.398  1.00  0.00    -0.237 OA
ATOM     94  O   UNL A   1      42.230  36.436  39.086  1.00  0.00    -0.744 OA
ENDBRANCH  90  91
ENDBRANCH  64  85
ENDBRANCH  38  39
ENDBRANCH  31  33
ENDBRANCH  30  31
ENDBRANCH  29  30
ENDBRANCH  28  29
ENDBRANCH  27  28
ENDBRANCH  26  27
ENDBRANCH  25  26
ENDBRANCH   1  25
TORSDOF 26
ENDMDL
