MODEL 1
REMARK VINA RESULT:      -7.7      0.000      0.000
REMARK SMILES CC[C@](O)(C(=O)OCCOCCOCCOCCOC(=O)c1ccc(-c2c3nc(c(-c4ccc(S(=O)(=O)[O-])cc4)c4ccc([nH]4)c(-c4ccc(S(=O)(=O)[O-])cc4)c4nc(c(-c5ccc(S(=O)(=O)[O-])cc5)c5ccc2[nH]5)C=C4)C=C3)cc1)[C@@H](C)c1ccc(C)s1
REMARK SMILES IDX 14 1 13 2 12 3 11 4 10 5 9 6 8 7 7 8 5 9 6 10 3 11 2 12 1 13
REMARK SMILES IDX 82 14 83 15 84 16 85 17 89 18 86 19 87 20 88 21 4 22 15 24
REMARK SMILES IDX 16 25 17 26 18 27 19 28 20 29 21 30 22 31 23 32 81 33 24 34
REMARK SMILES IDX 80 35 25 36 26 37 27 38 74 39 28 40 79 41 73 42 75 43 29 44
REMARK SMILES IDX 78 45 72 46 71 47 30 49 60 50 41 51 59 52 42 53 45 54 58 55
REMARK SMILES IDX 76 56 43 57 44 58 57 60 77 61 46 62 31 63 32 64 40 65 33 66
REMARK SMILES IDX 39 67 34 68 35 69 36 70 37 71 38 72 61 73 62 74 70 75 63 76
REMARK SMILES IDX 69 77 64 78 65 79 66 80 67 81 68 82 47 83 48 84 56 85 49 86
REMARK SMILES IDX 55 87 50 88 51 89 52 90 53 91 54 92
REMARK H PARENT 4 23 75 48 45 59
REMARK Flexibility Score: inf
ROOT
ATOM      1  C   UNL A   1      33.286  34.904  28.828  1.00  0.00     0.188 C 
ENDROOT
BRANCH   1   2
ATOM      2  O   UNL A   1      34.167  33.827  28.522  1.00  0.00    -0.377 OA
BRANCH   2   3
ATOM      3  C   UNL A   1      33.560  32.553  28.546  1.00  0.00     0.188 C 
BRANCH   3   4
ATOM      4  C   UNL A   1      34.050  31.607  27.439  1.00  0.00     0.188 C 
BRANCH   4   5
ATOM      5  O   UNL A   1      33.647  30.247  27.410  1.00  0.00    -0.376 OA
BRANCH   5   6
ATOM      6  C   UNL A   1      32.261  29.923  27.420  1.00  0.00     0.202 C 
BRANCH   6   7
ATOM      7  C   UNL A   1      31.681  28.759  26.591  1.00  0.00     0.261 C 
BRANCH   7   8
ATOM      8  O   UNL A   1      32.379  28.419  25.379  1.00  0.00    -0.461 OA
BRANCH   8   9
ATOM      9  C   UNL A   1      31.649  28.430  24.224  1.00  0.00     0.338 C 
ATOM     10  O   UNL A   1      31.209  29.437  23.683  1.00  0.00    -0.249 OA
BRANCH   9  11
ATOM     11  C   UNL A   1      31.426  26.981  23.696  1.00  0.00     0.168 C 
BRANCH  11  12
ATOM     12  C   UNL A   1      30.024  27.011  23.034  1.00  0.00     0.044 C 
ATOM     13  C   UNL A   1      28.875  26.548  23.927  1.00  0.00     0.007 C 
ENDBRANCH  11  12
BRANCH  11  14
ATOM     14  C   UNL A   1      32.596  26.652  22.696  1.00  0.00     0.070 C 
ATOM     15  C   UNL A   1      33.765  27.660  22.648  1.00  0.00     0.017 C 
BRANCH  14  16
ATOM     16  C   UNL A   1      33.165  25.253  22.853  1.00  0.00     0.011 A 
ATOM     17  C   UNL A   1      32.830  24.142  22.106  1.00  0.00     0.016 A 
ATOM     18  S   UNL A   1      34.404  24.889  23.984  1.00  0.00    -0.145 S 
ATOM     19  C   UNL A   1      33.633  23.014  22.424  1.00  0.00     0.015 A 
ATOM     20  C   UNL A   1      34.577  23.301  23.388  1.00  0.00     0.002 A 
ATOM     21  C   UNL A   1      35.645  22.412  23.918  1.00  0.00     0.056 C 
ENDBRANCH  14  16
ENDBRANCH  11  14
BRANCH  11  22
ATOM     22  O   UNL A   1      31.389  26.007  24.737  1.00  0.00    -0.378 OA
ATOM     23  H   UNL A   1      31.845  25.203  24.445  1.00  0.00     0.212 HD
ENDBRANCH  11  22
ENDBRANCH   9  11
ENDBRANCH   8   9
ENDBRANCH   7   8
ENDBRANCH   6   7
ENDBRANCH   5   6
ENDBRANCH   4   5
ENDBRANCH   3   4
ENDBRANCH   2   3
ENDBRANCH   1   2
BRANCH   1  24
ATOM     24  C   UNL A   1      33.025  35.218  30.323  1.00  0.00     0.188 C 
BRANCH  24  25
ATOM     25  O   UNL A   1      34.153  35.707  31.040  1.00  0.00    -0.376 OA
BRANCH  25  26
ATOM     26  C   UNL A   1      34.124  35.780  32.458  1.00  0.00     0.202 C 
BRANCH  26  27
ATOM     27  C   UNL A   1      34.360  34.506  33.288  1.00  0.00     0.261 C 
BRANCH  27  28
ATOM     28  O   UNL A   1      35.495  33.705  32.937  1.00  0.00    -0.460 OA
BRANCH  28  29
ATOM     29  C   UNL A   1      35.293  32.632  32.144  1.00  0.00     0.338 C 
ATOM     30  O   UNL A   1      34.220  32.168  31.800  1.00  0.00    -0.246 OA
BRANCH  29  31
ATOM     31  C   UNL A   1      36.603  32.254  31.573  1.00  0.00     0.060 A 
ATOM     32  C   UNL A   1      37.572  31.693  32.418  1.00  0.00     0.016 A 
ATOM     33  C   UNL A   1      36.865  32.419  30.210  1.00  0.00     0.016 A 
ATOM     34  C   UNL A   1      38.815  31.325  31.909  1.00  0.00     0.010 A 
ATOM     35  C   UNL A   1      38.124  32.083  29.709  1.00  0.00     0.010 A 
ATOM     36  C   UNL A   1      39.114  31.569  30.564  1.00  0.00    -0.014 A 
BRANCH  36  37
ATOM     37  C   UNL A   1      40.525  31.515  30.114  1.00  0.00     0.031 A 
ATOM     38  C   UNL A   1      41.381  32.730  30.345  1.00  0.00     0.074 A 
ATOM     39  C   UNL A   1      41.043  30.411  29.546  1.00  0.00     0.049 A 
ATOM     40  N   UNL A   1      42.626  32.943  30.009  1.00  0.00    -0.248 NA
ATOM     41  C   UNL A   1      40.746  33.856  31.051  1.00  0.00     0.031 C 
ATOM     42  C   UNL A   1      40.331  29.153  29.327  1.00  0.00     0.029 A 
ATOM     43  N   UNL A   1      42.300  30.179  29.045  1.00  0.00    -0.354 N 
ATOM     44  C   UNL A   1      42.917  34.230  30.448  1.00  0.00     0.074 A 
ATOM     45  C   UNL A   1      41.715  34.758  31.052  1.00  0.00     0.031 C 
ATOM     46  C   UNL A   1      41.162  28.282  28.728  1.00  0.00     0.029 A 
ATOM     47  C   UNL A   1      42.450  28.933  28.486  1.00  0.00     0.049 A 
ATOM     48  H   UNL A   1      43.027  30.844  29.084  1.00  0.00     0.167 HD
ATOM     49  C   UNL A   1      44.083  34.911  30.359  1.00  0.00     0.031 A 
ATOM     50  C   UNL A   1      43.499  28.392  27.835  1.00  0.00     0.031 A 
ATOM     51  C   UNL A   1      45.271  34.386  29.743  1.00  0.00     0.049 A 
ATOM     52  C   UNL A   1      44.760  29.203  27.668  1.00  0.00     0.074 A 
ATOM     53  C   UNL A   1      46.509  34.990  29.610  1.00  0.00     0.029 A 
ATOM     54  N   UNL A   1      45.368  33.138  29.146  1.00  0.00    -0.354 N 
ATOM     55  N   UNL A   1      45.029  30.412  28.105  1.00  0.00    -0.248 NA
ATOM     56  C   UNL A   1      45.861  28.575  26.925  1.00  0.00     0.031 C 
ATOM     57  C   UNL A   1      47.333  34.136  28.873  1.00  0.00     0.029 A 
ATOM     58  C   UNL A   1      46.635  32.967  28.614  1.00  0.00     0.049 A 
ATOM     59  H   UNL A   1      44.643  32.472  29.106  1.00  0.00     0.167 HD
ATOM     60  C   UNL A   1      46.342  30.671  27.720  1.00  0.00     0.074 A 
ATOM     61  C   UNL A   1      46.813  29.491  27.026  1.00  0.00     0.031 C 
ATOM     62  C   UNL A   1      47.091  31.784  27.926  1.00  0.00     0.031 A 
BRANCH  49  63
ATOM     63  C   UNL A   1      44.113  36.316  30.900  1.00  0.00    -0.014 A 
ATOM     64  C   UNL A   1      43.926  37.429  30.062  1.00  0.00     0.010 A 
ATOM     65  C   UNL A   1      44.301  36.521  32.279  1.00  0.00     0.010 A 
ATOM     66  C   UNL A   1      43.958  38.724  30.590  1.00  0.00     0.020 A 
ATOM     67  C   UNL A   1      44.303  37.811  32.815  1.00  0.00     0.020 A 
ATOM     68  C   UNL A   1      44.145  38.906  31.964  1.00  0.00     0.054 A 
BRANCH  68  69
ATOM     69  S   UNL A   1      44.151  40.594  32.623  1.00  0.00     0.124 S 
ATOM     70  O   UNL A   1      44.145  41.396  31.402  1.00  0.00    -0.237 OA
ATOM     71  O   UNL A   1      42.921  40.635  33.408  1.00  0.00    -0.237 OA
ATOM     72  O   UNL A   1      45.385  40.659  33.402  1.00  0.00    -0.744 OA
ENDBRANCH  68  69
ENDBRANCH  49  63
BRANCH  50  73
ATOM     73  C   UNL A   1      43.400  27.017  27.270  1.00  0.00    -0.014 A 
ATOM     74  C   UNL A   1      42.987  26.811  25.942  1.00  0.00     0.010 A 
ATOM     75  C   UNL A   1      43.711  25.898  28.067  1.00  0.00     0.010 A 
ATOM     76  C   UNL A   1      42.871  25.517  25.427  1.00  0.00     0.020 A 
ATOM     77  C   UNL A   1      43.627  24.604  27.547  1.00  0.00     0.020 A 
ATOM     78  C   UNL A   1      43.197  24.421  26.231  1.00  0.00     0.054 A 
BRANCH  78  79
ATOM     79  S   UNL A   1      43.089  22.753  25.523  1.00  0.00     0.124 S 
ATOM     80  O   UNL A   1      44.151  22.051  26.235  1.00  0.00    -0.237 OA
ATOM     81  O   UNL A   1      41.726  22.357  25.866  1.00  0.00    -0.237 OA
ATOM     82  O   UNL A   1      43.326  22.971  24.098  1.00  0.00    -0.744 OA
ENDBRANCH  78  79
ENDBRANCH  50  73
BRANCH  62  83
ATOM     83  C   UNL A   1      48.516  31.768  27.439  1.00  0.00    -0.014 A 
ATOM     84  C   UNL A   1      49.023  32.788  26.614  1.00  0.00     0.010 A 
ATOM     85  C   UNL A   1      49.382  30.745  27.871  1.00  0.00     0.010 A 
ATOM     86  C   UNL A   1      50.360  32.766  26.202  1.00  0.00     0.020 A 
ATOM     87  C   UNL A   1      50.725  30.737  27.489  1.00  0.00     0.020 A 
ATOM     88  C   UNL A   1      51.202  31.741  26.644  1.00  0.00     0.054 A 
BRANCH  88  89
ATOM     89  S   UNL A   1      52.942  31.760  26.131  1.00  0.00     0.124 S 
ATOM     90  O   UNL A   1      52.928  30.874  24.971  1.00  0.00    -0.237 OA
ATOM     91  O   UNL A   1      53.174  33.173  25.841  1.00  0.00    -0.237 OA
ATOM     92  O   UNL A   1      53.654  31.245  27.299  1.00  0.00    -0.744 OA
ENDBRANCH  88  89
ENDBRANCH  62  83
ENDBRANCH  36  37
ENDBRANCH  29  31
ENDBRANCH  28  29
ENDBRANCH  27  28
ENDBRANCH  26  27
ENDBRANCH  25  26
ENDBRANCH  24  25
ENDBRANCH   1  24
TORSDOF 27
ENDMDL
MODEL 2
REMARK VINA RESULT:      -7.5      3.435      3.955
REMARK SMILES CC[C@](O)(C(=O)OCCOCCOCCOCCOC(=O)c1ccc(-c2c3nc(c(-c4ccc(S(=O)(=O)[O-])cc4)c4ccc([nH]4)c(-c4ccc(S(=O)(=O)[O-])cc4)c4nc(c(-c5ccc(S(=O)(=O)[O-])cc5)c5ccc2[nH]5)C=C4)C=C3)cc1)[C@@H](C)c1ccc(C)s1
REMARK SMILES IDX 14 1 13 2 12 3 11 4 10 5 9 6 8 7 7 8 5 9 6 10 3 11 2 12 1 13
REMARK SMILES IDX 82 14 83 15 84 16 85 17 89 18 86 19 87 20 88 21 4 22 15 24
REMARK SMILES IDX 16 25 17 26 18 27 19 28 20 29 21 30 22 31 23 32 81 33 24 34
REMARK SMILES IDX 80 35 25 36 26 37 27 38 74 39 28 40 79 41 73 42 75 43 29 44
REMARK SMILES IDX 78 45 72 46 71 47 30 49 60 50 41 51 59 52 42 53 45 54 58 55
REMARK SMILES IDX 76 56 43 57 44 58 57 60 77 61 46 62 31 63 32 64 40 65 33 66
REMARK SMILES IDX 39 67 34 68 35 69 36 70 37 71 38 72 61 73 62 74 70 75 63 76
REMARK SMILES IDX 69 77 64 78 65 79 66 80 67 81 68 82 47 83 48 84 56 85 49 86
REMARK SMILES IDX 55 87 50 88 51 89 52 90 53 91 54 92
REMARK H PARENT 4 23 75 48 45 59
REMARK Flexibility Score: inf
ROOT
ATOM      1  C   UNL A   1      34.038  34.586  28.228  1.00  0.00     0.188 C 
ENDROOT
BRANCH   1   2
ATOM      2  O   UNL A   1      34.737  33.352  28.090  1.00  0.00    -0.377 OA
BRANCH   2   3
ATOM      3  C   UNL A   1      33.905  32.212  28.048  1.00  0.00     0.188 C 
BRANCH   3   4
ATOM      4  C   UNL A   1      34.597  30.955  27.500  1.00  0.00     0.188 C 
BRANCH   4   5
ATOM      5  O   UNL A   1      33.852  29.788  27.192  1.00  0.00    -0.376 OA
BRANCH   5   6
ATOM      6  C   UNL A   1      32.728  29.878  26.322  1.00  0.00     0.202 C 
BRANCH   6   7
ATOM      7  C   UNL A   1      32.241  28.682  25.479  1.00  0.00     0.261 C 
BRANCH   7   8
ATOM      8  O   UNL A   1      33.089  27.521  25.455  1.00  0.00    -0.461 OA
BRANCH   8   9
ATOM      9  C   UNL A   1      33.254  26.902  24.248  1.00  0.00     0.338 C 
ATOM     10  O   UNL A   1      33.843  27.385  23.289  1.00  0.00    -0.249 OA
BRANCH   9  11
ATOM     11  C   UNL A   1      32.566  25.504  24.242  1.00  0.00     0.168 C 
BRANCH  11  12
ATOM     12  C   UNL A   1      31.455  25.612  23.166  1.00  0.00     0.044 C 
ATOM     13  C   UNL A   1      30.112  24.999  23.555  1.00  0.00     0.007 C 
ENDBRANCH  11  12
BRANCH  11  14
ATOM     14  C   UNL A   1      33.669  24.430  23.915  1.00  0.00     0.070 C 
ATOM     15  C   UNL A   1      34.944  24.465  24.787  1.00  0.00     0.017 C 
BRANCH  14  16
ATOM     16  C   UNL A   1      33.147  23.005  23.872  1.00  0.00     0.011 A 
ATOM     17  C   UNL A   1      32.603  22.363  22.778  1.00  0.00     0.016 A 
ATOM     18  S   UNL A   1      33.245  21.951  25.224  1.00  0.00    -0.145 S 
ATOM     19  C   UNL A   1      32.326  20.994  23.037  1.00  0.00     0.015 A 
ATOM     20  C   UNL A   1      32.688  20.621  24.314  1.00  0.00     0.002 A 
ATOM     21  C   UNL A   1      32.632  19.265  24.923  1.00  0.00     0.056 C 
ENDBRANCH  14  16
ENDBRANCH  11  14
BRANCH  11  22
ATOM     22  O   UNL A   1      31.933  25.188  25.482  1.00  0.00    -0.378 OA
ATOM     23  H   UNL A   1      32.206  25.830  26.157  1.00  0.00     0.212 HD
ENDBRANCH  11  22
ENDBRANCH   9  11
ENDBRANCH   8   9
ENDBRANCH   7   8
ENDBRANCH   6   7
ENDBRANCH   5   6
ENDBRANCH   4   5
ENDBRANCH   3   4
ENDBRANCH   2   3
ENDBRANCH   1   2
BRANCH   1  24
ATOM     24  C   UNL A   1      33.435  34.921  29.616  1.00  0.00     0.188 C 
BRANCH  24  25
ATOM     25  O   UNL A   1      34.380  35.337  30.597  1.00  0.00    -0.376 OA
BRANCH  25  26
ATOM     26  C   UNL A   1      33.947  35.699  31.899  1.00  0.00     0.202 C 
BRANCH  26  27
ATOM     27  C   UNL A   1      33.667  34.598  32.939  1.00  0.00     0.261 C 
BRANCH  27  28
ATOM     28  O   UNL A   1      34.723  33.664  33.194  1.00  0.00    -0.460 OA
BRANCH  28  29
ATOM     29  C   UNL A   1      34.867  32.623  32.348  1.00  0.00     0.338 C 
ATOM     30  O   UNL A   1      34.012  32.143  31.625  1.00  0.00    -0.246 OA
BRANCH  29  31
ATOM     31  C   UNL A   1      36.311  32.312  32.277  1.00  0.00     0.060 A 
ATOM     32  C   UNL A   1      37.211  33.110  32.997  1.00  0.00     0.016 A 
ATOM     33  C   UNL A   1      36.773  31.222  31.534  1.00  0.00     0.016 A 
ATOM     34  C   UNL A   1      38.577  32.841  32.952  1.00  0.00     0.010 A 
ATOM     35  C   UNL A   1      38.145  30.975  31.461  1.00  0.00     0.010 A 
ATOM     36  C   UNL A   1      39.053  31.806  32.140  1.00  0.00    -0.014 A 
BRANCH  36  37
ATOM     37  C   UNL A   1      40.497  31.747  31.813  1.00  0.00     0.031 A 
ATOM     38  C   UNL A   1      41.081  32.881  31.015  1.00  0.00     0.074 A 
ATOM     39  C   UNL A   1      41.277  30.737  32.237  1.00  0.00     0.049 A 
ATOM     40  N   UNL A   1      42.300  33.042  30.571  1.00  0.00    -0.248 NA
ATOM     41  C   UNL A   1      40.165  33.982  30.672  1.00  0.00     0.031 C 
ATOM     42  C   UNL A   1      40.839  29.616  33.067  1.00  0.00     0.029 A 
ATOM     43  N   UNL A   1      42.610  30.494  32.016  1.00  0.00    -0.354 N 
ATOM     44  C   UNL A   1      42.293  34.252  29.886  1.00  0.00     0.074 A 
ATOM     45  C   UNL A   1      40.946  34.771  29.950  1.00  0.00     0.031 C 
ATOM     46  C   UNL A   1      41.886  28.799  33.280  1.00  0.00     0.029 A 
ATOM     47  C   UNL A   1      43.055  29.317  32.570  1.00  0.00     0.049 A 
ATOM     48  H   UNL A   1      43.193  31.106  31.509  1.00  0.00     0.167 HD
ATOM     49  C   UNL A   1      43.318  34.875  29.260  1.00  0.00     0.031 A 
ATOM     50  C   UNL A   1      44.261  28.720  32.491  1.00  0.00     0.031 A 
ATOM     51  C   UNL A   1      44.652  34.345  29.186  1.00  0.00     0.049 A 
ATOM     52  C   UNL A   1      45.366  29.391  31.712  1.00  0.00     0.074 A 
ATOM     53  C   UNL A   1      45.766  34.903  28.586  1.00  0.00     0.029 A 
ATOM     54  N   UNL A   1      45.051  33.128  29.719  1.00  0.00    -0.354 N 
ATOM     55  N   UNL A   1      45.351  30.545  31.085  1.00  0.00    -0.248 NA
ATOM     56  C   UNL A   1      46.650  28.682  31.636  1.00  0.00     0.031 C 
ATOM     57  C   UNL A   1      46.821  33.994  28.695  1.00  0.00     0.029 A 
ATOM     58  C   UNL A   1      46.387  32.903  29.432  1.00  0.00     0.049 A 
ATOM     59  H   UNL A   1      44.470  32.515  30.226  1.00  0.00     0.167 HD
ATOM     60  C   UNL A   1      46.634  30.713  30.571  1.00  0.00     0.074 A 
ATOM     61  C   UNL A   1      47.399  29.551  30.970  1.00  0.00     0.031 C 
ATOM     62  C   UNL A   1      47.136  31.740  29.839  1.00  0.00     0.031 A 
BRANCH  49  63
ATOM     63  C   UNL A   1      43.022  36.179  28.567  1.00  0.00    -0.014 A 
ATOM     64  C   UNL A   1      42.473  36.213  27.272  1.00  0.00     0.010 A 
ATOM     65  C   UNL A   1      43.268  37.390  29.239  1.00  0.00     0.010 A 
ATOM     66  C   UNL A   1      42.207  37.437  26.651  1.00  0.00     0.020 A 
ATOM     67  C   UNL A   1      42.974  38.613  28.633  1.00  0.00     0.020 A 
ATOM     68  C   UNL A   1      42.458  38.630  27.336  1.00  0.00     0.054 A 
BRANCH  68  69
ATOM     69  S   UNL A   1      42.074  40.200  26.516  1.00  0.00     0.124 S 
ATOM     70  O   UNL A   1      43.364  40.561  25.934  1.00  0.00    -0.237 OA
ATOM     71  O   UNL A   1      41.039  39.817  25.561  1.00  0.00    -0.237 OA
ATOM     72  O   UNL A   1      41.623  41.061  27.607  1.00  0.00    -0.744 OA
ENDBRANCH  68  69
ENDBRANCH  49  63
BRANCH  50  73
ATOM     73  C   UNL A   1      44.489  27.404  33.151  1.00  0.00    -0.014 A 
ATOM     74  C   UNL A   1      44.197  26.203  32.481  1.00  0.00     0.010 A 
ATOM     75  C   UNL A   1      44.992  27.345  34.465  1.00  0.00     0.010 A 
ATOM     76  C   UNL A   1      44.387  24.972  33.115  1.00  0.00     0.020 A 
ATOM     77  C   UNL A   1      45.213  26.116  35.091  1.00  0.00     0.020 A 
ATOM     78  C   UNL A   1      44.899  24.936  34.414  1.00  0.00     0.054 A 
BRANCH  78  79
ATOM     79  S   UNL A   1      45.187  23.324  35.197  1.00  0.00     0.124 S 
ATOM     80  O   UNL A   1      45.855  23.702  36.437  1.00  0.00    -0.237 OA
ATOM     81  O   UNL A   1      43.832  22.800  35.341  1.00  0.00    -0.237 OA
ATOM     82  O   UNL A   1      46.020  22.616  34.227  1.00  0.00    -0.744 OA
ENDBRANCH  78  79
ENDBRANCH  50  73
BRANCH  62  83
ATOM     83  C   UNL A   1      48.592  31.682  29.457  1.00  0.00    -0.014 A 
ATOM     84  C   UNL A   1      49.592  32.216  30.288  1.00  0.00     0.010 A 
ATOM     85  C   UNL A   1      48.969  31.019  28.273  1.00  0.00     0.010 A 
ATOM     86  C   UNL A   1      50.940  32.120  29.924  1.00  0.00     0.020 A 
ATOM     87  C   UNL A   1      50.315  30.892  27.923  1.00  0.00     0.020 A 
ATOM     88  C   UNL A   1      51.292  31.456  28.745  1.00  0.00     0.054 A 
BRANCH  88  89
ATOM     89  S   UNL A   1      53.049  31.307  28.320  1.00  0.00     0.124 S 
ATOM     90  O   UNL A   1      53.002  31.194  26.865  1.00  0.00    -0.237 OA
ATOM     91  O   UNL A   1      53.610  32.553  28.836  1.00  0.00    -0.237 OA
ATOM     92  O   UNL A   1      53.475  30.100  29.025  1.00  0.00    -0.744 OA
ENDBRANCH  88  89
ENDBRANCH  62  83
ENDBRANCH  36  37
ENDBRANCH  29  31
ENDBRANCH  28  29
ENDBRANCH  27  28
ENDBRANCH  26  27
ENDBRANCH  25  26
ENDBRANCH  24  25
ENDBRANCH   1  24
TORSDOF 27
ENDMDL
MODEL 3
REMARK VINA RESULT:      -7.5      3.075      9.632
REMARK SMILES CC[C@](O)(C(=O)OCCOCCOCCOCCOC(=O)c1ccc(-c2c3nc(c(-c4ccc(S(=O)(=O)[O-])cc4)c4ccc([nH]4)c(-c4ccc(S(=O)(=O)[O-])cc4)c4nc(c(-c5ccc(S(=O)(=O)[O-])cc5)c5ccc2[nH]5)C=C4)C=C3)cc1)[C@@H](C)c1ccc(C)s1
REMARK SMILES IDX 14 1 13 2 12 3 11 4 10 5 9 6 8 7 7 8 5 9 6 10 3 11 2 12 1 13
REMARK SMILES IDX 82 14 83 15 84 16 85 17 89 18 86 19 87 20 88 21 4 22 15 24
REMARK SMILES IDX 16 25 17 26 18 27 19 28 20 29 21 30 22 31 23 32 81 33 24 34
REMARK SMILES IDX 80 35 25 36 26 37 27 38 74 39 28 40 79 41 73 42 75 43 29 44
REMARK SMILES IDX 78 45 72 46 71 47 30 49 60 50 41 51 59 52 42 53 45 54 58 55
REMARK SMILES IDX 76 56 43 57 44 58 57 60 77 61 46 62 31 63 32 64 40 65 33 66
REMARK SMILES IDX 39 67 34 68 35 69 36 70 37 71 38 72 61 73 62 74 70 75 63 76
REMARK SMILES IDX 69 77 64 78 65 79 66 80 67 81 68 82 47 83 48 84 56 85 49 86
REMARK SMILES IDX 55 87 50 88 51 89 52 90 53 91 54 92
REMARK H PARENT 4 23 75 48 45 59
REMARK Flexibility Score: inf
ROOT
ATOM      1  C   UNL A   1      41.329  25.118  26.474  1.00  0.00     0.188 C 
ENDROOT
BRANCH   1   2
ATOM      2  O   UNL A   1      40.703  24.458  27.570  1.00  0.00    -0.377 OA
BRANCH   2   3
ATOM      3  C   UNL A   1      39.609  23.640  27.212  1.00  0.00     0.188 C 
BRANCH   3   4
ATOM      4  C   UNL A   1      40.014  22.294  26.591  1.00  0.00     0.188 C 
BRANCH   4   5
ATOM      5  O   UNL A   1      39.036  21.405  26.076  1.00  0.00    -0.376 OA
BRANCH   5   6
ATOM      6  C   UNL A   1      37.982  21.911  25.263  1.00  0.00     0.202 C 
BRANCH   6   7
ATOM      7  C   UNL A   1      36.497  21.638  25.577  1.00  0.00     0.261 C 
BRANCH   7   8
ATOM      8  O   UNL A   1      35.628  21.426  24.451  1.00  0.00    -0.461 OA
BRANCH   8   9
ATOM      9  C   UNL A   1      35.200  22.539  23.783  1.00  0.00     0.338 C 
ATOM     10  O   UNL A   1      35.932  23.335  23.209  1.00  0.00    -0.249 OA
BRANCH   9  11
ATOM     11  C   UNL A   1      33.651  22.679  23.872  1.00  0.00     0.168 C 
BRANCH  11  12
ATOM     12  C   UNL A   1      33.163  21.328  24.456  1.00  0.00     0.044 C 
ATOM     13  C   UNL A   1      32.451  20.411  23.464  1.00  0.00     0.007 C 
ENDBRANCH  11  12
BRANCH  11  14
ATOM     14  C   UNL A   1      33.334  23.920  24.787  1.00  0.00     0.070 C 
ATOM     15  C   UNL A   1      34.397  24.282  25.848  1.00  0.00     0.017 C 
BRANCH  14  16
ATOM     16  C   UNL A   1      32.968  25.175  24.016  1.00  0.00     0.011 A 
ATOM     17  C   UNL A   1      33.745  25.815  23.073  1.00  0.00     0.016 A 
ATOM     18  S   UNL A   1      31.440  25.940  24.182  1.00  0.00    -0.145 S 
ATOM     19  C   UNL A   1      33.061  26.892  22.448  1.00  0.00     0.015 A 
ATOM     20  C   UNL A   1      31.770  27.030  22.913  1.00  0.00     0.002 A 
ATOM     21  C   UNL A   1      30.724  27.979  22.447  1.00  0.00     0.056 C 
ENDBRANCH  14  16
ENDBRANCH  11  14
BRANCH  11  22
ATOM     22  O   UNL A   1      33.031  22.845  22.598  1.00  0.00    -0.378 OA
ATOM     23  H   UNL A   1      32.678  21.994  22.296  1.00  0.00     0.212 HD
ENDBRANCH  11  22
ENDBRANCH   9  11
ENDBRANCH   8   9
ENDBRANCH   7   8
ENDBRANCH   6   7
ENDBRANCH   5   6
ENDBRANCH   4   5
ENDBRANCH   3   4
ENDBRANCH   2   3
ENDBRANCH   1   2
BRANCH   1  24
ATOM     24  C   UNL A   1      42.859  24.940  26.305  1.00  0.00     0.188 C 
BRANCH  24  25
ATOM     25  O   UNL A   1      43.494  24.187  27.333  1.00  0.00    -0.376 OA
BRANCH  25  26
ATOM     26  C   UNL A   1      43.950  22.868  27.077  1.00  0.00     0.202 C 
BRANCH  26  27
ATOM     27  C   UNL A   1      45.371  22.651  26.524  1.00  0.00     0.261 C 
BRANCH  27  28
ATOM     28  O   UNL A   1      46.313  23.711  26.725  1.00  0.00    -0.460 OA
BRANCH  28  29
ATOM     29  C   UNL A   1      46.639  24.480  25.665  1.00  0.00     0.338 C 
ATOM     30  O   UNL A   1      46.779  24.114  24.511  1.00  0.00    -0.246 OA
BRANCH  29  31
ATOM     31  C   UNL A   1      46.567  25.889  26.105  1.00  0.00     0.060 A 
ATOM     32  C   UNL A   1      46.862  26.195  27.441  1.00  0.00     0.016 A 
ATOM     33  C   UNL A   1      46.246  26.906  25.202  1.00  0.00     0.016 A 
ATOM     34  C   UNL A   1      46.805  27.514  27.886  1.00  0.00     0.010 A 
ATOM     35  C   UNL A   1      46.155  28.223  25.657  1.00  0.00     0.010 A 
ATOM     36  C   UNL A   1      46.399  28.525  27.009  1.00  0.00    -0.014 A 
BRANCH  36  37
ATOM     37  C   UNL A   1      45.997  29.842  27.556  1.00  0.00     0.031 A 
ATOM     38  C   UNL A   1      46.960  30.988  27.404  1.00  0.00     0.074 A 
ATOM     39  C   UNL A   1      44.801  30.028  28.142  1.00  0.00     0.049 A 
ATOM     40  N   UNL A   1      46.859  32.219  27.830  1.00  0.00    -0.248 NA
ATOM     41  C   UNL A   1      48.207  30.704  26.672  1.00  0.00     0.031 C 
ATOM     42  C   UNL A   1      43.760  29.012  28.292  1.00  0.00     0.029 A 
ATOM     43  N   UNL A   1      44.265  31.149  28.726  1.00  0.00    -0.354 N 
ATOM     44  C   UNL A   1      48.032  32.851  27.431  1.00  0.00     0.074 A 
ATOM     45  C   UNL A   1      48.840  31.864  26.753  1.00  0.00     0.031 C 
ATOM     46  C   UNL A   1      42.712  29.556  28.935  1.00  0.00     0.029 A 
ATOM     47  C   UNL A   1      43.023  30.944  29.276  1.00  0.00     0.049 A 
ATOM     48  H   UNL A   1      44.728  32.019  28.748  1.00  0.00     0.167 HD
ATOM     49  C   UNL A   1      48.401  34.140  27.612  1.00  0.00     0.031 A 
ATOM     50  C   UNL A   1      42.240  31.777  29.991  1.00  0.00     0.031 A 
ATOM     51  C   UNL A   1      47.599  35.114  28.303  1.00  0.00     0.049 A 
ATOM     52  C   UNL A   1      42.712  33.184  30.259  1.00  0.00     0.074 A 
ATOM     53  C   UNL A   1      47.877  36.449  28.531  1.00  0.00     0.029 A 
ATOM     54  N   UNL A   1      46.368  34.854  28.886  1.00  0.00    -0.354 N 
ATOM     55  N   UNL A   1      43.815  33.776  29.859  1.00  0.00    -0.248 NA
ATOM     56  C   UNL A   1      41.832  34.039  31.067  1.00  0.00     0.031 C 
ATOM     57  C   UNL A   1      46.847  36.980  29.311  1.00  0.00     0.029 A 
ATOM     58  C   UNL A   1      45.889  35.998  29.503  1.00  0.00     0.049 A 
ATOM     59  H   UNL A   1      45.904  33.986  28.865  1.00  0.00     0.167 HD
ATOM     60  C   UNL A   1      43.741  35.081  30.340  1.00  0.00     0.074 A 
ATOM     61  C   UNL A   1      42.483  35.194  31.047  1.00  0.00     0.031 C 
ATOM     62  C   UNL A   1      44.632  36.095  30.203  1.00  0.00     0.031 A 
BRANCH  49  63
ATOM     63  C   UNL A   1      49.753  34.557  27.096  1.00  0.00    -0.014 A 
ATOM     64  C   UNL A   1      49.918  35.061  25.793  1.00  0.00     0.010 A 
ATOM     65  C   UNL A   1      50.872  34.472  27.943  1.00  0.00     0.010 A 
ATOM     66  C   UNL A   1      51.184  35.441  25.338  1.00  0.00     0.020 A 
ATOM     67  C   UNL A   1      52.133  34.880  27.503  1.00  0.00     0.020 A 
ATOM     68  C   UNL A   1      52.283  35.349  26.197  1.00  0.00     0.054 A 
BRANCH  68  69
ATOM     69  S   UNL A   1      53.907  35.879  25.588  1.00  0.00     0.124 S 
ATOM     70  O   UNL A   1      54.296  36.870  26.588  1.00  0.00    -0.237 OA
ATOM     71  O   UNL A   1      54.674  34.637  25.603  1.00  0.00    -0.237 OA
ATOM     72  O   UNL A   1      53.622  36.416  24.260  1.00  0.00    -0.744 OA
ENDBRANCH  68  69
ENDBRANCH  49  63
BRANCH  50  73
ATOM     73  C   UNL A   1      40.934  31.300  30.527  1.00  0.00    -0.014 A 
ATOM     74  C   UNL A   1      40.882  30.439  31.637  1.00  0.00     0.010 A 
ATOM     75  C   UNL A   1      39.728  31.699  29.918  1.00  0.00     0.010 A 
ATOM     76  C   UNL A   1      39.654  29.973  32.118  1.00  0.00     0.020 A 
ATOM     77  C   UNL A   1      38.498  31.262  30.415  1.00  0.00     0.020 A 
ATOM     78  C   UNL A   1      38.469  30.392  31.507  1.00  0.00     0.054 A 
BRANCH  78  79
ATOM     79  S   UNL A   1      36.886  29.816  32.182  1.00  0.00     0.124 S 
ATOM     80  O   UNL A   1      36.286  29.155  31.028  1.00  0.00    -0.237 OA
ATOM     81  O   UNL A   1      37.311  28.938  33.267  1.00  0.00    -0.237 OA
ATOM     82  O   UNL A   1      36.228  31.049  32.610  1.00  0.00    -0.744 OA
ENDBRANCH  78  79
ENDBRANCH  50  73
BRANCH  62  83
ATOM     83  C   UNL A   1      44.264  37.434  30.789  1.00  0.00    -0.014 A 
ATOM     84  C   UNL A   1      43.793  38.485  29.983  1.00  0.00     0.010 A 
ATOM     85  C   UNL A   1      44.330  37.617  32.184  1.00  0.00     0.010 A 
ATOM     86  C   UNL A   1      43.428  39.707  30.558  1.00  0.00     0.020 A 
ATOM     87  C   UNL A   1      43.935  38.825  32.765  1.00  0.00     0.020 A 
ATOM     88  C   UNL A   1      43.500  39.867  31.946  1.00  0.00     0.054 A 
BRANCH  88  89
ATOM     89  S   UNL A   1      42.978  41.447  32.669  1.00  0.00     0.124 S 
ATOM     90  O   UNL A   1      44.225  42.208  32.672  1.00  0.00    -0.237 OA
ATOM     91  O   UNL A   1      41.962  41.910  31.727  1.00  0.00    -0.237 OA
ATOM     92  O   UNL A   1      42.473  41.075  33.989  1.00  0.00    -0.744 OA
ENDBRANCH  88  89
ENDBRANCH  62  83
ENDBRANCH  36  37
ENDBRANCH  29  31
ENDBRANCH  28  29
ENDBRANCH  27  28
ENDBRANCH  26  27
ENDBRANCH  25  26
ENDBRANCH  24  25
ENDBRANCH   1  24
TORSDOF 27
ENDMDL
