MODEL 1
REMARK VINA RESULT:      -8.4      0.000      0.000
REMARK SMILES NC(=O)CC[N@@H+]1[C@@H](C(=O)OCCOCCOCCOCCOC(=O)c2ccc(-c3c4nc(c(-c5ccc(S(=O)(=O)[O-])cc5)c5ccc([nH]5)c(-c5ccc(S(=O)(=O)[O-])cc5)c5nc(c(-c6ccc(S(=O)(=O)[O-])cc6)c6ccc3[nH]6)C=C5)C=C4)cc2)CC[C@@H]2CCCC[C@H]21
REMARK SMILES IDX 16 1 15 2 14 3 13 4 12 5 11 6 10 7 8 8 9 9 7 10 6 11 92 12
REMARK SMILES IDX 85 14 87 15 91 16 86 17 88 18 90 19 89 20 5 21 4 22 2 23
REMARK SMILES IDX 1 24 3 27 17 28 18 29 19 30 20 31 21 32 22 33 23 34 24 35
REMARK SMILES IDX 25 36 26 37 84 38 27 39 83 40 28 41 29 42 30 43 77 44 31 45
REMARK SMILES IDX 82 46 76 47 78 48 32 49 81 50 75 51 74 52 33 54 63 55 44 56
REMARK SMILES IDX 62 57 45 58 48 59 61 60 79 61 46 62 47 63 60 65 80 66 49 67
REMARK SMILES IDX 34 68 35 69 43 70 36 71 42 72 37 73 38 74 39 75 40 76 41 77
REMARK SMILES IDX 64 78 65 79 73 80 66 81 72 82 67 83 68 84 69 85 70 86 71 87
REMARK SMILES IDX 50 88 51 89 59 90 52 91 58 92 53 93 54 94 55 95 56 96 57 97
REMARK H PARENT 6 13 1 25 1 26 78 53 48 64
REMARK Flexibility Score: inf
ROOT
ATOM      1  O   UNL A   1      38.576  23.969  26.411  1.00  0.00    -0.377 OA
ENDROOT
BRANCH   1   2
ATOM      2  C   UNL A   1      37.828  23.292  25.415  1.00  0.00     0.188 C 
BRANCH   2   3
ATOM      3  C   UNL A   1      37.202  21.931  25.768  1.00  0.00     0.188 C 
BRANCH   3   4
ATOM      4  O   UNL A   1      35.790  21.949  25.803  1.00  0.00    -0.376 OA
BRANCH   4   5
ATOM      5  C   UNL A   1      35.146  22.670  26.843  1.00  0.00     0.202 C 
BRANCH   5   6
ATOM      6  C   UNL A   1      33.695  22.327  27.243  1.00  0.00     0.261 C 
BRANCH   6   7
ATOM      7  O   UNL A   1      32.700  22.572  26.237  1.00  0.00    -0.459 OA
BRANCH   7   8
ATOM      8  C   UNL A   1      31.912  23.658  26.431  1.00  0.00     0.364 C 
ATOM      9  O   UNL A   1      31.701  24.111  27.553  1.00  0.00    -0.245 OA
BRANCH   8  10
ATOM     10  C   UNL A   1      31.533  24.373  25.093  1.00  0.00     0.295 C 
ATOM     11  N   UNL A   1      32.599  25.317  24.696  1.00  0.00    -0.320 N 
ATOM     12  C   UNL A   1      32.267  26.379  23.731  1.00  0.00     0.187 C 
ATOM     13  H   UNL A   1      32.664  25.814  25.584  1.00  0.00     0.349 HD
ATOM     14  C   UNL A   1      30.124  25.001  25.109  1.00  0.00     0.078 C 
ATOM     15  C   UNL A   1      30.804  26.877  23.727  1.00  0.00     0.048 C 
ATOM     16  C   UNL A   1      33.125  27.636  24.013  1.00  0.00     0.065 C 
ATOM     17  C   UNL A   1      29.834  25.715  23.788  1.00  0.00     0.016 C 
ATOM     18  C   UNL A   1      30.587  27.804  22.525  1.00  0.00     0.010 C 
ATOM     19  C   UNL A   1      32.936  28.692  22.922  1.00  0.00     0.006 C 
ATOM     20  C   UNL A   1      31.470  29.045  22.676  1.00  0.00     0.001 C 
BRANCH  11  21
ATOM     21  C   UNL A   1      33.949  24.738  24.456  1.00  0.00     0.273 C 
BRANCH  21  22
ATOM     22  C   UNL A   1      34.403  24.088  23.133  1.00  0.00     0.161 C 
BRANCH  22  23
ATOM     23  C   UNL A   1      33.460  23.078  22.528  1.00  0.00     0.223 C 
ATOM     24  N   UNL A   1      32.919  23.418  21.323  1.00  0.00    -0.369 N 
ATOM     25  H   UNL A   1      32.296  22.803  20.872  1.00  0.00     0.159 HD
ATOM     26  H   UNL A   1      33.152  24.278  20.904  1.00  0.00     0.159 HD
ATOM     27  O   UNL A   1      33.131  22.035  23.082  1.00  0.00    -0.275 OA
ENDBRANCH  22  23
ENDBRANCH  21  22
ENDBRANCH  11  21
ENDBRANCH   8  10
ENDBRANCH   7   8
ENDBRANCH   6   7
ENDBRANCH   5   6
ENDBRANCH   4   5
ENDBRANCH   3   4
ENDBRANCH   2   3
ENDBRANCH   1   2
BRANCH   1  28
ATOM     28  C   UNL A   1      39.528  23.253  27.196  1.00  0.00     0.188 C 
BRANCH  28  29
ATOM     29  C   UNL A   1      40.689  22.499  26.515  1.00  0.00     0.188 C 
BRANCH  29  30
ATOM     30  O   UNL A   1      41.937  23.168  26.566  1.00  0.00    -0.376 OA
BRANCH  30  31
ATOM     31  C   UNL A   1      42.409  23.743  25.357  1.00  0.00     0.202 C 
BRANCH  31  32
ATOM     32  C   UNL A   1      42.727  25.249  25.359  1.00  0.00     0.261 C 
BRANCH  32  33
ATOM     33  O   UNL A   1      44.082  25.627  25.657  1.00  0.00    -0.460 OA
BRANCH  33  34
ATOM     34  C   UNL A   1      44.541  25.426  26.915  1.00  0.00     0.338 C 
ATOM     35  O   UNL A   1      45.492  24.755  27.248  1.00  0.00    -0.246 OA
BRANCH  34  36
ATOM     36  C   UNL A   1      43.807  26.356  27.807  1.00  0.00     0.060 A 
ATOM     37  C   UNL A   1      44.104  27.726  27.757  1.00  0.00     0.016 A 
ATOM     38  C   UNL A   1      42.825  25.878  28.676  1.00  0.00     0.016 A 
ATOM     39  C   UNL A   1      43.447  28.617  28.609  1.00  0.00     0.010 A 
ATOM     40  C   UNL A   1      42.188  26.766  29.547  1.00  0.00     0.010 A 
ATOM     41  C   UNL A   1      42.527  28.132  29.544  1.00  0.00    -0.014 A 
BRANCH  41  42
ATOM     42  C   UNL A   1      42.100  28.997  30.671  1.00  0.00     0.031 A 
ATOM     43  C   UNL A   1      42.925  28.972  31.931  1.00  0.00     0.074 A 
ATOM     44  C   UNL A   1      41.026  29.802  30.582  1.00  0.00     0.049 A 
ATOM     45  N   UNL A   1      42.742  29.604  33.059  1.00  0.00    -0.248 NA
ATOM     46  C   UNL A   1      44.119  28.108  31.909  1.00  0.00     0.031 C 
ATOM     47  C   UNL A   1      40.186  29.970  29.398  1.00  0.00     0.029 A 
ATOM     48  N   UNL A   1      40.463  30.634  31.517  1.00  0.00    -0.354 N 
ATOM     49  C   UNL A   1      43.784  29.202  33.888  1.00  0.00     0.074 A 
ATOM     50  C   UNL A   1      44.577  28.250  33.143  1.00  0.00     0.031 C 
ATOM     51  C   UNL A   1      39.214  30.856  29.678  1.00  0.00     0.029 A 
ATOM     52  C   UNL A   1      39.338  31.286  31.070  1.00  0.00     0.049 A 
ATOM     53  H   UNL A   1      40.830  30.754  32.422  1.00  0.00     0.167 HD
ATOM     54  C   UNL A   1      44.057  29.589  35.157  1.00  0.00     0.031 A 
ATOM     55  C   UNL A   1      38.498  32.119  31.717  1.00  0.00     0.031 A 
ATOM     56  C   UNL A   1      43.252  30.519  35.902  1.00  0.00     0.049 A 
ATOM     57  C   UNL A   1      38.765  32.458  33.163  1.00  0.00     0.074 A 
ATOM     58  C   UNL A   1      43.450  30.991  37.187  1.00  0.00     0.029 A 
ATOM     59  N   UNL A   1      42.084  31.106  35.436  1.00  0.00    -0.354 N 
ATOM     60  N   UNL A   1      39.766  32.092  33.928  1.00  0.00    -0.248 NA
ATOM     61  C   UNL A   1      37.787  33.331  33.829  1.00  0.00     0.031 C 
ATOM     62  C   UNL A   1      42.362  31.804  37.525  1.00  0.00     0.029 A 
ATOM     63  C   UNL A   1      41.528  31.903  36.422  1.00  0.00     0.049 A 
ATOM     64  H   UNL A   1      41.707  30.973  34.536  1.00  0.00     0.167 HD
ATOM     65  C   UNL A   1      39.559  32.719  35.154  1.00  0.00     0.074 A 
ATOM     66  C   UNL A   1      38.340  33.493  35.024  1.00  0.00     0.031 C 
ATOM     67  C   UNL A   1      40.312  32.666  36.281  1.00  0.00     0.031 A 
BRANCH  54  68
ATOM     68  C   UNL A   1      45.245  28.951  35.833  1.00  0.00    -0.014 A 
ATOM     69  C   UNL A   1      45.125  27.751  36.557  1.00  0.00     0.010 A 
ATOM     70  C   UNL A   1      46.504  29.571  35.744  1.00  0.00     0.010 A 
ATOM     71  C   UNL A   1      46.228  27.218  37.231  1.00  0.00     0.020 A 
ATOM     72  C   UNL A   1      47.618  29.023  36.386  1.00  0.00     0.020 A 
ATOM     73  C   UNL A   1      47.466  27.863  37.147  1.00  0.00     0.054 A 
BRANCH  73  74
ATOM     74  S   UNL A   1      48.878  27.158  38.041  1.00  0.00     0.124 S 
ATOM     75  O   UNL A   1      48.498  27.392  39.432  1.00  0.00    -0.237 OA
ATOM     76  O   UNL A   1      48.863  25.761  37.613  1.00  0.00    -0.237 OA
ATOM     77  O   UNL A   1      50.016  27.941  37.567  1.00  0.00    -0.744 OA
ENDBRANCH  73  74
ENDBRANCH  54  68
BRANCH  55  78
ATOM     78  C   UNL A   1      37.327  32.700  31.004  1.00  0.00    -0.014 A 
ATOM     79  C   UNL A   1      36.038  32.179  31.213  1.00  0.00     0.010 A 
ATOM     80  C   UNL A   1      37.491  33.781  30.117  1.00  0.00     0.010 A 
ATOM     81  C   UNL A   1      34.936  32.724  30.546  1.00  0.00     0.020 A 
ATOM     82  C   UNL A   1      36.387  34.346  29.471  1.00  0.00     0.020 A 
ATOM     83  C   UNL A   1      35.117  33.810  29.685  1.00  0.00     0.054 A 
BRANCH  83  84
ATOM     84  S   UNL A   1      33.660  34.543  28.890  1.00  0.00     0.124 S 
ATOM     85  O   UNL A   1      32.750  34.711  30.018  1.00  0.00    -0.237 OA
ATOM     86  O   UNL A   1      34.202  35.776  28.324  1.00  0.00    -0.237 OA
ATOM     87  O   UNL A   1      33.262  33.536  27.908  1.00  0.00    -0.744 OA
ENDBRANCH  83  84
ENDBRANCH  55  78
BRANCH  67  88
ATOM     88  C   UNL A   1      39.870  33.499  37.458  1.00  0.00    -0.014 A 
ATOM     89  C   UNL A   1      39.116  32.949  38.510  1.00  0.00     0.010 A 
ATOM     90  C   UNL A   1      40.272  34.846  37.539  1.00  0.00     0.010 A 
ATOM     91  C   UNL A   1      38.746  33.739  39.602  1.00  0.00     0.020 A 
ATOM     92  C   UNL A   1      39.933  35.629  38.645  1.00  0.00     0.020 A 
ATOM     93  C   UNL A   1      39.159  35.073  39.664  1.00  0.00     0.054 A 
BRANCH  93  94
ATOM     94  S   UNL A   1      38.703  36.062  41.115  1.00  0.00     0.124 S 
ATOM     95  O   UNL A   1      38.483  37.381  40.529  1.00  0.00    -0.237 OA
ATOM     96  O   UNL A   1      37.505  35.381  41.601  1.00  0.00    -0.237 OA
ATOM     97  O   UNL A   1      39.870  35.955  41.989  1.00  0.00    -0.744 OA
ENDBRANCH  93  94
ENDBRANCH  67  88
ENDBRANCH  41  42
ENDBRANCH  34  36
ENDBRANCH  33  34
ENDBRANCH  32  33
ENDBRANCH  31  32
ENDBRANCH  30  31
ENDBRANCH  29  30
ENDBRANCH  28  29
ENDBRANCH   1  28
TORSDOF 26
ENDMDL
MODEL 2
REMARK VINA RESULT:      -8.1      4.641     11.856
REMARK SMILES NC(=O)CC[N@@H+]1[C@@H](C(=O)OCCOCCOCCOCCOC(=O)c2ccc(-c3c4nc(c(-c5ccc(S(=O)(=O)[O-])cc5)c5ccc([nH]5)c(-c5ccc(S(=O)(=O)[O-])cc5)c5nc(c(-c6ccc(S(=O)(=O)[O-])cc6)c6ccc3[nH]6)C=C5)C=C4)cc2)CC[C@@H]2CCCC[C@H]21
REMARK SMILES IDX 16 1 15 2 14 3 13 4 12 5 11 6 10 7 8 8 9 9 7 10 6 11 92 12
REMARK SMILES IDX 85 14 87 15 91 16 86 17 88 18 90 19 89 20 5 21 4 22 2 23
REMARK SMILES IDX 1 24 3 27 17 28 18 29 19 30 20 31 21 32 22 33 23 34 24 35
REMARK SMILES IDX 25 36 26 37 84 38 27 39 83 40 28 41 29 42 30 43 77 44 31 45
REMARK SMILES IDX 82 46 76 47 78 48 32 49 81 50 75 51 74 52 33 54 63 55 44 56
REMARK SMILES IDX 62 57 45 58 48 59 61 60 79 61 46 62 47 63 60 65 80 66 49 67
REMARK SMILES IDX 34 68 35 69 43 70 36 71 42 72 37 73 38 74 39 75 40 76 41 77
REMARK SMILES IDX 64 78 65 79 73 80 66 81 72 82 67 83 68 84 69 85 70 86 71 87
REMARK SMILES IDX 50 88 51 89 59 90 52 91 58 92 53 93 54 94 55 95 56 96 57 97
REMARK H PARENT 6 13 1 25 1 26 78 53 48 64
REMARK Flexibility Score: inf
ROOT
ATOM      1  O   UNL A   1      34.949  33.526  34.561  1.00  0.00    -0.377 OA
ENDROOT
BRANCH   1   2
ATOM      2  C   UNL A   1      36.343  33.613  34.807  1.00  0.00     0.188 C 
BRANCH   2   3
ATOM      3  C   UNL A   1      37.279  33.903  33.620  1.00  0.00     0.188 C 
BRANCH   3   4
ATOM      4  O   UNL A   1      38.305  34.826  33.921  1.00  0.00    -0.376 OA
BRANCH   4   5
ATOM      5  C   UNL A   1      39.648  34.460  33.643  1.00  0.00     0.202 C 
BRANCH   5   6
ATOM      6  C   UNL A   1      40.135  34.342  32.182  1.00  0.00     0.261 C 
BRANCH   6   7
ATOM      7  O   UNL A   1      41.400  33.688  32.001  1.00  0.00    -0.459 OA
BRANCH   7   8
ATOM      8  C   UNL A   1      41.643  33.196  30.761  1.00  0.00     0.364 C 
ATOM      9  O   UNL A   1      40.931  33.480  29.802  1.00  0.00    -0.245 OA
BRANCH   8  10
ATOM     10  C   UNL A   1      43.023  32.465  30.664  1.00  0.00     0.295 C 
ATOM     11  N   UNL A   1      43.351  32.174  29.252  1.00  0.00    -0.320 N 
ATOM     12  C   UNL A   1      44.363  31.141  28.969  1.00  0.00     0.187 C 
ATOM     13  H   UNL A   1      42.471  31.718  29.010  1.00  0.00     0.349 HD
ATOM     14  C   UNL A   1      43.137  31.239  31.593  1.00  0.00     0.078 C 
ATOM     15  C   UNL A   1      44.497  30.003  30.007  1.00  0.00     0.048 C 
ATOM     16  C   UNL A   1      44.038  30.436  27.630  1.00  0.00     0.065 C 
ATOM     17  C   UNL A   1      44.491  30.552  31.419  1.00  0.00     0.016 C 
ATOM     18  C   UNL A   1      45.732  29.157  29.675  1.00  0.00     0.010 C 
ATOM     19  C   UNL A   1      45.163  29.485  27.218  1.00  0.00     0.006 C 
ATOM     20  C   UNL A   1      45.536  28.486  28.314  1.00  0.00     0.001 C 
BRANCH  11  21
ATOM     21  C   UNL A   1      43.467  33.342  28.337  1.00  0.00     0.273 C 
BRANCH  21  22
ATOM     22  C   UNL A   1      44.533  33.490  27.233  1.00  0.00     0.161 C 
BRANCH  22  23
ATOM     23  C   UNL A   1      44.444  34.734  26.382  1.00  0.00     0.223 C 
ATOM     24  N   UNL A   1      44.858  34.599  25.089  1.00  0.00    -0.369 N 
ATOM     25  H   UNL A   1      44.825  35.371  24.479  1.00  0.00     0.159 HD
ATOM     26  H   UNL A   1      45.188  33.730  24.767  1.00  0.00     0.159 HD
ATOM     27  O   UNL A   1      44.083  35.826  26.807  1.00  0.00    -0.275 OA
ENDBRANCH  22  23
ENDBRANCH  21  22
ENDBRANCH  11  21
ENDBRANCH   8  10
ENDBRANCH   7   8
ENDBRANCH   6   7
ENDBRANCH   5   6
ENDBRANCH   4   5
ENDBRANCH   3   4
ENDBRANCH   2   3
ENDBRANCH   1   2
BRANCH   1  28
ATOM     28  C   UNL A   1      34.477  33.079  33.292  1.00  0.00     0.188 C 
BRANCH  28  29
ATOM     29  C   UNL A   1      34.383  34.063  32.106  1.00  0.00     0.188 C 
BRANCH  29  30
ATOM     30  O   UNL A   1      34.063  33.460  30.864  1.00  0.00    -0.376 OA
BRANCH  30  31
ATOM     31  C   UNL A   1      34.256  34.246  29.699  1.00  0.00     0.202 C 
BRANCH  31  32
ATOM     32  C   UNL A   1      35.398  33.846  28.748  1.00  0.00     0.261 C 
BRANCH  32  33
ATOM     33  O   UNL A   1      35.041  33.068  27.593  1.00  0.00    -0.460 OA
BRANCH  33  34
ATOM     34  C   UNL A   1      34.716  31.765  27.773  1.00  0.00     0.338 C 
ATOM     35  O   UNL A   1      33.672  31.225  27.483  1.00  0.00    -0.246 OA
BRANCH  34  36
ATOM     36  C   UNL A   1      35.949  31.055  28.188  1.00  0.00     0.060 A 
ATOM     37  C   UNL A   1      35.855  29.730  28.640  1.00  0.00     0.016 A 
ATOM     38  C   UNL A   1      37.191  31.690  28.117  1.00  0.00     0.016 A 
ATOM     39  C   UNL A   1      36.999  29.052  29.064  1.00  0.00     0.010 A 
ATOM     40  C   UNL A   1      38.331  31.019  28.568  1.00  0.00     0.010 A 
ATOM     41  C   UNL A   1      38.232  29.713  29.081  1.00  0.00    -0.014 A 
BRANCH  41  42
ATOM     42  C   UNL A   1      39.363  29.138  29.849  1.00  0.00     0.031 A 
ATOM     43  C   UNL A   1      39.565  29.609  31.266  1.00  0.00     0.074 A 
ATOM     44  C   UNL A   1      40.180  28.208  29.324  1.00  0.00     0.049 A 
ATOM     45  N   UNL A   1      40.494  29.288  32.126  1.00  0.00    -0.248 NA
ATOM     46  C   UNL A   1      38.581  30.581  31.774  1.00  0.00     0.031 C 
ATOM     47  C   UNL A   1      40.051  27.619  27.992  1.00  0.00     0.029 A 
ATOM     48  N   UNL A   1      41.286  27.595  29.858  1.00  0.00    -0.354 N 
ATOM     49  C   UNL A   1      40.220  30.030  33.269  1.00  0.00     0.074 A 
ATOM     50  C   UNL A   1      39.056  30.839  32.983  1.00  0.00     0.031 C 
ATOM     51  C   UNL A   1      41.040  26.725  27.815  1.00  0.00     0.029 A 
ATOM     52  C   UNL A   1      41.893  26.707  29.003  1.00  0.00     0.049 A 
ATOM     53  H   UNL A   1      41.612  27.773  30.770  1.00  0.00     0.167 HD
ATOM     54  C   UNL A   1      40.877  30.040  34.454  1.00  0.00     0.031 A 
ATOM     55  C   UNL A   1      43.019  25.980  29.156  1.00  0.00     0.031 A 
ATOM     56  C   UNL A   1      42.049  29.251  34.726  1.00  0.00     0.049 A 
ATOM     57  C   UNL A   1      43.793  26.082  30.447  1.00  0.00     0.074 A 
ATOM     58  C   UNL A   1      42.781  29.175  35.897  1.00  0.00     0.029 A 
ATOM     59  N   UNL A   1      42.671  28.415  33.810  1.00  0.00    -0.354 N 
ATOM     60  N   UNL A   1      43.510  26.768  31.530  1.00  0.00    -0.248 NA
ATOM     61  C   UNL A   1      45.037  25.304  30.535  1.00  0.00     0.031 C 
ATOM     62  C   UNL A   1      43.887  28.351  35.666  1.00  0.00     0.029 A 
ATOM     63  C   UNL A   1      43.801  27.850  34.376  1.00  0.00     0.049 A 
ATOM     64  H   UNL A   1      42.355  28.249  32.893  1.00  0.00     0.167 HD
ATOM     65  C   UNL A   1      44.521  26.475  32.441  1.00  0.00     0.074 A 
ATOM     66  C   UNL A   1      45.417  25.545  31.784  1.00  0.00     0.031 C 
ATOM     67  C   UNL A   1      44.688  26.928  33.709  1.00  0.00     0.031 A 
BRANCH  54  68
ATOM     68  C   UNL A   1      40.373  30.984  35.516  1.00  0.00    -0.014 A 
ATOM     69  C   UNL A   1      39.091  30.846  36.079  1.00  0.00     0.010 A 
ATOM     70  C   UNL A   1      41.200  32.034  35.953  1.00  0.00     0.010 A 
ATOM     71  C   UNL A   1      38.624  31.776  37.012  1.00  0.00     0.020 A 
ATOM     72  C   UNL A   1      40.751  32.946  36.912  1.00  0.00     0.020 A 
ATOM     73  C   UNL A   1      39.455  32.825  37.417  1.00  0.00     0.054 A 
BRANCH  73  74
ATOM     74  S   UNL A   1      38.819  34.026  38.619  1.00  0.00     0.124 S 
ATOM     75  O   UNL A   1      39.586  33.687  39.815  1.00  0.00    -0.237 OA
ATOM     76  O   UNL A   1      39.155  35.306  38.000  1.00  0.00    -0.237 OA
ATOM     77  O   UNL A   1      37.392  33.725  38.689  1.00  0.00    -0.744 OA
ENDBRANCH  73  74
ENDBRANCH  54  68
BRANCH  55  78
ATOM     78  C   UNL A   1      43.482  25.082  28.062  1.00  0.00    -0.014 A 
ATOM     79  C   UNL A   1      43.929  25.620  26.842  1.00  0.00     0.010 A 
ATOM     80  C   UNL A   1      43.484  23.685  28.233  1.00  0.00     0.010 A 
ATOM     81  C   UNL A   1      44.366  24.779  25.814  1.00  0.00     0.020 A 
ATOM     82  C   UNL A   1      43.948  22.843  27.217  1.00  0.00     0.020 A 
ATOM     83  C   UNL A   1      44.380  23.396  26.011  1.00  0.00     0.054 A 
BRANCH  83  84
ATOM     84  S   UNL A   1      45.020  22.334  24.687  1.00  0.00     0.124 S 
ATOM     85  O   UNL A   1      46.390  22.089  25.129  1.00  0.00    -0.237 OA
ATOM     86  O   UNL A   1      44.120  21.185  24.746  1.00  0.00    -0.237 OA
ATOM     87  O   UNL A   1      44.888  23.160  23.490  1.00  0.00    -0.744 OA
ENDBRANCH  83  84
ENDBRANCH  55  78
BRANCH  67  88
ATOM     88  C   UNL A   1      45.860  26.395  34.495  1.00  0.00    -0.014 A 
ATOM     89  C   UNL A   1      47.103  27.052  34.501  1.00  0.00     0.010 A 
ATOM     90  C   UNL A   1      45.692  25.245  35.290  1.00  0.00     0.010 A 
ATOM     91  C   UNL A   1      48.164  26.550  35.261  1.00  0.00     0.020 A 
ATOM     92  C   UNL A   1      46.738  24.761  36.077  1.00  0.00     0.020 A 
ATOM     93  C   UNL A   1      47.974  25.410  36.047  1.00  0.00     0.054 A 
BRANCH  93  94
ATOM     94  S   UNL A   1      49.353  24.807  37.059  1.00  0.00     0.124 S 
ATOM     95  O   UNL A   1      49.357  25.758  38.168  1.00  0.00    -0.237 OA
ATOM     96  O   UNL A   1      48.933  23.449  37.396  1.00  0.00    -0.237 OA
ATOM     97  O   UNL A   1      50.505  24.892  36.163  1.00  0.00    -0.744 OA
ENDBRANCH  93  94
ENDBRANCH  67  88
ENDBRANCH  41  42
ENDBRANCH  34  36
ENDBRANCH  33  34
ENDBRANCH  32  33
ENDBRANCH  31  32
ENDBRANCH  30  31
ENDBRANCH  29  30
ENDBRANCH  28  29
ENDBRANCH   1  28
TORSDOF 26
ENDMDL
MODEL 3
REMARK VINA RESULT:      -7.9     10.291     17.395
REMARK SMILES NC(=O)CC[N@@H+]1[C@@H](C(=O)OCCOCCOCCOCCOC(=O)c2ccc(-c3c4nc(c(-c5ccc(S(=O)(=O)[O-])cc5)c5ccc([nH]5)c(-c5ccc(S(=O)(=O)[O-])cc5)c5nc(c(-c6ccc(S(=O)(=O)[O-])cc6)c6ccc3[nH]6)C=C5)C=C4)cc2)CC[C@@H]2CCCC[C@H]21
REMARK SMILES IDX 16 1 15 2 14 3 13 4 12 5 11 6 10 7 8 8 9 9 7 10 6 11 92 12
REMARK SMILES IDX 85 14 87 15 91 16 86 17 88 18 90 19 89 20 5 21 4 22 2 23
REMARK SMILES IDX 1 24 3 27 17 28 18 29 19 30 20 31 21 32 22 33 23 34 24 35
REMARK SMILES IDX 25 36 26 37 84 38 27 39 83 40 28 41 29 42 30 43 77 44 31 45
REMARK SMILES IDX 82 46 76 47 78 48 32 49 81 50 75 51 74 52 33 54 63 55 44 56
REMARK SMILES IDX 62 57 45 58 48 59 61 60 79 61 46 62 47 63 60 65 80 66 49 67
REMARK SMILES IDX 34 68 35 69 43 70 36 71 42 72 37 73 38 74 39 75 40 76 41 77
REMARK SMILES IDX 64 78 65 79 73 80 66 81 72 82 67 83 68 84 69 85 70 86 71 87
REMARK SMILES IDX 50 88 51 89 59 90 52 91 58 92 53 93 54 94 55 95 56 96 57 97
REMARK H PARENT 6 13 1 25 1 26 78 53 48 64
REMARK Flexibility Score: inf
ROOT
ATOM      1  O   UNL A   1      44.873  43.043  27.490  1.00  0.00    -0.377 OA
ENDROOT
BRANCH   1   2
ATOM      2  C   UNL A   1      45.638  44.237  27.523  1.00  0.00     0.188 C 
BRANCH   2   3
ATOM      3  C   UNL A   1      46.921  44.309  26.677  1.00  0.00     0.188 C 
BRANCH   3   4
ATOM      4  O   UNL A   1      46.706  44.073  25.301  1.00  0.00    -0.376 OA
BRANCH   4   5
ATOM      5  C   UNL A   1      47.123  45.062  24.371  1.00  0.00     0.202 C 
BRANCH   5   6
ATOM      6  C   UNL A   1      46.330  45.283  23.065  1.00  0.00     0.261 C 
BRANCH   6   7
ATOM      7  O   UNL A   1      46.442  44.237  22.088  1.00  0.00    -0.459 OA
BRANCH   7   8
ATOM      8  C   UNL A   1      46.403  44.627  20.790  1.00  0.00     0.364 C 
ATOM      9  O   UNL A   1      46.908  43.952  19.897  1.00  0.00    -0.245 OA
BRANCH   8  10
ATOM     10  C   UNL A   1      45.458  45.852  20.558  1.00  0.00     0.295 C 
ATOM     11  N   UNL A   1      44.674  45.668  19.318  1.00  0.00    -0.320 N 
ATOM     12  C   UNL A   1      44.060  46.854  18.698  1.00  0.00     0.187 C 
ATOM     13  H   UNL A   1      45.460  45.457  18.703  1.00  0.00     0.349 HD
ATOM     14  C   UNL A   1      46.182  47.211  20.638  1.00  0.00     0.078 C 
ATOM     15  C   UNL A   1      44.784  48.202  18.920  1.00  0.00     0.048 C 
ATOM     16  C   UNL A   1      43.994  46.674  17.162  1.00  0.00     0.065 C 
ATOM     17  C   UNL A   1      45.211  48.359  20.364  1.00  0.00     0.016 C 
ATOM     18  C   UNL A   1      43.898  49.344  18.406  1.00  0.00     0.010 C 
ATOM     19  C   UNL A   1      43.201  47.805  16.505  1.00  0.00     0.006 C 
ATOM     20  C   UNL A   1      43.703  49.195  16.896  1.00  0.00     0.001 C 
BRANCH  11  21
ATOM     21  C   UNL A   1      43.783  44.477  19.260  1.00  0.00     0.273 C 
BRANCH  21  22
ATOM     22  C   UNL A   1      42.781  44.075  20.361  1.00  0.00     0.161 C 
BRANCH  22  23
ATOM     23  C   UNL A   1      43.142  42.861  21.182  1.00  0.00     0.223 C 
ATOM     24  N   UNL A   1      43.017  41.659  20.551  1.00  0.00    -0.369 N 
ATOM     25  H   UNL A   1      43.237  40.827  21.028  1.00  0.00     0.159 HD
ATOM     26  H   UNL A   1      42.708  41.624  19.616  1.00  0.00     0.159 HD
ATOM     27  O   UNL A   1      43.472  42.910  22.362  1.00  0.00    -0.275 OA
ENDBRANCH  22  23
ENDBRANCH  21  22
ENDBRANCH  11  21
ENDBRANCH   8  10
ENDBRANCH   7   8
ENDBRANCH   6   7
ENDBRANCH   5   6
ENDBRANCH   4   5
ENDBRANCH   3   4
ENDBRANCH   2   3
ENDBRANCH   1   2
BRANCH   1  28
ATOM     28  C   UNL A   1      44.874  42.165  28.614  1.00  0.00     0.188 C 
BRANCH  28  29
ATOM     29  C   UNL A   1      45.552  40.782  28.520  1.00  0.00     0.188 C 
BRANCH  29  30
ATOM     30  O   UNL A   1      45.470  40.005  29.703  1.00  0.00    -0.376 OA
BRANCH  30  31
ATOM     31  C   UNL A   1      46.171  38.771  29.712  1.00  0.00     0.202 C 
BRANCH  31  32
ATOM     32  C   UNL A   1      47.671  38.804  30.051  1.00  0.00     0.261 C 
BRANCH  32  33
ATOM     33  O   UNL A   1      48.332  37.536  30.204  1.00  0.00    -0.460 OA
BRANCH  33  34
ATOM     34  C   UNL A   1      48.781  36.908  29.091  1.00  0.00     0.338 C 
ATOM     35  O   UNL A   1      49.746  37.203  28.424  1.00  0.00    -0.246 OA
BRANCH  34  36
ATOM     36  C   UNL A   1      48.008  35.650  28.952  1.00  0.00     0.060 A 
ATOM     37  C   UNL A   1      48.092  34.682  29.963  1.00  0.00     0.016 A 
ATOM     38  C   UNL A   1      47.196  35.438  27.836  1.00  0.00     0.016 A 
ATOM     39  C   UNL A   1      47.397  33.477  29.839  1.00  0.00     0.010 A 
ATOM     40  C   UNL A   1      46.523  34.220  27.700  1.00  0.00     0.010 A 
ATOM     41  C   UNL A   1      46.654  33.221  28.681  1.00  0.00    -0.014 A 
BRANCH  41  42
ATOM     42  C   UNL A   1      46.215  31.835  28.383  1.00  0.00     0.031 A 
ATOM     43  C   UNL A   1      44.802  31.453  28.735  1.00  0.00     0.074 A 
ATOM     44  C   UNL A   1      47.031  30.942  27.796  1.00  0.00     0.049 A 
ATOM     45  N   UNL A   1      44.194  30.303  28.608  1.00  0.00    -0.248 NA
ATOM     46  C   UNL A   1      43.964  32.518  29.314  1.00  0.00     0.031 C 
ATOM     47  C   UNL A   1      48.396  31.207  27.345  1.00  0.00     0.029 A 
ATOM     48  N   UNL A   1      46.820  29.623  27.479  1.00  0.00    -0.354 N 
ATOM     49  C   UNL A   1      42.911  30.500  29.108  1.00  0.00     0.074 A 
ATOM     50  C   UNL A   1      42.838  31.870  29.565  1.00  0.00     0.031 C 
ATOM     51  C   UNL A   1      48.900  30.082  26.805  1.00  0.00     0.029 A 
ATOM     52  C   UNL A   1      47.910  29.011  26.908  1.00  0.00     0.049 A 
ATOM     53  H   UNL A   1      45.968  29.159  27.645  1.00  0.00     0.167 HD
ATOM     54  C   UNL A   1      41.883  29.620  29.180  1.00  0.00     0.031 A 
ATOM     55  C   UNL A   1      48.091  27.729  26.531  1.00  0.00     0.031 A 
ATOM     56  C   UNL A   1      41.968  28.252  28.744  1.00  0.00     0.049 A 
ATOM     57  C   UNL A   1      46.967  26.740  26.714  1.00  0.00     0.074 A 
ATOM     58  C   UNL A   1      40.982  27.282  28.758  1.00  0.00     0.029 A 
ATOM     59  N   UNL A   1      43.111  27.653  28.233  1.00  0.00    -0.354 N 
ATOM     60  N   UNL A   1      45.751  26.943  27.163  1.00  0.00    -0.248 NA
ATOM     61  C   UNL A   1      47.241  25.348  26.330  1.00  0.00     0.031 C 
ATOM     62  C   UNL A   1      41.548  26.079  28.326  1.00  0.00     0.029 A 
ATOM     63  C   UNL A   1      42.866  26.317  27.965  1.00  0.00     0.049 A 
ATOM     64  H   UNL A   1      43.969  28.112  28.083  1.00  0.00     0.167 HD
ATOM     65  C   UNL A   1      45.104  25.713  27.082  1.00  0.00     0.074 A 
ATOM     66  C   UNL A   1      46.062  24.775  26.533  1.00  0.00     0.031 C 
ATOM     67  C   UNL A   1      43.830  25.392  27.422  1.00  0.00     0.031 A 
BRANCH  54  68
ATOM     68  C   UNL A   1      40.603  30.104  29.813  1.00  0.00    -0.014 A 
ATOM     69  C   UNL A   1      39.527  30.574  29.037  1.00  0.00     0.010 A 
ATOM     70  C   UNL A   1      40.479  30.091  31.214  1.00  0.00     0.010 A 
ATOM     71  C   UNL A   1      38.379  31.080  29.653  1.00  0.00     0.020 A 
ATOM     72  C   UNL A   1      39.319  30.563  31.834  1.00  0.00     0.020 A 
ATOM     73  C   UNL A   1      38.286  31.078  31.048  1.00  0.00     0.054 A 
BRANCH  73  74
ATOM     74  S   UNL A   1      36.791  31.753  31.823  1.00  0.00     0.124 S 
ATOM     75  O   UNL A   1      36.945  31.312  33.206  1.00  0.00    -0.237 OA
ATOM     76  O   UNL A   1      36.936  33.189  31.601  1.00  0.00    -0.237 OA
ATOM     77  O   UNL A   1      35.701  31.118  31.086  1.00  0.00    -0.744 OA
ENDBRANCH  73  74
ENDBRANCH  54  68
BRANCH  55  78
ATOM     78  C   UNL A   1      49.388  27.303  25.934  1.00  0.00    -0.014 A 
ATOM     79  C   UNL A   1      50.426  26.827  26.753  1.00  0.00     0.010 A 
ATOM     80  C   UNL A   1      49.590  27.366  24.541  1.00  0.00     0.010 A 
ATOM     81  C   UNL A   1      51.643  26.425  26.194  1.00  0.00     0.020 A 
ATOM     82  C   UNL A   1      50.796  26.937  23.977  1.00  0.00     0.020 A 
ATOM     83  C   UNL A   1      51.817  26.475  24.809  1.00  0.00     0.054 A 
BRANCH  83  84
ATOM     84  S   UNL A   1      53.380  25.879  24.105  1.00  0.00     0.124 S 
ATOM     85  O   UNL A   1      53.404  24.489  24.550  1.00  0.00    -0.237 OA
ATOM     86  O   UNL A   1      53.175  26.082  22.673  1.00  0.00    -0.237 OA
ATOM     87  O   UNL A   1      54.384  26.748  24.714  1.00  0.00    -0.744 OA
ENDBRANCH  83  84
ENDBRANCH  55  78
BRANCH  67  88
ATOM     88  C   UNL A   1      43.375  23.975  27.174  1.00  0.00    -0.014 A 
ATOM     89  C   UNL A   1      43.430  22.995  28.181  1.00  0.00     0.010 A 
ATOM     90  C   UNL A   1      42.826  23.637  25.923  1.00  0.00     0.010 A 
ATOM     91  C   UNL A   1      42.975  21.698  27.931  1.00  0.00     0.020 A 
ATOM     92  C   UNL A   1      42.338  22.351  25.680  1.00  0.00     0.020 A 
ATOM     93  C   UNL A   1      42.429  21.384  26.683  1.00  0.00     0.054 A 
BRANCH  93  94
ATOM     94  S   UNL A   1      41.804  19.705  26.400  1.00  0.00     0.124 S 
ATOM     95  O   UNL A   1      42.566  19.289  25.226  1.00  0.00    -0.237 OA
ATOM     96  O   UNL A   1      42.146  19.024  27.646  1.00  0.00    -0.237 OA
ATOM     97  O   UNL A   1      40.373  19.901  26.176  1.00  0.00    -0.744 OA
ENDBRANCH  93  94
ENDBRANCH  67  88
ENDBRANCH  41  42
ENDBRANCH  34  36
ENDBRANCH  33  34
ENDBRANCH  32  33
ENDBRANCH  31  32
ENDBRANCH  30  31
ENDBRANCH  29  30
ENDBRANCH  28  29
ENDBRANCH   1  28
TORSDOF 26
ENDMDL
