MODEL 1
REMARK VINA RESULT:      -7.9      0.000      0.000
REMARK SMILES O=C(C[C@@H]1CSCC[NH2+]1)NC[C@@H](C(=O)OCCOCCOCCOCCOC(=O)c1ccc(-c2c3nc(c(-c4ccc(S(=O)(=O)[O-])cc4)c4ccc([nH]4)c(-c4ccc(S(=O)(=O)[O-])cc4)c4nc(c(-c5ccc(S(=O)(=O)[O-])cc5)c5ccc2[nH]5)C=C4)C=C3)cc1)c1ccccc1
REMARK SMILES IDX 20 1 19 2 18 3 17 4 16 5 15 6 13 7 14 8 12 9 11 10 10 11
REMARK SMILES IDX 1 12 2 13 3 15 4 16 5 17 9 18 6 19 8 20 7 23 90 24 91 25
REMARK SMILES IDX 95 26 92 27 94 28 93 29 21 30 22 31 23 32 24 33 25 34 26 35
REMARK SMILES IDX 27 36 28 37 29 38 30 39 31 40 89 41 32 42 88 43 33 44 34 45
REMARK SMILES IDX 35 46 82 47 36 48 87 49 81 50 83 51 37 52 86 53 80 54 79 55
REMARK SMILES IDX 38 57 68 58 49 59 67 60 50 61 53 62 66 63 84 64 51 65 52 66
REMARK SMILES IDX 65 68 85 69 54 70 39 71 40 72 48 73 41 74 47 75 42 76 43 77
REMARK SMILES IDX 44 78 45 79 46 80 69 81 70 82 78 83 71 84 77 85 72 86 73 87
REMARK SMILES IDX 74 88 75 89 76 90 55 91 56 92 64 93 57 94 63 95 58 96 59 97
REMARK SMILES IDX 60 98 61 99 62 100
REMARK H PARENT 10 14 9 21 9 22 83 56 53 67
REMARK Flexibility Score: inf
ROOT
ATOM      1  C   UNL A   1      40.095  25.180  27.341  1.00  0.00     0.188 C 
ENDROOT
BRANCH   1   2
ATOM      2  C   UNL A   1      39.452  24.459  26.155  1.00  0.00     0.188 C 
BRANCH   2   3
ATOM      3  O   UNL A   1      38.556  23.427  26.548  1.00  0.00    -0.376 OA
BRANCH   3   4
ATOM      4  C   UNL A   1      37.399  23.213  25.754  1.00  0.00     0.202 C 
BRANCH   4   5
ATOM      5  C   UNL A   1      36.796  21.796  25.699  1.00  0.00     0.261 C 
BRANCH   5   6
ATOM      6  O   UNL A   1      35.549  21.676  24.987  1.00  0.00    -0.463 OA
BRANCH   6   7
ATOM      7  C   UNL A   1      34.516  21.043  25.586  1.00  0.00     0.315 C 
ATOM      8  O   UNL A   1      34.272  21.150  26.784  1.00  0.00    -0.251 OA
BRANCH   7   9
ATOM      9  C   UNL A   1      33.609  20.272  24.601  1.00  0.00     0.148 C 
BRANCH   9  10
ATOM     10  C   UNL A   1      32.133  20.740  24.479  1.00  0.00     0.136 C 
BRANCH  10  11
ATOM     11  N   UNL A   1      31.841  22.036  23.884  1.00  0.00    -0.355 N 
ATOM     12  O   UNL A   1      30.702  22.793  25.726  1.00  0.00    -0.275 OA
ATOM     13  C   UNL A   1      31.223  23.024  24.634  1.00  0.00     0.226 C 
ATOM     14  H   UNL A   1      32.082  22.211  22.945  1.00  0.00     0.163 HD
BRANCH  13  15
ATOM     15  C   UNL A   1      31.215  24.428  24.043  1.00  0.00     0.165 C 
BRANCH  15  16
ATOM     16  C   UNL A   1      32.179  24.769  22.874  1.00  0.00     0.201 C 
ATOM     17  C   UNL A   1      33.547  25.300  23.326  1.00  0.00     0.135 C 
ATOM     18  N   UNL A   1      31.648  25.541  21.739  1.00  0.00    -0.342 N 
ATOM     19  S   UNL A   1      33.430  26.948  24.043  1.00  0.00    -0.150 SA
ATOM     20  C   UNL A   1      31.416  26.961  22.003  1.00  0.00     0.271 C 
ATOM     21  H   UNL A   1      30.760  25.123  21.460  1.00  0.00     0.346 HD
ATOM     22  H   UNL A   1      32.364  25.503  21.012  1.00  0.00     0.346 HD
ATOM     23  C   UNL A   1      32.543  27.761  22.671  1.00  0.00     0.131 C 
ENDBRANCH  15  16
ENDBRANCH  13  15
ENDBRANCH  10  11
ENDBRANCH   9  10
BRANCH   9  24
ATOM     24  C   UNL A   1      33.746  18.744  24.824  1.00  0.00    -0.032 A 
ATOM     25  C   UNL A   1      34.824  17.974  24.343  1.00  0.00     0.004 A 
ATOM     26  C   UNL A   1      32.748  18.062  25.545  1.00  0.00     0.004 A 
ATOM     27  C   UNL A   1      34.867  16.585  24.522  1.00  0.00     0.000 A 
ATOM     28  C   UNL A   1      32.793  16.675  25.728  1.00  0.00     0.000 A 
ATOM     29  C   UNL A   1      33.848  15.935  25.209  1.00  0.00     0.000 A 
ENDBRANCH   9  24
ENDBRANCH   7   9
ENDBRANCH   6   7
ENDBRANCH   5   6
ENDBRANCH   4   5
ENDBRANCH   3   4
ENDBRANCH   2   3
ENDBRANCH   1   2
BRANCH   1  30
ATOM     30  O   UNL A   1      39.291  25.544  28.440  1.00  0.00    -0.377 OA
BRANCH  30  31
ATOM     31  C   UNL A   1      39.547  26.781  29.079  1.00  0.00     0.188 C 
BRANCH  31  32
ATOM     32  C   UNL A   1      39.372  27.977  28.135  1.00  0.00     0.188 C 
BRANCH  32  33
ATOM     33  O   UNL A   1      38.380  28.980  28.367  1.00  0.00    -0.376 OA
BRANCH  33  34
ATOM     34  C   UNL A   1      38.619  30.036  29.281  1.00  0.00     0.202 C 
BRANCH  34  35
ATOM     35  C   UNL A   1      37.732  31.291  29.152  1.00  0.00     0.261 C 
BRANCH  35  36
ATOM     36  O   UNL A   1      36.644  31.439  30.080  1.00  0.00    -0.460 OA
BRANCH  36  37
ATOM     37  C   UNL A   1      36.605  30.554  31.102  1.00  0.00     0.338 C 
ATOM     38  O   UNL A   1      36.212  29.393  31.061  1.00  0.00    -0.246 OA
BRANCH  37  39
ATOM     39  C   UNL A   1      37.187  31.166  32.316  1.00  0.00     0.060 A 
ATOM     40  C   UNL A   1      36.803  32.460  32.693  1.00  0.00     0.016 A 
ATOM     41  C   UNL A   1      38.167  30.488  33.046  1.00  0.00     0.016 A 
ATOM     42  C   UNL A   1      37.418  33.094  33.777  1.00  0.00     0.010 A 
ATOM     43  C   UNL A   1      38.785  31.123  34.127  1.00  0.00     0.010 A 
ATOM     44  C   UNL A   1      38.447  32.446  34.470  1.00  0.00    -0.014 A 
BRANCH  44  45
ATOM     45  C   UNL A   1      39.339  33.203  35.386  1.00  0.00     0.031 A 
ATOM     46  C   UNL A   1      39.023  33.178  36.857  1.00  0.00     0.074 A 
ATOM     47  C   UNL A   1      40.381  33.926  34.938  1.00  0.00     0.049 A 
ATOM     48  N   UNL A   1      39.545  33.874  37.833  1.00  0.00    -0.248 NA
ATOM     49  C   UNL A   1      37.963  32.247  37.277  1.00  0.00     0.031 C 
ATOM     50  C   UNL A   1      40.842  33.982  33.554  1.00  0.00     0.029 A 
ATOM     51  N   UNL A   1      41.223  34.779  35.611  1.00  0.00    -0.354 N 
ATOM     52  C   UNL A   1      38.855  33.488  38.978  1.00  0.00     0.074 A 
ATOM     53  C   UNL A   1      37.865  32.516  38.569  1.00  0.00     0.031 C 
ATOM     54  C   UNL A   1      41.854  34.863  33.469  1.00  0.00     0.029 A 
ATOM     55  C   UNL A   1      42.086  35.458  34.786  1.00  0.00     0.049 A 
ATOM     56  H   UNL A   1      41.208  34.893  36.589  1.00  0.00     0.167 HD
ATOM     57  C   UNL A   1      39.025  33.908  40.255  1.00  0.00     0.031 A 
ATOM     58  C   UNL A   1      42.937  36.473  35.051  1.00  0.00     0.031 A 
ATOM     59  C   UNL A   1      39.995  34.893  40.650  1.00  0.00     0.049 A 
ATOM     60  C   UNL A   1      43.064  36.991  36.460  1.00  0.00     0.074 A 
ATOM     61  C   UNL A   1      40.262  35.375  41.919  1.00  0.00     0.029 A 
ATOM     62  N   UNL A   1      40.844  35.562  39.781  1.00  0.00    -0.354 N 
ATOM     63  N   UNL A   1      42.422  36.607  37.538  1.00  0.00    -0.248 NA
ATOM     64  C   UNL A   1      44.034  38.072  36.693  1.00  0.00     0.031 C 
ATOM     65  C   UNL A   1      41.221  36.386  41.807  1.00  0.00     0.029 A 
ATOM     66  C   UNL A   1      41.613  36.476  40.480  1.00  0.00     0.049 A 
ATOM     67  H   UNL A   1      40.894  35.408  38.810  1.00  0.00     0.167 HD
ATOM     68  C   UNL A   1      42.936  37.371  38.583  1.00  0.00     0.074 A 
ATOM     69  C   UNL A   1      43.937  38.246  38.007  1.00  0.00     0.031 C 
ATOM     70  C   UNL A   1      42.615  37.338  39.900  1.00  0.00     0.031 A 
BRANCH  57  71
ATOM     71  C   UNL A   1      38.087  33.352  41.294  1.00  0.00    -0.014 A 
ATOM     72  C   UNL A   1      38.358  32.146  41.967  1.00  0.00     0.010 A 
ATOM     73  C   UNL A   1      36.898  34.044  41.590  1.00  0.00     0.010 A 
ATOM     74  C   UNL A   1      37.425  31.607  42.858  1.00  0.00     0.020 A 
ATOM     75  C   UNL A   1      35.980  33.529  42.508  1.00  0.00     0.020 A 
ATOM     76  C   UNL A   1      36.237  32.298  43.113  1.00  0.00     0.054 A 
BRANCH  76  77
ATOM     77  S   UNL A   1      35.029  31.562  44.248  1.00  0.00     0.124 S 
ATOM     78  O   UNL A   1      33.956  31.174  43.334  1.00  0.00    -0.237 OA
ATOM     79  O   UNL A   1      35.778  30.458  44.841  1.00  0.00    -0.237 OA
ATOM     80  O   UNL A   1      34.701  32.652  45.163  1.00  0.00    -0.744 OA
ENDBRANCH  76  77
ENDBRANCH  57  71
BRANCH  58  81
ATOM     81  C   UNL A   1      43.710  37.080  33.932  1.00  0.00    -0.014 A 
ATOM     82  C   UNL A   1      44.847  36.440  33.409  1.00  0.00     0.010 A 
ATOM     83  C   UNL A   1      43.266  38.278  33.341  1.00  0.00     0.010 A 
ATOM     84  C   UNL A   1      45.514  36.978  32.304  1.00  0.00     0.020 A 
ATOM     85  C   UNL A   1      43.914  38.804  32.220  1.00  0.00     0.020 A 
ATOM     86  C   UNL A   1      45.033  38.148  31.707  1.00  0.00     0.054 A 
BRANCH  86  87
ATOM     87  S   UNL A   1      45.841  38.759  30.201  1.00  0.00     0.124 S 
ATOM     88  O   UNL A   1      46.417  37.538  29.646  1.00  0.00    -0.237 OA
ATOM     89  O   UNL A   1      44.720  39.327  29.455  1.00  0.00    -0.237 OA
ATOM     90  O   UNL A   1      46.804  39.737  30.703  1.00  0.00    -0.744 OA
ENDBRANCH  86  87
ENDBRANCH  58  81
BRANCH  70  91
ATOM     91  C   UNL A   1      43.381  38.225  40.847  1.00  0.00    -0.014 A 
ATOM     92  C   UNL A   1      44.603  37.824  41.412  1.00  0.00     0.010 A 
ATOM     93  C   UNL A   1      42.927  39.542  41.065  1.00  0.00     0.010 A 
ATOM     94  C   UNL A   1      45.357  38.722  42.175  1.00  0.00     0.020 A 
ATOM     95  C   UNL A   1      43.690  40.449  41.803  1.00  0.00     0.020 A 
ATOM     96  C   UNL A   1      44.901  40.033  42.355  1.00  0.00     0.054 A 
BRANCH  96  97
ATOM     97  S   UNL A   1      45.948  41.206  43.261  1.00  0.00     0.124 S 
ATOM     98  O   UNL A   1      44.959  42.012  43.971  1.00  0.00    -0.237 OA
ATOM     99  O   UNL A   1      46.762  40.327  44.097  1.00  0.00    -0.237 OA
ATOM    100  O   UNL A   1      46.679  41.906  42.206  1.00  0.00    -0.744 OA
ENDBRANCH  96  97
ENDBRANCH  70  91
ENDBRANCH  44  45
ENDBRANCH  37  39
ENDBRANCH  36  37
ENDBRANCH  35  36
ENDBRANCH  34  35
ENDBRANCH  33  34
ENDBRANCH  32  33
ENDBRANCH  31  32
ENDBRANCH  30  31
ENDBRANCH   1  30
TORSDOF 28
ENDMDL
MODEL 2
REMARK VINA RESULT:      -7.9      7.064     16.200
REMARK SMILES O=C(C[C@@H]1CSCC[NH2+]1)NC[C@@H](C(=O)OCCOCCOCCOCCOC(=O)c1ccc(-c2c3nc(c(-c4ccc(S(=O)(=O)[O-])cc4)c4ccc([nH]4)c(-c4ccc(S(=O)(=O)[O-])cc4)c4nc(c(-c5ccc(S(=O)(=O)[O-])cc5)c5ccc2[nH]5)C=C4)C=C3)cc1)c1ccccc1
REMARK SMILES IDX 20 1 19 2 18 3 17 4 16 5 15 6 13 7 14 8 12 9 11 10 10 11
REMARK SMILES IDX 1 12 2 13 3 15 4 16 5 17 9 18 6 19 8 20 7 23 90 24 91 25
REMARK SMILES IDX 95 26 92 27 94 28 93 29 21 30 22 31 23 32 24 33 25 34 26 35
REMARK SMILES IDX 27 36 28 37 29 38 30 39 31 40 89 41 32 42 88 43 33 44 34 45
REMARK SMILES IDX 35 46 82 47 36 48 87 49 81 50 83 51 37 52 86 53 80 54 79 55
REMARK SMILES IDX 38 57 68 58 49 59 67 60 50 61 53 62 66 63 84 64 51 65 52 66
REMARK SMILES IDX 65 68 85 69 54 70 39 71 40 72 48 73 41 74 47 75 42 76 43 77
REMARK SMILES IDX 44 78 45 79 46 80 69 81 70 82 78 83 71 84 77 85 72 86 73 87
REMARK SMILES IDX 74 88 75 89 76 90 55 91 56 92 64 93 57 94 63 95 58 96 59 97
REMARK SMILES IDX 60 98 61 99 62 100
REMARK H PARENT 10 14 9 21 9 22 83 56 53 67
REMARK Flexibility Score: inf
ROOT
ATOM      1  C   UNL A   1      33.406  34.886  29.531  1.00  0.00     0.188 C 
ENDROOT
BRANCH   1   2
ATOM      2  C   UNL A   1      33.942  35.118  30.945  1.00  0.00     0.188 C 
BRANCH   2   3
ATOM      3  O   UNL A   1      34.812  34.084  31.388  1.00  0.00    -0.376 OA
BRANCH   3   4
ATOM      4  C   UNL A   1      35.162  34.054  32.764  1.00  0.00     0.202 C 
BRANCH   4   5
ATOM      5  C   UNL A   1      35.840  32.789  33.323  1.00  0.00     0.261 C 
BRANCH   5   6
ATOM      6  O   UNL A   1      36.747  33.000  34.422  1.00  0.00    -0.463 OA
BRANCH   6   7
ATOM      7  C   UNL A   1      37.838  33.773  34.227  1.00  0.00     0.315 C 
ATOM      8  O   UNL A   1      37.891  34.951  34.571  1.00  0.00    -0.251 OA
BRANCH   7   9
ATOM      9  C   UNL A   1      39.045  33.005  33.643  1.00  0.00     0.148 C 
BRANCH   9  10
ATOM     10  C   UNL A   1      40.332  32.939  34.510  1.00  0.00     0.136 C 
BRANCH  10  11
ATOM     11  N   UNL A   1      40.292  33.414  35.886  1.00  0.00    -0.355 N 
ATOM     12  O   UNL A   1      40.093  31.306  36.766  1.00  0.00    -0.275 OA
ATOM     13  C   UNL A   1      40.288  32.510  36.936  1.00  0.00     0.226 C 
ATOM     14  H   UNL A   1      40.268  34.381  36.072  1.00  0.00     0.163 HD
BRANCH  13  15
ATOM     15  C   UNL A   1      40.538  33.075  38.328  1.00  0.00     0.165 C 
BRANCH  15  16
ATOM     16  C   UNL A   1      39.424  32.972  39.404  1.00  0.00     0.201 C 
ATOM     17  C   UNL A   1      38.561  34.235  39.534  1.00  0.00     0.135 C 
ATOM     18  N   UNL A   1      39.780  32.424  40.723  1.00  0.00    -0.342 N 
ATOM     19  S   UNL A   1      39.477  35.610  40.252  1.00  0.00    -0.150 SA
ATOM     20  C   UNL A   1      40.567  33.313  41.577  1.00  0.00     0.271 C 
ATOM     21  H   UNL A   1      40.320  31.571  40.574  1.00  0.00     0.346 HD
ATOM     22  H   UNL A   1      38.898  32.270  41.213  1.00  0.00     0.346 HD
ATOM     23  C   UNL A   1      40.081  34.758  41.749  1.00  0.00     0.131 C 
ENDBRANCH  15  16
ENDBRANCH  13  15
ENDBRANCH  10  11
ENDBRANCH   9  10
BRANCH   9  24
ATOM     24  C   UNL A   1      39.315  33.454  32.184  1.00  0.00    -0.032 A 
ATOM     25  C   UNL A   1      38.620  34.498  31.543  1.00  0.00     0.004 A 
ATOM     26  C   UNL A   1      40.307  32.794  31.435  1.00  0.00     0.004 A 
ATOM     27  C   UNL A   1      38.864  34.823  30.202  1.00  0.00     0.000 A 
ATOM     28  C   UNL A   1      40.554  33.121  30.096  1.00  0.00     0.000 A 
ATOM     29  C   UNL A   1      39.826  34.129  29.477  1.00  0.00     0.000 A 
ENDBRANCH   9  24
ENDBRANCH   7   9
ENDBRANCH   6   7
ENDBRANCH   5   6
ENDBRANCH   4   5
ENDBRANCH   3   4
ENDBRANCH   2   3
ENDBRANCH   1   2
BRANCH   1  30
ATOM     30  O   UNL A   1      34.169  34.121  28.625  1.00  0.00    -0.377 OA
BRANCH  30  31
ATOM     31  C   UNL A   1      33.554  33.010  28.000  1.00  0.00     0.188 C 
BRANCH  31  32
ATOM     32  C   UNL A   1      34.227  31.681  28.370  1.00  0.00     0.188 C 
BRANCH  32  33
ATOM     33  O   UNL A   1      35.024  30.955  27.431  1.00  0.00    -0.376 OA
BRANCH  33  34
ATOM     34  C   UNL A   1      36.420  30.810  27.628  1.00  0.00     0.202 C 
BRANCH  34  35
ATOM     35  C   UNL A   1      37.085  31.749  28.655  1.00  0.00     0.261 C 
BRANCH  35  36
ATOM     36  O   UNL A   1      37.710  31.148  29.802  1.00  0.00    -0.460 OA
BRANCH  36  37
ATOM     37  C   UNL A   1      37.781  29.798  29.806  1.00  0.00     0.338 C 
ATOM     38  O   UNL A   1      36.896  29.011  30.127  1.00  0.00    -0.246 OA
BRANCH  37  39
ATOM     39  C   UNL A   1      39.095  29.364  29.286  1.00  0.00     0.060 A 
ATOM     40  C   UNL A   1      40.159  29.155  30.175  1.00  0.00     0.016 A 
ATOM     41  C   UNL A   1      39.300  29.231  27.910  1.00  0.00     0.016 A 
ATOM     42  C   UNL A   1      41.435  28.845  29.693  1.00  0.00     0.010 A 
ATOM     43  C   UNL A   1      40.576  28.926  27.428  1.00  0.00     0.010 A 
ATOM     44  C   UNL A   1      41.660  28.777  28.313  1.00  0.00    -0.014 A 
BRANCH  44  45
ATOM     45  C   UNL A   1      43.042  28.792  27.769  1.00  0.00     0.031 A 
ATOM     46  C   UNL A   1      43.566  27.527  27.143  1.00  0.00     0.074 A 
ATOM     47  C   UNL A   1      43.835  29.875  27.851  1.00  0.00     0.049 A 
ATOM     48  N   UNL A   1      44.776  27.236  26.742  1.00  0.00    -0.248 NA
ATOM     49  C   UNL A   1      42.589  26.443  26.957  1.00  0.00     0.031 C 
ATOM     50  C   UNL A   1      43.435  31.182  28.366  1.00  0.00     0.029 A 
ATOM     51  N   UNL A   1      45.161  30.031  27.526  1.00  0.00    -0.354 N 
ATOM     52  C   UNL A   1      44.712  25.923  26.286  1.00  0.00     0.074 A 
ATOM     53  C   UNL A   1      43.352  25.472  26.482  1.00  0.00     0.031 C 
ATOM     54  C   UNL A   1      44.506  31.994  28.368  1.00  0.00     0.029 A 
ATOM     55  C   UNL A   1      45.674  31.252  27.889  1.00  0.00     0.049 A 
ATOM     56  H   UNL A   1      45.693  29.333  27.077  1.00  0.00     0.167 HD
ATOM     57  C   UNL A   1      45.698  25.158  25.757  1.00  0.00     0.031 A 
ATOM     58  C   UNL A   1      46.944  31.709  27.877  1.00  0.00     0.031 A 
ATOM     59  C   UNL A   1      47.054  25.605  25.588  1.00  0.00     0.049 A 
ATOM     60  C   UNL A   1      48.051  30.824  27.361  1.00  0.00     0.074 A 
ATOM     61  C   UNL A   1      48.124  24.917  25.045  1.00  0.00     0.029 A 
ATOM     62  N   UNL A   1      47.532  26.849  25.976  1.00  0.00    -0.354 N 
ATOM     63  N   UNL A   1      47.977  29.593  26.915  1.00  0.00    -0.248 NA
ATOM     64  C   UNL A   1      49.408  31.390  27.338  1.00  0.00     0.031 C 
ATOM     65  C   UNL A   1      49.264  25.717  25.171  1.00  0.00     0.029 A 
ATOM     66  C   UNL A   1      48.888  26.936  25.716  1.00  0.00     0.049 A 
ATOM     67  H   UNL A   1      46.986  27.563  26.377  1.00  0.00     0.167 HD
ATOM     68  C   UNL A   1      49.269  29.250  26.524  1.00  0.00     0.074 A 
ATOM     69  C   UNL A   1      50.106  30.401  26.792  1.00  0.00     0.031 C 
ATOM     70  C   UNL A   1      49.713  28.090  25.978  1.00  0.00     0.031 A 
BRANCH  57  71
ATOM     71  C   UNL A   1      45.349  23.737  25.398  1.00  0.00    -0.014 A 
ATOM     72  C   UNL A   1      45.161  22.749  26.382  1.00  0.00     0.010 A 
ATOM     73  C   UNL A   1      45.225  23.381  24.042  1.00  0.00     0.010 A 
ATOM     74  C   UNL A   1      44.931  21.419  26.015  1.00  0.00     0.020 A 
ATOM     75  C   UNL A   1      44.957  22.060  23.672  1.00  0.00     0.020 A 
ATOM     76  C   UNL A   1      44.841  21.083  24.661  1.00  0.00     0.054 A 
BRANCH  76  77
ATOM     77  S   UNL A   1      44.574  19.347  24.211  1.00  0.00     0.124 S 
ATOM     78  O   UNL A   1      45.752  18.703  24.788  1.00  0.00    -0.237 OA
ATOM     79  O   UNL A   1      43.306  19.038  24.865  1.00  0.00    -0.237 OA
ATOM     80  O   UNL A   1      44.531  19.369  22.751  1.00  0.00    -0.744 OA
ENDBRANCH  76  77
ENDBRANCH  57  71
BRANCH  58  81
ATOM     81  C   UNL A   1      47.229  33.071  28.405  1.00  0.00    -0.014 A 
ATOM     82  C   UNL A   1      47.168  34.198  27.568  1.00  0.00     0.010 A 
ATOM     83  C   UNL A   1      47.499  33.250  29.776  1.00  0.00     0.010 A 
ATOM     84  C   UNL A   1      47.354  35.481  28.095  1.00  0.00     0.020 A 
ATOM     85  C   UNL A   1      47.659  34.532  30.310  1.00  0.00     0.020 A 
ATOM     86  C   UNL A   1      47.582  35.639  29.466  1.00  0.00     0.054 A 
BRANCH  86  87
ATOM     87  S   UNL A   1      47.697  37.319  30.146  1.00  0.00     0.124 S 
ATOM     88  O   UNL A   1      48.177  37.068  31.500  1.00  0.00    -0.237 OA
ATOM     89  O   UNL A   1      48.651  37.956  29.241  1.00  0.00    -0.237 OA
ATOM     90  O   UNL A   1      46.328  37.821  30.047  1.00  0.00    -0.744 OA
ENDBRANCH  86  87
ENDBRANCH  58  81
BRANCH  70  91
ATOM     91  C   UNL A   1      51.162  27.999  25.569  1.00  0.00    -0.014 A 
ATOM     92  C   UNL A   1      52.148  27.511  26.443  1.00  0.00     0.010 A 
ATOM     93  C   UNL A   1      51.512  28.285  24.234  1.00  0.00     0.010 A 
ATOM     94  C   UNL A   1      53.455  27.309  25.989  1.00  0.00     0.020 A 
ATOM     95  C   UNL A   1      52.809  28.059  23.771  1.00  0.00     0.020 A 
ATOM     96  C   UNL A   1      53.775  27.572  24.652  1.00  0.00     0.054 A 
BRANCH  96  97
ATOM     97  S   UNL A   1      55.451  27.202  24.064  1.00  0.00     0.124 S 
ATOM     98  O   UNL A   1      56.190  28.390  24.481  1.00  0.00    -0.237 OA
ATOM     99  O   UNL A   1      55.777  25.973  24.783  1.00  0.00    -0.237 OA
ATOM    100  O   UNL A   1      55.287  27.048  22.620  1.00  0.00    -0.744 OA
ENDBRANCH  96  97
ENDBRANCH  70  91
ENDBRANCH  44  45
ENDBRANCH  37  39
ENDBRANCH  36  37
ENDBRANCH  35  36
ENDBRANCH  34  35
ENDBRANCH  33  34
ENDBRANCH  32  33
ENDBRANCH  31  32
ENDBRANCH  30  31
ENDBRANCH   1  30
TORSDOF 28
ENDMDL
MODEL 3
REMARK VINA RESULT:      -7.8      7.785     15.720
REMARK SMILES O=C(C[C@@H]1CSCC[NH2+]1)NC[C@@H](C(=O)OCCOCCOCCOCCOC(=O)c1ccc(-c2c3nc(c(-c4ccc(S(=O)(=O)[O-])cc4)c4ccc([nH]4)c(-c4ccc(S(=O)(=O)[O-])cc4)c4nc(c(-c5ccc(S(=O)(=O)[O-])cc5)c5ccc2[nH]5)C=C4)C=C3)cc1)c1ccccc1
REMARK SMILES IDX 20 1 19 2 18 3 17 4 16 5 15 6 13 7 14 8 12 9 11 10 10 11
REMARK SMILES IDX 1 12 2 13 3 15 4 16 5 17 9 18 6 19 8 20 7 23 90 24 91 25
REMARK SMILES IDX 95 26 92 27 94 28 93 29 21 30 22 31 23 32 24 33 25 34 26 35
REMARK SMILES IDX 27 36 28 37 29 38 30 39 31 40 89 41 32 42 88 43 33 44 34 45
REMARK SMILES IDX 35 46 82 47 36 48 87 49 81 50 83 51 37 52 86 53 80 54 79 55
REMARK SMILES IDX 38 57 68 58 49 59 67 60 50 61 53 62 66 63 84 64 51 65 52 66
REMARK SMILES IDX 65 68 85 69 54 70 39 71 40 72 48 73 41 74 47 75 42 76 43 77
REMARK SMILES IDX 44 78 45 79 46 80 69 81 70 82 78 83 71 84 77 85 72 86 73 87
REMARK SMILES IDX 74 88 75 89 76 90 55 91 56 92 64 93 57 94 63 95 58 96 59 97
REMARK SMILES IDX 60 98 61 99 62 100
REMARK H PARENT 10 14 9 21 9 22 83 56 53 67
REMARK Flexibility Score: inf
ROOT
ATOM      1  C   UNL A   1      33.902  34.927  30.285  1.00  0.00     0.188 C 
ENDROOT
BRANCH   1   2
ATOM      2  C   UNL A   1      34.846  34.274  31.297  1.00  0.00     0.188 C 
BRANCH   2   3
ATOM      3  O   UNL A   1      35.960  33.634  30.688  1.00  0.00    -0.376 OA
BRANCH   3   4
ATOM      4  C   UNL A   1      37.245  33.858  31.251  1.00  0.00     0.202 C 
BRANCH   4   5
ATOM      5  C   UNL A   1      38.395  34.274  30.314  1.00  0.00     0.261 C 
BRANCH   5   6
ATOM      6  O   UNL A   1      39.612  34.686  30.965  1.00  0.00    -0.463 OA
BRANCH   6   7
ATOM      7  C   UNL A   1      40.511  33.743  31.323  1.00  0.00     0.315 C 
ATOM      8  O   UNL A   1      40.987  32.939  30.526  1.00  0.00    -0.251 OA
BRANCH   7   9
ATOM      9  C   UNL A   1      40.968  33.850  32.795  1.00  0.00     0.148 C 
BRANCH   9  10
ATOM     10  C   UNL A   1      42.266  33.094  33.193  1.00  0.00     0.136 C 
BRANCH  10  11
ATOM     11  N   UNL A   1      42.667  31.915  32.438  1.00  0.00    -0.355 N 
ATOM     12  O   UNL A   1      44.814  32.658  32.130  1.00  0.00    -0.275 OA
ATOM     13  C   UNL A   1      43.988  31.748  32.056  1.00  0.00     0.226 C 
ATOM     14  H   UNL A   1      41.997  31.234  32.197  1.00  0.00     0.163 HD
BRANCH  13  15
ATOM     15  C   UNL A   1      44.381  30.373  31.533  1.00  0.00     0.165 C 
BRANCH  15  16
ATOM     16  C   UNL A   1      45.786  29.803  31.867  1.00  0.00     0.201 C 
ATOM     17  C   UNL A   1      46.547  29.258  30.650  1.00  0.00     0.135 C 
ATOM     18  N   UNL A   1      45.914  28.907  33.029  1.00  0.00    -0.342 N 
ATOM     19  S   UNL A   1      45.807  27.744  30.013  1.00  0.00    -0.150 SA
ATOM     20  C   UNL A   1      45.377  27.560  32.841  1.00  0.00     0.271 C 
ATOM     21  H   UNL A   1      45.422  29.336  33.813  1.00  0.00     0.346 HD
ATOM     22  H   UNL A   1      46.916  28.792  33.188  1.00  0.00     0.346 HD
ATOM     23  C   UNL A   1      45.782  26.797  31.573  1.00  0.00     0.131 C 
ENDBRANCH  15  16
ENDBRANCH  13  15
ENDBRANCH  10  11
ENDBRANCH   9  10
BRANCH   9  24
ATOM     24  C   UNL A   1      39.781  33.565  33.750  1.00  0.00    -0.032 A 
ATOM     25  C   UNL A   1      39.125  34.557  34.505  1.00  0.00     0.004 A 
ATOM     26  C   UNL A   1      39.313  32.245  33.890  1.00  0.00     0.004 A 
ATOM     27  C   UNL A   1      38.096  34.234  35.399  1.00  0.00     0.000 A 
ATOM     28  C   UNL A   1      38.282  31.922  34.780  1.00  0.00     0.000 A 
ATOM     29  C   UNL A   1      37.679  32.916  35.542  1.00  0.00     0.000 A 
ENDBRANCH   9  24
ENDBRANCH   7   9
ENDBRANCH   6   7
ENDBRANCH   5   6
ENDBRANCH   4   5
ENDBRANCH   3   4
ENDBRANCH   2   3
ENDBRANCH   1   2
BRANCH   1  30
ATOM     30  O   UNL A   1      34.149  34.757  28.908  1.00  0.00    -0.377 OA
BRANCH  30  31
ATOM     31  C   UNL A   1      33.395  33.788  28.205  1.00  0.00     0.188 C 
BRANCH  31  32
ATOM     32  C   UNL A   1      34.105  32.430  28.130  1.00  0.00     0.188 C 
BRANCH  32  33
ATOM     33  O   UNL A   1      33.597  31.358  27.330  1.00  0.00    -0.376 OA
BRANCH  33  34
ATOM     34  C   UNL A   1      34.271  30.113  27.279  1.00  0.00     0.202 C 
BRANCH  34  35
ATOM     35  C   UNL A   1      35.162  29.747  28.483  1.00  0.00     0.261 C 
BRANCH  35  36
ATOM     36  O   UNL A   1      36.525  29.374  28.216  1.00  0.00    -0.460 OA
BRANCH  36  37
ATOM     37  C   UNL A   1      37.460  29.900  29.039  1.00  0.00     0.338 C 
ATOM     38  O   UNL A   1      37.267  30.596  30.031  1.00  0.00    -0.246 OA
BRANCH  37  39
ATOM     39  C   UNL A   1      38.806  29.456  28.616  1.00  0.00     0.060 A 
ATOM     40  C   UNL A   1      39.776  29.163  29.584  1.00  0.00     0.016 A 
ATOM     41  C   UNL A   1      39.133  29.395  27.259  1.00  0.00     0.016 A 
ATOM     42  C   UNL A   1      41.083  28.842  29.203  1.00  0.00     0.010 A 
ATOM     43  C   UNL A   1      40.440  29.079  26.878  1.00  0.00     0.010 A 
ATOM     44  C   UNL A   1      41.433  28.846  27.848  1.00  0.00    -0.014 A 
BRANCH  44  45
ATOM     45  C   UNL A   1      42.860  28.849  27.434  1.00  0.00     0.031 A 
ATOM     46  C   UNL A   1      43.440  27.569  26.893  1.00  0.00     0.074 A 
ATOM     47  C   UNL A   1      43.642  29.935  27.561  1.00  0.00     0.049 A 
ATOM     48  N   UNL A   1      44.681  27.270  26.614  1.00  0.00    -0.248 NA
ATOM     49  C   UNL A   1      42.483  26.479  26.646  1.00  0.00     0.031 C 
ATOM     50  C   UNL A   1      43.197  31.255  28.002  1.00  0.00     0.029 A 
ATOM     51  N   UNL A   1      44.994  30.085  27.356  1.00  0.00    -0.354 N 
ATOM     52  C   UNL A   1      44.659  25.946  26.189  1.00  0.00     0.074 A 
ATOM     53  C   UNL A   1      43.286  25.497  26.270  1.00  0.00     0.031 C 
ATOM     54  C   UNL A   1      44.264  32.069  28.081  1.00  0.00     0.029 A 
ATOM     55  C   UNL A   1      45.471  31.317  27.732  1.00  0.00     0.049 A 
ATOM     56  H   UNL A   1      45.564  29.377  26.976  1.00  0.00     0.167 HD
ATOM     57  C   UNL A   1      45.689  25.169  25.774  1.00  0.00     0.031 A 
ATOM     58  C   UNL A   1      46.737  31.776  27.826  1.00  0.00     0.031 A 
ATOM     59  C   UNL A   1      47.055  25.614  25.719  1.00  0.00     0.049 A 
ATOM     60  C   UNL A   1      47.886  30.880  27.439  1.00  0.00     0.074 A 
ATOM     61  C   UNL A   1      48.170  24.914  25.296  1.00  0.00     0.029 A 
ATOM     62  N   UNL A   1      47.495  26.868  26.117  1.00  0.00    -0.354 N 
ATOM     63  N   UNL A   1      47.854  29.637  27.021  1.00  0.00    -0.248 NA
ATOM     64  C   UNL A   1      49.240  31.448  27.527  1.00  0.00     0.031 C 
ATOM     65  C   UNL A   1      49.294  25.719  25.507  1.00  0.00     0.029 A 
ATOM     66  C   UNL A   1      48.870  26.951  25.981  1.00  0.00     0.049 A 
ATOM     67  H   UNL A   1      46.916  27.592  26.447  1.00  0.00     0.167 HD
ATOM     68  C   UNL A   1      49.176  29.286  26.760  1.00  0.00     0.074 A 
ATOM     69  C   UNL A   1      49.985  30.446  27.074  1.00  0.00     0.031 C 
ATOM     70  C   UNL A   1      49.668  28.113  26.289  1.00  0.00     0.031 A 
BRANCH  57  71
ATOM     71  C   UNL A   1      45.375  23.738  25.421  1.00  0.00    -0.014 A 
ATOM     72  C   UNL A   1      45.810  22.665  26.221  1.00  0.00     0.010 A 
ATOM     73  C   UNL A   1      44.641  23.463  24.253  1.00  0.00     0.010 A 
ATOM     74  C   UNL A   1      45.584  21.345  25.819  1.00  0.00     0.020 A 
ATOM     75  C   UNL A   1      44.379  22.145  23.867  1.00  0.00     0.020 A 
ATOM     76  C   UNL A   1      44.878  21.095  24.638  1.00  0.00     0.054 A 
BRANCH  76  77
ATOM     77  S   UNL A   1      44.627  19.375  24.122  1.00  0.00     0.124 S 
ATOM     78  O   UNL A   1      43.311  19.083  24.686  1.00  0.00    -0.237 OA
ATOM     79  O   UNL A   1      44.680  19.466  22.666  1.00  0.00    -0.237 OA
ATOM     80  O   UNL A   1      45.740  18.660  24.741  1.00  0.00    -0.744 OA
ENDBRANCH  76  77
ENDBRANCH  57  71
BRANCH  58  81
ATOM     81  C   UNL A   1      46.972  33.152  28.343  1.00  0.00    -0.014 A 
ATOM     82  C   UNL A   1      47.086  33.396  29.722  1.00  0.00     0.010 A 
ATOM     83  C   UNL A   1      47.148  34.220  27.442  1.00  0.00     0.010 A 
ATOM     84  C   UNL A   1      47.392  34.679  30.190  1.00  0.00     0.020 A 
ATOM     85  C   UNL A   1      47.479  35.497  27.903  1.00  0.00     0.020 A 
ATOM     86  C   UNL A   1      47.602  35.716  29.276  1.00  0.00     0.054 A 
BRANCH  86  87
ATOM     87  S   UNL A   1      48.118  37.341  29.900  1.00  0.00     0.124 S 
ATOM     88  O   UNL A   1      49.235  36.994  30.770  1.00  0.00    -0.237 OA
ATOM     89  O   UNL A   1      48.466  38.050  28.670  1.00  0.00    -0.237 OA
ATOM     90  O   UNL A   1      46.923  37.840  30.578  1.00  0.00    -0.744 OA
ENDBRANCH  86  87
ENDBRANCH  58  81
BRANCH  70  91
ATOM     91  C   UNL A   1      51.148  28.015  26.019  1.00  0.00    -0.014 A 
ATOM     92  C   UNL A   1      51.709  28.450  24.806  1.00  0.00     0.010 A 
ATOM     93  C   UNL A   1      52.004  27.600  27.059  1.00  0.00     0.010 A 
ATOM     94  C   UNL A   1      53.098  28.475  24.640  1.00  0.00     0.020 A 
ATOM     95  C   UNL A   1      53.391  27.649  26.906  1.00  0.00     0.020 A 
ATOM     96  C   UNL A   1      53.931  28.086  25.696  1.00  0.00     0.054 A 
BRANCH  96  97
ATOM     97  S   UNL A   1      55.728  28.225  25.490  1.00  0.00     0.124 S 
ATOM     98  O   UNL A   1      56.101  29.072  26.619  1.00  0.00    -0.237 OA
ATOM     99  O   UNL A   1      56.167  26.835  25.574  1.00  0.00    -0.237 OA
ATOM    100  O   UNL A   1      55.880  28.841  24.173  1.00  0.00    -0.744 OA
ENDBRANCH  96  97
ENDBRANCH  70  91
ENDBRANCH  44  45
ENDBRANCH  37  39
ENDBRANCH  36  37
ENDBRANCH  35  36
ENDBRANCH  34  35
ENDBRANCH  33  34
ENDBRANCH  32  33
ENDBRANCH  31  32
ENDBRANCH  30  31
ENDBRANCH   1  30
TORSDOF 28
ENDMDL
