MODEL 1
REMARK VINA RESULT:     -10.3      0.000      0.000
REMARK SMILES CCn1cc(C)c(C(=O)OCCOCCOCCOCCOC(=O)c2ccc(-c3c4nc(c(-c5ccc(S(=O)(=O)[O-])cc5)c5ccc([nH]5)c(-c5ccc(S(=O)(=O)[O-])cc5)c5nc(c(-c6ccc(S(=O)(=O)[O-])cc6)c6ccc3[nH]6)C=C5)C=C4)cc2)c1CC(=O)NCc1cccc(C)c1
REMARK SMILES IDX 15 1 14 2 13 3 12 4 11 5 10 6 8 7 9 8 7 9 3 10 4 11 85 12
REMARK SMILES IDX 5 13 6 14 2 15 1 16 86 17 87 18 88 19 89 20 90 22 91 23
REMARK SMILES IDX 92 24 97 25 93 26 95 27 94 28 96 29 16 30 17 31 18 32 19 33
REMARK SMILES IDX 20 34 21 35 22 36 23 37 24 38 25 39 26 40 84 41 27 42 83 43
REMARK SMILES IDX 28 44 29 45 30 46 77 47 31 48 82 49 76 50 78 51 32 52 81 53
REMARK SMILES IDX 75 54 74 55 33 57 63 58 44 59 62 60 45 61 48 62 61 63 79 64
REMARK SMILES IDX 46 65 47 66 60 68 80 69 49 70 34 71 35 72 43 73 36 74 42 75
REMARK SMILES IDX 37 76 38 77 39 78 40 79 41 80 64 81 65 82 73 83 66 84 72 85
REMARK SMILES IDX 67 86 68 87 69 88 70 89 71 90 50 91 51 92 59 93 52 94 58 95
REMARK SMILES IDX 53 96 54 97 55 98 56 99 57 100
REMARK H PARENT 89 21 78 56 48 67
REMARK Flexibility Score: inf
ROOT
ATOM      1  C   UNL A   1      35.193  32.365  28.264  1.00  0.00     0.188 C 
ENDROOT
BRANCH   1   2
ATOM      2  C   UNL A   1      35.099  30.828  28.262  1.00  0.00     0.188 C 
BRANCH   2   3
ATOM      3  O   UNL A   1      34.273  30.337  27.227  1.00  0.00    -0.376 OA
BRANCH   3   4
ATOM      4  C   UNL A   1      32.937  30.764  27.071  1.00  0.00     0.202 C 
BRANCH   4   5
ATOM      5  C   UNL A   1      32.102  30.450  25.816  1.00  0.00     0.261 C 
BRANCH   5   6
ATOM      6  O   UNL A   1      31.761  29.088  25.560  1.00  0.00    -0.460 OA
BRANCH   6   7
ATOM      7  C   UNL A   1      31.305  28.782  24.322  1.00  0.00     0.340 C 
ATOM      8  O   UNL A   1      31.288  29.579  23.390  1.00  0.00    -0.246 OA
BRANCH   7   9
ATOM      9  C   UNL A   1      30.941  27.364  24.169  1.00  0.00     0.084 A 
ATOM     10  N   UNL A   1      30.908  25.142  24.361  1.00  0.00    -0.350 N 
ATOM     11  C   UNL A   1      29.636  25.531  24.032  1.00  0.00     0.090 A 
ATOM     12  C   UNL A   1      31.764  26.225  24.211  1.00  0.00     0.042 A 
ATOM     13  C   UNL A   1      29.627  26.892  23.831  1.00  0.00    -0.019 A 
ATOM     14  C   UNL A   1      28.474  27.691  23.330  1.00  0.00     0.047 C 
BRANCH  10  15
ATOM     15  C   UNL A   1      31.215  23.829  24.919  1.00  0.00     0.118 C 
ATOM     16  C   UNL A   1      30.700  23.556  26.329  1.00  0.00     0.027 C 
ENDBRANCH  10  15
BRANCH  12  17
ATOM     17  C   UNL A   1      33.273  26.100  24.225  1.00  0.00     0.154 C 
BRANCH  17  18
ATOM     18  C   UNL A   1      33.835  25.289  23.055  1.00  0.00     0.226 C 
ATOM     19  O   UNL A   1      33.696  25.695  21.895  1.00  0.00    -0.275 OA
ATOM     20  N   UNL A   1      34.545  24.139  23.236  1.00  0.00    -0.352 N 
ATOM     21  H   UNL A   1      34.734  23.643  22.408  1.00  0.00     0.163 HD
BRANCH  20  22
ATOM     22  C   UNL A   1      35.069  23.522  24.436  1.00  0.00     0.151 C 
BRANCH  22  23
ATOM     23  C   UNL A   1      34.341  22.261  24.838  1.00  0.00    -0.029 A 
ATOM     24  C   UNL A   1      34.240  21.873  26.178  1.00  0.00     0.005 A 
ATOM     25  C   UNL A   1      33.696  21.465  23.883  1.00  0.00     0.009 A 
ATOM     26  C   UNL A   1      33.534  20.721  26.540  1.00  0.00     0.001 A 
ATOM     27  C   UNL A   1      32.981  20.311  24.228  1.00  0.00    -0.051 A 
ATOM     28  C   UNL A   1      32.915  19.936  25.569  1.00  0.00     0.003 A 
ATOM     29  C   UNL A   1      32.314  19.481  23.170  1.00  0.00     0.044 C 
ENDBRANCH  22  23
ENDBRANCH  20  22
ENDBRANCH  17  18
ENDBRANCH  12  17
ENDBRANCH   7   9
ENDBRANCH   6   7
ENDBRANCH   5   6
ENDBRANCH   4   5
ENDBRANCH   3   4
ENDBRANCH   2   3
ENDBRANCH   1   2
BRANCH   1  30
ATOM     30  O   UNL A   1      34.375  33.087  29.179  1.00  0.00    -0.377 OA
BRANCH  30  31
ATOM     31  C   UNL A   1      35.013  34.156  29.859  1.00  0.00     0.188 C 
BRANCH  31  32
ATOM     32  C   UNL A   1      35.178  33.935  31.380  1.00  0.00     0.188 C 
BRANCH  32  33
ATOM     33  O   UNL A   1      36.402  33.507  31.982  1.00  0.00    -0.376 OA
BRANCH  33  34
ATOM     34  C   UNL A   1      37.635  33.435  31.281  1.00  0.00     0.202 C 
BRANCH  34  35
ATOM     35  C   UNL A   1      38.549  34.646  31.158  1.00  0.00     0.261 C 
BRANCH  35  36
ATOM     36  O   UNL A   1      39.404  34.610  30.037  1.00  0.00    -0.460 OA
BRANCH  36  37
ATOM     37  C   UNL A   1      40.699  34.464  30.355  1.00  0.00     0.338 C 
ATOM     38  O   UNL A   1      41.173  34.265  31.472  1.00  0.00    -0.246 OA
BRANCH  37  39
ATOM     39  C   UNL A   1      41.505  34.742  29.165  1.00  0.00     0.060 A 
ATOM     40  C   UNL A   1      42.876  34.769  29.393  1.00  0.00     0.016 A 
ATOM     41  C   UNL A   1      40.905  35.393  28.076  1.00  0.00     0.016 A 
ATOM     42  C   UNL A   1      43.588  35.749  28.756  1.00  0.00     0.010 A 
ATOM     43  C   UNL A   1      41.615  36.381  27.446  1.00  0.00     0.010 A 
ATOM     44  C   UNL A   1      42.908  36.616  27.891  1.00  0.00    -0.014 A 
BRANCH  44  45
ATOM     45  C   UNL A   1      43.641  37.759  27.416  1.00  0.00     0.031 A 
ATOM     46  C   UNL A   1      45.082  37.485  27.326  1.00  0.00     0.074 A 
ATOM     47  C   UNL A   1      43.068  38.933  27.104  1.00  0.00     0.049 A 
ATOM     48  N   UNL A   1      45.979  37.836  28.180  1.00  0.00    -0.248 NA
ATOM     49  C   UNL A   1      45.532  36.517  26.318  1.00  0.00     0.031 C 
ATOM     50  C   UNL A   1      41.657  39.261  26.906  1.00  0.00     0.029 A 
ATOM     51  N   UNL A   1      43.698  40.093  26.800  1.00  0.00    -0.354 N 
ATOM     52  C   UNL A   1      47.164  37.303  27.704  1.00  0.00     0.074 A 
ATOM     53  C   UNL A   1      46.800  36.342  26.692  1.00  0.00     0.031 C 
ATOM     54  C   UNL A   1      41.573  40.454  26.267  1.00  0.00     0.029 A 
ATOM     55  C   UNL A   1      42.908  41.021  26.145  1.00  0.00     0.049 A 
ATOM     56  H   UNL A   1      44.640  40.262  27.027  1.00  0.00     0.167 HD
ATOM     57  C   UNL A   1      48.360  37.874  28.002  1.00  0.00     0.031 A 
ATOM     58  C   UNL A   1      43.365  42.111  25.475  1.00  0.00     0.031 A 
ATOM     59  C   UNL A   1      48.241  38.842  29.063  1.00  0.00     0.049 A 
ATOM     60  C   UNL A   1      44.732  42.402  25.996  1.00  0.00     0.074 A 
ATOM     61  C   UNL A   1      47.846  38.781  30.385  1.00  0.00     0.029 A 
ATOM     62  N   UNL A   1      48.142  40.165  28.692  1.00  0.00    -0.354 N 
ATOM     63  N   UNL A   1      44.955  42.812  27.216  1.00  0.00    -0.248 NA
ATOM     64  C   UNL A   1      45.871  41.765  25.345  1.00  0.00     0.031 C 
ATOM     65  C   UNL A   1      47.090  39.968  30.598  1.00  0.00     0.029 A 
ATOM     66  C   UNL A   1      47.125  40.725  29.424  1.00  0.00     0.049 A 
ATOM     67  H   UNL A   1      48.700  40.626  28.024  1.00  0.00     0.167 HD
ATOM     68  C   UNL A   1      46.078  42.108  27.635  1.00  0.00     0.074 A 
ATOM     69  C   UNL A   1      46.650  41.546  26.410  1.00  0.00     0.031 C 
ATOM     70  C   UNL A   1      46.279  41.803  28.952  1.00  0.00     0.031 A 
BRANCH  57  71
ATOM     71  C   UNL A   1      49.531  37.849  27.066  1.00  0.00    -0.014 A 
ATOM     72  C   UNL A   1      49.475  37.017  25.935  1.00  0.00     0.010 A 
ATOM     73  C   UNL A   1      50.784  38.406  27.400  1.00  0.00     0.010 A 
ATOM     74  C   UNL A   1      50.631  36.709  25.209  1.00  0.00     0.020 A 
ATOM     75  C   UNL A   1      51.933  38.143  26.659  1.00  0.00     0.020 A 
ATOM     76  C   UNL A   1      51.853  37.268  25.585  1.00  0.00     0.054 A 
BRANCH  76  77
ATOM     77  S   UNL A   1      53.356  36.786  24.705  1.00  0.00     0.124 S 
ATOM     78  O   UNL A   1      54.265  37.877  25.044  1.00  0.00    -0.237 OA
ATOM     79  O   UNL A   1      53.662  35.492  25.307  1.00  0.00    -0.237 OA
ATOM     80  O   UNL A   1      52.932  36.734  23.308  1.00  0.00    -0.744 OA
ENDBRANCH  76  77
ENDBRANCH  57  71
BRANCH  58  81
ATOM     81  C   UNL A   1      42.857  42.641  24.182  1.00  0.00    -0.014 A 
ATOM     82  C   UNL A   1      43.263  43.896  23.693  1.00  0.00     0.010 A 
ATOM     83  C   UNL A   1      42.174  41.787  23.290  1.00  0.00     0.010 A 
ATOM     84  C   UNL A   1      43.048  44.257  22.348  1.00  0.00     0.020 A 
ATOM     85  C   UNL A   1      41.950  42.140  21.954  1.00  0.00     0.020 A 
ATOM     86  C   UNL A   1      42.411  43.364  21.482  1.00  0.00     0.054 A 
BRANCH  86  87
ATOM     87  S   UNL A   1      42.301  43.750  19.707  1.00  0.00     0.124 S 
ATOM     88  O   UNL A   1      42.487  42.439  19.092  1.00  0.00    -0.237 OA
ATOM     89  O   UNL A   1      40.962  44.322  19.588  1.00  0.00    -0.237 OA
ATOM     90  O   UNL A   1      43.394  44.698  19.493  1.00  0.00    -0.744 OA
ENDBRANCH  86  87
ENDBRANCH  58  81
BRANCH  70  91
ATOM     91  C   UNL A   1      45.408  42.468  29.994  1.00  0.00    -0.014 A 
ATOM     92  C   UNL A   1      44.063  42.123  30.236  1.00  0.00     0.010 A 
ATOM     93  C   UNL A   1      46.032  43.372  30.872  1.00  0.00     0.010 A 
ATOM     94  C   UNL A   1      43.357  42.695  31.307  1.00  0.00     0.020 A 
ATOM     95  C   UNL A   1      45.343  43.928  31.950  1.00  0.00     0.020 A 
ATOM     96  C   UNL A   1      44.004  43.599  32.155  1.00  0.00     0.054 A 
BRANCH  96  97
ATOM     97  S   UNL A   1      43.099  44.323  33.552  1.00  0.00     0.124 S 
ATOM     98  O   UNL A   1      42.073  43.318  33.820  1.00  0.00    -0.237 OA
ATOM     99  O   UNL A   1      44.132  44.457  34.576  1.00  0.00    -0.237 OA
ATOM    100  O   UNL A   1      42.596  45.590  33.022  1.00  0.00    -0.744 OA
ENDBRANCH  96  97
ENDBRANCH  70  91
ENDBRANCH  44  45
ENDBRANCH  37  39
ENDBRANCH  36  37
ENDBRANCH  35  36
ENDBRANCH  34  35
ENDBRANCH  33  34
ENDBRANCH  32  33
ENDBRANCH  31  32
ENDBRANCH  30  31
ENDBRANCH   1  30
TORSDOF 28
ENDMDL
MODEL 2
REMARK VINA RESULT:     -10.2      1.512      3.234
REMARK SMILES CCn1cc(C)c(C(=O)OCCOCCOCCOCCOC(=O)c2ccc(-c3c4nc(c(-c5ccc(S(=O)(=O)[O-])cc5)c5ccc([nH]5)c(-c5ccc(S(=O)(=O)[O-])cc5)c5nc(c(-c6ccc(S(=O)(=O)[O-])cc6)c6ccc3[nH]6)C=C5)C=C4)cc2)c1CC(=O)NCc1cccc(C)c1
REMARK SMILES IDX 15 1 14 2 13 3 12 4 11 5 10 6 8 7 9 8 7 9 3 10 4 11 85 12
REMARK SMILES IDX 5 13 6 14 2 15 1 16 86 17 87 18 88 19 89 20 90 22 91 23
REMARK SMILES IDX 92 24 97 25 93 26 95 27 94 28 96 29 16 30 17 31 18 32 19 33
REMARK SMILES IDX 20 34 21 35 22 36 23 37 24 38 25 39 26 40 84 41 27 42 83 43
REMARK SMILES IDX 28 44 29 45 30 46 77 47 31 48 82 49 76 50 78 51 32 52 81 53
REMARK SMILES IDX 75 54 74 55 33 57 63 58 44 59 62 60 45 61 48 62 61 63 79 64
REMARK SMILES IDX 46 65 47 66 60 68 80 69 49 70 34 71 35 72 43 73 36 74 42 75
REMARK SMILES IDX 37 76 38 77 39 78 40 79 41 80 64 81 65 82 73 83 66 84 72 85
REMARK SMILES IDX 67 86 68 87 69 88 70 89 71 90 50 91 51 92 59 93 52 94 58 95
REMARK SMILES IDX 53 96 54 97 55 98 56 99 57 100
REMARK H PARENT 89 21 78 56 48 67
REMARK Flexibility Score: inf
ROOT
ATOM      1  C   UNL A   1      35.082  31.481  27.891  1.00  0.00     0.188 C 
ENDROOT
BRANCH   1   2
ATOM      2  C   UNL A   1      35.545  30.048  27.570  1.00  0.00     0.188 C 
BRANCH   2   3
ATOM      3  O   UNL A   1      34.646  29.365  26.722  1.00  0.00    -0.376 OA
BRANCH   3   4
ATOM      4  C   UNL A   1      33.475  28.751  27.213  1.00  0.00     0.202 C 
BRANCH   4   5
ATOM      5  C   UNL A   1      32.784  27.576  26.495  1.00  0.00     0.261 C 
BRANCH   5   6
ATOM      6  O   UNL A   1      33.513  26.358  26.348  1.00  0.00    -0.460 OA
BRANCH   6   7
ATOM      7  C   UNL A   1      32.814  25.201  26.423  1.00  0.00     0.340 C 
ATOM      8  O   UNL A   1      31.644  25.139  26.787  1.00  0.00    -0.246 OA
BRANCH   7   9
ATOM      9  C   UNL A   1      33.556  24.037  25.912  1.00  0.00     0.084 A 
ATOM     10  N   UNL A   1      34.977  22.754  24.768  1.00  0.00    -0.350 N 
ATOM     11  C   UNL A   1      34.705  22.098  25.940  1.00  0.00     0.090 A 
ATOM     12  C   UNL A   1      34.098  23.820  24.632  1.00  0.00     0.042 A 
ATOM     13  C   UNL A   1      33.773  22.822  26.646  1.00  0.00    -0.019 A 
ATOM     14  C   UNL A   1      33.110  22.392  27.909  1.00  0.00     0.047 C 
BRANCH  10  15
ATOM     15  C   UNL A   1      36.120  22.424  23.922  1.00  0.00     0.118 C 
ATOM     16  C   UNL A   1      37.270  21.686  24.599  1.00  0.00     0.027 C 
ENDBRANCH  10  15
BRANCH  12  17
ATOM     17  C   UNL A   1      33.925  24.597  23.344  1.00  0.00     0.154 C 
BRANCH  17  18
ATOM     18  C   UNL A   1      32.968  23.938  22.350  1.00  0.00     0.226 C 
ATOM     19  O   UNL A   1      33.406  23.191  21.467  1.00  0.00    -0.275 OA
ATOM     20  N   UNL A   1      31.615  24.094  22.423  1.00  0.00    -0.352 N 
ATOM     21  H   UNL A   1      31.121  23.733  21.652  1.00  0.00     0.163 HD
BRANCH  20  22
ATOM     22  C   UNL A   1      30.780  24.699  23.437  1.00  0.00     0.151 C 
BRANCH  22  23
ATOM     23  C   UNL A   1      30.706  26.206  23.345  1.00  0.00    -0.029 A 
ATOM     24  C   UNL A   1      29.515  26.894  23.600  1.00  0.00     0.005 A 
ATOM     25  C   UNL A   1      31.844  26.967  23.051  1.00  0.00     0.009 A 
ATOM     26  C   UNL A   1      29.469  28.291  23.545  1.00  0.00     0.001 A 
ATOM     27  C   UNL A   1      31.818  28.366  22.996  1.00  0.00    -0.051 A 
ATOM     28  C   UNL A   1      30.612  29.025  23.234  1.00  0.00     0.003 A 
ATOM     29  C   UNL A   1      33.059  29.142  22.667  1.00  0.00     0.044 C 
ENDBRANCH  22  23
ENDBRANCH  20  22
ENDBRANCH  17  18
ENDBRANCH  12  17
ENDBRANCH   7   9
ENDBRANCH   6   7
ENDBRANCH   5   6
ENDBRANCH   4   5
ENDBRANCH   3   4
ENDBRANCH   2   3
ENDBRANCH   1   2
BRANCH   1  30
ATOM     30  O   UNL A   1      34.252  31.680  29.031  1.00  0.00    -0.377 OA
BRANCH  30  31
ATOM     31  C   UNL A   1      34.492  32.870  29.763  1.00  0.00     0.188 C 
BRANCH  31  32
ATOM     32  C   UNL A   1      34.649  32.661  31.287  1.00  0.00     0.188 C 
BRANCH  32  33
ATOM     33  O   UNL A   1      35.915  32.652  31.950  1.00  0.00    -0.376 OA
BRANCH  33  34
ATOM     34  C   UNL A   1      37.151  32.851  31.281  1.00  0.00     0.202 C 
BRANCH  34  35
ATOM     35  C   UNL A   1      37.701  34.248  31.030  1.00  0.00     0.261 C 
BRANCH  35  36
ATOM     36  O   UNL A   1      38.842  34.277  30.202  1.00  0.00    -0.460 OA
BRANCH  36  37
ATOM     37  C   UNL A   1      39.983  34.506  30.871  1.00  0.00     0.338 C 
ATOM     38  O   UNL A   1      40.106  34.746  32.070  1.00  0.00    -0.246 OA
BRANCH  37  39
ATOM     39  C   UNL A   1      41.079  34.589  29.906  1.00  0.00     0.060 A 
ATOM     40  C   UNL A   1      42.342  34.696  30.477  1.00  0.00     0.016 A 
ATOM     41  C   UNL A   1      40.802  35.015  28.597  1.00  0.00     0.016 A 
ATOM     42  C   UNL A   1      43.216  35.566  29.884  1.00  0.00     0.010 A 
ATOM     43  C   UNL A   1      41.673  35.893  28.008  1.00  0.00     0.010 A 
ATOM     44  C   UNL A   1      42.806  36.243  28.728  1.00  0.00    -0.014 A 
BRANCH  44  45
ATOM     45  C   UNL A   1      43.660  37.303  28.263  1.00  0.00     0.031 A 
ATOM     46  C   UNL A   1      45.059  36.866  28.150  1.00  0.00     0.074 A 
ATOM     47  C   UNL A   1      43.224  38.540  27.979  1.00  0.00     0.049 A 
ATOM     48  N   UNL A   1      46.000  37.095  28.998  1.00  0.00    -0.248 NA
ATOM     49  C   UNL A   1      45.384  35.872  27.120  1.00  0.00     0.031 C 
ATOM     50  C   UNL A   1      41.858  39.032  27.805  1.00  0.00     0.029 A 
ATOM     51  N   UNL A   1      43.980  39.626  27.687  1.00  0.00    -0.354 N 
ATOM     52  C   UNL A   1      47.111  36.439  28.498  1.00  0.00     0.074 A 
ATOM     53  C   UNL A   1      46.627  35.545  27.474  1.00  0.00     0.031 C 
ATOM     54  C   UNL A   1      41.905  40.238  27.188  1.00  0.00     0.029 A 
ATOM     55  C   UNL A   1      43.296  40.651  27.058  1.00  0.00     0.049 A 
ATOM     56  H   UNL A   1      44.938  39.681  27.905  1.00  0.00     0.167 HD
ATOM     57  C   UNL A   1      48.368  36.863  28.791  1.00  0.00     0.031 A 
ATOM     58  C   UNL A   1      43.868  41.693  26.401  1.00  0.00     0.031 A 
ATOM     59  C   UNL A   1      48.372  37.818  29.869  1.00  0.00     0.049 A 
ATOM     60  C   UNL A   1      45.265  41.815  26.909  1.00  0.00     0.074 A 
ATOM     61  C   UNL A   1      47.987  37.779  31.195  1.00  0.00     0.029 A 
ATOM     62  N   UNL A   1      48.423  39.151  29.522  1.00  0.00    -0.354 N 
ATOM     63  N   UNL A   1      45.546  42.173  28.133  1.00  0.00    -0.248 NA
ATOM     64  C   UNL A   1      46.315  41.063  26.233  1.00  0.00     0.031 C 
ATOM     65  C   UNL A   1      47.375  39.041  31.438  1.00  0.00     0.029 A 
ATOM     66  C   UNL A   1      47.485  39.810  30.277  1.00  0.00     0.049 A 
ATOM     67  H   UNL A   1      49.023  39.556  28.855  1.00  0.00     0.167 HD
ATOM     68  C   UNL A   1      46.585  41.337  28.525  1.00  0.00     0.074 A 
ATOM     69  C   UNL A   1      47.075  40.736  27.284  1.00  0.00     0.031 C 
ATOM     70  C   UNL A   1      46.764  40.987  29.835  1.00  0.00     0.031 A 
BRANCH  57  71
ATOM     71  C   UNL A   1      49.518  36.721  27.839  1.00  0.00    -0.014 A 
ATOM     72  C   UNL A   1      49.399  37.262  26.548  1.00  0.00     0.010 A 
ATOM     73  C   UNL A   1      50.599  35.844  28.078  1.00  0.00     0.010 A 
ATOM     74  C   UNL A   1      50.284  36.896  25.528  1.00  0.00     0.020 A 
ATOM     75  C   UNL A   1      51.513  35.508  27.083  1.00  0.00     0.020 A 
ATOM     76  C   UNL A   1      51.329  36.013  25.804  1.00  0.00     0.054 A 
BRANCH  76  77
ATOM     77  S   UNL A   1      52.406  35.468  24.460  1.00  0.00     0.124 S 
ATOM     78  O   UNL A   1      53.655  35.200  25.166  1.00  0.00    -0.237 OA
ATOM     79  O   UNL A   1      51.697  34.296  23.954  1.00  0.00    -0.237 OA
ATOM     80  O   UNL A   1      52.431  36.615  23.555  1.00  0.00    -0.744 OA
ENDBRANCH  76  77
ENDBRANCH  57  71
BRANCH  58  81
ATOM     81  C   UNL A   1      43.410  42.302  25.124  1.00  0.00    -0.014 A 
ATOM     82  C   UNL A   1      44.280  43.061  24.320  1.00  0.00     0.010 A 
ATOM     83  C   UNL A   1      42.179  41.908  24.557  1.00  0.00     0.010 A 
ATOM     84  C   UNL A   1      43.957  43.360  22.982  1.00  0.00     0.020 A 
ATOM     85  C   UNL A   1      41.848  42.207  23.230  1.00  0.00     0.020 A 
ATOM     86  C   UNL A   1      42.750  42.911  22.440  1.00  0.00     0.054 A 
BRANCH  86  87
ATOM     87  S   UNL A   1      42.417  43.135  20.665  1.00  0.00     0.124 S 
ATOM     88  O   UNL A   1      40.981  43.399  20.649  1.00  0.00    -0.237 OA
ATOM     89  O   UNL A   1      43.274  44.267  20.321  1.00  0.00    -0.237 OA
ATOM     90  O   UNL A   1      42.820  41.858  20.076  1.00  0.00    -0.744 OA
ENDBRANCH  86  87
ENDBRANCH  58  81
BRANCH  70  91
ATOM     91  C   UNL A   1      45.987  41.728  30.899  1.00  0.00    -0.014 A 
ATOM     92  C   UNL A   1      46.462  42.873  31.571  1.00  0.00     0.010 A 
ATOM     93  C   UNL A   1      44.652  41.339  31.109  1.00  0.00     0.010 A 
ATOM     94  C   UNL A   1      45.632  43.583  32.454  1.00  0.00     0.020 A 
ATOM     95  C   UNL A   1      43.816  42.052  31.968  1.00  0.00     0.020 A 
ATOM     96  C   UNL A   1      44.312  43.163  32.648  1.00  0.00     0.054 A 
BRANCH  96  97
ATOM     97  S   UNL A   1      43.232  44.092  33.772  1.00  0.00     0.124 S 
ATOM     98  O   UNL A   1      42.753  43.055  34.681  1.00  0.00    -0.237 OA
ATOM     99  O   UNL A   1      44.140  45.075  34.360  1.00  0.00    -0.237 OA
ATOM    100  O   UNL A   1      42.213  44.656  32.888  1.00  0.00    -0.744 OA
ENDBRANCH  96  97
ENDBRANCH  70  91
ENDBRANCH  44  45
ENDBRANCH  37  39
ENDBRANCH  36  37
ENDBRANCH  35  36
ENDBRANCH  34  35
ENDBRANCH  33  34
ENDBRANCH  32  33
ENDBRANCH  31  32
ENDBRANCH  30  31
ENDBRANCH   1  30
TORSDOF 28
ENDMDL
MODEL 3
REMARK VINA RESULT:      -9.7      6.172     11.126
REMARK SMILES CCn1cc(C)c(C(=O)OCCOCCOCCOCCOC(=O)c2ccc(-c3c4nc(c(-c5ccc(S(=O)(=O)[O-])cc5)c5ccc([nH]5)c(-c5ccc(S(=O)(=O)[O-])cc5)c5nc(c(-c6ccc(S(=O)(=O)[O-])cc6)c6ccc3[nH]6)C=C5)C=C4)cc2)c1CC(=O)NCc1cccc(C)c1
REMARK SMILES IDX 15 1 14 2 13 3 12 4 11 5 10 6 8 7 9 8 7 9 3 10 4 11 85 12
REMARK SMILES IDX 5 13 6 14 2 15 1 16 86 17 87 18 88 19 89 20 90 22 91 23
REMARK SMILES IDX 92 24 97 25 93 26 95 27 94 28 96 29 16 30 17 31 18 32 19 33
REMARK SMILES IDX 20 34 21 35 22 36 23 37 24 38 25 39 26 40 84 41 27 42 83 43
REMARK SMILES IDX 28 44 29 45 30 46 77 47 31 48 82 49 76 50 78 51 32 52 81 53
REMARK SMILES IDX 75 54 74 55 33 57 63 58 44 59 62 60 45 61 48 62 61 63 79 64
REMARK SMILES IDX 46 65 47 66 60 68 80 69 49 70 34 71 35 72 43 73 36 74 42 75
REMARK SMILES IDX 37 76 38 77 39 78 40 79 41 80 64 81 65 82 73 83 66 84 72 85
REMARK SMILES IDX 67 86 68 87 69 88 70 89 71 90 50 91 51 92 59 93 52 94 58 95
REMARK SMILES IDX 53 96 54 97 55 98 56 99 57 100
REMARK H PARENT 89 21 78 56 48 67
REMARK Flexibility Score: inf
ROOT
ATOM      1  C   UNL A   1      35.734  31.904  28.045  1.00  0.00     0.188 C 
ENDROOT
BRANCH   1   2
ATOM      2  C   UNL A   1      35.833  30.469  28.595  1.00  0.00     0.188 C 
BRANCH   2   3
ATOM      3  O   UNL A   1      35.418  29.499  27.656  1.00  0.00    -0.376 OA
BRANCH   3   4
ATOM      4  C   UNL A   1      34.088  29.431  27.190  1.00  0.00     0.202 C 
BRANCH   4   5
ATOM      5  C   UNL A   1      33.623  28.405  26.139  1.00  0.00     0.261 C 
BRANCH   5   6
ATOM      6  O   UNL A   1      33.631  27.024  26.499  1.00  0.00    -0.460 OA
BRANCH   6   7
ATOM      7  C   UNL A   1      32.497  26.317  26.281  1.00  0.00     0.340 C 
ATOM      8  O   UNL A   1      31.394  26.664  26.690  1.00  0.00    -0.246 OA
BRANCH   7   9
ATOM      9  C   UNL A   1      32.696  25.153  25.403  1.00  0.00     0.084 A 
ATOM     10  N   UNL A   1      33.535  23.750  23.885  1.00  0.00    -0.350 N 
ATOM     11  C   UNL A   1      32.812  22.993  24.769  1.00  0.00     0.090 A 
ATOM     12  C   UNL A   1      33.274  25.093  24.122  1.00  0.00     0.042 A 
ATOM     13  C   UNL A   1      32.215  23.829  25.683  1.00  0.00    -0.019 A 
ATOM     14  C   UNL A   1      31.239  23.419  26.730  1.00  0.00     0.047 C 
BRANCH  10  15
ATOM     15  C   UNL A   1      34.518  23.178  22.971  1.00  0.00     0.118 C 
ATOM     16  C   UNL A   1      35.942  23.050  23.503  1.00  0.00     0.027 C 
ENDBRANCH  10  15
BRANCH  12  17
ATOM     17  C   UNL A   1      33.682  26.200  23.172  1.00  0.00     0.154 C 
BRANCH  17  18
ATOM     18  C   UNL A   1      32.814  26.284  21.915  1.00  0.00     0.226 C 
ATOM     19  O   UNL A   1      33.276  25.949  20.818  1.00  0.00    -0.275 OA
ATOM     20  N   UNL A   1      31.507  26.670  21.953  1.00  0.00    -0.352 N 
ATOM     21  H   UNL A   1      31.099  26.814  21.069  1.00  0.00     0.163 HD
BRANCH  20  22
ATOM     22  C   UNL A   1      30.616  26.906  23.068  1.00  0.00     0.151 C 
BRANCH  22  23
ATOM     23  C   UNL A   1      30.186  28.347  23.208  1.00  0.00    -0.029 A 
ATOM     24  C   UNL A   1      30.660  29.152  24.250  1.00  0.00     0.005 A 
ATOM     25  C   UNL A   1      29.336  28.941  22.266  1.00  0.00     0.009 A 
ATOM     26  C   UNL A   1      30.281  30.495  24.348  1.00  0.00     0.001 A 
ATOM     27  C   UNL A   1      28.949  30.285  22.347  1.00  0.00    -0.051 A 
ATOM     28  C   UNL A   1      29.421  31.058  23.408  1.00  0.00     0.003 A 
ATOM     29  C   UNL A   1      28.028  30.878  21.322  1.00  0.00     0.044 C 
ENDBRANCH  22  23
ENDBRANCH  20  22
ENDBRANCH  17  18
ENDBRANCH  12  17
ENDBRANCH   7   9
ENDBRANCH   6   7
ENDBRANCH   5   6
ENDBRANCH   4   5
ENDBRANCH   3   4
ENDBRANCH   2   3
ENDBRANCH   1   2
BRANCH   1  30
ATOM     30  O   UNL A   1      34.670  32.730  28.507  1.00  0.00    -0.377 OA
BRANCH  30  31
ATOM     31  C   UNL A   1      34.563  33.998  27.883  1.00  0.00     0.188 C 
BRANCH  31  32
ATOM     32  C   UNL A   1      33.375  34.854  28.378  1.00  0.00     0.188 C 
BRANCH  32  33
ATOM     33  O   UNL A   1      33.392  35.586  29.605  1.00  0.00    -0.376 OA
BRANCH  33  34
ATOM     34  C   UNL A   1      33.461  34.971  30.883  1.00  0.00     0.202 C 
BRANCH  34  35
ATOM     35  C   UNL A   1      34.789  34.525  31.479  1.00  0.00     0.261 C 
BRANCH  35  36
ATOM     36  O   UNL A   1      34.684  33.979  32.775  1.00  0.00    -0.460 OA
BRANCH  36  37
ATOM     37  C   UNL A   1      35.179  34.777  33.734  1.00  0.00     0.338 C 
ATOM     38  O   UNL A   1      34.800  35.908  34.029  1.00  0.00    -0.246 OA
BRANCH  37  39
ATOM     39  C   UNL A   1      36.377  34.147  34.290  1.00  0.00     0.060 A 
ATOM     40  C   UNL A   1      37.565  34.801  33.984  1.00  0.00     0.016 A 
ATOM     41  C   UNL A   1      36.330  32.789  34.643  1.00  0.00     0.016 A 
ATOM     42  C   UNL A   1      38.638  34.014  33.665  1.00  0.00     0.010 A 
ATOM     43  C   UNL A   1      37.400  32.001  34.314  1.00  0.00     0.010 A 
ATOM     44  C   UNL A   1      38.487  32.622  33.715  1.00  0.00    -0.014 A 
BRANCH  44  45
ATOM     45  C   UNL A   1      39.558  31.836  33.165  1.00  0.00     0.031 A 
ATOM     46  C   UNL A   1      40.526  31.435  34.196  1.00  0.00     0.074 A 
ATOM     47  C   UNL A   1      39.657  31.520  31.863  1.00  0.00     0.049 A 
ATOM     48  N   UNL A   1      41.663  31.992  34.430  1.00  0.00    -0.248 NA
ATOM     49  C   UNL A   1      40.079  30.486  35.222  1.00  0.00     0.031 C 
ATOM     50  C   UNL A   1      38.663  31.629  30.797  1.00  0.00     0.029 A 
ATOM     51  N   UNL A   1      40.703  30.920  31.246  1.00  0.00    -0.354 N 
ATOM     52  C   UNL A   1      42.181  31.317  35.522  1.00  0.00     0.074 A 
ATOM     53  C   UNL A   1      41.091  30.561  36.086  1.00  0.00     0.031 C 
ATOM     54  C   UNL A   1      39.069  30.877  29.745  1.00  0.00     0.029 A 
ATOM     55  C   UNL A   1      40.402  30.359  30.018  1.00  0.00     0.049 A 
ATOM     56  H   UNL A   1      41.605  30.887  31.640  1.00  0.00     0.167 HD
ATOM     57  C   UNL A   1      43.522  31.237  35.725  1.00  0.00     0.031 A 
ATOM     58  C   UNL A   1      41.172  29.460  29.353  1.00  0.00     0.031 A 
ATOM     59  C   UNL A   1      44.247  32.157  34.885  1.00  0.00     0.049 A 
ATOM     60  C   UNL A   1      42.557  29.589  29.891  1.00  0.00     0.074 A 
ATOM     61  C   UNL A   1      44.265  33.531  34.750  1.00  0.00     0.029 A 
ATOM     62  N   UNL A   1      44.786  31.648  33.724  1.00  0.00    -0.354 N 
ATOM     63  N   UNL A   1      43.293  30.653  29.709  1.00  0.00    -0.248 NA
ATOM     64  C   UNL A   1      42.934  28.772  31.038  1.00  0.00     0.031 C 
ATOM     65  C   UNL A   1      44.370  33.762  33.350  1.00  0.00     0.029 A 
ATOM     66  C   UNL A   1      44.486  32.524  32.711  1.00  0.00     0.049 A 
ATOM     67  H   UNL A   1      45.294  30.810  33.636  1.00  0.00     0.167 HD
ATOM     68  C   UNL A   1      43.916  30.876  30.931  1.00  0.00     0.074 A 
ATOM     69  C   UNL A   1      43.725  29.635  31.684  1.00  0.00     0.031 C 
ATOM     70  C   UNL A   1      44.273  32.133  31.332  1.00  0.00     0.031 A 
BRANCH  57  71
ATOM     71  C   UNL A   1      44.178  30.056  36.376  1.00  0.00    -0.014 A 
ATOM     72  C   UNL A   1      43.621  28.780  36.182  1.00  0.00     0.010 A 
ATOM     73  C   UNL A   1      45.158  30.189  37.383  1.00  0.00     0.010 A 
ATOM     74  C   UNL A   1      43.983  27.704  36.999  1.00  0.00     0.020 A 
ATOM     75  C   UNL A   1      45.561  29.115  38.171  1.00  0.00     0.020 A 
ATOM     76  C   UNL A   1      44.945  27.885  37.995  1.00  0.00     0.054 A 
BRANCH  76  77
ATOM     77  S   UNL A   1      45.333  26.517  39.109  1.00  0.00     0.124 S 
ATOM     78  O   UNL A   1      45.618  25.436  38.170  1.00  0.00    -0.237 OA
ATOM     79  O   UNL A   1      46.480  27.038  39.847  1.00  0.00    -0.237 OA
ATOM     80  O   UNL A   1      44.112  26.359  39.895  1.00  0.00    -0.744 OA
ENDBRANCH  76  77
ENDBRANCH  57  71
BRANCH  58  81
ATOM     81  C   UNL A   1      40.701  28.271  28.595  1.00  0.00    -0.014 A 
ATOM     82  C   UNL A   1      41.285  27.904  27.368  1.00  0.00     0.010 A 
ATOM     83  C   UNL A   1      39.849  27.332  29.214  1.00  0.00     0.010 A 
ATOM     84  C   UNL A   1      41.074  26.626  26.816  1.00  0.00     0.020 A 
ATOM     85  C   UNL A   1      39.628  26.061  28.669  1.00  0.00     0.020 A 
ATOM     86  C   UNL A   1      40.262  25.705  27.483  1.00  0.00     0.054 A 
BRANCH  86  87
ATOM     87  S   UNL A   1      40.139  23.996  26.870  1.00  0.00     0.124 S 
ATOM     88  O   UNL A   1      40.400  23.214  28.074  1.00  0.00    -0.237 OA
ATOM     89  O   UNL A   1      38.771  23.939  26.361  1.00  0.00    -0.237 OA
ATOM     90  O   UNL A   1      41.179  23.924  25.844  1.00  0.00    -0.744 OA
ENDBRANCH  86  87
ENDBRANCH  58  81
BRANCH  70  91
ATOM     91  C   UNL A   1      44.231  33.258  30.321  1.00  0.00    -0.014 A 
ATOM     92  C   UNL A   1      45.370  33.787  29.681  1.00  0.00     0.010 A 
ATOM     93  C   UNL A   1      42.964  33.685  29.887  1.00  0.00     0.010 A 
ATOM     94  C   UNL A   1      45.241  34.742  28.660  1.00  0.00     0.020 A 
ATOM     95  C   UNL A   1      42.827  34.618  28.858  1.00  0.00     0.020 A 
ATOM     96  C   UNL A   1      43.966  35.153  28.258  1.00  0.00     0.054 A 
BRANCH  96  97
ATOM     97  S   UNL A   1      43.796  36.371  26.923  1.00  0.00     0.124 S 
ATOM     98  O   UNL A   1      42.854  35.720  26.018  1.00  0.00    -0.237 OA
ATOM     99  O   UNL A   1      43.289  37.551  27.619  1.00  0.00    -0.237 OA
ATOM    100  O   UNL A   1      45.157  36.508  26.402  1.00  0.00    -0.744 OA
ENDBRANCH  96  97
ENDBRANCH  70  91
ENDBRANCH  44  45
ENDBRANCH  37  39
ENDBRANCH  36  37
ENDBRANCH  35  36
ENDBRANCH  34  35
ENDBRANCH  33  34
ENDBRANCH  32  33
ENDBRANCH  31  32
ENDBRANCH  30  31
ENDBRANCH   1  30
TORSDOF 28
ENDMDL
