MODEL 1
REMARK VINA RESULT:      -8.9      0.000      0.000
REMARK SMILES CC[C@@H](C)NC(=O)Cn1cccc1C(=O)OCCOCCOCCOCCOC(=O)c1ccc(-c2c3nc(c(-c4ccc(S(=O)(=O)[O-])cc4)c4ccc([nH]4)c(-c4ccc(S(=O)(=O)[O-])cc4)c4nc(c(-c5ccc(S(=O)(=O)[O-])cc5)c5ccc2[nH]5)C=C4)C=C3)cc1
REMARK SMILES IDX 21 1 20 2 19 3 18 4 17 5 16 6 14 7 15 8 13 9 9 10 10 11
REMARK SMILES IDX 11 12 12 13 8 14 6 15 5 16 7 18 3 19 4 20 2 21 1 22 22 23
REMARK SMILES IDX 23 24 24 25 25 26 26 27 27 28 28 29 29 30 30 31 31 32 32 33
REMARK SMILES IDX 90 34 33 35 89 36 34 37 35 38 36 39 83 40 37 41 88 42 82 43
REMARK SMILES IDX 84 44 38 45 87 46 81 47 80 48 39 50 69 51 50 52 68 53 51 54
REMARK SMILES IDX 54 55 67 56 85 57 52 58 53 59 66 61 86 62 55 63 40 64 41 65
REMARK SMILES IDX 49 66 42 67 48 68 43 69 44 70 45 71 46 72 47 73 70 74 71 75
REMARK SMILES IDX 79 76 72 77 78 78 73 79 74 80 75 81 76 82 77 83 56 84 57 85
REMARK SMILES IDX 65 86 58 87 64 88 59 89 60 90 61 91 62 92 63 93
REMARK H PARENT 5 17 84 49 54 60
REMARK Flexibility Score: inf
ROOT
ATOM      1  C   UNL A   1      30.816  27.514  24.724  1.00  0.00     0.188 C 
ENDROOT
BRANCH   1   2
ATOM      2  C   UNL A   1      31.287  26.616  23.564  1.00  0.00     0.188 C 
BRANCH   2   3
ATOM      3  O   UNL A   1      32.217  27.267  22.698  1.00  0.00    -0.376 OA
BRANCH   3   4
ATOM      4  C   UNL A   1      33.352  26.543  22.262  1.00  0.00     0.202 C 
BRANCH   4   5
ATOM      5  C   UNL A   1      33.191  25.023  22.329  1.00  0.00     0.261 C 
BRANCH   5   6
ATOM      6  O   UNL A   1      34.314  24.271  22.818  1.00  0.00    -0.459 OA
BRANCH   6   7
ATOM      7  C   UNL A   1      34.371  23.942  24.132  1.00  0.00     0.355 C 
ATOM      8  O   UNL A   1      33.742  24.494  25.018  1.00  0.00    -0.244 OA
BRANCH   7   9
ATOM      9  C   UNL A   1      35.283  22.844  24.336  1.00  0.00     0.128 A 
ATOM     10  N   UNL A   1      34.984  21.553  24.732  1.00  0.00    -0.333 N 
ATOM     11  C   UNL A   1      36.152  20.827  24.815  1.00  0.00     0.087 A 
ATOM     12  C   UNL A   1      37.194  21.626  24.411  1.00  0.00     0.020 A 
ATOM     13  C   UNL A   1      36.648  22.883  24.086  1.00  0.00     0.035 A 
BRANCH  10  14
ATOM     14  C   UNL A   1      33.675  20.996  25.054  1.00  0.00     0.222 C 
BRANCH  14  15
ATOM     15  C   UNL A   1      32.847  20.597  23.843  1.00  0.00     0.240 C 
ATOM     16  N   UNL A   1      32.875  19.325  23.339  1.00  0.00    -0.352 N 
ATOM     17  H   UNL A   1      32.475  19.222  22.445  1.00  0.00     0.163 HD
ATOM     18  O   UNL A   1      32.176  21.434  23.232  1.00  0.00    -0.273 OA
BRANCH  16  19
ATOM     19  C   UNL A   1      33.406  18.099  23.922  1.00  0.00     0.078 C 
ATOM     20  C   UNL A   1      33.949  17.161  22.849  1.00  0.00     0.031 C 
BRANCH  19  21
ATOM     21  C   UNL A   1      32.341  17.445  24.817  1.00  0.00     0.021 C 
ATOM     22  C   UNL A   1      32.593  17.558  26.316  1.00  0.00     0.006 C 
ENDBRANCH  19  21
ENDBRANCH  16  19
ENDBRANCH  14  15
ENDBRANCH  10  14
ENDBRANCH   7   9
ENDBRANCH   6   7
ENDBRANCH   5   6
ENDBRANCH   4   5
ENDBRANCH   3   4
ENDBRANCH   2   3
ENDBRANCH   1   2
BRANCH   1  23
ATOM     23  O   UNL A   1      31.125  27.108  26.054  1.00  0.00    -0.377 OA
BRANCH  23  24
ATOM     24  C   UNL A   1      32.151  27.831  26.719  1.00  0.00     0.188 C 
BRANCH  24  25
ATOM     25  C   UNL A   1      31.790  29.310  26.975  1.00  0.00     0.188 C 
BRANCH  25  26
ATOM     26  O   UNL A   1      32.648  30.255  26.345  1.00  0.00    -0.376 OA
BRANCH  26  27
ATOM     27  C   UNL A   1      33.945  30.489  26.883  1.00  0.00     0.202 C 
BRANCH  27  28
ATOM     28  C   UNL A   1      34.070  31.295  28.189  1.00  0.00     0.261 C 
BRANCH  28  29
ATOM     29  O   UNL A   1      35.380  31.769  28.498  1.00  0.00    -0.460 OA
BRANCH  29  30
ATOM     30  C   UNL A   1      35.897  31.307  29.644  1.00  0.00     0.338 C 
ATOM     31  O   UNL A   1      35.690  31.691  30.782  1.00  0.00    -0.246 OA
BRANCH  30  32
ATOM     32  C   UNL A   1      36.751  30.167  29.360  1.00  0.00     0.060 A 
ATOM     33  C   UNL A   1      37.301  29.491  30.456  1.00  0.00     0.016 A 
ATOM     34  C   UNL A   1      37.240  30.047  28.061  1.00  0.00     0.016 A 
ATOM     35  C   UNL A   1      38.488  28.820  30.280  1.00  0.00     0.010 A 
ATOM     36  C   UNL A   1      38.459  29.429  27.899  1.00  0.00     0.010 A 
ATOM     37  C   UNL A   1      39.102  28.897  29.027  1.00  0.00    -0.014 A 
BRANCH  37  38
ATOM     38  C   UNL A   1      40.503  28.489  28.915  1.00  0.00     0.031 A 
ATOM     39  C   UNL A   1      41.464  29.629  29.144  1.00  0.00     0.074 A 
ATOM     40  C   UNL A   1      40.706  27.173  28.610  1.00  0.00     0.049 A 
ATOM     41  N   UNL A   1      42.703  29.716  28.786  1.00  0.00    -0.248 NA
ATOM     42  C   UNL A   1      40.983  30.881  29.787  1.00  0.00     0.031 C 
ATOM     43  C   UNL A   1      39.620  26.197  28.348  1.00  0.00     0.029 A 
ATOM     44  N   UNL A   1      41.826  26.385  28.459  1.00  0.00    -0.354 N 
ATOM     45  C   UNL A   1      43.193  30.925  29.298  1.00  0.00     0.074 A 
ATOM     46  C   UNL A   1      42.071  31.652  29.809  1.00  0.00     0.031 C 
ATOM     47  C   UNL A   1      40.124  24.992  28.019  1.00  0.00     0.029 A 
ATOM     48  C   UNL A   1      41.571  25.046  28.080  1.00  0.00     0.049 A 
ATOM     49  H   UNL A   1      42.737  26.728  28.603  1.00  0.00     0.167 HD
ATOM     50  C   UNL A   1      44.521  31.196  29.399  1.00  0.00     0.031 A 
ATOM     51  C   UNL A   1      42.452  24.037  27.822  1.00  0.00     0.031 A 
ATOM     52  C   UNL A   1      45.303  30.117  28.895  1.00  0.00     0.049 A 
ATOM     53  C   UNL A   1      43.790  24.518  28.211  1.00  0.00     0.074 A 
ATOM     54  C   UNL A   1      45.534  29.649  27.627  1.00  0.00     0.029 A 
ATOM     55  N   UNL A   1      45.671  29.150  29.804  1.00  0.00    -0.354 N 
ATOM     56  N   UNL A   1      44.174  24.749  29.430  1.00  0.00    -0.248 NA
ATOM     57  C   UNL A   1      44.777  24.815  27.167  1.00  0.00     0.031 C 
ATOM     58  C   UNL A   1      45.639  28.251  27.792  1.00  0.00     0.029 A 
ATOM     59  C   UNL A   1      45.596  27.940  29.156  1.00  0.00     0.049 A 
ATOM     60  H   UNL A   1      45.938  29.298  30.740  1.00  0.00     0.167 HD
ATOM     61  C   UNL A   1      45.252  25.583  29.255  1.00  0.00     0.074 A 
ATOM     62  C   UNL A   1      45.745  25.337  27.916  1.00  0.00     0.031 C 
ATOM     63  C   UNL A   1      45.293  26.757  29.938  1.00  0.00     0.031 A 
BRANCH  50  64
ATOM     64  C   UNL A   1      45.215  32.278  30.158  1.00  0.00    -0.014 A 
ATOM     65  C   UNL A   1      44.964  32.348  31.547  1.00  0.00     0.010 A 
ATOM     66  C   UNL A   1      45.811  33.384  29.533  1.00  0.00     0.010 A 
ATOM     67  C   UNL A   1      45.182  33.522  32.263  1.00  0.00     0.020 A 
ATOM     68  C   UNL A   1      46.065  34.557  30.256  1.00  0.00     0.020 A 
ATOM     69  C   UNL A   1      45.697  34.633  31.601  1.00  0.00     0.054 A 
BRANCH  69  70
ATOM     70  S   UNL A   1      45.790  36.201  32.501  1.00  0.00     0.124 S 
ATOM     71  O   UNL A   1      47.145  36.159  33.043  1.00  0.00    -0.237 OA
ATOM     72  O   UNL A   1      45.567  37.188  31.447  1.00  0.00    -0.237 OA
ATOM     73  O   UNL A   1      44.714  36.097  33.484  1.00  0.00    -0.744 OA
ENDBRANCH  69  70
ENDBRANCH  50  64
BRANCH  51  74
ATOM     74  C   UNL A   1      42.390  22.669  27.191  1.00  0.00    -0.014 A 
ATOM     75  C   UNL A   1      42.951  22.318  25.955  1.00  0.00     0.010 A 
ATOM     76  C   UNL A   1      41.887  21.595  27.974  1.00  0.00     0.010 A 
ATOM     77  C   UNL A   1      43.122  20.966  25.588  1.00  0.00     0.020 A 
ATOM     78  C   UNL A   1      42.102  20.254  27.650  1.00  0.00     0.020 A 
ATOM     79  C   UNL A   1      42.745  19.944  26.463  1.00  0.00     0.054 A 
BRANCH  79  80
ATOM     80  S   UNL A   1      43.220  18.220  26.150  1.00  0.00     0.124 S 
ATOM     81  O   UNL A   1      42.034  17.686  25.489  1.00  0.00    -0.237 OA
ATOM     82  O   UNL A   1      44.407  18.349  25.309  1.00  0.00    -0.237 OA
ATOM     83  O   UNL A   1      43.479  17.702  27.493  1.00  0.00    -0.744 OA
ENDBRANCH  79  80
ENDBRANCH  51  74
BRANCH  63  84
ATOM     84  C   UNL A   1      44.560  26.749  31.274  1.00  0.00    -0.014 A 
ATOM     85  C   UNL A   1      44.957  25.861  32.293  1.00  0.00     0.010 A 
ATOM     86  C   UNL A   1      43.416  27.534  31.518  1.00  0.00     0.010 A 
ATOM     87  C   UNL A   1      44.235  25.748  33.492  1.00  0.00     0.020 A 
ATOM     88  C   UNL A   1      42.688  27.434  32.717  1.00  0.00     0.020 A 
ATOM     89  C   UNL A   1      43.101  26.535  33.698  1.00  0.00     0.054 A 
BRANCH  89  90
ATOM     90  S   UNL A   1      42.169  26.348  35.247  1.00  0.00     0.124 S 
ATOM     91  O   UNL A   1      42.794  27.335  36.123  1.00  0.00    -0.237 OA
ATOM     92  O   UNL A   1      40.803  26.656  34.834  1.00  0.00    -0.237 OA
ATOM     93  O   UNL A   1      42.401  24.955  35.630  1.00  0.00    -0.744 OA
ENDBRANCH  89  90
ENDBRANCH  63  84
ENDBRANCH  37  38
ENDBRANCH  30  32
ENDBRANCH  29  30
ENDBRANCH  28  29
ENDBRANCH  27  28
ENDBRANCH  26  27
ENDBRANCH  25  26
ENDBRANCH  24  25
ENDBRANCH  23  24
ENDBRANCH   1  23
TORSDOF 27
ENDMDL
MODEL 2
REMARK VINA RESULT:      -8.7      2.793      4.547
REMARK SMILES CC[C@@H](C)NC(=O)Cn1cccc1C(=O)OCCOCCOCCOCCOC(=O)c1ccc(-c2c3nc(c(-c4ccc(S(=O)(=O)[O-])cc4)c4ccc([nH]4)c(-c4ccc(S(=O)(=O)[O-])cc4)c4nc(c(-c5ccc(S(=O)(=O)[O-])cc5)c5ccc2[nH]5)C=C4)C=C3)cc1
REMARK SMILES IDX 21 1 20 2 19 3 18 4 17 5 16 6 14 7 15 8 13 9 9 10 10 11
REMARK SMILES IDX 11 12 12 13 8 14 6 15 5 16 7 18 3 19 4 20 2 21 1 22 22 23
REMARK SMILES IDX 23 24 24 25 25 26 26 27 27 28 28 29 29 30 30 31 31 32 32 33
REMARK SMILES IDX 90 34 33 35 89 36 34 37 35 38 36 39 83 40 37 41 88 42 82 43
REMARK SMILES IDX 84 44 38 45 87 46 81 47 80 48 39 50 69 51 50 52 68 53 51 54
REMARK SMILES IDX 54 55 67 56 85 57 52 58 53 59 66 61 86 62 55 63 40 64 41 65
REMARK SMILES IDX 49 66 42 67 48 68 43 69 44 70 45 71 46 72 47 73 70 74 71 75
REMARK SMILES IDX 79 76 72 77 78 78 73 79 74 80 75 81 76 82 77 83 56 84 57 85
REMARK SMILES IDX 65 86 58 87 64 88 59 89 60 90 61 91 62 92 63 93
REMARK H PARENT 5 17 84 49 54 60
REMARK Flexibility Score: inf
ROOT
ATOM      1  C   UNL A   1      30.510  25.374  25.783  1.00  0.00     0.188 C 
ENDROOT
BRANCH   1   2
ATOM      2  C   UNL A   1      30.704  23.868  26.047  1.00  0.00     0.188 C 
BRANCH   2   3
ATOM      3  O   UNL A   1      30.825  23.104  24.846  1.00  0.00    -0.376 OA
BRANCH   3   4
ATOM      4  C   UNL A   1      30.603  23.754  23.610  1.00  0.00     0.202 C 
BRANCH   4   5
ATOM      5  C   UNL A   1      31.830  23.806  22.698  1.00  0.00     0.261 C 
BRANCH   5   6
ATOM      6  O   UNL A   1      32.589  25.027  22.696  1.00  0.00    -0.459 OA
BRANCH   6   7
ATOM      7  C   UNL A   1      32.070  26.129  22.101  1.00  0.00     0.355 C 
ATOM      8  O   UNL A   1      31.164  26.122  21.287  1.00  0.00    -0.244 OA
BRANCH   7   9
ATOM      9  C   UNL A   1      32.744  27.316  22.568  1.00  0.00     0.128 A 
ATOM     10  N   UNL A   1      32.226  28.340  23.339  1.00  0.00    -0.333 N 
ATOM     11  C   UNL A   1      33.205  29.286  23.547  1.00  0.00     0.087 A 
ATOM     12  C   UNL A   1      34.371  28.843  22.970  1.00  0.00     0.020 A 
ATOM     13  C   UNL A   1      34.091  27.596  22.377  1.00  0.00     0.035 A 
BRANCH  10  14
ATOM     14  C   UNL A   1      30.866  28.474  23.852  1.00  0.00     0.222 C 
BRANCH  14  15
ATOM     15  C   UNL A   1      30.458  29.900  24.184  1.00  0.00     0.240 C 
ATOM     16  N   UNL A   1      29.570  30.595  23.408  1.00  0.00    -0.352 N 
ATOM     17  H   UNL A   1      29.532  31.563  23.583  1.00  0.00     0.163 HD
ATOM     18  O   UNL A   1      30.974  30.503  25.130  1.00  0.00    -0.273 OA
BRANCH  16  19
ATOM     19  C   UNL A   1      28.672  30.121  22.362  1.00  0.00     0.078 C 
ATOM     20  C   UNL A   1      28.600  31.107  21.201  1.00  0.00     0.031 C 
BRANCH  19  21
ATOM     21  C   UNL A   1      27.297  29.792  22.966  1.00  0.00     0.021 C 
ATOM     22  C   UNL A   1      27.096  28.336  23.371  1.00  0.00     0.006 C 
ENDBRANCH  19  21
ENDBRANCH  16  19
ENDBRANCH  14  15
ENDBRANCH  10  14
ENDBRANCH   7   9
ENDBRANCH   6   7
ENDBRANCH   5   6
ENDBRANCH   4   5
ENDBRANCH   3   4
ENDBRANCH   2   3
ENDBRANCH   1   2
BRANCH   1  23
ATOM     23  O   UNL A   1      30.954  26.290  26.780  1.00  0.00    -0.377 OA
BRANCH  23  24
ATOM     24  C   UNL A   1      32.225  26.890  26.572  1.00  0.00     0.188 C 
BRANCH  24  25
ATOM     25  C   UNL A   1      32.390  28.241  27.302  1.00  0.00     0.188 C 
BRANCH  25  26
ATOM     26  O   UNL A   1      33.698  28.498  27.800  1.00  0.00    -0.376 OA
BRANCH  26  27
ATOM     27  C   UNL A   1      34.556  29.383  27.090  1.00  0.00     0.202 C 
BRANCH  27  28
ATOM     28  C   UNL A   1      35.009  30.684  27.777  1.00  0.00     0.261 C 
BRANCH  28  29
ATOM     29  O   UNL A   1      35.826  30.517  28.936  1.00  0.00    -0.460 OA
BRANCH  29  30
ATOM     30  C   UNL A   1      37.076  30.986  28.823  1.00  0.00     0.338 C 
ATOM     31  O   UNL A   1      37.462  32.141  28.853  1.00  0.00    -0.246 OA
BRANCH  30  32
ATOM     32  C   UNL A   1      37.998  29.868  28.719  1.00  0.00     0.060 A 
ATOM     33  C   UNL A   1      38.378  29.240  29.911  1.00  0.00     0.016 A 
ATOM     34  C   UNL A   1      38.700  29.732  27.523  1.00  0.00     0.016 A 
ATOM     35  C   UNL A   1      39.598  28.606  29.955  1.00  0.00     0.010 A 
ATOM     36  C   UNL A   1      39.947  29.153  27.584  1.00  0.00     0.010 A 
ATOM     37  C   UNL A   1      40.409  28.672  28.818  1.00  0.00    -0.014 A 
BRANCH  37  38
ATOM     38  C   UNL A   1      41.820  28.310  28.951  1.00  0.00     0.031 A 
ATOM     39  C   UNL A   1      42.632  29.368  29.655  1.00  0.00     0.074 A 
ATOM     40  C   UNL A   1      42.168  27.103  28.412  1.00  0.00     0.049 A 
ATOM     41  N   UNL A   1      43.913  29.544  29.630  1.00  0.00    -0.248 NA
ATOM     42  C   UNL A   1      41.942  30.432  30.433  1.00  0.00     0.031 C 
ATOM     43  C   UNL A   1      41.232  26.210  27.686  1.00  0.00     0.029 A 
ATOM     44  N   UNL A   1      43.338  26.379  28.356  1.00  0.00    -0.354 N 
ATOM     45  C   UNL A   1      44.198  30.602  30.505  1.00  0.00     0.074 A 
ATOM     46  C   UNL A   1      42.947  31.182  30.886  1.00  0.00     0.031 C 
ATOM     47  C   UNL A   1      41.871  25.119  27.221  1.00  0.00     0.029 A 
ATOM     48  C   UNL A   1      43.259  25.165  27.634  1.00  0.00     0.049 A 
ATOM     49  H   UNL A   1      44.170  26.684  28.786  1.00  0.00     0.167 HD
ATOM     50  C   UNL A   1      45.448  30.849  30.977  1.00  0.00     0.031 A 
ATOM     51  C   UNL A   1      44.236  24.250  27.370  1.00  0.00     0.031 A 
ATOM     52  C   UNL A   1      46.389  29.923  30.440  1.00  0.00     0.049 A 
ATOM     53  C   UNL A   1      45.417  24.634  28.163  1.00  0.00     0.074 A 
ATOM     54  C   UNL A   1      46.933  29.767  29.191  1.00  0.00     0.029 A 
ATOM     55  N   UNL A   1      46.598  28.771  31.166  1.00  0.00    -0.354 N 
ATOM     56  N   UNL A   1      45.497  24.574  29.458  1.00  0.00    -0.248 NA
ATOM     57  C   UNL A   1      46.597  25.173  27.478  1.00  0.00     0.031 C 
ATOM     58  C   UNL A   1      47.082  28.370  29.054  1.00  0.00     0.029 A 
ATOM     59  C   UNL A   1      46.747  27.747  30.262  1.00  0.00     0.049 A 
ATOM     60  H   UNL A   1      46.633  28.696  32.147  1.00  0.00     0.167 HD
ATOM     61  C   UNL A   1      46.533  25.431  29.738  1.00  0.00     0.074 A 
ATOM     62  C   UNL A   1      47.333  25.509  28.534  1.00  0.00     0.031 C 
ATOM     63  C   UNL A   1      46.345  26.412  30.659  1.00  0.00     0.031 A 
BRANCH  50  64
ATOM     64  C   UNL A   1      45.883  31.725  32.103  1.00  0.00    -0.014 A 
ATOM     65  C   UNL A   1      46.639  32.871  31.768  1.00  0.00     0.010 A 
ATOM     66  C   UNL A   1      45.868  31.307  33.443  1.00  0.00     0.010 A 
ATOM     67  C   UNL A   1      47.451  33.502  32.706  1.00  0.00     0.020 A 
ATOM     68  C   UNL A   1      46.655  31.960  34.400  1.00  0.00     0.020 A 
ATOM     69  C   UNL A   1      47.481  33.016  34.011  1.00  0.00     0.054 A 
BRANCH  69  70
ATOM     70  S   UNL A   1      48.684  33.727  35.163  1.00  0.00     0.124 S 
ATOM     71  O   UNL A   1      49.435  32.547  35.583  1.00  0.00    -0.237 OA
ATOM     72  O   UNL A   1      49.416  34.668  34.319  1.00  0.00    -0.237 OA
ATOM     73  O   UNL A   1      47.850  34.343  36.192  1.00  0.00    -0.744 OA
ENDBRANCH  69  70
ENDBRANCH  50  64
BRANCH  51  74
ATOM     74  C   UNL A   1      44.403  23.069  26.448  1.00  0.00    -0.014 A 
ATOM     75  C   UNL A   1      45.609  22.660  25.861  1.00  0.00     0.010 A 
ATOM     76  C   UNL A   1      43.303  22.181  26.294  1.00  0.00     0.010 A 
ATOM     77  C   UNL A   1      45.741  21.382  25.277  1.00  0.00     0.020 A 
ATOM     78  C   UNL A   1      43.435  20.893  25.771  1.00  0.00     0.020 A 
ATOM     79  C   UNL A   1      44.667  20.488  25.285  1.00  0.00     0.054 A 
BRANCH  79  80
ATOM     80  S   UNL A   1      44.892  18.750  24.813  1.00  0.00     0.124 S 
ATOM     81  O   UNL A   1      43.753  18.103  25.455  1.00  0.00    -0.237 OA
ATOM     82  O   UNL A   1      44.853  18.793  23.353  1.00  0.00    -0.237 OA
ATOM     83  O   UNL A   1      46.201  18.424  25.377  1.00  0.00    -0.744 OA
ENDBRANCH  79  80
ENDBRANCH  51  74
BRANCH  63  84
ATOM     84  C   UNL A   1      45.327  26.085  31.746  1.00  0.00    -0.014 A 
ATOM     85  C   UNL A   1      44.169  26.874  31.890  1.00  0.00     0.010 A 
ATOM     86  C   UNL A   1      45.533  25.070  32.700  1.00  0.00     0.010 A 
ATOM     87  C   UNL A   1      43.268  26.672  32.948  1.00  0.00     0.020 A 
ATOM     88  C   UNL A   1      44.636  24.853  33.760  1.00  0.00     0.020 A 
ATOM     89  C   UNL A   1      43.508  25.662  33.881  1.00  0.00     0.054 A 
BRANCH  89  90
ATOM     90  S   UNL A   1      42.341  25.440  35.257  1.00  0.00     0.124 S 
ATOM     91  O   UNL A   1      42.106  23.999  35.254  1.00  0.00    -0.237 OA
ATOM     92  O   UNL A   1      43.097  25.948  36.398  1.00  0.00    -0.237 OA
ATOM     93  O   UNL A   1      41.185  26.250  34.871  1.00  0.00    -0.744 OA
ENDBRANCH  89  90
ENDBRANCH  63  84
ENDBRANCH  37  38
ENDBRANCH  30  32
ENDBRANCH  29  30
ENDBRANCH  28  29
ENDBRANCH  27  28
ENDBRANCH  26  27
ENDBRANCH  25  26
ENDBRANCH  24  25
ENDBRANCH  23  24
ENDBRANCH   1  23
TORSDOF 27
ENDMDL
MODEL 3
REMARK VINA RESULT:      -7.9      2.190      4.027
REMARK SMILES CC[C@@H](C)NC(=O)Cn1cccc1C(=O)OCCOCCOCCOCCOC(=O)c1ccc(-c2c3nc(c(-c4ccc(S(=O)(=O)[O-])cc4)c4ccc([nH]4)c(-c4ccc(S(=O)(=O)[O-])cc4)c4nc(c(-c5ccc(S(=O)(=O)[O-])cc5)c5ccc2[nH]5)C=C4)C=C3)cc1
REMARK SMILES IDX 21 1 20 2 19 3 18 4 17 5 16 6 14 7 15 8 13 9 9 10 10 11
REMARK SMILES IDX 11 12 12 13 8 14 6 15 5 16 7 18 3 19 4 20 2 21 1 22 22 23
REMARK SMILES IDX 23 24 24 25 25 26 26 27 27 28 28 29 29 30 30 31 31 32 32 33
REMARK SMILES IDX 90 34 33 35 89 36 34 37 35 38 36 39 83 40 37 41 88 42 82 43
REMARK SMILES IDX 84 44 38 45 87 46 81 47 80 48 39 50 69 51 50 52 68 53 51 54
REMARK SMILES IDX 54 55 67 56 85 57 52 58 53 59 66 61 86 62 55 63 40 64 41 65
REMARK SMILES IDX 49 66 42 67 48 68 43 69 44 70 45 71 46 72 47 73 70 74 71 75
REMARK SMILES IDX 79 76 72 77 78 78 73 79 74 80 75 81 76 82 77 83 56 84 57 85
REMARK SMILES IDX 65 86 58 87 64 88 59 89 60 90 61 91 62 92 63 93
REMARK H PARENT 5 17 84 49 54 60
REMARK Flexibility Score: inf
ROOT
ATOM      1  C   UNL A   1      34.736  32.212  28.774  1.00  0.00     0.188 C 
ENDROOT
BRANCH   1   2
ATOM      2  C   UNL A   1      34.266  31.342  27.592  1.00  0.00     0.188 C 
BRANCH   2   3
ATOM      3  O   UNL A   1      32.845  31.307  27.456  1.00  0.00    -0.376 OA
BRANCH   3   4
ATOM      4  C   UNL A   1      32.270  30.292  26.656  1.00  0.00     0.202 C 
BRANCH   4   5
ATOM      5  C   UNL A   1      32.912  28.914  26.832  1.00  0.00     0.261 C 
BRANCH   5   6
ATOM      6  O   UNL A   1      32.240  27.800  26.221  1.00  0.00    -0.459 OA
BRANCH   6   7
ATOM      7  C   UNL A   1      32.807  27.189  25.151  1.00  0.00     0.355 C 
ATOM      8  O   UNL A   1      33.920  27.431  24.719  1.00  0.00    -0.244 OA
BRANCH   7   9
ATOM      9  C   UNL A   1      31.905  26.212  24.595  1.00  0.00     0.128 A 
ATOM     10  N   UNL A   1      31.700  24.909  25.014  1.00  0.00    -0.333 N 
ATOM     11  C   UNL A   1      30.761  24.318  24.199  1.00  0.00     0.087 A 
ATOM     12  C   UNL A   1      30.311  25.253  23.298  1.00  0.00     0.020 A 
ATOM     13  C   UNL A   1      31.009  26.448  23.562  1.00  0.00     0.035 A 
BRANCH  10  14
ATOM     14  C   UNL A   1      32.360  24.208  26.110  1.00  0.00     0.222 C 
BRANCH  14  15
ATOM     15  C   UNL A   1      31.549  23.066  26.703  1.00  0.00     0.240 C 
ATOM     16  N   UNL A   1      31.795  21.761  26.374  1.00  0.00    -0.352 N 
ATOM     17  H   UNL A   1      31.094  21.124  26.642  1.00  0.00     0.163 HD
ATOM     18  O   UNL A   1      30.592  23.291  27.450  1.00  0.00    -0.273 OA
BRANCH  16  19
ATOM     19  C   UNL A   1      32.936  21.169  25.685  1.00  0.00     0.078 C 
ATOM     20  C   UNL A   1      32.610  19.773  25.165  1.00  0.00     0.031 C 
BRANCH  19  21
ATOM     21  C   UNL A   1      34.171  21.203  26.600  1.00  0.00     0.021 C 
ATOM     22  C   UNL A   1      35.493  21.487  25.896  1.00  0.00     0.006 C 
ENDBRANCH  19  21
ENDBRANCH  16  19
ENDBRANCH  14  15
ENDBRANCH  10  14
ENDBRANCH   7   9
ENDBRANCH   6   7
ENDBRANCH   5   6
ENDBRANCH   4   5
ENDBRANCH   3   4
ENDBRANCH   2   3
ENDBRANCH   1   2
BRANCH   1  23
ATOM     23  O   UNL A   1      36.127  32.500  28.883  1.00  0.00    -0.377 OA
BRANCH  23  24
ATOM     24  C   UNL A   1      36.696  32.409  30.181  1.00  0.00     0.188 C 
BRANCH  24  25
ATOM     25  C   UNL A   1      37.945  33.298  30.366  1.00  0.00     0.188 C 
BRANCH  25  26
ATOM     26  O   UNL A   1      38.780  32.940  31.462  1.00  0.00    -0.376 OA
BRANCH  26  27
ATOM     27  C   UNL A   1      38.241  32.935  32.779  1.00  0.00     0.202 C 
BRANCH  27  28
ATOM     28  C   UNL A   1      37.709  31.610  33.354  1.00  0.00     0.261 C 
BRANCH  28  29
ATOM     29  O   UNL A   1      38.299  30.425  32.820  1.00  0.00    -0.460 OA
BRANCH  29  30
ATOM     30  C   UNL A   1      37.496  29.692  32.036  1.00  0.00     0.338 C 
ATOM     31  O   UNL A   1      36.279  29.673  32.000  1.00  0.00    -0.246 OA
BRANCH  30  32
ATOM     32  C   UNL A   1      38.307  28.910  31.119  1.00  0.00     0.060 A 
ATOM     33  C   UNL A   1      39.259  28.051  31.681  1.00  0.00     0.016 A 
ATOM     34  C   UNL A   1      38.334  29.319  29.787  1.00  0.00     0.016 A 
ATOM     35  C   UNL A   1      40.373  27.738  30.940  1.00  0.00     0.010 A 
ATOM     36  C   UNL A   1      39.478  29.058  29.069  1.00  0.00     0.010 A 
ATOM     37  C   UNL A   1      40.515  28.340  29.686  1.00  0.00    -0.014 A 
BRANCH  37  38
ATOM     38  C   UNL A   1      41.826  28.295  29.038  1.00  0.00     0.031 A 
ATOM     39  C   UNL A   1      42.579  29.597  29.150  1.00  0.00     0.074 A 
ATOM     40  C   UNL A   1      42.139  27.110  28.435  1.00  0.00     0.049 A 
ATOM     41  N   UNL A   1      43.562  30.019  28.425  1.00  0.00    -0.248 NA
ATOM     42  C   UNL A   1      42.147  30.616  30.145  1.00  0.00     0.031 C 
ATOM     43  C   UNL A   1      41.231  25.939  28.367  1.00  0.00     0.029 A 
ATOM     44  N   UNL A   1      43.249  26.635  27.771  1.00  0.00    -0.354 N 
ATOM     45  C   UNL A   1      43.976  31.243  28.968  1.00  0.00     0.074 A 
ATOM     46  C   UNL A   1      43.007  31.617  29.952  1.00  0.00     0.031 C 
ATOM     47  C   UNL A   1      41.790  24.936  27.662  1.00  0.00     0.029 A 
ATOM     48  C   UNL A   1      43.123  25.327  27.248  1.00  0.00     0.049 A 
ATOM     49  H   UNL A   1      44.071  27.168  27.668  1.00  0.00     0.167 HD
ATOM     50  C   UNL A   1      45.175  31.811  28.672  1.00  0.00     0.031 A 
ATOM     51  C   UNL A   1      44.016  24.595  26.522  1.00  0.00     0.031 A 
ATOM     52  C   UNL A   1      45.901  31.015  27.739  1.00  0.00     0.049 A 
ATOM     53  C   UNL A   1      45.291  25.334  26.530  1.00  0.00     0.074 A 
ATOM     54  C   UNL A   1      45.732  30.765  26.401  1.00  0.00     0.029 A 
ATOM     55  N   UNL A   1      46.746  30.067  28.269  1.00  0.00    -0.354 N 
ATOM     56  N   UNL A   1      46.046  25.509  27.572  1.00  0.00    -0.248 NA
ATOM     57  C   UNL A   1      45.754  25.977  25.295  1.00  0.00     0.031 C 
ATOM     58  C   UNL A   1      46.144  29.424  26.249  1.00  0.00     0.029 A 
ATOM     59  C   UNL A   1      46.661  28.957  27.462  1.00  0.00     0.049 A 
ATOM     60  H   UNL A   1      47.306  30.164  29.073  1.00  0.00     0.167 HD
ATOM     61  C   UNL A   1      46.814  26.590  27.213  1.00  0.00     0.074 A 
ATOM     62  C   UNL A   1      46.817  26.625  25.766  1.00  0.00     0.031 C 
ATOM     63  C   UNL A   1      46.886  27.653  28.057  1.00  0.00     0.031 A 
BRANCH  50  64
ATOM     64  C   UNL A   1      45.889  32.932  29.350  1.00  0.00    -0.014 A 
ATOM     65  C   UNL A   1      46.830  33.651  28.580  1.00  0.00     0.010 A 
ATOM     66  C   UNL A   1      45.917  33.083  30.745  1.00  0.00     0.010 A 
ATOM     67  C   UNL A   1      47.842  34.394  29.182  1.00  0.00     0.020 A 
ATOM     68  C   UNL A   1      46.911  33.858  31.356  1.00  0.00     0.020 A 
ATOM     69  C   UNL A   1      47.897  34.460  30.572  1.00  0.00     0.054 A 
BRANCH  69  70
ATOM     70  S   UNL A   1      49.326  35.268  31.335  1.00  0.00     0.124 S 
ATOM     71  O   UNL A   1      50.292  35.274  30.241  1.00  0.00    -0.237 OA
ATOM     72  O   UNL A   1      48.793  36.576  31.707  1.00  0.00    -0.237 OA
ATOM     73  O   UNL A   1      49.653  34.395  32.461  1.00  0.00    -0.744 OA
ENDBRANCH  69  70
ENDBRANCH  50  64
BRANCH  51  74
ATOM     74  C   UNL A   1      43.978  23.335  25.696  1.00  0.00    -0.014 A 
ATOM     75  C   UNL A   1      44.636  23.144  24.474  1.00  0.00     0.010 A 
ATOM     76  C   UNL A   1      43.383  22.178  26.272  1.00  0.00     0.010 A 
ATOM     77  C   UNL A   1      44.807  21.852  23.930  1.00  0.00     0.020 A 
ATOM     78  C   UNL A   1      43.595  20.890  25.775  1.00  0.00     0.020 A 
ATOM     79  C   UNL A   1      44.331  20.730  24.613  1.00  0.00     0.054 A 
BRANCH  79  80
ATOM     80  S   UNL A   1      44.791  19.053  24.093  1.00  0.00     0.124 S 
ATOM     81  O   UNL A   1      44.724  19.148  22.639  1.00  0.00    -0.237 OA
ATOM     82  O   UNL A   1      46.130  18.885  24.654  1.00  0.00    -0.237 OA
ATOM     83  O   UNL A   1      43.762  18.223  24.718  1.00  0.00    -0.744 OA
ENDBRANCH  79  80
ENDBRANCH  51  74
BRANCH  63  84
ATOM     84  C   UNL A   1      46.709  27.316  29.532  1.00  0.00    -0.014 A 
ATOM     85  C   UNL A   1      45.426  27.340  30.114  1.00  0.00     0.010 A 
ATOM     86  C   UNL A   1      47.798  27.068  30.391  1.00  0.00     0.010 A 
ATOM     87  C   UNL A   1      45.240  27.144  31.492  1.00  0.00     0.020 A 
ATOM     88  C   UNL A   1      47.624  26.865  31.772  1.00  0.00     0.020 A 
ATOM     89  C   UNL A   1      46.342  26.910  32.316  1.00  0.00     0.054 A 
BRANCH  89  90
ATOM     90  S   UNL A   1      46.074  26.689  34.100  1.00  0.00     0.124 S 
ATOM     91  O   UNL A   1      44.840  27.432  34.337  1.00  0.00    -0.237 OA
ATOM     92  O   UNL A   1      45.964  25.238  34.226  1.00  0.00    -0.237 OA
ATOM     93  O   UNL A   1      47.269  27.274  34.709  1.00  0.00    -0.744 OA
ENDBRANCH  89  90
ENDBRANCH  63  84
ENDBRANCH  37  38
ENDBRANCH  30  32
ENDBRANCH  29  30
ENDBRANCH  28  29
ENDBRANCH  27  28
ENDBRANCH  26  27
ENDBRANCH  25  26
ENDBRANCH  24  25
ENDBRANCH  23  24
ENDBRANCH   1  23
TORSDOF 27
ENDMDL
