MODEL 1
REMARK VINA RESULT:      -8.4      0.000      0.000
REMARK SMILES Cc1[nH]cnc1C[NH+]1CCC(Oc2cccc(F)c2)(C(=O)OCCOCCOCCOCCOC(=O)c2ccc(-c3c4nc(c(-c5ccc(S(=O)(=O)[O-])cc5)c5ccc([nH]5)c(-c5ccc(S(=O)(=O)[O-])cc5)c5nc(c(-c6ccc(S(=O)(=O)[O-])cc6)c6ccc3[nH]6)C=C5)C=C4)cc2)CC1
REMARK SMILES IDX 29 1 28 2 27 3 26 4 25 5 24 6 23 7 22 8 20 9 21 10 11 11
REMARK SMILES IDX 8 12 9 13 98 14 10 16 97 17 7 18 6 19 1 20 2 21 3 22 4 23
REMARK SMILES IDX 5 25 12 26 13 27 14 28 19 29 15 30 17 31 16 32 18 33 30 34
REMARK SMILES IDX 31 35 32 36 33 37 34 38 35 39 36 40 37 41 38 42 96 43 39 44
REMARK SMILES IDX 95 45 40 46 41 47 42 48 89 49 43 50 94 51 88 52 90 53 44 54
REMARK SMILES IDX 93 55 87 56 86 57 45 59 75 60 56 61 74 62 57 63 60 64 73 65
REMARK SMILES IDX 91 66 58 67 59 68 72 70 92 71 61 72 46 73 47 74 55 75 48 76
REMARK SMILES IDX 54 77 49 78 50 79 51 80 52 81 53 82 76 83 77 84 85 85 78 86
REMARK SMILES IDX 84 87 79 88 80 89 81 90 82 91 83 92 62 93 63 94 71 95 64 96
REMARK SMILES IDX 70 97 65 98 66 99 67 100 68 101 69 102
REMARK H PARENT 8 15 3 24 90 58 60 69
REMARK Flexibility Score: inf
ROOT
ATOM      1  C   UNL A   1      33.065  28.152  26.382  1.00  0.00     0.188 C 
ENDROOT
BRANCH   1   2
ATOM      2  O   UNL A   1      31.800  28.551  25.860  1.00  0.00    -0.377 OA
BRANCH   2   3
ATOM      3  C   UNL A   1      31.666  28.959  24.509  1.00  0.00     0.188 C 
BRANCH   3   4
ATOM      4  C   UNL A   1      30.422  28.617  23.697  1.00  0.00     0.188 C 
BRANCH   4   5
ATOM      5  O   UNL A   1      29.588  27.572  24.131  1.00  0.00    -0.376 OA
BRANCH   5   6
ATOM      6  C   UNL A   1      30.078  26.239  24.065  1.00  0.00     0.202 C 
BRANCH   6   7
ATOM      7  C   UNL A   1      30.606  25.503  25.317  1.00  0.00     0.261 C 
BRANCH   7   8
ATOM      8  O   UNL A   1      31.283  24.233  25.118  1.00  0.00    -0.460 OA
BRANCH   8   9
ATOM      9  C   UNL A   1      32.504  24.082  25.705  1.00  0.00     0.351 C 
ATOM     10  O   UNL A   1      32.841  24.739  26.690  1.00  0.00    -0.247 OA
BRANCH   9  11
ATOM     11  C   UNL A   1      33.478  23.094  24.993  1.00  0.00     0.216 C 
ATOM     12  N   UNL A   1      33.179  20.145  25.408  1.00  0.00    -0.330 N 
ATOM     13  C   UNL A   1      32.528  20.721  24.243  1.00  0.00     0.267 C 
ATOM     14  C   UNL A   1      33.360  21.051  26.533  1.00  0.00     0.267 C 
ATOM     15  H   UNL A   1      34.136  20.000  25.089  1.00  0.00     0.348 HD
ATOM     16  C   UNL A   1      32.952  22.163  23.874  1.00  0.00     0.122 C 
ATOM     17  C   UNL A   1      34.187  22.262  26.089  1.00  0.00     0.122 C 
BRANCH  12  18
ATOM     18  C   UNL A   1      32.735  18.778  25.759  1.00  0.00     0.321 C 
BRANCH  18  19
ATOM     19  C   UNL A   1      33.314  17.612  24.983  1.00  0.00     0.115 A 
ATOM     20  C   UNL A   1      32.139  15.460  25.987  1.00  0.00     0.066 C 
ATOM     21  C   UNL A   1      33.006  16.256  25.085  1.00  0.00     0.040 A 
ATOM     22  N   UNL A   1      33.718  15.647  24.075  1.00  0.00    -0.348 N 
ATOM     23  C   UNL A   1      34.400  16.617  23.403  1.00  0.00     0.197 A 
ATOM     24  H   UNL A   1      33.732  14.683  23.875  1.00  0.00     0.167 HD
ATOM     25  N   UNL A   1      34.178  17.803  23.918  1.00  0.00    -0.236 NA
ENDBRANCH  18  19
ENDBRANCH  12  18
BRANCH  11  26
ATOM     26  O   UNL A   1      34.293  24.158  24.379  1.00  0.00    -0.475 OA
BRANCH  26  27
ATOM     27  C   UNL A   1      33.827  24.732  23.236  1.00  0.00     0.123 A 
ATOM     28  C   UNL A   1      33.308  23.942  22.210  1.00  0.00     0.047 A 
ATOM     29  C   UNL A   1      33.749  26.119  23.162  1.00  0.00     0.085 A 
ATOM     30  C   UNL A   1      32.815  24.536  21.049  1.00  0.00     0.007 A 
ATOM     31  C   UNL A   1      33.238  26.703  22.009  1.00  0.00     0.126 A 
ATOM     32  C   UNL A   1      32.789  25.925  20.945  1.00  0.00     0.039 A 
ATOM     33  F   UNL A   1      33.171  28.038  21.921  1.00  0.00    -0.207 F 
ENDBRANCH  26  27
ENDBRANCH  11  26
ENDBRANCH   9  11
ENDBRANCH   8   9
ENDBRANCH   7   8
ENDBRANCH   6   7
ENDBRANCH   5   6
ENDBRANCH   4   5
ENDBRANCH   3   4
ENDBRANCH   2   3
ENDBRANCH   1   2
BRANCH   1  34
ATOM     34  C   UNL A   1      33.650  29.013  27.493  1.00  0.00     0.188 C 
BRANCH  34  35
ATOM     35  O   UNL A   1      33.191  30.364  27.589  1.00  0.00    -0.376 OA
BRANCH  35  36
ATOM     36  C   UNL A   1      34.081  31.430  27.278  1.00  0.00     0.202 C 
BRANCH  36  37
ATOM     37  C   UNL A   1      33.720  32.705  28.020  1.00  0.00     0.261 C 
BRANCH  37  38
ATOM     38  O   UNL A   1      34.041  32.526  29.394  1.00  0.00    -0.460 OA
BRANCH  38  39
ATOM     39  C   UNL A   1      34.092  33.693  30.077  1.00  0.00     0.338 C 
ATOM     40  O   UNL A   1      33.372  34.661  29.957  1.00  0.00    -0.246 OA
BRANCH  39  41
ATOM     41  C   UNL A   1      35.080  33.513  31.149  1.00  0.00     0.060 A 
ATOM     42  C   UNL A   1      36.207  34.338  31.126  1.00  0.00     0.016 A 
ATOM     43  C   UNL A   1      34.907  32.531  32.131  1.00  0.00     0.016 A 
ATOM     44  C   UNL A   1      37.225  34.111  32.032  1.00  0.00     0.010 A 
ATOM     45  C   UNL A   1      35.933  32.292  33.031  1.00  0.00     0.010 A 
ATOM     46  C   UNL A   1      37.115  33.037  32.924  1.00  0.00    -0.014 A 
BRANCH  46  47
ATOM     47  C   UNL A   1      38.357  32.524  33.517  1.00  0.00     0.031 A 
ATOM     48  C   UNL A   1      39.260  31.716  32.628  1.00  0.00     0.074 A 
ATOM     49  C   UNL A   1      38.688  32.869  34.767  1.00  0.00     0.049 A 
ATOM     50  N   UNL A   1      40.429  31.201  32.892  1.00  0.00    -0.248 NA
ATOM     51  C   UNL A   1      38.787  31.459  31.254  1.00  0.00     0.031 C 
ATOM     52  C   UNL A   1      37.878  33.705  35.655  1.00  0.00     0.029 A 
ATOM     53  N   UNL A   1      39.803  32.573  35.497  1.00  0.00    -0.354 N 
ATOM     54  C   UNL A   1      40.823  30.555  31.726  1.00  0.00     0.074 A 
ATOM     55  C   UNL A   1      39.764  30.716  30.760  1.00  0.00     0.031 C 
ATOM     56  C   UNL A   1      38.531  33.856  36.820  1.00  0.00     0.029 A 
ATOM     57  C   UNL A   1      39.778  33.100  36.763  1.00  0.00     0.049 A 
ATOM     58  H   UNL A   1      40.549  32.033  35.151  1.00  0.00     0.167 HD
ATOM     59  C   UNL A   1      41.976  29.890  31.491  1.00  0.00     0.031 A 
ATOM     60  C   UNL A   1      40.667  32.962  37.762  1.00  0.00     0.031 A 
ATOM     61  C   UNL A   1      43.004  29.739  32.482  1.00  0.00     0.049 A 
ATOM     62  C   UNL A   1      41.915  32.164  37.492  1.00  0.00     0.074 A 
ATOM     63  C   UNL A   1      44.218  29.088  32.375  1.00  0.00     0.029 A 
ATOM     64  N   UNL A   1      42.931  30.248  33.773  1.00  0.00    -0.354 N 
ATOM     65  N   UNL A   1      42.284  31.560  36.385  1.00  0.00    -0.248 NA
ATOM     66  C   UNL A   1      42.873  32.047  38.595  1.00  0.00     0.031 C 
ATOM     67  C   UNL A   1      44.848  29.145  33.622  1.00  0.00     0.029 A 
ATOM     68  C   UNL A   1      44.066  29.903  34.481  1.00  0.00     0.049 A 
ATOM     69  H   UNL A   1      42.181  30.777  34.129  1.00  0.00     0.167 HD
ATOM     70  C   UNL A   1      43.536  31.017  36.648  1.00  0.00     0.074 A 
ATOM     71  C   UNL A   1      43.863  31.384  38.013  1.00  0.00     0.031 C 
ATOM     72  C   UNL A   1      44.348  30.285  35.842  1.00  0.00     0.031 A 
BRANCH  59  73
ATOM     73  C   UNL A   1      42.150  29.236  30.146  1.00  0.00    -0.014 A 
ATOM     74  C   UNL A   1      42.689  29.932  29.048  1.00  0.00     0.010 A 
ATOM     75  C   UNL A   1      41.798  27.883  29.989  1.00  0.00     0.010 A 
ATOM     76  C   UNL A   1      42.851  29.291  27.815  1.00  0.00     0.020 A 
ATOM     77  C   UNL A   1      41.986  27.232  28.768  1.00  0.00     0.020 A 
ATOM     78  C   UNL A   1      42.503  27.943  27.685  1.00  0.00     0.054 A 
BRANCH  78  79
ATOM     79  S   UNL A   1      42.774  27.123  26.090  1.00  0.00     0.124 S 
ATOM     80  O   UNL A   1      41.407  26.891  25.631  1.00  0.00    -0.237 OA
ATOM     81  O   UNL A   1      43.526  28.126  25.341  1.00  0.00    -0.237 OA
ATOM     82  O   UNL A   1      43.524  25.920  26.441  1.00  0.00    -0.744 OA
ENDBRANCH  78  79
ENDBRANCH  59  73
BRANCH  60  83
ATOM     83  C   UNL A   1      40.390  33.561  39.094  1.00  0.00    -0.014 A 
ATOM     84  C   UNL A   1      40.867  34.839  39.433  1.00  0.00     0.010 A 
ATOM     85  C   UNL A   1      39.628  32.845  40.037  1.00  0.00     0.010 A 
ATOM     86  C   UNL A   1      40.614  35.374  40.700  1.00  0.00     0.020 A 
ATOM     87  C   UNL A   1      39.345  33.390  41.291  1.00  0.00     0.020 A 
ATOM     88  C   UNL A   1      39.855  34.645  41.620  1.00  0.00     0.054 A 
BRANCH  88  89
ATOM     89  S   UNL A   1      39.520  35.370  43.249  1.00  0.00     0.124 S 
ATOM     90  O   UNL A   1      39.365  36.785  42.925  1.00  0.00    -0.237 OA
ATOM     91  O   UNL A   1      38.300  34.676  43.656  1.00  0.00    -0.237 OA
ATOM     92  O   UNL A   1      40.709  35.031  44.026  1.00  0.00    -0.744 OA
ENDBRANCH  88  89
ENDBRANCH  60  83
BRANCH  72  93
ATOM     93  C   UNL A   1      45.683  29.885  36.408  1.00  0.00    -0.014 A 
ATOM     94  C   UNL A   1      45.860  28.669  37.091  1.00  0.00     0.010 A 
ATOM     95  C   UNL A   1      46.786  30.741  36.227  1.00  0.00     0.010 A 
ATOM     96  C   UNL A   1      47.104  28.345  37.636  1.00  0.00     0.020 A 
ATOM     97  C   UNL A   1      48.039  30.400  36.735  1.00  0.00     0.020 A 
ATOM     98  C   UNL A   1      48.183  29.216  37.459  1.00  0.00     0.054 A 
BRANCH  98  99
ATOM     99  S   UNL A   1      49.788  28.771  38.174  1.00  0.00     0.124 S 
ATOM    100  O   UNL A   1      50.633  28.688  36.986  1.00  0.00    -0.237 OA
ATOM    101  O   UNL A   1      50.064  29.896  39.064  1.00  0.00    -0.237 OA
ATOM    102  O   UNL A   1      49.529  27.501  38.845  1.00  0.00    -0.744 OA
ENDBRANCH  98  99
ENDBRANCH  72  93
ENDBRANCH  46  47
ENDBRANCH  39  41
ENDBRANCH  38  39
ENDBRANCH  37  38
ENDBRANCH  36  37
ENDBRANCH  35  36
ENDBRANCH  34  35
ENDBRANCH   1  34
TORSDOF 27
ENDMDL
MODEL 2
REMARK VINA RESULT:      -8.4      2.229      3.626
REMARK SMILES Cc1[nH]cnc1C[NH+]1CCC(Oc2cccc(F)c2)(C(=O)OCCOCCOCCOCCOC(=O)c2ccc(-c3c4nc(c(-c5ccc(S(=O)(=O)[O-])cc5)c5ccc([nH]5)c(-c5ccc(S(=O)(=O)[O-])cc5)c5nc(c(-c6ccc(S(=O)(=O)[O-])cc6)c6ccc3[nH]6)C=C5)C=C4)cc2)CC1
REMARK SMILES IDX 29 1 28 2 27 3 26 4 25 5 24 6 23 7 22 8 20 9 21 10 11 11
REMARK SMILES IDX 8 12 9 13 98 14 10 16 97 17 7 18 6 19 1 20 2 21 3 22 4 23
REMARK SMILES IDX 5 25 12 26 13 27 14 28 19 29 15 30 17 31 16 32 18 33 30 34
REMARK SMILES IDX 31 35 32 36 33 37 34 38 35 39 36 40 37 41 38 42 96 43 39 44
REMARK SMILES IDX 95 45 40 46 41 47 42 48 89 49 43 50 94 51 88 52 90 53 44 54
REMARK SMILES IDX 93 55 87 56 86 57 45 59 75 60 56 61 74 62 57 63 60 64 73 65
REMARK SMILES IDX 91 66 58 67 59 68 72 70 92 71 61 72 46 73 47 74 55 75 48 76
REMARK SMILES IDX 54 77 49 78 50 79 51 80 52 81 53 82 76 83 77 84 85 85 78 86
REMARK SMILES IDX 84 87 79 88 80 89 81 90 82 91 83 92 62 93 63 94 71 95 64 96
REMARK SMILES IDX 70 97 65 98 66 99 67 100 68 101 69 102
REMARK H PARENT 8 15 3 24 90 58 60 69
REMARK Flexibility Score: inf
ROOT
ATOM      1  C   UNL A   1      33.469  27.968  25.941  1.00  0.00     0.188 C 
ENDROOT
BRANCH   1   2
ATOM      2  O   UNL A   1      32.581  28.693  25.093  1.00  0.00    -0.377 OA
BRANCH   2   3
ATOM      3  C   UNL A   1      32.284  28.230  23.786  1.00  0.00     0.188 C 
BRANCH   3   4
ATOM      4  C   UNL A   1      32.230  26.741  23.465  1.00  0.00     0.188 C 
BRANCH   4   5
ATOM      5  O   UNL A   1      32.169  26.333  22.120  1.00  0.00    -0.376 OA
BRANCH   5   6
ATOM      6  C   UNL A   1      33.002  25.262  21.697  1.00  0.00     0.202 C 
BRANCH   6   7
ATOM      7  C   UNL A   1      34.206  24.785  22.540  1.00  0.00     0.261 C 
BRANCH   7   8
ATOM      8  O   UNL A   1      34.319  23.362  22.810  1.00  0.00    -0.460 OA
BRANCH   8   9
ATOM      9  C   UNL A   1      35.539  22.901  23.207  1.00  0.00     0.351 C 
ATOM     10  O   UNL A   1      36.489  22.812  22.428  1.00  0.00    -0.247 OA
BRANCH   9  11
ATOM     11  C   UNL A   1      35.628  22.408  24.683  1.00  0.00     0.216 C 
ATOM     12  N   UNL A   1      38.133  22.852  26.259  1.00  0.00    -0.330 N 
ATOM     13  C   UNL A   1      37.076  23.841  26.398  1.00  0.00     0.267 C 
ATOM     14  C   UNL A   1      38.155  22.139  24.990  1.00  0.00     0.267 C 
ATOM     15  H   UNL A   1      37.854  22.123  26.914  1.00  0.00     0.348 HD
ATOM     16  C   UNL A   1      35.692  23.436  25.838  1.00  0.00     0.122 C 
ATOM     17  C   UNL A   1      36.817  21.422  24.779  1.00  0.00     0.122 C 
BRANCH  12  18
ATOM     18  C   UNL A   1      39.454  23.274  26.774  1.00  0.00     0.321 C 
BRANCH  18  19
ATOM     19  C   UNL A   1      40.436  22.201  27.202  1.00  0.00     0.115 A 
ATOM     20  C   UNL A   1      42.262  23.469  28.644  1.00  0.00     0.066 C 
ATOM     21  C   UNL A   1      41.564  22.323  28.012  1.00  0.00     0.040 A 
ATOM     22  N   UNL A   1      42.022  21.036  28.189  1.00  0.00    -0.348 N 
ATOM     23  C   UNL A   1      41.181  20.199  27.519  1.00  0.00     0.197 A 
ATOM     24  H   UNL A   1      42.817  20.769  28.706  1.00  0.00     0.167 HD
ATOM     25  N   UNL A   1      40.220  20.863  26.921  1.00  0.00    -0.236 NA
ENDBRANCH  18  19
ENDBRANCH  12  18
BRANCH  11  26
ATOM     26  O   UNL A   1      34.290  21.787  24.677  1.00  0.00    -0.475 OA
BRANCH  26  27
ATOM     27  C   UNL A   1      33.429  22.128  25.674  1.00  0.00     0.123 A 
ATOM     28  C   UNL A   1      33.758  21.878  27.007  1.00  0.00     0.047 A 
ATOM     29  C   UNL A   1      32.283  22.851  25.358  1.00  0.00     0.085 A 
ATOM     30  C   UNL A   1      32.880  22.246  28.026  1.00  0.00     0.007 A 
ATOM     31  C   UNL A   1      31.424  23.231  26.381  1.00  0.00     0.126 A 
ATOM     32  C   UNL A   1      31.702  22.919  27.709  1.00  0.00     0.039 A 
ATOM     33  F   UNL A   1      30.311  23.916  26.087  1.00  0.00    -0.207 F 
ENDBRANCH  26  27
ENDBRANCH  11  26
ENDBRANCH   9  11
ENDBRANCH   8   9
ENDBRANCH   7   8
ENDBRANCH   6   7
ENDBRANCH   5   6
ENDBRANCH   4   5
ENDBRANCH   3   4
ENDBRANCH   2   3
ENDBRANCH   1   2
BRANCH   1  34
ATOM     34  C   UNL A   1      33.995  28.701  27.167  1.00  0.00     0.188 C 
BRANCH  34  35
ATOM     35  O   UNL A   1      33.510  30.026  27.400  1.00  0.00    -0.376 OA
BRANCH  35  36
ATOM     36  C   UNL A   1      34.419  31.120  27.374  1.00  0.00     0.202 C 
BRANCH  36  37
ATOM     37  C   UNL A   1      33.936  32.280  28.227  1.00  0.00     0.261 C 
BRANCH  37  38
ATOM     38  O   UNL A   1      34.546  32.176  29.507  1.00  0.00    -0.460 OA
BRANCH  38  39
ATOM     39  C   UNL A   1      34.464  33.323  30.221  1.00  0.00     0.338 C 
ATOM     40  O   UNL A   1      33.650  34.214  30.113  1.00  0.00    -0.246 OA
BRANCH  39  41
ATOM     41  C   UNL A   1      35.449  33.216  31.306  1.00  0.00     0.060 A 
ATOM     42  C   UNL A   1      36.588  34.020  31.219  1.00  0.00     0.016 A 
ATOM     43  C   UNL A   1      35.260  32.319  32.364  1.00  0.00     0.016 A 
ATOM     44  C   UNL A   1      37.602  33.852  32.142  1.00  0.00     0.010 A 
ATOM     45  C   UNL A   1      36.283  32.139  33.283  1.00  0.00     0.010 A 
ATOM     46  C   UNL A   1      37.475  32.855  33.118  1.00  0.00    -0.014 A 
BRANCH  46  47
ATOM     47  C   UNL A   1      38.709  32.375  33.753  1.00  0.00     0.031 A 
ATOM     48  C   UNL A   1      39.639  31.550  32.909  1.00  0.00     0.074 A 
ATOM     49  C   UNL A   1      39.009  32.760  34.999  1.00  0.00     0.049 A 
ATOM     50  N   UNL A   1      40.807  31.055  33.214  1.00  0.00    -0.248 NA
ATOM     51  C   UNL A   1      39.199  31.246  31.534  1.00  0.00     0.031 C 
ATOM     52  C   UNL A   1      38.171  33.615  35.843  1.00  0.00     0.029 A 
ATOM     53  N   UNL A   1      40.110  32.499  35.762  1.00  0.00    -0.354 N 
ATOM     54  C   UNL A   1      41.234  30.379  32.077  1.00  0.00     0.074 A 
ATOM     55  C   UNL A   1      40.195  30.499  31.084  1.00  0.00     0.031 C 
ATOM     56  C   UNL A   1      38.797  33.808  37.016  1.00  0.00     0.029 A 
ATOM     57  C   UNL A   1      40.053  33.065  37.010  1.00  0.00     0.049 A 
ATOM     58  H   UNL A   1      40.870  31.957  35.448  1.00  0.00     0.167 HD
ATOM     59  C   UNL A   1      42.398  29.719  31.887  1.00  0.00     0.031 A 
ATOM     60  C   UNL A   1      40.921  32.966  38.032  1.00  0.00     0.031 A 
ATOM     61  C   UNL A   1      43.406  29.610  32.905  1.00  0.00     0.049 A 
ATOM     62  C   UNL A   1      42.182  32.174  37.813  1.00  0.00     0.074 A 
ATOM     63  C   UNL A   1      44.628  28.969  32.844  1.00  0.00     0.029 A 
ATOM     64  N   UNL A   1      43.299  30.156  34.178  1.00  0.00    -0.354 N 
ATOM     65  N   UNL A   1      42.582  31.540  36.733  1.00  0.00    -0.248 NA
ATOM     66  C   UNL A   1      43.117  32.100  38.940  1.00  0.00     0.031 C 
ATOM     67  C   UNL A   1      45.230  29.071  34.102  1.00  0.00     0.029 A 
ATOM     68  C   UNL A   1      44.422  29.846  34.921  1.00  0.00     0.049 A 
ATOM     69  H   UNL A   1      42.536  30.688  34.501  1.00  0.00     0.167 HD
ATOM     70  C   UNL A   1      43.833  31.020  37.041  1.00  0.00     0.074 A 
ATOM     71  C   UNL A   1      44.126  31.432  38.400  1.00  0.00     0.031 C 
ATOM     72  C   UNL A   1      44.670  30.272  36.275  1.00  0.00     0.031 A 
BRANCH  59  73
ATOM     73  C   UNL A   1      42.608  29.027  30.567  1.00  0.00    -0.014 A 
ATOM     74  C   UNL A   1      42.177  27.706  30.346  1.00  0.00     0.010 A 
ATOM     75  C   UNL A   1      43.222  29.729  29.513  1.00  0.00     0.010 A 
ATOM     76  C   UNL A   1      42.374  27.095  29.103  1.00  0.00     0.020 A 
ATOM     77  C   UNL A   1      43.394  29.133  28.262  1.00  0.00     0.020 A 
ATOM     78  C   UNL A   1      42.978  27.816  28.067  1.00  0.00     0.054 A 
BRANCH  78  79
ATOM     79  S   UNL A   1      43.172  27.018  26.450  1.00  0.00     0.124 S 
ATOM     80  O   UNL A   1      43.466  28.156  25.583  1.00  0.00    -0.237 OA
ATOM     81  O   UNL A   1      44.284  26.100  26.680  1.00  0.00    -0.237 OA
ATOM     82  O   UNL A   1      41.878  26.379  26.219  1.00  0.00    -0.744 OA
ENDBRANCH  78  79
ENDBRANCH  59  73
BRANCH  60  83
ATOM     83  C   UNL A   1      40.608  33.603  39.339  1.00  0.00    -0.014 A 
ATOM     84  C   UNL A   1      39.840  32.937  40.309  1.00  0.00     0.010 A 
ATOM     85  C   UNL A   1      41.093  34.895  39.620  1.00  0.00     0.010 A 
ATOM     86  C   UNL A   1      39.537  33.563  41.522  1.00  0.00     0.020 A 
ATOM     87  C   UNL A   1      40.821  35.510  40.843  1.00  0.00     0.020 A 
ATOM     88  C   UNL A   1      40.031  34.846  41.781  1.00  0.00     0.054 A 
BRANCH  88  89
ATOM     89  S   UNL A   1      39.646  35.629  43.371  1.00  0.00     0.124 S 
ATOM     90  O   UNL A   1      40.930  35.565  44.059  1.00  0.00    -0.237 OA
ATOM     91  O   UNL A   1      39.209  36.964  42.966  1.00  0.00    -0.237 OA
ATOM     92  O   UNL A   1      38.594  34.780  43.924  1.00  0.00    -0.744 OA
ENDBRANCH  88  89
ENDBRANCH  60  83
BRANCH  72  93
ATOM     93  C   UNL A   1      45.997  29.904  36.882  1.00  0.00    -0.014 A 
ATOM     94  C   UNL A   1      46.176  28.701  37.588  1.00  0.00     0.010 A 
ATOM     95  C   UNL A   1      47.089  30.775  36.715  1.00  0.00     0.010 A 
ATOM     96  C   UNL A   1      47.410  28.408  38.170  1.00  0.00     0.020 A 
ATOM     97  C   UNL A   1      48.334  30.464  37.261  1.00  0.00     0.020 A 
ATOM     98  C   UNL A   1      48.479  29.294  38.008  1.00  0.00     0.054 A 
BRANCH  98  99
ATOM     99  S   UNL A   1      50.072  28.889  38.770  1.00  0.00     0.124 S 
ATOM    100  O   UNL A   1      49.954  27.446  38.964  1.00  0.00    -0.237 OA
ATOM    101  O   UNL A   1      51.030  29.311  37.752  1.00  0.00    -0.237 OA
ATOM    102  O   UNL A   1      50.082  29.683  39.996  1.00  0.00    -0.744 OA
ENDBRANCH  98  99
ENDBRANCH  72  93
ENDBRANCH  46  47
ENDBRANCH  39  41
ENDBRANCH  38  39
ENDBRANCH  37  38
ENDBRANCH  36  37
ENDBRANCH  35  36
ENDBRANCH  34  35
ENDBRANCH   1  34
TORSDOF 27
ENDMDL
MODEL 3
REMARK VINA RESULT:      -7.8      7.661     11.917
REMARK SMILES Cc1[nH]cnc1C[NH+]1CCC(Oc2cccc(F)c2)(C(=O)OCCOCCOCCOCCOC(=O)c2ccc(-c3c4nc(c(-c5ccc(S(=O)(=O)[O-])cc5)c5ccc([nH]5)c(-c5ccc(S(=O)(=O)[O-])cc5)c5nc(c(-c6ccc(S(=O)(=O)[O-])cc6)c6ccc3[nH]6)C=C5)C=C4)cc2)CC1
REMARK SMILES IDX 29 1 28 2 27 3 26 4 25 5 24 6 23 7 22 8 20 9 21 10 11 11
REMARK SMILES IDX 8 12 9 13 98 14 10 16 97 17 7 18 6 19 1 20 2 21 3 22 4 23
REMARK SMILES IDX 5 25 12 26 13 27 14 28 19 29 15 30 17 31 16 32 18 33 30 34
REMARK SMILES IDX 31 35 32 36 33 37 34 38 35 39 36 40 37 41 38 42 96 43 39 44
REMARK SMILES IDX 95 45 40 46 41 47 42 48 89 49 43 50 94 51 88 52 90 53 44 54
REMARK SMILES IDX 93 55 87 56 86 57 45 59 75 60 56 61 74 62 57 63 60 64 73 65
REMARK SMILES IDX 91 66 58 67 59 68 72 70 92 71 61 72 46 73 47 74 55 75 48 76
REMARK SMILES IDX 54 77 49 78 50 79 51 80 52 81 53 82 76 83 77 84 85 85 78 86
REMARK SMILES IDX 84 87 79 88 80 89 81 90 82 91 83 92 62 93 63 94 71 95 64 96
REMARK SMILES IDX 70 97 65 98 66 99 67 100 68 101 69 102
REMARK H PARENT 8 15 3 24 90 58 60 69
REMARK Flexibility Score: inf
ROOT
ATOM      1  C   UNL A   1      39.997  29.171  28.894  1.00  0.00     0.188 C 
ENDROOT
BRANCH   1   2
ATOM      2  O   UNL A   1      40.908  28.109  29.166  1.00  0.00    -0.377 OA
BRANCH   2   3
ATOM      3  C   UNL A   1      41.878  27.720  28.209  1.00  0.00     0.188 C 
BRANCH   3   4
ATOM      4  C   UNL A   1      43.224  27.142  28.633  1.00  0.00     0.188 C 
BRANCH   4   5
ATOM      5  O   UNL A   1      44.405  27.759  28.185  1.00  0.00    -0.376 OA
BRANCH   5   6
ATOM      6  C   UNL A   1      44.319  28.701  27.123  1.00  0.00     0.202 C 
BRANCH   6   7
ATOM      7  C   UNL A   1      45.556  29.484  26.630  1.00  0.00     0.261 C 
BRANCH   7   8
ATOM      8  O   UNL A   1      46.809  28.760  26.508  1.00  0.00    -0.460 OA
BRANCH   8   9
ATOM      9  C   UNL A   1      47.122  28.264  25.277  1.00  0.00     0.351 C 
ATOM     10  O   UNL A   1      46.658  28.743  24.243  1.00  0.00    -0.247 OA
BRANCH   9  11
ATOM     11  C   UNL A   1      48.029  26.995  25.272  1.00  0.00     0.216 C 
ATOM     12  N   UNL A   1      50.563  26.978  23.679  1.00  0.00    -0.330 N 
ATOM     13  C   UNL A   1      50.663  27.339  25.084  1.00  0.00     0.267 C 
ATOM     14  C   UNL A   1      49.280  27.262  23.053  1.00  0.00     0.267 C 
ATOM     15  H   UNL A   1      50.574  25.959  23.702  1.00  0.00     0.348 HD
ATOM     16  C   UNL A   1      49.418  27.036  25.952  1.00  0.00     0.122 C 
ATOM     17  C   UNL A   1      48.167  26.523  23.804  1.00  0.00     0.122 C 
BRANCH  12  18
ATOM     18  C   UNL A   1      51.754  27.305  22.864  1.00  0.00     0.321 C 
BRANCH  18  19
ATOM     19  C   UNL A   1      51.620  27.287  21.354  1.00  0.00     0.115 A 
ATOM     20  C   UNL A   1      50.941  29.761  20.690  1.00  0.00     0.066 C 
ATOM     21  C   UNL A   1      51.320  28.341  20.492  1.00  0.00     0.040 A 
ATOM     22  N   UNL A   1      51.447  27.817  19.225  1.00  0.00    -0.348 N 
ATOM     23  C   UNL A   1      51.822  26.513  19.348  1.00  0.00     0.197 A 
ATOM     24  H   UNL A   1      51.293  28.299  18.379  1.00  0.00     0.167 HD
ATOM     25  N   UNL A   1      51.937  26.165  20.608  1.00  0.00    -0.236 NA
ENDBRANCH  18  19
ENDBRANCH  12  18
BRANCH  11  26
ATOM     26  O   UNL A   1      47.115  26.197  26.110  1.00  0.00    -0.475 OA
BRANCH  26  27
ATOM     27  C   UNL A   1      46.363  25.244  25.496  1.00  0.00     0.123 A 
ATOM     28  C   UNL A   1      46.956  24.071  25.025  1.00  0.00     0.047 A 
ATOM     29  C   UNL A   1      44.980  25.391  25.466  1.00  0.00     0.085 A 
ATOM     30  C   UNL A   1      46.179  23.089  24.414  1.00  0.00     0.007 A 
ATOM     31  C   UNL A   1      44.211  24.398  24.872  1.00  0.00     0.126 A 
ATOM     32  C   UNL A   1      44.798  23.259  24.328  1.00  0.00     0.039 A 
ATOM     33  F   UNL A   1      42.879  24.535  24.826  1.00  0.00    -0.207 F 
ENDBRANCH  26  27
ENDBRANCH  11  26
ENDBRANCH   9  11
ENDBRANCH   8   9
ENDBRANCH   7   8
ENDBRANCH   6   7
ENDBRANCH   5   6
ENDBRANCH   4   5
ENDBRANCH   3   4
ENDBRANCH   2   3
ENDBRANCH   1   2
BRANCH   1  34
ATOM     34  C   UNL A   1      38.516  28.864  29.062  1.00  0.00     0.188 C 
BRANCH  34  35
ATOM     35  O   UNL A   1      37.660  29.942  29.450  1.00  0.00    -0.376 OA
BRANCH  35  36
ATOM     36  C   UNL A   1      36.466  29.665  30.172  1.00  0.00     0.202 C 
BRANCH  36  37
ATOM     37  C   UNL A   1      36.338  30.532  31.412  1.00  0.00     0.261 C 
BRANCH  37  38
ATOM     38  O   UNL A   1      36.766  29.770  32.534  1.00  0.00    -0.460 OA
BRANCH  38  39
ATOM     39  C   UNL A   1      37.580  30.467  33.361  1.00  0.00     0.338 C 
ATOM     40  O   UNL A   1      37.295  31.408  34.071  1.00  0.00    -0.246 OA
BRANCH  39  41
ATOM     41  C   UNL A   1      38.862  29.752  33.394  1.00  0.00     0.060 A 
ATOM     42  C   UNL A   1      39.885  30.306  34.166  1.00  0.00     0.016 A 
ATOM     43  C   UNL A   1      39.052  28.579  32.653  1.00  0.00     0.016 A 
ATOM     44  C   UNL A   1      41.146  29.743  34.117  1.00  0.00     0.010 A 
ATOM     45  C   UNL A   1      40.320  28.022  32.590  1.00  0.00     0.010 A 
ATOM     46  C   UNL A   1      41.372  28.655  33.265  1.00  0.00    -0.014 A 
BRANCH  46  47
ATOM     47  C   UNL A   1      42.759  28.391  32.863  1.00  0.00     0.031 A 
ATOM     48  C   UNL A   1      43.417  29.398  31.962  1.00  0.00     0.074 A 
ATOM     49  C   UNL A   1      43.414  27.343  33.380  1.00  0.00     0.049 A 
ATOM     50  N   UNL A   1      44.641  29.424  31.512  1.00  0.00    -0.248 NA
ATOM     51  C   UNL A   1      42.587  30.532  31.512  1.00  0.00     0.031 C 
ATOM     52  C   UNL A   1      42.843  26.368  34.311  1.00  0.00     0.029 A 
ATOM     53  N   UNL A   1      44.706  26.939  33.208  1.00  0.00    -0.354 N 
ATOM     54  C   UNL A   1      44.722  30.567  30.723  1.00  0.00     0.074 A 
ATOM     55  C   UNL A   1      43.424  31.195  30.730  1.00  0.00     0.031 C 
ATOM     56  C   UNL A   1      43.791  25.472  34.631  1.00  0.00     0.029 A 
ATOM     57  C   UNL A   1      45.013  25.796  33.901  1.00  0.00     0.049 A 
ATOM     58  H   UNL A   1      45.352  27.419  32.643  1.00  0.00     0.167 HD
ATOM     59  C   UNL A   1      45.797  31.043  30.056  1.00  0.00     0.031 A 
ATOM     60  C   UNL A   1      46.157  25.090  33.917  1.00  0.00     0.031 A 
ATOM     61  C   UNL A   1      47.073  30.384  30.062  1.00  0.00     0.049 A 
ATOM     62  C   UNL A   1      47.320  25.612  33.117  1.00  0.00     0.074 A 
ATOM     63  C   UNL A   1      48.242  30.759  29.428  1.00  0.00     0.029 A 
ATOM     64  N   UNL A   1      47.342  29.200  30.738  1.00  0.00    -0.354 N 
ATOM     65  N   UNL A   1      47.392  26.695  32.376  1.00  0.00    -0.248 NA
ATOM     66  C   UNL A   1      48.559  24.830  33.169  1.00  0.00     0.031 C 
ATOM     67  C   UNL A   1      49.198  29.767  29.666  1.00  0.00     0.029 A 
ATOM     68  C   UNL A   1      48.650  28.816  30.516  1.00  0.00     0.049 A 
ATOM     69  H   UNL A   1      46.695  28.709  31.295  1.00  0.00     0.167 HD
ATOM     70  C   UNL A   1      48.697  26.743  31.901  1.00  0.00     0.074 A 
ATOM     71  C   UNL A   1      49.379  25.588  32.455  1.00  0.00     0.031 C 
ATOM     72  C   UNL A   1      49.286  27.654  31.084  1.00  0.00     0.031 A 
BRANCH  59  73
ATOM     73  C   UNL A   1      45.618  32.290  29.231  1.00  0.00    -0.014 A 
ATOM     74  C   UNL A   1      44.765  32.321  28.112  1.00  0.00     0.010 A 
ATOM     75  C   UNL A   1      46.293  33.465  29.607  1.00  0.00     0.010 A 
ATOM     76  C   UNL A   1      44.609  33.500  27.375  1.00  0.00     0.020 A 
ATOM     77  C   UNL A   1      46.117  34.652  28.890  1.00  0.00     0.020 A 
ATOM     78  C   UNL A   1      45.283  34.659  27.772  1.00  0.00     0.054 A 
BRANCH  78  79
ATOM     79  S   UNL A   1      45.020  36.186  26.829  1.00  0.00     0.124 S 
ATOM     80  O   UNL A   1      44.956  37.190  27.889  1.00  0.00    -0.237 OA
ATOM     81  O   UNL A   1      46.207  36.244  25.981  1.00  0.00    -0.237 OA
ATOM     82  O   UNL A   1      43.764  35.947  26.124  1.00  0.00    -0.744 OA
ENDBRANCH  78  79
ENDBRANCH  59  73
BRANCH  60  83
ATOM     83  C   UNL A   1      46.237  23.819  34.684  1.00  0.00    -0.014 A 
ATOM     84  C   UNL A   1      45.629  22.643  34.213  1.00  0.00     0.010 A 
ATOM     85  C   UNL A   1      46.939  23.783  35.905  1.00  0.00     0.010 A 
ATOM     86  C   UNL A   1      45.696  21.464  34.962  1.00  0.00     0.020 A 
ATOM     87  C   UNL A   1      47.037  22.600  36.639  1.00  0.00     0.020 A 
ATOM     88  C   UNL A   1      46.400  21.451  36.171  1.00  0.00     0.054 A 
BRANCH  88  89
ATOM     89  S   UNL A   1      46.494  19.904  37.113  1.00  0.00     0.124 S 
ATOM     90  O   UNL A   1      47.935  19.696  37.211  1.00  0.00    -0.237 OA
ATOM     91  O   UNL A   1      45.818  20.255  38.360  1.00  0.00    -0.237 OA
ATOM     92  O   UNL A   1      45.777  18.948  36.273  1.00  0.00    -0.744 OA
ENDBRANCH  88  89
ENDBRANCH  60  83
BRANCH  72  93
ATOM     93  C   UNL A   1      50.749  27.457  30.792  1.00  0.00    -0.014 A 
ATOM     94  C   UNL A   1      51.186  26.738  29.665  1.00  0.00     0.010 A 
ATOM     95  C   UNL A   1      51.701  28.029  31.656  1.00  0.00     0.010 A 
ATOM     96  C   UNL A   1      52.550  26.542  29.444  1.00  0.00     0.020 A 
ATOM     97  C   UNL A   1      53.065  27.869  31.415  1.00  0.00     0.020 A 
ATOM     98  C   UNL A   1      53.480  27.104  30.323  1.00  0.00     0.054 A 
BRANCH  98  99
ATOM     99  S   UNL A   1      55.245  26.838  30.012  1.00  0.00     0.124 S 
ATOM    100  O   UNL A   1      55.853  27.443  31.194  1.00  0.00    -0.237 OA
ATOM    101  O   UNL A   1      55.339  25.382  29.932  1.00  0.00    -0.237 OA
ATOM    102  O   UNL A   1      55.486  27.543  28.757  1.00  0.00    -0.744 OA
ENDBRANCH  98  99
ENDBRANCH  72  93
ENDBRANCH  46  47
ENDBRANCH  39  41
ENDBRANCH  38  39
ENDBRANCH  37  38
ENDBRANCH  36  37
ENDBRANCH  35  36
ENDBRANCH  34  35
ENDBRANCH   1  34
TORSDOF 27
ENDMDL
