MODEL 1
REMARK VINA RESULT:      -7.8      0.000      0.000
REMARK SMILES Cc1cc(C)cc(S(=O)(=O)N2CSC[C@H]2C(=O)OCCOCCOCCOCCOC(=O)c2ccc(-c3c4nc(c(-c5ccc(S(=O)(=O)[O-])cc5)c5ccc([nH]5)c(-c5ccc(S(=O)(=O)[O-])cc5)c5nc(c(-c6ccc(S(=O)(=O)[O-])cc6)c6ccc3[nH]6)C=C5)C=C4)cc2)c1
REMARK SMILES IDX 25 1 24 2 23 3 22 4 21 5 20 6 19 7 18 8 16 9 17 10 15 11
REMARK SMILES IDX 11 12 12 13 13 14 14 15 8 16 9 17 10 18 7 19 1 20 2 21 3 22
REMARK SMILES IDX 93 23 4 24 5 25 6 26 26 27 27 28 28 29 29 30 30 31 31 32
REMARK SMILES IDX 32 33 33 34 34 35 92 36 35 37 91 38 36 39 37 40 38 41 85 42
REMARK SMILES IDX 39 43 90 44 84 45 86 46 40 47 89 48 83 49 82 50 41 52 71 53
REMARK SMILES IDX 52 54 70 55 53 56 56 57 69 58 87 59 54 60 55 61 68 63 88 64
REMARK SMILES IDX 57 65 42 66 43 67 51 68 44 69 50 70 45 71 46 72 47 73 48 74
REMARK SMILES IDX 49 75 72 76 73 77 81 78 74 79 80 80 75 81 76 82 77 83 78 84
REMARK SMILES IDX 79 85 58 86 59 87 67 88 60 89 66 90 61 91 62 92 63 93 64 94
REMARK SMILES IDX 65 95
REMARK H PARENT 86 51 56 62
REMARK Flexibility Score: inf
ROOT
ATOM      1  C   UNL A   1      33.342  36.049  29.608  1.00  0.00     0.188 C 
ENDROOT
BRANCH   1   2
ATOM      2  O   UNL A   1      32.592  35.207  28.747  1.00  0.00    -0.377 OA
BRANCH   2   3
ATOM      3  C   UNL A   1      33.276  34.059  28.277  1.00  0.00     0.188 C 
BRANCH   3   4
ATOM      4  C   UNL A   1      34.646  33.787  28.932  1.00  0.00     0.188 C 
BRANCH   4   5
ATOM      5  O   UNL A   1      35.195  32.477  29.072  1.00  0.00    -0.376 OA
BRANCH   5   6
ATOM      6  C   UNL A   1      36.466  32.287  29.665  1.00  0.00     0.202 C 
BRANCH   6   7
ATOM      7  C   UNL A   1      37.363  31.204  29.056  1.00  0.00     0.261 C 
BRANCH   7   8
ATOM      8  O   UNL A   1      36.884  29.855  29.179  1.00  0.00    -0.462 OA
BRANCH   8   9
ATOM      9  C   UNL A   1      37.083  29.258  30.384  1.00  0.00     0.325 C 
ATOM     10  O   UNL A   1      36.520  29.577  31.427  1.00  0.00    -0.250 OA
BRANCH   9  11
ATOM     11  C   UNL A   1      38.217  28.251  30.358  1.00  0.00     0.194 C 
ATOM     12  N   UNL A   1      39.579  28.717  30.016  1.00  0.00    -0.173 NA
ATOM     13  C   UNL A   1      40.452  28.979  31.152  1.00  0.00     0.172 C 
ATOM     14  S   UNL A   1      39.706  28.220  32.608  1.00  0.00    -0.143 SA
ATOM     15  C   UNL A   1      38.253  27.590  31.735  1.00  0.00     0.103 C 
BRANCH  12  16
ATOM     16  S   UNL A   1      40.242  28.508  28.498  1.00  0.00     0.244 S 
ATOM     17  O   UNL A   1      41.580  29.064  28.515  1.00  0.00    -0.207 OA
ATOM     18  O   UNL A   1      39.260  28.951  27.535  1.00  0.00    -0.207 OA
BRANCH  16  19
ATOM     19  C   UNL A   1      40.423  26.758  28.239  1.00  0.00     0.083 A 
ATOM     20  C   UNL A   1      38.607  23.904  26.527  1.00  0.00     0.044 C 
ATOM     21  C   UNL A   1      39.650  24.671  27.284  1.00  0.00    -0.050 A 
ATOM     22  C   UNL A   1      40.873  24.081  27.617  1.00  0.00     0.007 A 
ATOM     23  C   UNL A   1      39.421  26.002  27.639  1.00  0.00     0.025 A 
ATOM     24  C   UNL A   1      41.869  24.811  28.285  1.00  0.00    -0.050 A 
ATOM     25  C   UNL A   1      43.163  24.141  28.643  1.00  0.00     0.044 C 
ATOM     26  C   UNL A   1      41.646  26.164  28.575  1.00  0.00     0.025 A 
ENDBRANCH  16  19
ENDBRANCH  12  16
ENDBRANCH   9  11
ENDBRANCH   8   9
ENDBRANCH   7   8
ENDBRANCH   6   7
ENDBRANCH   5   6
ENDBRANCH   4   5
ENDBRANCH   3   4
ENDBRANCH   2   3
ENDBRANCH   1   2
BRANCH   1  27
ATOM     27  C   UNL A   1      32.671  36.354  30.952  1.00  0.00     0.188 C 
BRANCH  27  28
ATOM     28  O   UNL A   1      32.907  37.693  31.391  1.00  0.00    -0.376 OA
BRANCH  28  29
ATOM     29  C   UNL A   1      33.882  37.871  32.413  1.00  0.00     0.202 C 
BRANCH  29  30
ATOM     30  C   UNL A   1      34.092  36.648  33.319  1.00  0.00     0.261 C 
BRANCH  30  31
ATOM     31  O   UNL A   1      35.367  35.994  33.197  1.00  0.00    -0.460 OA
BRANCH  31  32
ATOM     32  C   UNL A   1      35.378  34.646  33.132  1.00  0.00     0.338 C 
ATOM     33  O   UNL A   1      34.616  33.936  32.503  1.00  0.00    -0.246 OA
BRANCH  32  34
ATOM     34  C   UNL A   1      36.617  34.166  33.782  1.00  0.00     0.060 A 
ATOM     35  C   UNL A   1      36.498  33.355  34.916  1.00  0.00     0.016 A 
ATOM     36  C   UNL A   1      37.879  34.500  33.279  1.00  0.00     0.016 A 
ATOM     37  C   UNL A   1      37.642  32.912  35.579  1.00  0.00     0.010 A 
ATOM     38  C   UNL A   1      39.024  34.072  33.956  1.00  0.00     0.010 A 
ATOM     39  C   UNL A   1      38.909  33.307  35.130  1.00  0.00    -0.014 A 
BRANCH  39  40
ATOM     40  C   UNL A   1      40.085  33.088  36.006  1.00  0.00     0.031 A 
ATOM     41  C   UNL A   1      40.471  34.182  36.966  1.00  0.00     0.074 A 
ATOM     42  C   UNL A   1      40.771  31.933  35.986  1.00  0.00     0.049 A 
ATOM     43  N   UNL A   1      41.420  34.199  37.866  1.00  0.00    -0.248 NA
ATOM     44  C   UNL A   1      39.677  35.422  36.902  1.00  0.00     0.031 C 
ATOM     45  C   UNL A   1      40.485  30.791  35.120  1.00  0.00     0.029 A 
ATOM     46  N   UNL A   1      41.858  31.534  36.724  1.00  0.00    -0.354 N 
ATOM     47  C   UNL A   1      41.337  35.446  38.475  1.00  0.00     0.074 A 
ATOM     48  C   UNL A   1      40.267  36.168  37.822  1.00  0.00     0.031 C 
ATOM     49  C   UNL A   1      41.379  29.819  35.373  1.00  0.00     0.029 A 
ATOM     50  C   UNL A   1      42.309  30.276  36.405  1.00  0.00     0.049 A 
ATOM     51  H   UNL A   1      42.273  32.095  37.419  1.00  0.00     0.167 HD
ATOM     52  C   UNL A   1      42.078  35.944  39.492  1.00  0.00     0.031 A 
ATOM     53  C   UNL A   1      43.360  29.578  36.884  1.00  0.00     0.031 A 
ATOM     54  C   UNL A   1      43.159  35.237  40.125  1.00  0.00     0.049 A 
ATOM     55  C   UNL A   1      44.208  30.174  37.978  1.00  0.00     0.074 A 
ATOM     56  C   UNL A   1      43.955  35.647  41.180  1.00  0.00     0.029 A 
ATOM     57  N   UNL A   1      43.607  33.980  39.749  1.00  0.00    -0.354 N 
ATOM     58  N   UNL A   1      44.082  31.332  38.583  1.00  0.00    -0.248 NA
ATOM     59  C   UNL A   1      45.333  29.362  38.463  1.00  0.00     0.031 C 
ATOM     60  C   UNL A   1      44.923  34.661  41.404  1.00  0.00     0.029 A 
ATOM     61  C   UNL A   1      44.691  33.612  40.528  1.00  0.00     0.049 A 
ATOM     62  H   UNL A   1      43.213  33.430  39.034  1.00  0.00     0.167 HD
ATOM     63  C   UNL A   1      45.099  31.379  39.532  1.00  0.00     0.074 A 
ATOM     64  C   UNL A   1      45.818  30.124  39.433  1.00  0.00     0.031 C 
ATOM     65  C   UNL A   1      45.409  32.367  40.408  1.00  0.00     0.031 A 
BRANCH  52  66
ATOM     66  C   UNL A   1      41.765  37.343  39.951  1.00  0.00    -0.014 A 
ATOM     67  C   UNL A   1      40.692  37.602  40.824  1.00  0.00     0.010 A 
ATOM     68  C   UNL A   1      42.566  38.412  39.513  1.00  0.00     0.010 A 
ATOM     69  C   UNL A   1      40.400  38.911  41.214  1.00  0.00     0.020 A 
ATOM     70  C   UNL A   1      42.293  39.719  39.923  1.00  0.00     0.020 A 
ATOM     71  C   UNL A   1      41.200  39.963  40.756  1.00  0.00     0.054 A 
BRANCH  71  72
ATOM     72  S   UNL A   1      40.806  41.652  41.287  1.00  0.00     0.124 S 
ATOM     73  O   UNL A   1      41.965  42.397  40.801  1.00  0.00    -0.237 OA
ATOM     74  O   UNL A   1      39.550  41.923  40.591  1.00  0.00    -0.237 OA
ATOM     75  O   UNL A   1      40.699  41.544  42.739  1.00  0.00    -0.744 OA
ENDBRANCH  71  72
ENDBRANCH  52  66
BRANCH  53  76
ATOM     76  C   UNL A   1      43.675  28.237  36.320  1.00  0.00    -0.014 A 
ATOM     77  C   UNL A   1      44.532  28.101  35.214  1.00  0.00     0.010 A 
ATOM     78  C   UNL A   1      43.121  27.081  36.902  1.00  0.00     0.010 A 
ATOM     79  C   UNL A   1      44.821  26.835  34.694  1.00  0.00     0.020 A 
ATOM     80  C   UNL A   1      43.428  25.813  36.401  1.00  0.00     0.020 A 
ATOM     81  C   UNL A   1      44.272  25.698  35.294  1.00  0.00     0.054 A 
BRANCH  81  82
ATOM     82  S   UNL A   1      44.717  24.061  34.649  1.00  0.00     0.124 S 
ATOM     83  O   UNL A   1      43.538  23.270  34.987  1.00  0.00    -0.237 OA
ATOM     84  O   UNL A   1      44.915  24.326  33.226  1.00  0.00    -0.237 OA
ATOM     85  O   UNL A   1      45.932  23.723  35.386  1.00  0.00    -0.744 OA
ENDBRANCH  81  82
ENDBRANCH  53  76
BRANCH  65  86
ATOM     86  C   UNL A   1      46.565  32.129  41.342  1.00  0.00    -0.014 A 
ATOM     87  C   UNL A   1      46.380  31.496  42.585  1.00  0.00     0.010 A 
ATOM     88  C   UNL A   1      47.864  32.505  40.954  1.00  0.00     0.010 A 
ATOM     89  C   UNL A   1      47.466  31.284  43.439  1.00  0.00     0.020 A 
ATOM     90  C   UNL A   1      48.957  32.268  41.793  1.00  0.00     0.020 A 
ATOM     91  C   UNL A   1      48.747  31.676  43.039  1.00  0.00     0.054 A 
BRANCH  91  92
ATOM     92  S   UNL A   1      50.145  31.369  44.154  1.00  0.00     0.124 S 
ATOM     93  O   UNL A   1      50.289  29.919  44.068  1.00  0.00    -0.237 OA
ATOM     94  O   UNL A   1      51.221  32.146  43.545  1.00  0.00    -0.237 OA
ATOM     95  O   UNL A   1      49.675  31.872  45.444  1.00  0.00    -0.744 OA
ENDBRANCH  91  92
ENDBRANCH  65  86
ENDBRANCH  39  40
ENDBRANCH  32  34
ENDBRANCH  31  32
ENDBRANCH  30  31
ENDBRANCH  29  30
ENDBRANCH  28  29
ENDBRANCH  27  28
ENDBRANCH   1  27
TORSDOF 25
ENDMDL
MODEL 2
REMARK VINA RESULT:      -7.4      5.506      6.652
REMARK SMILES Cc1cc(C)cc(S(=O)(=O)N2CSC[C@H]2C(=O)OCCOCCOCCOCCOC(=O)c2ccc(-c3c4nc(c(-c5ccc(S(=O)(=O)[O-])cc5)c5ccc([nH]5)c(-c5ccc(S(=O)(=O)[O-])cc5)c5nc(c(-c6ccc(S(=O)(=O)[O-])cc6)c6ccc3[nH]6)C=C5)C=C4)cc2)c1
REMARK SMILES IDX 25 1 24 2 23 3 22 4 21 5 20 6 19 7 18 8 16 9 17 10 15 11
REMARK SMILES IDX 11 12 12 13 13 14 14 15 8 16 9 17 10 18 7 19 1 20 2 21 3 22
REMARK SMILES IDX 93 23 4 24 5 25 6 26 26 27 27 28 28 29 29 30 30 31 31 32
REMARK SMILES IDX 32 33 33 34 34 35 92 36 35 37 91 38 36 39 37 40 38 41 85 42
REMARK SMILES IDX 39 43 90 44 84 45 86 46 40 47 89 48 83 49 82 50 41 52 71 53
REMARK SMILES IDX 52 54 70 55 53 56 56 57 69 58 87 59 54 60 55 61 68 63 88 64
REMARK SMILES IDX 57 65 42 66 43 67 51 68 44 69 50 70 45 71 46 72 47 73 48 74
REMARK SMILES IDX 49 75 72 76 73 77 81 78 74 79 80 80 75 81 76 82 77 83 78 84
REMARK SMILES IDX 79 85 58 86 59 87 67 88 60 89 66 90 61 91 62 92 63 93 64 94
REMARK SMILES IDX 65 95
REMARK H PARENT 86 51 56 62
REMARK Flexibility Score: inf
ROOT
ATOM      1  C   UNL A   1      37.270  31.219  30.735  1.00  0.00     0.188 C 
ENDROOT
BRANCH   1   2
ATOM      2  O   UNL A   1      37.655  30.069  30.001  1.00  0.00    -0.377 OA
BRANCH   2   3
ATOM      3  C   UNL A   1      36.642  29.500  29.190  1.00  0.00     0.188 C 
BRANCH   3   4
ATOM      4  C   UNL A   1      36.419  30.187  27.827  1.00  0.00     0.188 C 
BRANCH   4   5
ATOM      5  O   UNL A   1      35.383  29.804  26.923  1.00  0.00    -0.376 OA
BRANCH   5   6
ATOM      6  C   UNL A   1      34.141  29.330  27.409  1.00  0.00     0.202 C 
BRANCH   6   7
ATOM      7  C   UNL A   1      33.516  28.138  26.676  1.00  0.00     0.261 C 
BRANCH   7   8
ATOM      8  O   UNL A   1      32.629  28.466  25.595  1.00  0.00    -0.462 OA
BRANCH   8   9
ATOM      9  C   UNL A   1      32.976  27.988  24.371  1.00  0.00     0.325 C 
ATOM     10  O   UNL A   1      33.822  28.489  23.636  1.00  0.00    -0.250 OA
BRANCH   9  11
ATOM     11  C   UNL A   1      32.083  26.852  23.912  1.00  0.00     0.194 C 
ATOM     12  N   UNL A   1      32.470  25.462  24.240  1.00  0.00    -0.173 NA
ATOM     13  C   UNL A   1      31.816  24.892  25.409  1.00  0.00     0.172 C 
ATOM     14  S   UNL A   1      30.406  25.939  25.819  1.00  0.00    -0.143 SA
ATOM     15  C   UNL A   1      30.692  27.125  24.483  1.00  0.00     0.103 C 
BRANCH  12  16
ATOM     16  S   UNL A   1      33.202  24.451  23.130  1.00  0.00     0.244 S 
ATOM     17  O   UNL A   1      34.097  25.253  22.320  1.00  0.00    -0.207 OA
ATOM     18  O   UNL A   1      32.163  23.649  22.527  1.00  0.00    -0.207 OA
BRANCH  16  19
ATOM     19  C   UNL A   1      34.223  23.318  24.044  1.00  0.00     0.083 A 
ATOM     20  C   UNL A   1      34.429  19.609  24.803  1.00  0.00     0.044 C 
ATOM     21  C   UNL A   1      34.768  21.070  24.759  1.00  0.00    -0.050 A 
ATOM     22  C   UNL A   1      35.991  21.537  25.252  1.00  0.00     0.007 A 
ATOM     23  C   UNL A   1      33.873  21.979  24.194  1.00  0.00     0.025 A 
ATOM     24  C   UNL A   1      36.330  22.896  25.170  1.00  0.00    -0.050 A 
ATOM     25  C   UNL A   1      37.642  23.366  25.724  1.00  0.00     0.044 C 
ATOM     26  C   UNL A   1      35.446  23.784  24.541  1.00  0.00     0.025 A 
ENDBRANCH  16  19
ENDBRANCH  12  16
ENDBRANCH   9  11
ENDBRANCH   8   9
ENDBRANCH   7   8
ENDBRANCH   6   7
ENDBRANCH   5   6
ENDBRANCH   4   5
ENDBRANCH   3   4
ENDBRANCH   2   3
ENDBRANCH   1   2
BRANCH   1  27
ATOM     27  C   UNL A   1      36.296  30.948  31.888  1.00  0.00     0.188 C 
BRANCH  27  28
ATOM     28  O   UNL A   1      35.161  31.815  31.862  1.00  0.00    -0.376 OA
BRANCH  28  29
ATOM     29  C   UNL A   1      35.235  32.943  30.997  1.00  0.00     0.202 C 
BRANCH  29  30
ATOM     30  C   UNL A   1      34.900  34.287  31.664  1.00  0.00     0.261 C 
BRANCH  30  31
ATOM     31  O   UNL A   1      35.740  34.659  32.770  1.00  0.00    -0.460 OA
BRANCH  31  32
ATOM     32  C   UNL A   1      37.074  34.502  32.626  1.00  0.00     0.338 C 
ATOM     33  O   UNL A   1      37.742  34.770  31.646  1.00  0.00    -0.246 OA
BRANCH  32  34
ATOM     34  C   UNL A   1      37.638  34.151  33.948  1.00  0.00     0.060 A 
ATOM     35  C   UNL A   1      38.639  34.973  34.479  1.00  0.00     0.016 A 
ATOM     36  C   UNL A   1      37.184  33.037  34.660  1.00  0.00     0.016 A 
ATOM     37  C   UNL A   1      39.222  34.657  35.705  1.00  0.00     0.010 A 
ATOM     38  C   UNL A   1      37.783  32.711  35.881  1.00  0.00     0.010 A 
ATOM     39  C   UNL A   1      38.830  33.498  36.389  1.00  0.00    -0.014 A 
BRANCH  39  40
ATOM     40  C   UNL A   1      39.658  33.015  37.520  1.00  0.00     0.031 A 
ATOM     41  C   UNL A   1      38.999  32.844  38.863  1.00  0.00     0.074 A 
ATOM     42  C   UNL A   1      40.953  32.693  37.357  1.00  0.00     0.049 A 
ATOM     43  N   UNL A   1      39.500  32.385  39.980  1.00  0.00    -0.248 NA
ATOM     44  C   UNL A   1      37.584  33.244  38.955  1.00  0.00     0.031 C 
ATOM     45  C   UNL A   1      41.700  32.792  36.105  1.00  0.00     0.029 A 
ATOM     46  N   UNL A   1      41.868  32.213  38.260  1.00  0.00    -0.354 N 
ATOM     47  C   UNL A   1      38.464  32.438  40.906  1.00  0.00     0.074 A 
ATOM     48  C   UNL A   1      37.317  33.003  40.229  1.00  0.00     0.031 C 
ATOM     49  C   UNL A   1      42.965  32.390  36.320  1.00  0.00     0.029 A 
ATOM     50  C   UNL A   1      43.121  32.022  37.727  1.00  0.00     0.049 A 
ATOM     51  H   UNL A   1      41.648  32.022  39.200  1.00  0.00     0.167 HD
ATOM     52  C   UNL A   1      38.463  32.045  42.201  1.00  0.00     0.031 A 
ATOM     53  C   UNL A   1      44.263  31.607  38.312  1.00  0.00     0.031 A 
ATOM     54  C   UNL A   1      39.609  31.507  42.882  1.00  0.00     0.049 A 
ATOM     55  C   UNL A   1      44.254  31.228  39.770  1.00  0.00     0.074 A 
ATOM     56  C   UNL A   1      39.702  31.058  44.188  1.00  0.00     0.029 A 
ATOM     57  N   UNL A   1      40.867  31.363  42.318  1.00  0.00    -0.354 N 
ATOM     58  N   UNL A   1      43.253  31.231  40.618  1.00  0.00    -0.248 NA
ATOM     59  C   UNL A   1      45.529  30.777  40.347  1.00  0.00     0.031 C 
ATOM     60  C   UNL A   1      41.032  30.696  44.430  1.00  0.00     0.029 A 
ATOM     61  C   UNL A   1      41.753  30.863  43.258  1.00  0.00     0.049 A 
ATOM     62  H   UNL A   1      41.097  31.583  41.387  1.00  0.00     0.167 HD
ATOM     63  C   UNL A   1      43.772  30.765  41.822  1.00  0.00     0.074 A 
ATOM     64  C   UNL A   1      45.171  30.471  41.586  1.00  0.00     0.031 C 
ATOM     65  C   UNL A   1      43.148  30.592  43.014  1.00  0.00     0.031 A 
BRANCH  52  66
ATOM     66  C   UNL A   1      37.184  32.227  42.974  1.00  0.00    -0.014 A 
ATOM     67  C   UNL A   1      36.868  33.453  43.586  1.00  0.00     0.010 A 
ATOM     68  C   UNL A   1      36.278  31.156  43.077  1.00  0.00     0.010 A 
ATOM     69  C   UNL A   1      35.690  33.592  44.324  1.00  0.00     0.020 A 
ATOM     70  C   UNL A   1      35.087  31.298  43.792  1.00  0.00     0.020 A 
ATOM     71  C   UNL A   1      34.809  32.511  44.427  1.00  0.00     0.054 A 
BRANCH  71  72
ATOM     72  S   UNL A   1      33.281  32.720  45.381  1.00  0.00     0.124 S 
ATOM     73  O   UNL A   1      32.431  33.436  44.434  1.00  0.00    -0.237 OA
ATOM     74  O   UNL A   1      32.885  31.342  45.660  1.00  0.00    -0.237 OA
ATOM     75  O   UNL A   1      33.703  33.492  46.547  1.00  0.00    -0.744 OA
ENDBRANCH  71  72
ENDBRANCH  52  66
BRANCH  53  76
ATOM     76  C   UNL A   1      45.519  31.540  37.515  1.00  0.00    -0.014 A 
ATOM     77  C   UNL A   1      46.380  32.648  37.428  1.00  0.00     0.010 A 
ATOM     78  C   UNL A   1      45.863  30.353  36.842  1.00  0.00     0.010 A 
ATOM     79  C   UNL A   1      47.558  32.572  36.677  1.00  0.00     0.020 A 
ATOM     80  C   UNL A   1      47.051  30.265  36.111  1.00  0.00     0.020 A 
ATOM     81  C   UNL A   1      47.889  31.379  36.027  1.00  0.00     0.054 A 
BRANCH  81  82
ATOM     82  S   UNL A   1      49.456  31.280  35.118  1.00  0.00     0.124 S 
ATOM     83  O   UNL A   1      50.047  32.587  35.388  1.00  0.00    -0.237 OA
ATOM     84  O   UNL A   1      50.117  30.142  35.752  1.00  0.00    -0.237 OA
ATOM     85  O   UNL A   1      49.035  31.055  33.737  1.00  0.00    -0.744 OA
ENDBRANCH  81  82
ENDBRANCH  53  76
BRANCH  65  86
ATOM     86  C   UNL A   1      43.967  30.045  44.154  1.00  0.00    -0.014 A 
ATOM     87  C   UNL A   1      44.464  30.889  45.165  1.00  0.00     0.010 A 
ATOM     88  C   UNL A   1      44.209  28.662  44.238  1.00  0.00     0.010 A 
ATOM     89  C   UNL A   1      45.223  30.363  46.214  1.00  0.00     0.020 A 
ATOM     90  C   UNL A   1      44.943  28.128  45.301  1.00  0.00     0.020 A 
ATOM     91  C   UNL A   1      45.461  28.986  46.273  1.00  0.00     0.054 A 
BRANCH  91  92
ATOM     92  S   UNL A   1      46.429  28.323  47.657  1.00  0.00     0.124 S 
ATOM     93  O   UNL A   1      45.704  27.097  47.974  1.00  0.00    -0.237 OA
ATOM     94  O   UNL A   1      47.752  28.137  47.066  1.00  0.00    -0.237 OA
ATOM     95  O   UNL A   1      46.349  29.375  48.669  1.00  0.00    -0.744 OA
ENDBRANCH  91  92
ENDBRANCH  65  86
ENDBRANCH  39  40
ENDBRANCH  32  34
ENDBRANCH  31  32
ENDBRANCH  30  31
ENDBRANCH  29  30
ENDBRANCH  28  29
ENDBRANCH  27  28
ENDBRANCH   1  27
TORSDOF 25
ENDMDL
MODEL 3
REMARK VINA RESULT:      -7.3      3.681     13.107
REMARK SMILES Cc1cc(C)cc(S(=O)(=O)N2CSC[C@H]2C(=O)OCCOCCOCCOCCOC(=O)c2ccc(-c3c4nc(c(-c5ccc(S(=O)(=O)[O-])cc5)c5ccc([nH]5)c(-c5ccc(S(=O)(=O)[O-])cc5)c5nc(c(-c6ccc(S(=O)(=O)[O-])cc6)c6ccc3[nH]6)C=C5)C=C4)cc2)c1
REMARK SMILES IDX 25 1 24 2 23 3 22 4 21 5 20 6 19 7 18 8 16 9 17 10 15 11
REMARK SMILES IDX 11 12 12 13 13 14 14 15 8 16 9 17 10 18 7 19 1 20 2 21 3 22
REMARK SMILES IDX 93 23 4 24 5 25 6 26 26 27 27 28 28 29 29 30 30 31 31 32
REMARK SMILES IDX 32 33 33 34 34 35 92 36 35 37 91 38 36 39 37 40 38 41 85 42
REMARK SMILES IDX 39 43 90 44 84 45 86 46 40 47 89 48 83 49 82 50 41 52 71 53
REMARK SMILES IDX 52 54 70 55 53 56 56 57 69 58 87 59 54 60 55 61 68 63 88 64
REMARK SMILES IDX 57 65 42 66 43 67 51 68 44 69 50 70 45 71 46 72 47 73 48 74
REMARK SMILES IDX 49 75 72 76 73 77 81 78 74 79 80 80 75 81 76 82 77 83 78 84
REMARK SMILES IDX 79 85 58 86 59 87 67 88 60 89 66 90 61 91 62 92 63 93 64 94
REMARK SMILES IDX 65 95
REMARK H PARENT 86 51 56 62
REMARK Flexibility Score: inf
ROOT
ATOM      1  C   UNL A   1      46.392  21.386  35.863  1.00  0.00     0.188 C 
ENDROOT
BRANCH   1   2
ATOM      2  O   UNL A   1      45.202  22.151  35.977  1.00  0.00    -0.377 OA
BRANCH   2   3
ATOM      3  C   UNL A   1      44.470  22.314  34.775  1.00  0.00     0.188 C 
BRANCH   3   4
ATOM      4  C   UNL A   1      44.125  23.770  34.401  1.00  0.00     0.188 C 
BRANCH   4   5
ATOM      5  O   UNL A   1      44.848  24.512  33.418  1.00  0.00    -0.376 OA
BRANCH   5   6
ATOM      6  C   UNL A   1      44.588  24.326  32.039  1.00  0.00     0.202 C 
BRANCH   6   7
ATOM      7  C   UNL A   1      45.465  25.107  31.054  1.00  0.00     0.261 C 
BRANCH   7   8
ATOM      8  O   UNL A   1      45.087  26.475  30.832  1.00  0.00    -0.462 OA
BRANCH   8   9
ATOM      9  C   UNL A   1      44.726  26.796  29.562  1.00  0.00     0.325 C 
ATOM     10  O   UNL A   1      43.914  26.171  28.884  1.00  0.00    -0.250 OA
BRANCH   9  11
ATOM     11  C   UNL A   1      45.561  27.921  28.982  1.00  0.00     0.194 C 
ATOM     12  N   UNL A   1      44.906  28.923  28.113  1.00  0.00    -0.173 NA
ATOM     13  C   UNL A   1      44.523  30.164  28.771  1.00  0.00     0.172 C 
ATOM     14  S   UNL A   1      45.382  30.237  30.355  1.00  0.00    -0.143 SA
ATOM     15  C   UNL A   1      46.212  28.641  30.162  1.00  0.00     0.103 C 
BRANCH  12  16
ATOM     16  S   UNL A   1      45.017  28.873  26.448  1.00  0.00     0.244 S 
ATOM     17  O   UNL A   1      45.985  29.870  26.036  1.00  0.00    -0.207 OA
ATOM     18  O   UNL A   1      43.670  28.879  25.926  1.00  0.00    -0.207 OA
BRANCH  16  19
ATOM     19  C   UNL A   1      45.701  27.291  26.013  1.00  0.00     0.083 A 
ATOM     20  C   UNL A   1      44.526  23.853  24.930  1.00  0.00     0.044 C 
ATOM     21  C   UNL A   1      45.428  24.999  25.280  1.00  0.00    -0.050 A 
ATOM     22  C   UNL A   1      46.809  24.915  25.072  1.00  0.00     0.007 A 
ATOM     23  C   UNL A   1      44.890  26.182  25.792  1.00  0.00     0.025 A 
ATOM     24  C   UNL A   1      47.649  26.002  25.356  1.00  0.00    -0.050 A 
ATOM     25  C   UNL A   1      49.127  25.872  25.137  1.00  0.00     0.044 C 
ATOM     26  C   UNL A   1      47.084  27.203  25.807  1.00  0.00     0.025 A 
ENDBRANCH  16  19
ENDBRANCH  12  16
ENDBRANCH   9  11
ENDBRANCH   8   9
ENDBRANCH   7   8
ENDBRANCH   6   7
ENDBRANCH   5   6
ENDBRANCH   4   5
ENDBRANCH   3   4
ENDBRANCH   2   3
ENDBRANCH   1   2
BRANCH   1  27
ATOM     27  C   UNL A   1      47.534  22.085  35.117  1.00  0.00     0.188 C 
BRANCH  27  28
ATOM     28  O   UNL A   1      48.458  22.722  36.000  1.00  0.00    -0.376 OA
BRANCH  28  29
ATOM     29  C   UNL A   1      47.906  23.437  37.100  1.00  0.00     0.202 C 
BRANCH  29  30
ATOM     30  C   UNL A   1      47.402  24.849  36.760  1.00  0.00     0.261 C 
BRANCH  30  31
ATOM     31  O   UNL A   1      48.369  25.904  36.899  1.00  0.00    -0.460 OA
BRANCH  31  32
ATOM     32  C   UNL A   1      48.000  27.008  37.584  1.00  0.00     0.338 C 
ATOM     33  O   UNL A   1      48.644  27.593  38.434  1.00  0.00    -0.246 OA
BRANCH  32  34
ATOM     34  C   UNL A   1      46.759  27.532  36.973  1.00  0.00     0.060 A 
ATOM     35  C   UNL A   1      46.871  28.538  36.007  1.00  0.00     0.016 A 
ATOM     36  C   UNL A   1      45.503  27.035  37.336  1.00  0.00     0.016 A 
ATOM     37  C   UNL A   1      45.724  29.083  35.432  1.00  0.00     0.010 A 
ATOM     38  C   UNL A   1      44.353  27.596  36.774  1.00  0.00     0.010 A 
ATOM     39  C   UNL A   1      44.458  28.648  35.848  1.00  0.00    -0.014 A 
BRANCH  39  40
ATOM     40  C   UNL A   1      43.263  29.436  35.463  1.00  0.00     0.031 A 
ATOM     41  C   UNL A   1      42.578  29.103  34.164  1.00  0.00     0.074 A 
ATOM     42  C   UNL A   1      42.767  30.398  36.261  1.00  0.00     0.049 A 
ATOM     43  N   UNL A   1      41.491  29.612  33.645  1.00  0.00    -0.248 NA
ATOM     44  C   UNL A   1      43.204  28.052  33.343  1.00  0.00     0.031 C 
ATOM     45  C   UNL A   1      43.324  30.800  37.550  1.00  0.00     0.029 A 
ATOM     46  N   UNL A   1      41.674  31.211  36.096  1.00  0.00    -0.354 N 
ATOM     47  C   UNL A   1      41.301  28.944  32.441  1.00  0.00     0.074 A 
ATOM     48  C   UNL A   1      42.402  28.017  32.291  1.00  0.00     0.031 C 
ATOM     49  C   UNL A   1      42.571  31.791  38.060  1.00  0.00     0.029 A 
ATOM     50  C   UNL A   1      41.490  32.103  37.125  1.00  0.00     0.049 A 
ATOM     51  H   UNL A   1      41.076  31.159  35.315  1.00  0.00     0.167 HD
ATOM     52  C   UNL A   1      40.298  29.083  31.543  1.00  0.00     0.031 A 
ATOM     53  C   UNL A   1      40.561  33.068  37.288  1.00  0.00     0.031 A 
ATOM     54  C   UNL A   1      39.218  30.022  31.678  1.00  0.00     0.049 A 
ATOM     55  C   UNL A   1      39.486  33.244  36.248  1.00  0.00     0.074 A 
ATOM     56  C   UNL A   1      38.140  30.221  30.833  1.00  0.00     0.029 A 
ATOM     57  N   UNL A   1      39.087  30.931  32.716  1.00  0.00    -0.354 N 
ATOM     58  N   UNL A   1      39.288  32.567  35.141  1.00  0.00    -0.248 NA
ATOM     59  C   UNL A   1      38.499  34.307  36.486  1.00  0.00     0.031 C 
ATOM     60  C   UNL A   1      37.389  31.292  31.331  1.00  0.00     0.029 A 
ATOM     61  C   UNL A   1      37.965  31.718  32.517  1.00  0.00     0.049 A 
ATOM     62  H   UNL A   1      39.701  31.006  33.482  1.00  0.00     0.167 HD
ATOM     63  C   UNL A   1      38.144  33.109  34.562  1.00  0.00     0.074 A 
ATOM     64  C   UNL A   1      37.684  34.156  35.451  1.00  0.00     0.031 C 
ATOM     65  C   UNL A   1      37.529  32.770  33.402  1.00  0.00     0.031 A 
BRANCH  52  66
ATOM     66  C   UNL A   1      40.354  28.220  30.311  1.00  0.00    -0.014 A 
ATOM     67  C   UNL A   1      39.544  27.076  30.182  1.00  0.00     0.010 A 
ATOM     68  C   UNL A   1      41.221  28.567  29.259  1.00  0.00     0.010 A 
ATOM     69  C   UNL A   1      39.633  26.272  29.043  1.00  0.00     0.020 A 
ATOM     70  C   UNL A   1      41.293  27.780  28.107  1.00  0.00     0.020 A 
ATOM     71  C   UNL A   1      40.511  26.627  28.014  1.00  0.00     0.054 A 
BRANCH  71  72
ATOM     72  S   UNL A   1      40.600  25.572  26.542  1.00  0.00     0.124 S 
ATOM     73  O   UNL A   1      41.597  24.582  26.941  1.00  0.00    -0.237 OA
ATOM     74  O   UNL A   1      39.233  25.072  26.422  1.00  0.00    -0.237 OA
ATOM     75  O   UNL A   1      41.020  26.487  25.484  1.00  0.00    -0.744 OA
ENDBRANCH  71  72
ENDBRANCH  52  66
BRANCH  53  76
ATOM     76  C   UNL A   1      40.617  33.953  38.484  1.00  0.00    -0.014 A 
ATOM     77  C   UNL A   1      41.248  35.208  38.426  1.00  0.00     0.010 A 
ATOM     78  C   UNL A   1      40.025  33.542  39.692  1.00  0.00     0.010 A 
ATOM     79  C   UNL A   1      41.294  36.031  39.556  1.00  0.00     0.020 A 
ATOM     80  C   UNL A   1      40.046  34.372  40.817  1.00  0.00     0.020 A 
ATOM     81  C   UNL A   1      40.687  35.610  40.743  1.00  0.00     0.054 A 
BRANCH  81  82
ATOM     82  S   UNL A   1      40.694  36.723  42.176  1.00  0.00     0.124 S 
ATOM     83  O   UNL A   1      39.645  36.148  43.013  1.00  0.00    -0.237 OA
ATOM     84  O   UNL A   1      42.057  36.578  42.682  1.00  0.00    -0.237 OA
ATOM     85  O   UNL A   1      40.389  38.028  41.596  1.00  0.00    -0.744 OA
ENDBRANCH  81  82
ENDBRANCH  53  76
BRANCH  65  86
ATOM     86  C   UNL A   1      36.280  33.526  33.032  1.00  0.00    -0.014 A 
ATOM     87  C   UNL A   1      36.348  34.757  32.353  1.00  0.00     0.010 A 
ATOM     88  C   UNL A   1      35.019  32.979  33.330  1.00  0.00     0.010 A 
ATOM     89  C   UNL A   1      35.177  35.445  32.018  1.00  0.00     0.020 A 
ATOM     90  C   UNL A   1      33.846  33.649  32.971  1.00  0.00     0.020 A 
ATOM     91  C   UNL A   1      33.934  34.888  32.334  1.00  0.00     0.054 A 
BRANCH  91  92
ATOM     92  S   UNL A   1      32.429  35.788  31.869  1.00  0.00     0.124 S 
ATOM     93  O   UNL A   1      32.800  37.169  32.159  1.00  0.00    -0.237 OA
ATOM     94  O   UNL A   1      32.282  35.461  30.453  1.00  0.00    -0.237 OA
ATOM     95  O   UNL A   1      31.403  35.221  32.743  1.00  0.00    -0.744 OA
ENDBRANCH  91  92
ENDBRANCH  65  86
ENDBRANCH  39  40
ENDBRANCH  32  34
ENDBRANCH  31  32
ENDBRANCH  30  31
ENDBRANCH  29  30
ENDBRANCH  28  29
ENDBRANCH  27  28
ENDBRANCH   1  27
TORSDOF 25
ENDMDL
