MODEL 1
REMARK VINA RESULT:      -9.2      0.000      0.000
REMARK SMILES NS(=O)(=O)c1ccc(-c2cc(Cl)cc3c2O[C@@H](C(F)(F)F)C(C(=O)OCCOCCOCCOCCOC(=O)c2ccc(-c4c5nc(c(-c6ccc(S(=O)(=O)[O-])cc6)c6ccc([nH]6)c(-c6ccc(S(=O)(=O)[O-])cc6)c6nc(c(-c7ccc(S(=O)(=O)[O-])cc7)c7ccc4[nH]7)C=C6)C=C5)cc2)=C3)cc1
REMARK SMILES IDX 31 1 30 2 29 3 28 4 27 5 26 6 25 7 23 8 24 9 22 10 9 11
REMARK SMILES IDX 10 12 15 13 11 14 14 15 16 16 12 17 13 18 100 19 17 20 8 21
REMARK SMILES IDX 5 22 6 23 102 24 7 25 101 26 2 27 3 28 4 29 1 30 18 33 19 34
REMARK SMILES IDX 20 35 21 36 32 37 33 38 34 39 35 40 36 41 37 42 38 43 39 44
REMARK SMILES IDX 40 45 41 46 99 47 42 48 98 49 43 50 44 51 45 52 92 53 46 54
REMARK SMILES IDX 97 55 91 56 93 57 47 58 96 59 90 60 89 61 48 63 78 64 59 65
REMARK SMILES IDX 77 66 60 67 63 68 76 69 94 70 61 71 62 72 75 74 95 75 64 76
REMARK SMILES IDX 49 77 50 78 58 79 51 80 57 81 52 82 53 83 54 84 55 85 56 86
REMARK SMILES IDX 79 87 80 88 88 89 81 90 87 91 82 92 83 93 84 94 85 95 86 96
REMARK SMILES IDX 65 97 66 98 74 99 67 100 73 101 68 102 69 103 70 104 71 105
REMARK SMILES IDX 72 106
REMARK H PARENT 1 31 1 32 93 62 63 73
REMARK Flexibility Score: inf
ROOT
ATOM      1  O   UNL A   1      34.320  32.768  28.219  1.00  0.00    -0.377 OA
ENDROOT
BRANCH   1   2
ATOM      2  C   UNL A   1      33.367  33.790  28.012  1.00  0.00     0.188 C 
BRANCH   2   3
ATOM      3  C   UNL A   1      32.196  33.346  27.124  1.00  0.00     0.188 C 
BRANCH   3   4
ATOM      4  O   UNL A   1      31.768  32.009  27.345  1.00  0.00    -0.376 OA
BRANCH   4   5
ATOM      5  C   UNL A   1      31.774  31.101  26.244  1.00  0.00     0.202 C 
BRANCH   5   6
ATOM      6  C   UNL A   1      30.530  31.016  25.348  1.00  0.00     0.261 C 
BRANCH   6   7
ATOM      7  O   UNL A   1      30.783  30.205  24.178  1.00  0.00    -0.460 OA
BRANCH   7   8
ATOM      8  C   UNL A   1      29.798  30.163  23.270  1.00  0.00     0.338 C 
ATOM      9  O   UNL A   1      29.263  31.147  22.774  1.00  0.00    -0.246 OA
BRANCH   8  10
ATOM     10  C   UNL A   1      29.527  28.786  22.782  1.00  0.00     0.087 C 
ATOM     11  C   UNL A   1      30.914  25.757  25.267  1.00  0.00     0.026 A 
ATOM     12  C   UNL A   1      31.958  26.338  26.023  1.00  0.00     0.033 A 
ATOM     13  C   UNL A   1      30.363  26.585  24.266  1.00  0.00     0.135 A 
ATOM     14  C   UNL A   1      32.638  27.462  25.556  1.00  0.00     0.042 A 
ATOM     15  C   UNL A   1      31.181  27.552  23.662  1.00  0.00     0.019 A 
ATOM     16  O   UNL A   1      28.975  26.721  24.146  1.00  0.00    -0.475 OA
ATOM     17  Cl  UNL A   1      33.933  28.113  26.475  1.00  0.00    -0.084 Cl
ATOM     18  C   UNL A   1      32.322  28.005  24.317  1.00  0.00     0.032 A 
ATOM     19  C   UNL A   1      30.692  28.208  22.432  1.00  0.00     0.027 C 
ATOM     20  C   UNL A   1      28.464  27.799  23.238  1.00  0.00     0.316 C 
BRANCH  11  21
ATOM     21  C   UNL A   1      31.035  24.256  25.131  1.00  0.00    -0.015 A 
ATOM     22  C   UNL A   1      32.103  21.646  24.691  1.00  0.00     0.082 A 
ATOM     23  C   UNL A   1      32.034  22.166  25.984  1.00  0.00     0.022 A 
ATOM     24  C   UNL A   1      31.570  22.374  23.628  1.00  0.00     0.022 A 
ATOM     25  C   UNL A   1      31.495  23.449  26.198  1.00  0.00     0.010 A 
ATOM     26  C   UNL A   1      31.042  23.660  23.850  1.00  0.00     0.010 A 
BRANCH  22  27
ATOM     27  S   UNL A   1      32.814  20.047  24.402  1.00  0.00     0.238 S 
ATOM     28  O   UNL A   1      34.231  20.099  24.672  1.00  0.00    -0.207 OA
ATOM     29  O   UNL A   1      32.284  19.500  23.172  1.00  0.00    -0.207 OA
BRANCH  27  30
ATOM     30  N   UNL A   1      32.154  19.101  25.627  1.00  0.00    -0.225 NA
ATOM     31  H   UNL A   1      31.176  18.906  25.418  1.00  0.00     0.137 HD
ATOM     32  H   UNL A   1      32.220  19.600  26.515  1.00  0.00     0.137 HD
ENDBRANCH  27  30
ENDBRANCH  22  27
ENDBRANCH  11  21
BRANCH  20  33
ATOM     33  C   UNL A   1      27.048  28.344  23.565  1.00  0.00     0.430 C 
ATOM     34  F   UNL A   1      26.370  28.555  22.404  1.00  0.00    -0.167 F 
ATOM     35  F   UNL A   1      26.326  27.436  24.267  1.00  0.00    -0.167 F 
ATOM     36  F   UNL A   1      26.997  29.497  24.244  1.00  0.00    -0.167 F 
ENDBRANCH  20  33
ENDBRANCH   8  10
ENDBRANCH   7   8
ENDBRANCH   6   7
ENDBRANCH   5   6
ENDBRANCH   4   5
ENDBRANCH   3   4
ENDBRANCH   2   3
ENDBRANCH   1   2
BRANCH   1  37
ATOM     37  C   UNL A   1      34.863  32.623  29.528  1.00  0.00     0.188 C 
BRANCH  37  38
ATOM     38  C   UNL A   1      34.347  33.469  30.716  1.00  0.00     0.188 C 
BRANCH  38  39
ATOM     39  O   UNL A   1      35.170  33.431  31.880  1.00  0.00    -0.376 OA
BRANCH  39  40
ATOM     40  C   UNL A   1      36.507  32.982  31.720  1.00  0.00     0.202 C 
BRANCH  40  41
ATOM     41  C   UNL A   1      36.884  31.785  32.604  1.00  0.00     0.261 C 
BRANCH  41  42
ATOM     42  O   UNL A   1      37.878  32.060  33.601  1.00  0.00    -0.460 OA
BRANCH  42  43
ATOM     43  C   UNL A   1      38.905  32.858  33.232  1.00  0.00     0.338 C 
ATOM     44  O   UNL A   1      39.118  33.998  33.603  1.00  0.00    -0.246 OA
BRANCH  43  45
ATOM     45  C   UNL A   1      39.857  32.041  32.452  1.00  0.00     0.060 A 
ATOM     46  C   UNL A   1      40.594  31.054  33.118  1.00  0.00     0.016 A 
ATOM     47  C   UNL A   1      40.004  32.233  31.076  1.00  0.00     0.016 A 
ATOM     48  C   UNL A   1      41.518  30.285  32.412  1.00  0.00     0.010 A 
ATOM     49  C   UNL A   1      40.942  31.473  30.375  1.00  0.00     0.010 A 
ATOM     50  C   UNL A   1      41.728  30.522  31.047  1.00  0.00    -0.014 A 
BRANCH  50  51
ATOM     51  C   UNL A   1      42.902  29.918  30.377  1.00  0.00     0.031 A 
ATOM     52  C   UNL A   1      44.181  30.711  30.329  1.00  0.00     0.074 A 
ATOM     53  C   UNL A   1      42.850  28.681  29.853  1.00  0.00     0.049 A 
ATOM     54  N   UNL A   1      45.341  30.383  29.823  1.00  0.00    -0.248 NA
ATOM     55  C   UNL A   1      44.145  32.052  30.936  1.00  0.00     0.031 C 
ATOM     56  C   UNL A   1      41.680  27.803  29.865  1.00  0.00     0.029 A 
ATOM     57  N   UNL A   1      43.815  27.949  29.206  1.00  0.00    -0.354 N 
ATOM     58  C   UNL A   1      46.172  31.474  30.052  1.00  0.00     0.074 A 
ATOM     59  C   UNL A   1      45.376  32.485  30.711  1.00  0.00     0.031 C 
ATOM     60  C   UNL A   1      41.998  26.648  29.253  1.00  0.00     0.029 A 
ATOM     61  C   UNL A   1      43.381  26.715  28.784  1.00  0.00     0.049 A 
ATOM     62  H   UNL A   1      44.731  28.277  29.060  1.00  0.00     0.167 HD
ATOM     63  C   UNL A   1      47.483  31.618  29.750  1.00  0.00     0.031 A 
ATOM     64  C   UNL A   1      44.025  25.757  28.087  1.00  0.00     0.031 A 
ATOM     65  C   UNL A   1      48.268  30.622  29.073  1.00  0.00     0.049 A 
ATOM     66  C   UNL A   1      45.466  25.971  27.696  1.00  0.00     0.074 A 
ATOM     67  C   UNL A   1      49.608  30.667  28.732  1.00  0.00     0.029 A 
ATOM     68  N   UNL A   1      47.781  29.404  28.622  1.00  0.00    -0.354 N 
ATOM     69  N   UNL A   1      46.249  26.991  27.954  1.00  0.00    -0.248 NA
ATOM     70  C   UNL A   1      46.111  24.898  26.926  1.00  0.00     0.031 C 
ATOM     71  C   UNL A   1      49.917  29.502  28.021  1.00  0.00     0.029 A 
ATOM     72  C   UNL A   1      48.785  28.702  27.979  1.00  0.00     0.049 A 
ATOM     73  H   UNL A   1      46.857  29.086  28.743  1.00  0.00     0.167 HD
ATOM     74  C   UNL A   1      47.486  26.670  27.403  1.00  0.00     0.074 A 
ATOM     75  C   UNL A   1      47.350  25.355  26.811  1.00  0.00     0.031 C 
ATOM     76  C   UNL A   1      48.632  27.396  27.389  1.00  0.00     0.031 A 
BRANCH  63  77
ATOM     77  C   UNL A   1      48.140  32.921  30.123  1.00  0.00    -0.014 A 
ATOM     78  C   UNL A   1      48.145  34.014  29.238  1.00  0.00     0.010 A 
ATOM     79  C   UNL A   1      48.739  33.060  31.388  1.00  0.00     0.010 A 
ATOM     80  C   UNL A   1      48.769  35.212  29.599  1.00  0.00     0.020 A 
ATOM     81  C   UNL A   1      49.339  34.265  31.762  1.00  0.00     0.020 A 
ATOM     82  C   UNL A   1      49.365  35.328  30.858  1.00  0.00     0.054 A 
BRANCH  82  83
ATOM     83  S   UNL A   1      50.148  36.901  31.307  1.00  0.00     0.124 S 
ATOM     84  O   UNL A   1      50.085  36.862  32.767  1.00  0.00    -0.237 OA
ATOM     85  O   UNL A   1      51.485  36.768  30.734  1.00  0.00    -0.237 OA
ATOM     86  O   UNL A   1      49.298  37.906  30.674  1.00  0.00    -0.744 OA
ENDBRANCH  82  83
ENDBRANCH  63  77
BRANCH  64  87
ATOM     87  C   UNL A   1      43.311  24.507  27.705  1.00  0.00    -0.014 A 
ATOM     88  C   UNL A   1      43.266  23.406  28.578  1.00  0.00     0.010 A 
ATOM     89  C   UNL A   1      42.676  24.410  26.453  1.00  0.00     0.010 A 
ATOM     90  C   UNL A   1      42.613  22.228  28.201  1.00  0.00     0.020 A 
ATOM     91  C   UNL A   1      41.999  23.245  26.083  1.00  0.00     0.020 A 
ATOM     92  C   UNL A   1      41.981  22.156  26.956  1.00  0.00     0.054 A 
BRANCH  92  93
ATOM     93  S   UNL A   1      41.098  20.636  26.509  1.00  0.00     0.124 S 
ATOM     94  O   UNL A   1      39.929  21.158  25.808  1.00  0.00    -0.237 OA
ATOM     95  O   UNL A   1      42.075  19.936  25.679  1.00  0.00    -0.237 OA
ATOM     96  O   UNL A   1      40.825  20.007  27.800  1.00  0.00    -0.744 OA
ENDBRANCH  92  93
ENDBRANCH  64  87
BRANCH  76  97
ATOM     97  C   UNL A   1      49.843  26.774  26.741  1.00  0.00    -0.014 A 
ATOM     98  C   UNL A   1      50.180  27.049  25.404  1.00  0.00     0.010 A 
ATOM     99  C   UNL A   1      50.685  25.940  27.500  1.00  0.00     0.010 A 
ATOM    100  C   UNL A   1      51.316  26.473  24.828  1.00  0.00     0.020 A 
ATOM    101  C   UNL A   1      51.837  25.387  26.937  1.00  0.00     0.020 A 
ATOM    102  C   UNL A   1      52.137  25.644  25.598  1.00  0.00     0.054 A 
BRANCH 102 103
ATOM    103  S   UNL A   1      53.623  24.934  24.837  1.00  0.00     0.124 S 
ATOM    104  O   UNL A   1      53.476  25.343  23.444  1.00  0.00    -0.237 OA
ATOM    105  O   UNL A   1      54.703  25.586  25.574  1.00  0.00    -0.237 OA
ATOM    106  O   UNL A   1      53.487  23.500  25.083  1.00  0.00    -0.744 OA
ENDBRANCH 102 103
ENDBRANCH  76  97
ENDBRANCH  50  51
ENDBRANCH  43  45
ENDBRANCH  42  43
ENDBRANCH  41  42
ENDBRANCH  40  41
ENDBRANCH  39  40
ENDBRANCH  38  39
ENDBRANCH  37  38
ENDBRANCH   1  37
TORSDOF 27
ENDMDL
MODEL 2
REMARK VINA RESULT:      -8.9      5.899      7.203
REMARK SMILES NS(=O)(=O)c1ccc(-c2cc(Cl)cc3c2O[C@@H](C(F)(F)F)C(C(=O)OCCOCCOCCOCCOC(=O)c2ccc(-c4c5nc(c(-c6ccc(S(=O)(=O)[O-])cc6)c6ccc([nH]6)c(-c6ccc(S(=O)(=O)[O-])cc6)c6nc(c(-c7ccc(S(=O)(=O)[O-])cc7)c7ccc4[nH]7)C=C6)C=C5)cc2)=C3)cc1
REMARK SMILES IDX 31 1 30 2 29 3 28 4 27 5 26 6 25 7 23 8 24 9 22 10 9 11
REMARK SMILES IDX 10 12 15 13 11 14 14 15 16 16 12 17 13 18 100 19 17 20 8 21
REMARK SMILES IDX 5 22 6 23 102 24 7 25 101 26 2 27 3 28 4 29 1 30 18 33 19 34
REMARK SMILES IDX 20 35 21 36 32 37 33 38 34 39 35 40 36 41 37 42 38 43 39 44
REMARK SMILES IDX 40 45 41 46 99 47 42 48 98 49 43 50 44 51 45 52 92 53 46 54
REMARK SMILES IDX 97 55 91 56 93 57 47 58 96 59 90 60 89 61 48 63 78 64 59 65
REMARK SMILES IDX 77 66 60 67 63 68 76 69 94 70 61 71 62 72 75 74 95 75 64 76
REMARK SMILES IDX 49 77 50 78 58 79 51 80 57 81 52 82 53 83 54 84 55 85 56 86
REMARK SMILES IDX 79 87 80 88 88 89 81 90 87 91 82 92 83 93 84 94 85 95 86 96
REMARK SMILES IDX 65 97 66 98 74 99 67 100 73 101 68 102 69 103 70 104 71 105
REMARK SMILES IDX 72 106
REMARK H PARENT 1 31 1 32 93 62 63 73
REMARK Flexibility Score: inf
ROOT
ATOM      1  O   UNL A   1      35.888  31.086  29.978  1.00  0.00    -0.377 OA
ENDROOT
BRANCH   1   2
ATOM      2  C   UNL A   1      36.813  30.953  28.919  1.00  0.00     0.188 C 
BRANCH   2   3
ATOM      3  C   UNL A   1      36.202  30.311  27.667  1.00  0.00     0.188 C 
BRANCH   3   4
ATOM      4  O   UNL A   1      35.099  29.453  27.928  1.00  0.00    -0.376 OA
BRANCH   4   5
ATOM      5  C   UNL A   1      34.098  29.305  26.922  1.00  0.00     0.202 C 
BRANCH   5   6
ATOM      6  C   UNL A   1      33.238  28.032  26.915  1.00  0.00     0.261 C 
BRANCH   6   7
ATOM      7  O   UNL A   1      33.787  27.036  26.022  1.00  0.00    -0.460 OA
BRANCH   7   8
ATOM      8  C   UNL A   1      33.596  27.254  24.713  1.00  0.00     0.338 C 
ATOM      9  O   UNL A   1      34.027  28.222  24.097  1.00  0.00    -0.246 OA
BRANCH   8  10
ATOM     10  C   UNL A   1      32.948  26.106  24.029  1.00  0.00     0.087 C 
ATOM     11  C   UNL A   1      34.020  22.372  25.507  1.00  0.00     0.026 A 
ATOM     12  C   UNL A   1      35.278  22.558  26.124  1.00  0.00     0.033 A 
ATOM     13  C   UNL A   1      33.508  23.501  24.832  1.00  0.00     0.135 A 
ATOM     14  C   UNL A   1      36.103  23.620  25.757  1.00  0.00     0.042 A 
ATOM     15  C   UNL A   1      34.409  24.420  24.273  1.00  0.00     0.019 A 
ATOM     16  O   UNL A   1      32.185  23.908  25.039  1.00  0.00    -0.475 OA
ATOM     17  Cl  UNL A   1      37.646  23.789  26.491  1.00  0.00    -0.084 Cl
ATOM     18  C   UNL A   1      35.714  24.491  24.748  1.00  0.00     0.032 A 
ATOM     19  C   UNL A   1      33.880  25.429  23.331  1.00  0.00     0.027 C 
ATOM     20  C   UNL A   1      31.783  25.246  24.494  1.00  0.00     0.316 C 
BRANCH  11  21
ATOM     21  C   UNL A   1      33.779  20.951  25.052  1.00  0.00    -0.015 A 
ATOM     22  C   UNL A   1      33.631  18.101  25.009  1.00  0.00     0.082 A 
ATOM     23  C   UNL A   1      32.513  18.855  25.363  1.00  0.00     0.022 A 
ATOM     24  C   UNL A   1      34.794  18.749  24.594  1.00  0.00     0.022 A 
ATOM     25  C   UNL A   1      32.586  20.262  25.371  1.00  0.00     0.010 A 
ATOM     26  C   UNL A   1      34.862  20.156  24.615  1.00  0.00     0.010 A 
BRANCH  22  27
ATOM     27  S   UNL A   1      33.565  16.328  25.031  1.00  0.00     0.238 S 
ATOM     28  O   UNL A   1      33.667  15.832  23.679  1.00  0.00    -0.207 OA
ATOM     29  O   UNL A   1      32.522  15.896  25.935  1.00  0.00    -0.207 OA
BRANCH  27  30
ATOM     30  N   UNL A   1      35.008  15.894  25.780  1.00  0.00    -0.225 NA
ATOM     31  H   UNL A   1      35.758  15.873  25.090  1.00  0.00     0.137 HD
ATOM     32  H   UNL A   1      34.907  14.971  26.203  1.00  0.00     0.137 HD
ENDBRANCH  27  30
ENDBRANCH  22  27
ENDBRANCH  11  21
BRANCH  20  33
ATOM     33  C   UNL A   1      30.599  25.943  25.217  1.00  0.00     0.430 C 
ATOM     34  F   UNL A   1      30.702  27.290  25.049  1.00  0.00    -0.167 F 
ATOM     35  F   UNL A   1      29.413  25.582  24.669  1.00  0.00    -0.167 F 
ATOM     36  F   UNL A   1      30.502  25.736  26.536  1.00  0.00    -0.167 F 
ENDBRANCH  20  33
ENDBRANCH   8  10
ENDBRANCH   7   8
ENDBRANCH   6   7
ENDBRANCH   5   6
ENDBRANCH   4   5
ENDBRANCH   3   4
ENDBRANCH   2   3
ENDBRANCH   1   2
BRANCH   1  37
ATOM     37  C   UNL A   1      35.156  32.304  30.070  1.00  0.00     0.188 C 
BRANCH  37  38
ATOM     38  C   UNL A   1      35.852  33.679  29.937  1.00  0.00     0.188 C 
BRANCH  38  39
ATOM     39  O   UNL A   1      36.534  34.120  31.109  1.00  0.00    -0.376 OA
BRANCH  39  40
ATOM     40  C   UNL A   1      37.951  34.185  31.055  1.00  0.00     0.202 C 
BRANCH  40  41
ATOM     41  C   UNL A   1      38.666  33.248  32.038  1.00  0.00     0.261 C 
BRANCH  41  42
ATOM     42  O   UNL A   1      39.349  33.908  33.113  1.00  0.00    -0.460 OA
BRANCH  42  43
ATOM     43  C   UNL A   1      39.548  33.190  34.240  1.00  0.00     0.338 C 
ATOM     44  O   UNL A   1      38.831  33.155  35.224  1.00  0.00    -0.246 OA
BRANCH  43  45
ATOM     45  C   UNL A   1      40.688  32.281  34.004  1.00  0.00     0.060 A 
ATOM     46  C   UNL A   1      40.445  30.903  33.954  1.00  0.00     0.016 A 
ATOM     47  C   UNL A   1      41.977  32.785  33.812  1.00  0.00     0.016 A 
ATOM     48  C   UNL A   1      41.505  30.019  33.759  1.00  0.00     0.010 A 
ATOM     49  C   UNL A   1      43.040  31.897  33.632  1.00  0.00     0.010 A 
ATOM     50  C   UNL A   1      42.813  30.510  33.641  1.00  0.00    -0.014 A 
BRANCH  50  51
ATOM     51  C   UNL A   1      43.953  29.570  33.731  1.00  0.00     0.031 A 
ATOM     52  C   UNL A   1      44.441  29.169  35.097  1.00  0.00     0.074 A 
ATOM     53  C   UNL A   1      44.523  29.052  32.627  1.00  0.00     0.049 A 
ATOM     54  N   UNL A   1      45.401  28.345  35.426  1.00  0.00    -0.248 NA
ATOM     55  C   UNL A   1      43.751  29.781  36.246  1.00  0.00     0.031 C 
ATOM     56  C   UNL A   1      44.119  29.338  31.251  1.00  0.00     0.029 A 
ATOM     57  N   UNL A   1      45.568  28.173  32.497  1.00  0.00    -0.354 N 
ATOM     58  C   UNL A   1      45.428  28.336  36.816  1.00  0.00     0.074 A 
ATOM     59  C   UNL A   1      44.414  29.262  37.268  1.00  0.00     0.031 C 
ATOM     60  C   UNL A   1      44.911  28.644  30.414  1.00  0.00     0.029 A 
ATOM     61  C   UNL A   1      45.891  27.887  31.192  1.00  0.00     0.049 A 
ATOM     62  H   UNL A   1      46.042  27.783  33.267  1.00  0.00     0.167 HD
ATOM     63  C   UNL A   1      46.220  27.615  37.643  1.00  0.00     0.031 A 
ATOM     64  C   UNL A   1      46.873  27.115  30.686  1.00  0.00     0.031 A 
ATOM     65  C   UNL A   1      47.245  26.713  37.193  1.00  0.00     0.049 A 
ATOM     66  C   UNL A   1      47.792  26.379  31.628  1.00  0.00     0.074 A 
ATOM     67  C   UNL A   1      48.093  25.927  37.952  1.00  0.00     0.029 A 
ATOM     68  N   UNL A   1      47.570  26.486  35.864  1.00  0.00    -0.354 N 
ATOM     69  N   UNL A   1      47.780  26.350  32.940  1.00  0.00    -0.248 NA
ATOM     70  C   UNL A   1      48.852  25.563  31.018  1.00  0.00     0.031 C 
ATOM     71  C   UNL A   1      48.972  25.269  37.084  1.00  0.00     0.029 A 
ATOM     72  C   UNL A   1      48.626  25.595  35.781  1.00  0.00     0.049 A 
ATOM     73  H   UNL A   1      47.116  26.897  35.094  1.00  0.00     0.167 HD
ATOM     74  C   UNL A   1      48.812  25.492  33.311  1.00  0.00     0.074 A 
ATOM     75  C   UNL A   1      49.416  25.012  32.085  1.00  0.00     0.031 C 
ATOM     76  C   UNL A   1      49.221  25.132  34.553  1.00  0.00     0.031 A 
BRANCH  63  77
ATOM     77  C   UNL A   1      46.027  27.804  39.124  1.00  0.00    -0.014 A 
ATOM     78  C   UNL A   1      46.729  28.797  39.831  1.00  0.00     0.010 A 
ATOM     79  C   UNL A   1      45.111  26.990  39.815  1.00  0.00     0.010 A 
ATOM     80  C   UNL A   1      46.543  28.950  41.208  1.00  0.00     0.020 A 
ATOM     81  C   UNL A   1      44.902  27.158  41.186  1.00  0.00     0.020 A 
ATOM     82  C   UNL A   1      45.633  28.127  41.877  1.00  0.00     0.054 A 
BRANCH  82  83
ATOM     83  S   UNL A   1      45.397  28.362  43.660  1.00  0.00     0.124 S 
ATOM     84  O   UNL A   1      44.176  27.595  43.905  1.00  0.00    -0.237 OA
ATOM     85  O   UNL A   1      46.618  27.792  44.223  1.00  0.00    -0.237 OA
ATOM     86  O   UNL A   1      45.262  29.809  43.805  1.00  0.00    -0.744 OA
ENDBRANCH  82  83
ENDBRANCH  63  77
BRANCH  64  87
ATOM     87  C   UNL A   1      47.047  27.002  29.211  1.00  0.00    -0.014 A 
ATOM     88  C   UNL A   1      47.796  27.954  28.498  1.00  0.00     0.010 A 
ATOM     89  C   UNL A   1      46.451  25.938  28.509  1.00  0.00     0.010 A 
ATOM     90  C   UNL A   1      47.935  27.852  27.110  1.00  0.00     0.020 A 
ATOM     91  C   UNL A   1      46.610  25.817  27.126  1.00  0.00     0.020 A 
ATOM     92  C   UNL A   1      47.343  26.782  26.432  1.00  0.00     0.054 A 
BRANCH  92  93
ATOM     93  S   UNL A   1      47.578  26.643  24.639  1.00  0.00     0.124 S 
ATOM     94  O   UNL A   1      48.943  26.134  24.550  1.00  0.00    -0.237 OA
ATOM     95  O   UNL A   1      46.526  25.706  24.255  1.00  0.00    -0.237 OA
ATOM     96  O   UNL A   1      47.387  28.012  24.162  1.00  0.00    -0.744 OA
ENDBRANCH  92  93
ENDBRANCH  64  87
BRANCH  76  97
ATOM     97  C   UNL A   1      50.357  24.147  34.654  1.00  0.00    -0.014 A 
ATOM     98  C   UNL A   1      50.126  22.759  34.642  1.00  0.00     0.010 A 
ATOM     99  C   UNL A   1      51.682  24.618  34.710  1.00  0.00     0.010 A 
ATOM    100  C   UNL A   1      51.196  21.863  34.721  1.00  0.00     0.020 A 
ATOM    101  C   UNL A   1      52.756  23.725  34.759  1.00  0.00     0.020 A 
ATOM    102  C   UNL A   1      52.505  22.352  34.780  1.00  0.00     0.054 A 
BRANCH 102 103
ATOM    103  S   UNL A   1      53.878  21.169  34.850  1.00  0.00     0.124 S 
ATOM    104  O   UNL A   1      53.432  20.247  35.890  1.00  0.00    -0.237 OA
ATOM    105  O   UNL A   1      53.902  20.625  33.494  1.00  0.00    -0.237 OA
ATOM    106  O   UNL A   1      55.030  21.995  35.202  1.00  0.00    -0.744 OA
ENDBRANCH 102 103
ENDBRANCH  76  97
ENDBRANCH  50  51
ENDBRANCH  43  45
ENDBRANCH  42  43
ENDBRANCH  41  42
ENDBRANCH  40  41
ENDBRANCH  39  40
ENDBRANCH  38  39
ENDBRANCH  37  38
ENDBRANCH   1  37
TORSDOF 27
ENDMDL
MODEL 3
REMARK VINA RESULT:      -8.5     12.451     18.196
REMARK SMILES NS(=O)(=O)c1ccc(-c2cc(Cl)cc3c2O[C@@H](C(F)(F)F)C(C(=O)OCCOCCOCCOCCOC(=O)c2ccc(-c4c5nc(c(-c6ccc(S(=O)(=O)[O-])cc6)c6ccc([nH]6)c(-c6ccc(S(=O)(=O)[O-])cc6)c6nc(c(-c7ccc(S(=O)(=O)[O-])cc7)c7ccc4[nH]7)C=C6)C=C5)cc2)=C3)cc1
REMARK SMILES IDX 31 1 30 2 29 3 28 4 27 5 26 6 25 7 23 8 24 9 22 10 9 11
REMARK SMILES IDX 10 12 15 13 11 14 14 15 16 16 12 17 13 18 100 19 17 20 8 21
REMARK SMILES IDX 5 22 6 23 102 24 7 25 101 26 2 27 3 28 4 29 1 30 18 33 19 34
REMARK SMILES IDX 20 35 21 36 32 37 33 38 34 39 35 40 36 41 37 42 38 43 39 44
REMARK SMILES IDX 40 45 41 46 99 47 42 48 98 49 43 50 44 51 45 52 92 53 46 54
REMARK SMILES IDX 97 55 91 56 93 57 47 58 96 59 90 60 89 61 48 63 78 64 59 65
REMARK SMILES IDX 77 66 60 67 63 68 76 69 94 70 61 71 62 72 75 74 95 75 64 76
REMARK SMILES IDX 49 77 50 78 58 79 51 80 57 81 52 82 53 83 54 84 55 85 56 86
REMARK SMILES IDX 79 87 80 88 88 89 81 90 87 91 82 92 83 93 84 94 85 95 86 96
REMARK SMILES IDX 65 97 66 98 74 99 67 100 73 101 68 102 69 103 70 104 71 105
REMARK SMILES IDX 72 106
REMARK H PARENT 1 31 1 32 93 62 63 73
REMARK Flexibility Score: inf
ROOT
ATOM      1  O   UNL A   1      51.201  40.163  32.069  1.00  0.00    -0.377 OA
ENDROOT
BRANCH   1   2
ATOM      2  C   UNL A   1      50.525  40.816  31.014  1.00  0.00     0.188 C 
BRANCH   2   3
ATOM      3  C   UNL A   1      49.062  41.137  31.349  1.00  0.00     0.188 C 
BRANCH   3   4
ATOM      4  O   UNL A   1      48.752  42.525  31.345  1.00  0.00    -0.376 OA
BRANCH   4   5
ATOM      5  C   UNL A   1      47.517  42.948  31.922  1.00  0.00     0.202 C 
BRANCH   5   6
ATOM      6  C   UNL A   1      46.202  42.501  31.266  1.00  0.00     0.261 C 
BRANCH   6   7
ATOM      7  O   UNL A   1      45.078  42.724  32.148  1.00  0.00    -0.460 OA
BRANCH   7   8
ATOM      8  C   UNL A   1      43.902  42.965  31.548  1.00  0.00     0.338 C 
ATOM      9  O   UNL A   1      43.756  43.671  30.558  1.00  0.00    -0.246 OA
BRANCH   8  10
ATOM     10  C   UNL A   1      42.797  42.142  32.103  1.00  0.00     0.087 C 
ATOM     11  C   UNL A   1      43.935  38.376  33.441  1.00  0.00     0.026 A 
ATOM     12  C   UNL A   1      45.123  38.069  32.738  1.00  0.00     0.033 A 
ATOM     13  C   UNL A   1      43.303  39.579  33.059  1.00  0.00     0.135 A 
ATOM     14  C   UNL A   1      45.413  38.687  31.522  1.00  0.00     0.042 A 
ATOM     15  C   UNL A   1      43.444  40.026  31.736  1.00  0.00     0.019 A 
ATOM     16  O   UNL A   1      42.884  40.495  34.029  1.00  0.00    -0.475 OA
ATOM     17  Cl  UNL A   1      46.840  38.256  30.671  1.00  0.00    -0.084 Cl
ATOM     18  C   UNL A   1      44.515  39.588  30.964  1.00  0.00     0.032 A 
ATOM     19  C   UNL A   1      42.557  41.112  31.270  1.00  0.00     0.027 C 
ATOM     20  C   UNL A   1      42.455  41.851  33.556  1.00  0.00     0.316 C 
BRANCH  11  21
ATOM     21  C   UNL A   1      43.181  37.151  33.906  1.00  0.00    -0.015 A 
ATOM     22  C   UNL A   1      41.138  35.189  34.252  1.00  0.00     0.082 A 
ATOM     23  C   UNL A   1      42.139  34.997  33.300  1.00  0.00     0.022 A 
ATOM     24  C   UNL A   1      41.190  36.302  35.091  1.00  0.00     0.022 A 
ATOM     25  C   UNL A   1      43.152  35.962  33.141  1.00  0.00     0.010 A 
ATOM     26  C   UNL A   1      42.201  37.266  34.918  1.00  0.00     0.010 A 
BRANCH  22  27
ATOM     27  S   UNL A   1      39.834  34.000  34.439  1.00  0.00     0.238 S 
ATOM     28  O   UNL A   1      40.081  33.203  35.616  1.00  0.00    -0.207 OA
ATOM     29  O   UNL A   1      39.536  33.406  33.154  1.00  0.00    -0.207 OA
BRANCH  27  30
ATOM     30  N   UNL A   1      38.493  34.948  34.809  1.00  0.00    -0.225 NA
ATOM     31  H   UNL A   1      37.645  34.391  34.710  1.00  0.00     0.137 HD
ATOM     32  H   UNL A   1      38.454  35.744  34.172  1.00  0.00     0.137 HD
ENDBRANCH  27  30
ENDBRANCH  22  27
ENDBRANCH  11  21
BRANCH  20  33
ATOM     33  C   UNL A   1      42.592  43.004  34.587  1.00  0.00     0.430 C 
ATOM     34  F   UNL A   1      43.871  43.040  35.051  1.00  0.00    -0.167 F 
ATOM     35  F   UNL A   1      42.364  44.207  34.007  1.00  0.00    -0.167 F 
ATOM     36  F   UNL A   1      41.804  42.932  35.667  1.00  0.00    -0.167 F 
ENDBRANCH  20  33
ENDBRANCH   8  10
ENDBRANCH   7   8
ENDBRANCH   6   7
ENDBRANCH   5   6
ENDBRANCH   4   5
ENDBRANCH   3   4
ENDBRANCH   2   3
ENDBRANCH   1   2
BRANCH   1  37
ATOM     37  C   UNL A   1      51.977  40.965  32.955  1.00  0.00     0.188 C 
BRANCH  37  38
ATOM     38  C   UNL A   1      52.314  42.438  32.627  1.00  0.00     0.188 C 
BRANCH  38  39
ATOM     39  O   UNL A   1      51.425  43.397  33.198  1.00  0.00    -0.376 OA
BRANCH  39  40
ATOM     40  C   UNL A   1      50.585  42.960  34.255  1.00  0.00     0.202 C 
BRANCH  40  41
ATOM     41  C   UNL A   1      50.834  43.664  35.596  1.00  0.00     0.261 C 
BRANCH  41  42
ATOM     42  O   UNL A   1      49.986  44.793  35.851  1.00  0.00    -0.460 OA
BRANCH  42  43
ATOM     43  C   UNL A   1      49.638  45.013  37.139  1.00  0.00     0.338 C 
ATOM     44  O   UNL A   1      50.046  45.899  37.868  1.00  0.00    -0.246 OA
BRANCH  43  45
ATOM     45  C   UNL A   1      48.512  44.115  37.464  1.00  0.00     0.060 A 
ATOM     46  C   UNL A   1      48.577  43.361  38.642  1.00  0.00     0.016 A 
ATOM     47  C   UNL A   1      47.395  44.035  36.628  1.00  0.00     0.016 A 
ATOM     48  C   UNL A   1      47.540  42.485  38.962  1.00  0.00     0.010 A 
ATOM     49  C   UNL A   1      46.366  43.145  36.942  1.00  0.00     0.010 A 
ATOM     50  C   UNL A   1      46.452  42.341  38.091  1.00  0.00    -0.014 A 
BRANCH  50  51
ATOM     51  C   UNL A   1      45.513  41.212  38.282  1.00  0.00     0.031 A 
ATOM     52  C   UNL A   1      44.219  41.475  39.005  1.00  0.00     0.074 A 
ATOM     53  C   UNL A   1      45.782  39.987  37.794  1.00  0.00     0.049 A 
ATOM     54  N   UNL A   1      43.235  40.656  39.268  1.00  0.00    -0.248 NA
ATOM     55  C   UNL A   1      44.009  42.848  39.495  1.00  0.00     0.031 C 
ATOM     56  C   UNL A   1      46.984  39.616  37.049  1.00  0.00     0.029 A 
ATOM     57  N   UNL A   1      45.051  38.827  37.856  1.00  0.00    -0.354 N 
ATOM     58  C   UNL A   1      42.290  41.413  39.950  1.00  0.00     0.074 A 
ATOM     59  C   UNL A   1      42.831  42.746  40.091  1.00  0.00     0.031 C 
ATOM     60  C   UNL A   1      46.908  38.314  36.723  1.00  0.00     0.029 A 
ATOM     61  C   UNL A   1      45.667  37.754  37.257  1.00  0.00     0.049 A 
ATOM     62  H   UNL A   1      44.169  38.770  38.289  1.00  0.00     0.167 HD
ATOM     63  C   UNL A   1      41.074  41.035  40.410  1.00  0.00     0.031 A 
ATOM     64  C   UNL A   1      45.277  36.467  37.162  1.00  0.00     0.031 A 
ATOM     65  C   UNL A   1      40.546  39.703  40.291  1.00  0.00     0.049 A 
ATOM     66  C   UNL A   1      43.951  36.053  37.749  1.00  0.00     0.074 A 
ATOM     67  C   UNL A   1      39.320  39.222  40.715  1.00  0.00     0.029 A 
ATOM     68  N   UNL A   1      41.219  38.635  39.718  1.00  0.00    -0.354 N 
ATOM     69  N   UNL A   1      43.051  36.788  38.357  1.00  0.00    -0.248 NA
ATOM     70  C   UNL A   1      43.586  34.634  37.628  1.00  0.00     0.031 C 
ATOM     71  C   UNL A   1      39.275  37.849  40.450  1.00  0.00     0.029 A 
ATOM     72  C   UNL A   1      40.447  37.489  39.803  1.00  0.00     0.049 A 
ATOM     73  H   UNL A   1      42.113  38.684  39.309  1.00  0.00     0.167 HD
ATOM     74  C   UNL A   1      42.001  35.927  38.665  1.00  0.00     0.074 A 
ATOM     75  C   UNL A   1      42.373  34.620  38.163  1.00  0.00     0.031 C 
ATOM     76  C   UNL A   1      40.834  36.193  39.304  1.00  0.00     0.031 A 
BRANCH  63  77
ATOM     77  C   UNL A   1      40.248  42.076  41.117  1.00  0.00    -0.014 A 
ATOM     78  C   UNL A   1      39.780  43.218  40.442  1.00  0.00     0.010 A 
ATOM     79  C   UNL A   1      39.913  41.896  42.472  1.00  0.00     0.010 A 
ATOM     80  C   UNL A   1      39.023  44.178  41.119  1.00  0.00     0.020 A 
ATOM     81  C   UNL A   1      39.133  42.840  43.144  1.00  0.00     0.020 A 
ATOM     82  C   UNL A   1      38.707  43.984  42.467  1.00  0.00     0.054 A 
BRANCH  82  83
ATOM     83  S   UNL A   1      37.704  45.237  43.314  1.00  0.00     0.124 S 
ATOM     84  O   UNL A   1      38.581  45.629  44.415  1.00  0.00    -0.237 OA
ATOM     85  O   UNL A   1      37.510  46.246  42.276  1.00  0.00    -0.237 OA
ATOM     86  O   UNL A   1      36.500  44.510  43.707  1.00  0.00    -0.744 OA
ENDBRANCH  82  83
ENDBRANCH  63  77
BRANCH  64  87
ATOM     87  C   UNL A   1      46.157  35.470  36.492  1.00  0.00    -0.014 A 
ATOM     88  C   UNL A   1      47.083  34.713  37.231  1.00  0.00     0.010 A 
ATOM     89  C   UNL A   1      46.077  35.279  35.100  1.00  0.00     0.010 A 
ATOM     90  C   UNL A   1      47.921  33.795  36.590  1.00  0.00     0.020 A 
ATOM     91  C   UNL A   1      46.893  34.343  34.459  1.00  0.00     0.020 A 
ATOM     92  C   UNL A   1      47.819  33.614  35.207  1.00  0.00     0.054 A 
BRANCH  92  93
ATOM     93  S   UNL A   1      48.881  32.381  34.405  1.00  0.00     0.124 S 
ATOM     94  O   UNL A   1      49.220  31.500  35.517  1.00  0.00    -0.237 OA
ATOM     95  O   UNL A   1      47.993  31.812  33.394  1.00  0.00    -0.237 OA
ATOM     96  O   UNL A   1      49.986  33.177  33.874  1.00  0.00    -0.744 OA
ENDBRANCH  92  93
ENDBRANCH  64  87
BRANCH  76  97
ATOM     97  C   UNL A   1      39.857  35.059  39.470  1.00  0.00    -0.014 A 
ATOM     98  C   UNL A   1      38.978  34.692  38.434  1.00  0.00     0.010 A 
ATOM     99  C   UNL A   1      39.853  34.315  40.665  1.00  0.00     0.010 A 
ATOM    100  C   UNL A   1      38.090  33.625  38.605  1.00  0.00     0.020 A 
ATOM    101  C   UNL A   1      38.987  33.230  40.827  1.00  0.00     0.020 A 
ATOM    102  C   UNL A   1      38.099  32.902  39.801  1.00  0.00     0.054 A 
BRANCH 102 103
ATOM    103  S   UNL A   1      36.959  31.503  39.986  1.00  0.00     0.124 S 
ATOM    104  O   UNL A   1      35.823  32.124  40.659  1.00  0.00    -0.237 OA
ATOM    105  O   UNL A   1      36.725  31.095  38.602  1.00  0.00    -0.237 OA
ATOM    106  O   UNL A   1      37.714  30.545  40.791  1.00  0.00    -0.744 OA
ENDBRANCH 102 103
ENDBRANCH  76  97
ENDBRANCH  50  51
ENDBRANCH  43  45
ENDBRANCH  42  43
ENDBRANCH  41  42
ENDBRANCH  40  41
ENDBRANCH  39  40
ENDBRANCH  38  39
ENDBRANCH  37  38
ENDBRANCH   1  37
TORSDOF 27
ENDMDL
