MODEL 1
REMARK VINA RESULT:      -9.2      0.000      0.000
REMARK SMILES CN(C)c1cc(C(F)(F)F)cc(-c2cccc(/C=C/C(=O)OCCOCCOCCOCCOC(=O)c3ccc(-c4c5nc(c(-c6ccc(S(=O)(=O)[O-])cc6)c6ccc([nH]6)c(-c6ccc(S(=O)(=O)[O-])cc6)c6nc(c(-c7ccc(S(=O)(=O)[O-])cc7)c7ccc4[nH]7)C=C6)C=C5)cc3)c2)n1
REMARK SMILES IDX 28 1 27 2 26 3 25 4 24 5 23 6 22 7 20 8 21 9 19 10 18 11
REMARK SMILES IDX 17 12 13 13 14 14 97 15 15 16 16 17 12 18 4 19 5 20 98 21
REMARK SMILES IDX 6 22 11 23 2 24 1 25 3 26 7 27 8 28 9 29 10 30 29 31 30 32
REMARK SMILES IDX 31 33 32 34 33 35 34 36 35 37 36 38 37 39 38 40 96 41 39 42
REMARK SMILES IDX 95 43 40 44 41 45 42 46 89 47 43 48 94 49 88 50 90 51 44 52
REMARK SMILES IDX 93 53 87 54 86 55 45 57 75 58 56 59 74 60 57 61 60 62 73 63
REMARK SMILES IDX 91 64 58 65 59 66 72 68 92 69 61 70 46 71 47 72 55 73 48 74
REMARK SMILES IDX 54 75 49 76 50 77 51 78 52 79 53 80 76 81 77 82 85 83 78 84
REMARK SMILES IDX 84 85 79 86 80 87 81 88 82 89 83 90 62 91 63 92 71 93 64 94
REMARK SMILES IDX 70 95 65 96 66 97 67 98 68 99 69 100
REMARK H PARENT 90 56 60 67
REMARK Flexibility Score: inf
ROOT
ATOM      1  O   UNL A   1      35.034  31.314  27.713  1.00  0.00    -0.377 OA
ENDROOT
BRANCH   1   2
ATOM      2  C   UNL A   1      34.353  30.191  27.180  1.00  0.00     0.188 C 
BRANCH   2   3
ATOM      3  C   UNL A   1      32.873  30.383  26.799  1.00  0.00     0.188 C 
BRANCH   3   4
ATOM      4  O   UNL A   1      32.291  29.245  26.189  1.00  0.00    -0.376 OA
BRANCH   4   5
ATOM      5  C   UNL A   1      32.403  29.050  24.791  1.00  0.00     0.202 C 
BRANCH   5   6
ATOM      6  C   UNL A   1      33.447  28.092  24.194  1.00  0.00     0.261 C 
BRANCH   6   7
ATOM      7  O   UNL A   1      33.301  27.771  22.809  1.00  0.00    -0.460 OA
BRANCH   7   8
ATOM      8  C   UNL A   1      32.789  26.563  22.500  1.00  0.00     0.330 C 
ATOM      9  O   UNL A   1      32.037  26.311  21.572  1.00  0.00    -0.247 OA
BRANCH   8  10
ATOM     10  C   UNL A   1      33.396  25.506  23.343  1.00  0.00     0.094 C 
ATOM     11  C   UNL A   1      33.875  24.344  22.869  1.00  0.00     0.015 C 
BRANCH  11  12
ATOM     12  C   UNL A   1      34.436  23.277  23.713  1.00  0.00    -0.025 A 
ATOM     13  C   UNL A   1      36.270  22.522  25.160  1.00  0.00     0.001 A 
ATOM     14  C   UNL A   1      35.600  21.302  25.334  1.00  0.00     0.010 A 
ATOM     15  C   UNL A   1      35.678  23.493  24.329  1.00  0.00     0.018 A 
ATOM     16  C   UNL A   1      34.381  21.059  24.700  1.00  0.00     0.001 A 
ATOM     17  C   UNL A   1      33.807  22.039  23.887  1.00  0.00     0.008 A 
BRANCH  13  18
ATOM     18  C   UNL A   1      37.541  22.790  25.844  1.00  0.00     0.073 A 
ATOM     19  C   UNL A   1      39.587  21.911  26.570  1.00  0.00     0.129 A 
ATOM     20  C   UNL A   1      39.937  23.151  27.099  1.00  0.00     0.060 A 
ATOM     21  N   UNL A   1      38.393  21.742  25.958  1.00  0.00    -0.231 NA
ATOM     22  C   UNL A   1      39.074  24.243  26.973  1.00  0.00     0.061 A 
ATOM     23  C   UNL A   1      37.849  24.050  26.338  1.00  0.00     0.042 A 
BRANCH  19  24
ATOM     24  N   UNL A   1      40.469  20.844  26.612  1.00  0.00    -0.363 N 
ATOM     25  C   UNL A   1      41.409  20.702  27.704  1.00  0.00     0.144 C 
ATOM     26  C   UNL A   1      40.160  19.702  25.772  1.00  0.00     0.144 C 
ENDBRANCH  19  24
BRANCH  22  27
ATOM     27  C   UNL A   1      39.457  25.608  27.468  1.00  0.00     0.416 C 
ATOM     28  F   UNL A   1      40.421  25.562  28.425  1.00  0.00    -0.166 F 
ATOM     29  F   UNL A   1      39.950  26.397  26.474  1.00  0.00    -0.166 F 
ATOM     30  F   UNL A   1      38.418  26.302  28.011  1.00  0.00    -0.166 F 
ENDBRANCH  22  27
ENDBRANCH  13  18
ENDBRANCH  11  12
ENDBRANCH   8  10
ENDBRANCH   7   8
ENDBRANCH   6   7
ENDBRANCH   5   6
ENDBRANCH   4   5
ENDBRANCH   3   4
ENDBRANCH   2   3
ENDBRANCH   1   2
BRANCH   1  31
ATOM     31  C   UNL A   1      34.309  32.499  28.044  1.00  0.00     0.188 C 
BRANCH  31  32
ATOM     32  C   UNL A   1      34.635  33.372  29.281  1.00  0.00     0.188 C 
BRANCH  32  33
ATOM     33  O   UNL A   1      35.258  32.685  30.355  1.00  0.00    -0.376 OA
BRANCH  33  34
ATOM     34  C   UNL A   1      36.625  32.957  30.602  1.00  0.00     0.202 C 
BRANCH  34  35
ATOM     35  C   UNL A   1      37.578  31.755  30.543  1.00  0.00     0.261 C 
BRANCH  35  36
ATOM     36  O   UNL A   1      37.657  31.077  29.281  1.00  0.00    -0.460 OA
BRANCH  36  37
ATOM     37  C   UNL A   1      37.786  29.729  29.312  1.00  0.00     0.338 C 
ATOM     38  O   UNL A   1      36.914  28.916  29.529  1.00  0.00    -0.246 OA
BRANCH  37  39
ATOM     39  C   UNL A   1      39.153  29.408  28.848  1.00  0.00     0.060 A 
ATOM     40  C   UNL A   1      40.104  28.961  29.775  1.00  0.00     0.016 A 
ATOM     41  C   UNL A   1      39.487  29.539  27.499  1.00  0.00     0.016 A 
ATOM     42  C   UNL A   1      41.405  28.676  29.358  1.00  0.00     0.010 A 
ATOM     43  C   UNL A   1      40.795  29.272  27.086  1.00  0.00     0.010 A 
ATOM     44  C   UNL A   1      41.768  28.871  28.019  1.00  0.00    -0.014 A 
BRANCH  44  45
ATOM     45  C   UNL A   1      43.198  28.845  27.625  1.00  0.00     0.031 A 
ATOM     46  C   UNL A   1      43.756  27.567  27.056  1.00  0.00     0.074 A 
ATOM     47  C   UNL A   1      43.986  29.926  27.760  1.00  0.00     0.049 A 
ATOM     48  N   UNL A   1      44.981  27.285  26.695  1.00  0.00    -0.248 NA
ATOM     49  C   UNL A   1      42.804  26.458  26.876  1.00  0.00     0.031 C 
ATOM     50  C   UNL A   1      43.555  31.233  28.257  1.00  0.00     0.029 A 
ATOM     51  N   UNL A   1      45.323  30.091  27.497  1.00  0.00    -0.354 N 
ATOM     52  C   UNL A   1      44.949  25.965  26.259  1.00  0.00     0.074 A 
ATOM     53  C   UNL A   1      43.593  25.494  26.427  1.00  0.00     0.031 C 
ATOM     54  C   UNL A   1      44.614  32.063  28.272  1.00  0.00     0.029 A 
ATOM     55  C   UNL A   1      45.802  31.337  27.825  1.00  0.00     0.049 A 
ATOM     56  H   UNL A   1      45.888  29.382  27.110  1.00  0.00     0.167 HD
ATOM     57  C   UNL A   1      45.959  25.213  25.761  1.00  0.00     0.031 A 
ATOM     58  C   UNL A   1      47.058  31.827  27.793  1.00  0.00     0.031 A 
ATOM     59  C   UNL A   1      47.312  25.681  25.611  1.00  0.00     0.049 A 
ATOM     60  C   UNL A   1      48.182  30.947  27.306  1.00  0.00     0.074 A 
ATOM     61  C   UNL A   1      48.403  25.002  25.099  1.00  0.00     0.029 A 
ATOM     62  N   UNL A   1      47.761  26.939  25.983  1.00  0.00    -0.354 N 
ATOM     63  N   UNL A   1      48.133  29.711  26.868  1.00  0.00    -0.248 NA
ATOM     64  C   UNL A   1      49.530  31.533  27.300  1.00  0.00     0.031 C 
ATOM     65  C   UNL A   1      49.526  25.825  25.225  1.00  0.00     0.029 A 
ATOM     66  C   UNL A   1      49.120  27.045  25.742  1.00  0.00     0.049 A 
ATOM     67  H   UNL A   1      47.197  27.651  26.362  1.00  0.00     0.167 HD
ATOM     68  C   UNL A   1      49.437  29.383  26.506  1.00  0.00     0.074 A 
ATOM     69  C   UNL A   1      50.248  30.555  26.762  1.00  0.00     0.031 C 
ATOM     70  C   UNL A   1      49.917  28.219  26.002  1.00  0.00     0.031 A 
BRANCH  57  71
ATOM     71  C   UNL A   1      45.647  23.789  25.384  1.00  0.00    -0.014 A 
ATOM     72  C   UNL A   1      45.323  23.433  24.062  1.00  0.00     0.010 A 
ATOM     73  C   UNL A   1      45.722  22.781  26.364  1.00  0.00     0.010 A 
ATOM     74  C   UNL A   1      45.042  22.104  23.736  1.00  0.00     0.020 A 
ATOM     75  C   UNL A   1      45.472  21.446  26.035  1.00  0.00     0.020 A 
ATOM     76  C   UNL A   1      45.119  21.118  24.725  1.00  0.00     0.054 A 
BRANCH  76  77
ATOM     77  S   UNL A   1      44.780  19.397  24.265  1.00  0.00     0.124 S 
ATOM     78  O   UNL A   1      43.645  19.073  25.125  1.00  0.00    -0.237 OA
ATOM     79  O   UNL A   1      44.478  19.501  22.840  1.00  0.00    -0.237 OA
ATOM     80  O   UNL A   1      46.023  18.699  24.586  1.00  0.00    -0.744 OA
ENDBRANCH  76  77
ENDBRANCH  57  71
BRANCH  58  81
ATOM     81  C   UNL A   1      47.328  33.217  28.259  1.00  0.00    -0.014 A 
ATOM     82  C   UNL A   1      47.630  34.239  27.343  1.00  0.00     0.010 A 
ATOM     83  C   UNL A   1      47.287  33.524  29.632  1.00  0.00     0.010 A 
ATOM     84  C   UNL A   1      47.900  35.537  27.791  1.00  0.00     0.020 A 
ATOM     85  C   UNL A   1      47.524  34.826  30.081  1.00  0.00     0.020 A 
ATOM     86  C   UNL A   1      47.839  35.823  29.157  1.00  0.00     0.054 A 
BRANCH  86  87
ATOM     87  S   UNL A   1      48.134  37.527  29.708  1.00  0.00     0.124 S 
ATOM     88  O   UNL A   1      49.591  37.609  29.680  1.00  0.00    -0.237 OA
ATOM     89  O   UNL A   1      47.436  38.310  28.691  1.00  0.00    -0.237 OA
ATOM     90  O   UNL A   1      47.530  37.567  31.038  1.00  0.00    -0.744 OA
ENDBRANCH  86  87
ENDBRANCH  58  81
BRANCH  70  91
ATOM     91  C   UNL A   1      51.383  28.158  25.649  1.00  0.00    -0.014 A 
ATOM     92  C   UNL A   1      52.358  27.829  26.608  1.00  0.00     0.010 A 
ATOM     93  C   UNL A   1      51.782  28.374  24.316  1.00  0.00     0.010 A 
ATOM     94  C   UNL A   1      53.706  27.750  26.246  1.00  0.00     0.020 A 
ATOM     95  C   UNL A   1      53.124  28.262  23.944  1.00  0.00     0.020 A 
ATOM     96  C   UNL A   1      54.080  27.964  24.915  1.00  0.00     0.054 A 
BRANCH  96  97
ATOM     97  S   UNL A   1      55.831  27.811  24.465  1.00  0.00     0.124 S 
ATOM     98  O   UNL A   1      56.428  27.355  25.717  1.00  0.00    -0.237 OA
ATOM     99  O   UNL A   1      55.798  26.825  23.388  1.00  0.00    -0.237 OA
ATOM    100  O   UNL A   1      56.203  29.163  24.053  1.00  0.00    -0.744 OA
ENDBRANCH  96  97
ENDBRANCH  70  91
ENDBRANCH  44  45
ENDBRANCH  37  39
ENDBRANCH  36  37
ENDBRANCH  35  36
ENDBRANCH  34  35
ENDBRANCH  33  34
ENDBRANCH  32  33
ENDBRANCH  31  32
ENDBRANCH   1  31
TORSDOF 27
ENDMDL
MODEL 2
REMARK VINA RESULT:      -8.0      4.004      8.360
REMARK SMILES CN(C)c1cc(C(F)(F)F)cc(-c2cccc(/C=C/C(=O)OCCOCCOCCOCCOC(=O)c3ccc(-c4c5nc(c(-c6ccc(S(=O)(=O)[O-])cc6)c6ccc([nH]6)c(-c6ccc(S(=O)(=O)[O-])cc6)c6nc(c(-c7ccc(S(=O)(=O)[O-])cc7)c7ccc4[nH]7)C=C6)C=C5)cc3)c2)n1
REMARK SMILES IDX 28 1 27 2 26 3 25 4 24 5 23 6 22 7 20 8 21 9 19 10 18 11
REMARK SMILES IDX 17 12 13 13 14 14 97 15 15 16 16 17 12 18 4 19 5 20 98 21
REMARK SMILES IDX 6 22 11 23 2 24 1 25 3 26 7 27 8 28 9 29 10 30 29 31 30 32
REMARK SMILES IDX 31 33 32 34 33 35 34 36 35 37 36 38 37 39 38 40 96 41 39 42
REMARK SMILES IDX 95 43 40 44 41 45 42 46 89 47 43 48 94 49 88 50 90 51 44 52
REMARK SMILES IDX 93 53 87 54 86 55 45 57 75 58 56 59 74 60 57 61 60 62 73 63
REMARK SMILES IDX 91 64 58 65 59 66 72 68 92 69 61 70 46 71 47 72 55 73 48 74
REMARK SMILES IDX 54 75 49 76 50 77 51 78 52 79 53 80 76 81 77 82 85 83 78 84
REMARK SMILES IDX 84 85 79 86 80 87 81 88 82 89 83 90 62 91 63 92 71 93 64 94
REMARK SMILES IDX 70 95 65 96 66 97 67 98 68 99 69 100
REMARK H PARENT 90 56 60 67
REMARK Flexibility Score: inf
ROOT
ATOM      1  O   UNL A   1      36.304  31.292  28.163  1.00  0.00    -0.377 OA
ENDROOT
BRANCH   1   2
ATOM      2  C   UNL A   1      35.352  30.287  27.860  1.00  0.00     0.188 C 
BRANCH   2   3
ATOM      3  C   UNL A   1      34.036  30.741  27.201  1.00  0.00     0.188 C 
BRANCH   3   4
ATOM      4  O   UNL A   1      32.929  29.916  27.516  1.00  0.00    -0.376 OA
BRANCH   4   5
ATOM      5  C   UNL A   1      32.352  29.088  26.522  1.00  0.00     0.202 C 
BRANCH   5   6
ATOM      6  C   UNL A   1      33.191  28.060  25.745  1.00  0.00     0.261 C 
BRANCH   6   7
ATOM      7  O   UNL A   1      33.029  28.047  24.325  1.00  0.00    -0.460 OA
BRANCH   7   8
ATOM      8  C   UNL A   1      32.552  26.918  23.764  1.00  0.00     0.330 C 
ATOM      9  O   UNL A   1      31.765  26.849  22.832  1.00  0.00    -0.247 OA
BRANCH   8  10
ATOM     10  C   UNL A   1      33.242  25.728  24.313  1.00  0.00     0.094 C 
ATOM     11  C   UNL A   1      34.110  24.972  23.620  1.00  0.00     0.015 C 
BRANCH  11  12
ATOM     12  C   UNL A   1      34.761  23.764  24.153  1.00  0.00    -0.025 A 
ATOM     13  C   UNL A   1      36.680  22.786  25.330  1.00  0.00     0.001 A 
ATOM     14  C   UNL A   1      36.090  21.521  25.195  1.00  0.00     0.010 A 
ATOM     15  C   UNL A   1      36.006  23.896  24.785  1.00  0.00     0.018 A 
ATOM     16  C   UNL A   1      34.868  21.369  24.538  1.00  0.00     0.001 A 
ATOM     17  C   UNL A   1      34.212  22.484  24.013  1.00  0.00     0.008 A 
BRANCH  13  18
ATOM     18  C   UNL A   1      37.954  22.953  26.042  1.00  0.00     0.073 A 
ATOM     19  C   UNL A   1      39.967  21.951  26.697  1.00  0.00     0.129 A 
ATOM     20  C   UNL A   1      40.351  23.128  27.335  1.00  0.00     0.060 A 
ATOM     21  N   UNL A   1      38.772  21.874  26.067  1.00  0.00    -0.231 NA
ATOM     22  C   UNL A   1      39.522  24.254  27.300  1.00  0.00     0.061 A 
ATOM     23  C   UNL A   1      38.296  24.155  26.645  1.00  0.00     0.042 A 
BRANCH  19  24
ATOM     24  N   UNL A   1      40.815  20.857  26.650  1.00  0.00    -0.363 N 
ATOM     25  C   UNL A   1      41.903  20.722  27.595  1.00  0.00     0.144 C 
ATOM     26  C   UNL A   1      40.352  19.697  25.910  1.00  0.00     0.144 C 
ENDBRANCH  19  24
BRANCH  22  27
ATOM     27  C   UNL A   1      39.943  25.558  27.915  1.00  0.00     0.416 C 
ATOM     28  F   UNL A   1      41.201  25.507  28.430  1.00  0.00    -0.166 F 
ATOM     29  F   UNL A   1      39.947  26.576  27.010  1.00  0.00    -0.166 F 
ATOM     30  F   UNL A   1      39.134  25.968  28.931  1.00  0.00    -0.166 F 
ENDBRANCH  22  27
ENDBRANCH  13  18
ENDBRANCH  11  12
ENDBRANCH   8  10
ENDBRANCH   7   8
ENDBRANCH   6   7
ENDBRANCH   5   6
ENDBRANCH   4   5
ENDBRANCH   3   4
ENDBRANCH   2   3
ENDBRANCH   1   2
BRANCH   1  31
ATOM     31  C   UNL A   1      35.945  32.671  28.060  1.00  0.00     0.188 C 
BRANCH  31  32
ATOM     32  C   UNL A   1      35.867  33.618  29.283  1.00  0.00     0.188 C 
BRANCH  32  33
ATOM     33  O   UNL A   1      34.802  33.353  30.181  1.00  0.00    -0.376 OA
BRANCH  33  34
ATOM     34  C   UNL A   1      34.373  34.410  31.020  1.00  0.00     0.202 C 
BRANCH  34  35
ATOM     35  C   UNL A   1      34.169  34.063  32.501  1.00  0.00     0.261 C 
BRANCH  35  36
ATOM     36  O   UNL A   1      34.919  32.942  32.992  1.00  0.00    -0.460 OA
BRANCH  36  37
ATOM     37  C   UNL A   1      35.749  33.167  34.038  1.00  0.00     0.338 C 
ATOM     38  O   UNL A   1      35.442  33.539  35.150  1.00  0.00    -0.246 OA
BRANCH  37  39
ATOM     39  C   UNL A   1      37.095  32.699  33.639  1.00  0.00     0.060 A 
ATOM     40  C   UNL A   1      38.196  33.018  34.443  1.00  0.00     0.016 A 
ATOM     41  C   UNL A   1      37.260  31.939  32.480  1.00  0.00     0.016 A 
ATOM     42  C   UNL A   1      39.476  32.604  34.069  1.00  0.00     0.010 A 
ATOM     43  C   UNL A   1      38.543  31.541  32.097  1.00  0.00     0.010 A 
ATOM     44  C   UNL A   1      39.661  31.900  32.872  1.00  0.00    -0.014 A 
BRANCH  44  45
ATOM     45  C   UNL A   1      41.027  31.704  32.327  1.00  0.00     0.031 A 
ATOM     46  C   UNL A   1      41.588  32.763  31.416  1.00  0.00     0.074 A 
ATOM     47  C   UNL A   1      41.760  30.619  32.636  1.00  0.00     0.049 A 
ATOM     48  N   UNL A   1      42.728  32.788  30.777  1.00  0.00    -0.248 NA
ATOM     49  C   UNL A   1      40.746  33.950  31.193  1.00  0.00     0.031 C 
ATOM     50  C   UNL A   1      41.346  29.545  33.539  1.00  0.00     0.029 A 
ATOM     51  N   UNL A   1      43.008  30.239  32.209  1.00  0.00    -0.354 N 
ATOM     52  C   UNL A   1      42.734  33.983  30.066  1.00  0.00     0.074 A 
ATOM     53  C   UNL A   1      41.475  34.641  30.330  1.00  0.00     0.031 C 
ATOM     54  C   UNL A   1      42.322  28.621  33.590  1.00  0.00     0.029 A 
ATOM     55  C   UNL A   1      43.409  29.016  32.696  1.00  0.00     0.049 A 
ATOM     56  H   UNL A   1      43.564  30.788  31.610  1.00  0.00     0.167 HD
ATOM     57  C   UNL A   1      43.704  34.489  29.267  1.00  0.00     0.031 A 
ATOM     58  C   UNL A   1      44.513  28.290  32.429  1.00  0.00     0.031 A 
ATOM     59  C   UNL A   1      44.950  33.822  28.994  1.00  0.00     0.049 A 
ATOM     60  C   UNL A   1      45.546  28.838  31.476  1.00  0.00     0.074 A 
ATOM     61  C   UNL A   1      46.004  34.260  28.213  1.00  0.00     0.029 A 
ATOM     62  N   UNL A   1      45.304  32.573  29.481  1.00  0.00    -0.354 N 
ATOM     63  N   UNL A   1      45.553  29.983  30.835  1.00  0.00    -0.248 NA
ATOM     64  C   UNL A   1      46.725  27.998  31.218  1.00  0.00     0.031 C 
ATOM     65  C   UNL A   1      46.967  33.247  28.173  1.00  0.00     0.029 A 
ATOM     66  C   UNL A   1      46.547  32.211  28.992  1.00  0.00     0.049 A 
ATOM     67  H   UNL A   1      44.753  32.026  30.086  1.00  0.00     0.167 HD
ATOM     68  C   UNL A   1      46.750  30.014  30.123  1.00  0.00     0.074 A 
ATOM     69  C   UNL A   1      47.445  28.780  30.425  1.00  0.00     0.031 C 
ATOM     70  C   UNL A   1      47.230  30.979  29.300  1.00  0.00     0.031 A 
BRANCH  57  71
ATOM     71  C   UNL A   1      43.434  35.809  28.594  1.00  0.00    -0.014 A 
ATOM     72  C   UNL A   1      42.730  35.884  27.379  1.00  0.00     0.010 A 
ATOM     73  C   UNL A   1      43.859  37.001  29.212  1.00  0.00     0.010 A 
ATOM     74  C   UNL A   1      42.488  37.122  26.777  1.00  0.00     0.020 A 
ATOM     75  C   UNL A   1      43.592  38.242  28.628  1.00  0.00     0.020 A 
ATOM     76  C   UNL A   1      42.921  38.294  27.406  1.00  0.00     0.054 A 
BRANCH  76  77
ATOM     77  S   UNL A   1      42.566  39.887  26.615  1.00  0.00     0.124 S 
ATOM     78  O   UNL A   1      41.346  39.588  25.871  1.00  0.00    -0.237 OA
ATOM     79  O   UNL A   1      42.402  40.781  27.758  1.00  0.00    -0.237 OA
ATOM     80  O   UNL A   1      43.749  40.138  25.795  1.00  0.00    -0.744 OA
ENDBRANCH  76  77
ENDBRANCH  57  71
BRANCH  58  81
ATOM     81  C   UNL A   1      44.691  26.948  33.054  1.00  0.00    -0.014 A 
ATOM     82  C   UNL A   1      45.347  26.811  34.290  1.00  0.00     0.010 A 
ATOM     83  C   UNL A   1      44.206  25.795  32.409  1.00  0.00     0.010 A 
ATOM     84  C   UNL A   1      45.526  25.546  34.862  1.00  0.00     0.020 A 
ATOM     85  C   UNL A   1      44.355  24.534  32.992  1.00  0.00     0.020 A 
ATOM     86  C   UNL A   1      45.023  24.416  34.211  1.00  0.00     0.054 A 
BRANCH  86  87
ATOM     87  S   UNL A   1      45.216  22.794  35.001  1.00  0.00     0.124 S 
ATOM     88  O   UNL A   1      45.121  23.132  36.418  1.00  0.00    -0.237 OA
ATOM     89  O   UNL A   1      44.089  22.042  34.452  1.00  0.00    -0.237 OA
ATOM     90  O   UNL A   1      46.532  22.347  34.550  1.00  0.00    -0.744 OA
ENDBRANCH  86  87
ENDBRANCH  58  81
BRANCH  70  91
ATOM     91  C   UNL A   1      48.595  30.768  28.693  1.00  0.00    -0.014 A 
ATOM     92  C   UNL A   1      49.766  31.186  29.350  1.00  0.00     0.010 A 
ATOM     93  C   UNL A   1      48.708  30.080  27.469  1.00  0.00     0.010 A 
ATOM     94  C   UNL A   1      51.020  30.950  28.779  1.00  0.00     0.020 A 
ATOM     95  C   UNL A   1      49.961  29.812  26.912  1.00  0.00     0.020 A 
ATOM     96  C   UNL A   1      51.109  30.262  27.565  1.00  0.00     0.054 A 
BRANCH  96  97
ATOM     97  S   UNL A   1      52.751  29.930  26.868  1.00  0.00     0.124 S 
ATOM     98  O   UNL A   1      52.648  30.533  25.543  1.00  0.00    -0.237 OA
ATOM     99  O   UNL A   1      53.640  30.615  27.804  1.00  0.00    -0.237 OA
ATOM    100  O   UNL A   1      52.846  28.471  26.883  1.00  0.00    -0.744 OA
ENDBRANCH  96  97
ENDBRANCH  70  91
ENDBRANCH  44  45
ENDBRANCH  37  39
ENDBRANCH  36  37
ENDBRANCH  35  36
ENDBRANCH  34  35
ENDBRANCH  33  34
ENDBRANCH  32  33
ENDBRANCH  31  32
ENDBRANCH   1  31
TORSDOF 27
ENDMDL
MODEL 3
REMARK VINA RESULT:      -8.0      2.809      3.883
REMARK SMILES CN(C)c1cc(C(F)(F)F)cc(-c2cccc(/C=C/C(=O)OCCOCCOCCOCCOC(=O)c3ccc(-c4c5nc(c(-c6ccc(S(=O)(=O)[O-])cc6)c6ccc([nH]6)c(-c6ccc(S(=O)(=O)[O-])cc6)c6nc(c(-c7ccc(S(=O)(=O)[O-])cc7)c7ccc4[nH]7)C=C6)C=C5)cc3)c2)n1
REMARK SMILES IDX 28 1 27 2 26 3 25 4 24 5 23 6 22 7 20 8 21 9 19 10 18 11
REMARK SMILES IDX 17 12 13 13 14 14 97 15 15 16 16 17 12 18 4 19 5 20 98 21
REMARK SMILES IDX 6 22 11 23 2 24 1 25 3 26 7 27 8 28 9 29 10 30 29 31 30 32
REMARK SMILES IDX 31 33 32 34 33 35 34 36 35 37 36 38 37 39 38 40 96 41 39 42
REMARK SMILES IDX 95 43 40 44 41 45 42 46 89 47 43 48 94 49 88 50 90 51 44 52
REMARK SMILES IDX 93 53 87 54 86 55 45 57 75 58 56 59 74 60 57 61 60 62 73 63
REMARK SMILES IDX 91 64 58 65 59 66 72 68 92 69 61 70 46 71 47 72 55 73 48 74
REMARK SMILES IDX 54 75 49 76 50 77 51 78 52 79 53 80 76 81 77 82 85 83 78 84
REMARK SMILES IDX 84 85 79 86 80 87 81 88 82 89 83 90 62 91 63 92 71 93 64 94
REMARK SMILES IDX 70 95 65 96 66 97 67 98 68 99 69 100
REMARK H PARENT 90 56 60 67
REMARK Flexibility Score: inf
ROOT
ATOM      1  O   UNL A   1      36.669  31.227  28.049  1.00  0.00    -0.377 OA
ENDROOT
BRANCH   1   2
ATOM      2  C   UNL A   1      36.209  30.011  27.485  1.00  0.00     0.188 C 
BRANCH   2   3
ATOM      3  C   UNL A   1      34.783  29.560  27.852  1.00  0.00     0.188 C 
BRANCH   3   4
ATOM      4  O   UNL A   1      33.786  30.058  26.979  1.00  0.00    -0.376 OA
BRANCH   4   5
ATOM      5  C   UNL A   1      33.538  29.418  25.741  1.00  0.00     0.202 C 
BRANCH   5   6
ATOM      6  C   UNL A   1      32.388  29.862  24.822  1.00  0.00     0.261 C 
BRANCH   6   7
ATOM      7  O   UNL A   1      31.874  28.879  23.921  1.00  0.00    -0.460 OA
BRANCH   7   8
ATOM      8  C   UNL A   1      30.552  28.622  23.970  1.00  0.00     0.330 C 
ATOM      9  O   UNL A   1      29.656  29.354  23.576  1.00  0.00    -0.247 OA
BRANCH   8  10
ATOM     10  C   UNL A   1      30.304  27.231  24.417  1.00  0.00     0.094 C 
ATOM     11  C   UNL A   1      31.079  26.570  25.293  1.00  0.00     0.015 C 
BRANCH  11  12
ATOM     12  C   UNL A   1      30.857  25.174  25.702  1.00  0.00    -0.025 A 
ATOM     13  C   UNL A   1      31.659  22.854  25.692  1.00  0.00     0.001 A 
ATOM     14  C   UNL A   1      30.521  22.481  26.422  1.00  0.00     0.010 A 
ATOM     15  C   UNL A   1      31.800  24.206  25.325  1.00  0.00     0.018 A 
ATOM     16  C   UNL A   1      29.557  23.426  26.775  1.00  0.00     0.001 A 
ATOM     17  C   UNL A   1      29.721  24.763  26.409  1.00  0.00     0.008 A 
BRANCH  13  18
ATOM     18  C   UNL A   1      32.688  21.866  25.340  1.00  0.00     0.073 A 
ATOM     19  C   UNL A   1      34.922  21.510  24.734  1.00  0.00     0.129 A 
ATOM     20  C   UNL A   1      34.690  20.138  24.666  1.00  0.00     0.060 A 
ATOM     21  N   UNL A   1      33.919  22.357  25.061  1.00  0.00    -0.231 NA
ATOM     22  C   UNL A   1      33.428  19.619  24.969  1.00  0.00     0.061 A 
ATOM     23  C   UNL A   1      32.408  20.507  25.305  1.00  0.00     0.042 A 
BRANCH  19  24
ATOM     24  N   UNL A   1      36.188  22.029  24.521  1.00  0.00    -0.363 N 
ATOM     25  C   UNL A   1      37.334  21.502  25.231  1.00  0.00     0.144 C 
ATOM     26  C   UNL A   1      36.383  22.812  23.314  1.00  0.00     0.144 C 
ENDBRANCH  19  24
BRANCH  22  27
ATOM     27  C   UNL A   1      33.168  18.140  24.977  1.00  0.00     0.416 C 
ATOM     28  F   UNL A   1      32.193  17.779  24.101  1.00  0.00    -0.166 F 
ATOM     29  F   UNL A   1      34.271  17.421  24.630  1.00  0.00    -0.166 F 
ATOM     30  F   UNL A   1      32.781  17.661  26.192  1.00  0.00    -0.166 F 
ENDBRANCH  22  27
ENDBRANCH  13  18
ENDBRANCH  11  12
ENDBRANCH   8  10
ENDBRANCH   7   8
ENDBRANCH   6   7
ENDBRANCH   5   6
ENDBRANCH   4   5
ENDBRANCH   3   4
ENDBRANCH   2   3
ENDBRANCH   1   2
BRANCH   1  31
ATOM     31  C   UNL A   1      35.738  32.259  28.379  1.00  0.00     0.188 C 
BRANCH  31  32
ATOM     32  C   UNL A   1      35.914  33.200  29.597  1.00  0.00     0.188 C 
BRANCH  32  33
ATOM     33  O   UNL A   1      35.147  32.855  30.739  1.00  0.00    -0.376 OA
BRANCH  33  34
ATOM     34  C   UNL A   1      35.490  31.664  31.424  1.00  0.00     0.202 C 
BRANCH  34  35
ATOM     35  C   UNL A   1      36.266  31.835  32.737  1.00  0.00     0.261 C 
BRANCH  35  36
ATOM     36  O   UNL A   1      37.448  31.034  32.877  1.00  0.00    -0.460 OA
BRANCH  36  37
ATOM     37  C   UNL A   1      37.530  29.917  32.115  1.00  0.00     0.338 C 
ATOM     38  O   UNL A   1      36.629  29.155  31.835  1.00  0.00    -0.246 OA
BRANCH  37  39
ATOM     39  C   UNL A   1      38.885  29.888  31.523  1.00  0.00     0.060 A 
ATOM     40  C   UNL A   1      39.094  30.467  30.264  1.00  0.00     0.016 A 
ATOM     41  C   UNL A   1      39.943  29.297  32.216  1.00  0.00     0.016 A 
ATOM     42  C   UNL A   1      40.362  30.427  29.681  1.00  0.00     0.010 A 
ATOM     43  C   UNL A   1      41.206  29.241  31.622  1.00  0.00     0.010 A 
ATOM     44  C   UNL A   1      41.414  29.776  30.338  1.00  0.00    -0.014 A 
BRANCH  44  45
ATOM     45  C   UNL A   1      42.675  29.482  29.614  1.00  0.00     0.031 A 
ATOM     46  C   UNL A   1      42.846  28.113  29.011  1.00  0.00     0.074 A 
ATOM     47  C   UNL A   1      43.645  30.405  29.485  1.00  0.00     0.049 A 
ATOM     48  N   UNL A   1      43.875  27.606  28.384  1.00  0.00    -0.248 NA
ATOM     49  C   UNL A   1      41.704  27.193  29.137  1.00  0.00     0.031 C 
ATOM     50  C   UNL A   1      43.582  31.777  29.986  1.00  0.00     0.029 A 
ATOM     51  N   UNL A   1      44.883  30.317  28.897  1.00  0.00    -0.354 N 
ATOM     52  C   UNL A   1      43.511  26.305  28.055  1.00  0.00     0.074 A 
ATOM     53  C   UNL A   1      42.179  26.092  28.574  1.00  0.00     0.031 C 
ATOM     54  C   UNL A   1      44.737  32.401  29.692  1.00  0.00     0.029 A 
ATOM     55  C   UNL A   1      45.634  31.462  29.020  1.00  0.00     0.049 A 
ATOM     56  H   UNL A   1      45.203  29.510  28.433  1.00  0.00     0.167 HD
ATOM     57  C   UNL A   1      44.221  25.372  27.377  1.00  0.00     0.031 A 
ATOM     58  C   UNL A   1      46.908  31.715  28.655  1.00  0.00     0.031 A 
ATOM     59  C   UNL A   1      45.554  25.583  26.876  1.00  0.00     0.049 A 
ATOM     60  C   UNL A   1      47.707  30.635  27.969  1.00  0.00     0.074 A 
ATOM     61  C   UNL A   1      46.350  24.706  26.161  1.00  0.00     0.029 A 
ATOM     62  N   UNL A   1      46.290  26.745  27.048  1.00  0.00    -0.354 N 
ATOM     63  N   UNL A   1      47.340  29.420  27.636  1.00  0.00    -0.248 NA
ATOM     64  C   UNL A   1      49.092  30.965  27.601  1.00  0.00     0.031 C 
ATOM     65  C   UNL A   1      47.593  25.313  25.959  1.00  0.00     0.029 A 
ATOM     66  C   UNL A   1      47.544  26.597  26.480  1.00  0.00     0.049 A 
ATOM     67  H   UNL A   1      45.968  27.555  27.505  1.00  0.00     0.167 HD
ATOM     68  C   UNL A   1      48.437  28.852  26.992  1.00  0.00     0.074 A 
ATOM     69  C   UNL A   1      49.474  29.862  26.970  1.00  0.00     0.031 C 
ATOM     70  C   UNL A   1      48.570  27.610  26.464  1.00  0.00     0.031 A 
BRANCH  57  71
ATOM     71  C   UNL A   1      43.585  24.021  27.179  1.00  0.00    -0.014 A 
ATOM     72  C   UNL A   1      43.498  23.089  28.229  1.00  0.00     0.010 A 
ATOM     73  C   UNL A   1      43.029  23.694  25.927  1.00  0.00     0.010 A 
ATOM     74  C   UNL A   1      42.899  21.844  28.021  1.00  0.00     0.020 A 
ATOM     75  C   UNL A   1      42.402  22.462  25.725  1.00  0.00     0.020 A 
ATOM     76  C   UNL A   1      42.354  21.538  26.770  1.00  0.00     0.054 A 
BRANCH  76  77
ATOM     77  S   UNL A   1      41.556  19.926  26.539  1.00  0.00     0.124 S 
ATOM     78  O   UNL A   1      41.945  19.221  27.758  1.00  0.00    -0.237 OA
ATOM     79  O   UNL A   1      40.144  20.280  26.441  1.00  0.00    -0.237 OA
ATOM     80  O   UNL A   1      42.155  19.415  25.308  1.00  0.00    -0.744 OA
ENDBRANCH  76  77
ENDBRANCH  57  71
BRANCH  58  81
ATOM     81  C   UNL A   1      47.519  33.041  28.952  1.00  0.00    -0.014 A 
ATOM     82  C   UNL A   1      48.488  33.178  29.962  1.00  0.00     0.010 A 
ATOM     83  C   UNL A   1      47.129  34.181  28.225  1.00  0.00     0.010 A 
ATOM     84  C   UNL A   1      49.044  34.430  30.247  1.00  0.00     0.020 A 
ATOM     85  C   UNL A   1      47.704  35.427  28.485  1.00  0.00     0.020 A 
ATOM     86  C   UNL A   1      48.652  35.546  29.503  1.00  0.00     0.054 A 
BRANCH  86  87
ATOM     87  S   UNL A   1      49.431  37.147  29.852  1.00  0.00     0.124 S 
ATOM     88  O   UNL A   1      48.357  37.868  30.527  1.00  0.00    -0.237 OA
ATOM     89  O   UNL A   1      50.565  36.767  30.691  1.00  0.00    -0.237 OA
ATOM     90  O   UNL A   1      49.787  37.651  28.527  1.00  0.00    -0.744 OA
ENDBRANCH  86  87
ENDBRANCH  58  81
BRANCH  70  91
ATOM     91  C   UNL A   1      49.869  27.277  25.773  1.00  0.00    -0.014 A 
ATOM     92  C   UNL A   1      50.267  27.937  24.597  1.00  0.00     0.010 A 
ATOM     93  C   UNL A   1      50.734  26.329  26.351  1.00  0.00     0.010 A 
ATOM     94  C   UNL A   1      51.492  27.629  23.995  1.00  0.00     0.020 A 
ATOM     95  C   UNL A   1      51.973  26.044  25.771  1.00  0.00     0.020 A 
ATOM     96  C   UNL A   1      52.337  26.686  24.588  1.00  0.00     0.054 A 
BRANCH  96  97
ATOM     97  S   UNL A   1      53.940  26.340  23.809  1.00  0.00     0.124 S 
ATOM     98  O   UNL A   1      54.386  25.159  24.543  1.00  0.00    -0.237 OA
ATOM     99  O   UNL A   1      53.575  26.113  22.414  1.00  0.00    -0.237 OA
ATOM    100  O   UNL A   1      54.714  27.555  24.056  1.00  0.00    -0.744 OA
ENDBRANCH  96  97
ENDBRANCH  70  91
ENDBRANCH  44  45
ENDBRANCH  37  39
ENDBRANCH  36  37
ENDBRANCH  35  36
ENDBRANCH  34  35
ENDBRANCH  33  34
ENDBRANCH  32  33
ENDBRANCH  31  32
ENDBRANCH   1  31
TORSDOF 27
ENDMDL
