MODEL 1
REMARK VINA RESULT:      -9.6      0.000      0.000
REMARK SMILES O=C(OCCOCCOCCOCCOC(=O)c1ccc(-c2c3nc(c(-c4ccc(S(=O)(=O)[O-])cc4)c4ccc([nH]4)c(-c4ccc(S(=O)(=O)[O-])cc4)c4nc(c(-c5ccc(S(=O)(=O)[O-])cc5)c5ccc2[nH]5)C=C4)C=C3)cc1)C1=Cc2cc(Cl)cc(-c3ccc(CO)cc3)c2O[C@@H]1C(F)(F)F
REMARK SMILES IDX 9 1 8 2 7 3 6 4 5 5 4 6 3 7 2 8 1 9 78 10 79 11 96 12 80 13
REMARK SMILES IDX 95 14 81 15 94 16 82 17 85 18 83 19 84 20 97 21 98 22 99 23
REMARK SMILES IDX 100 24 86 25 87 26 93 27 88 28 92 29 89 30 90 31 91 32 10 34
REMARK SMILES IDX 11 35 12 36 13 37 14 38 15 39 16 40 17 41 18 42 19 43 77 44
REMARK SMILES IDX 20 45 76 46 21 47 22 48 23 49 70 50 24 51 75 52 69 53 71 54
REMARK SMILES IDX 25 55 74 56 68 57 67 58 26 60 56 61 37 62 55 63 38 64 41 65
REMARK SMILES IDX 54 66 72 67 39 68 40 69 53 71 73 72 42 73 27 74 28 75 36 76
REMARK SMILES IDX 29 77 35 78 30 79 31 80 32 81 33 82 34 83 57 84 58 85 66 86
REMARK SMILES IDX 59 87 65 88 60 89 61 90 62 91 63 92 64 93 43 94 44 95 52 96
REMARK SMILES IDX 45 97 51 98 46 99 47 100 48 101 49 102 50 103
REMARK H PARENT 91 33 71 59 41 70
REMARK Flexibility Score: inf
ROOT
ATOM      1  O   UNL A   1      34.359  35.303  28.717  1.00  0.00    -0.377 OA
ENDROOT
BRANCH   1   2
ATOM      2  C   UNL A   1      33.179  36.036  28.891  1.00  0.00     0.188 C 
BRANCH   2   3
ATOM      3  C   UNL A   1      32.730  35.936  30.337  1.00  0.00     0.188 C 
BRANCH   3   4
ATOM      4  O   UNL A   1      33.043  34.841  31.260  1.00  0.00    -0.376 OA
BRANCH   4   5
ATOM      5  C   UNL A   1      33.905  34.663  32.656  1.00  0.00     0.202 C 
BRANCH   5   6
ATOM      6  C   UNL A   1      36.043  34.995  32.948  1.00  0.00     0.261 C 
BRANCH   6   7
ATOM      7  O   UNL A   1      36.868  34.553  34.153  1.00  0.00    -0.460 OA
BRANCH   7   8
ATOM      8  C   UNL A   1      37.112  33.237  34.155  1.00  0.00     0.338 C 
ATOM      9  O   UNL A   1      36.326  32.325  34.219  1.00  0.00    -0.246 OA
BRANCH   8  10
ATOM     10  C   UNL A   1      38.506  33.329  34.551  1.00  0.00     0.087 C 
ATOM     11  C   UNL A   1      38.845  34.538  35.291  1.00  0.00     0.027 C 
ATOM     12  C   UNL A   1      38.547  31.551  35.274  1.00  0.00     0.316 C 
ATOM     13  C   UNL A   1      39.128  34.590  37.065  1.00  0.00     0.019 A 
ATOM     14  O   UNL A   1      38.715  31.585  37.227  1.00  0.00    -0.475 OA
ATOM     15  C   UNL A   1      39.408  35.819  37.603  1.00  0.00     0.032 A 
ATOM     16  C   UNL A   1      38.936  33.200  38.102  1.00  0.00     0.135 A 
ATOM     17  C   UNL A   1      39.511  35.851  38.993  1.00  0.00     0.042 A 
ATOM     18  C   UNL A   1      38.959  33.370  39.498  1.00  0.00     0.026 A 
ATOM     19  Cl  UNL A   1      39.934  37.368  39.718  1.00  0.00    -0.084 Cl
ATOM     20  C   UNL A   1      39.285  34.723  39.866  1.00  0.00     0.033 A 
BRANCH  12  21
ATOM     21  C   UNL A   1      39.575  31.102  33.972  1.00  0.00     0.430 C 
ATOM     22  F   UNL A   1      40.671  31.827  33.681  1.00  0.00    -0.167 F 
ATOM     23  F   UNL A   1      40.099  29.880  34.311  1.00  0.00    -0.167 F 
ATOM     24  F   UNL A   1      38.932  30.873  32.796  1.00  0.00    -0.167 F 
ENDBRANCH  12  21
BRANCH  18  25
ATOM     25  C   UNL A   1      38.771  32.459  40.635  1.00  0.00    -0.015 A 
ATOM     26  C   UNL A   1      39.765  32.095  41.557  1.00  0.00     0.009 A 
ATOM     27  C   UNL A   1      37.631  31.682  40.684  1.00  0.00     0.009 A 
ATOM     28  C   UNL A   1      39.503  31.189  42.619  1.00  0.00     0.007 A 
ATOM     29  C   UNL A   1      37.298  30.958  41.827  1.00  0.00     0.007 A 
ATOM     30  C   UNL A   1      38.219  30.692  42.821  1.00  0.00    -0.023 A 
BRANCH  30  31
ATOM     31  C   UNL A   1      37.790  29.898  44.026  1.00  0.00     0.191 C 
BRANCH  31  32
ATOM     32  O   UNL A   1      36.557  30.334  44.563  1.00  0.00    -0.392 OA
ATOM     33  H   UNL A   1      36.585  31.294  44.700  1.00  0.00     0.211 HD
ENDBRANCH  31  32
ENDBRANCH  30  31
ENDBRANCH  18  25
ENDBRANCH   8  10
ENDBRANCH   7   8
ENDBRANCH   6   7
ENDBRANCH   5   6
ENDBRANCH   4   5
ENDBRANCH   3   4
ENDBRANCH   2   3
ENDBRANCH   1   2
BRANCH   1  34
ATOM     34  C   UNL A   1      34.097  34.189  27.901  1.00  0.00     0.188 C 
BRANCH  34  35
ATOM     35  C   UNL A   1      34.218  32.811  28.532  1.00  0.00     0.188 C 
BRANCH  35  36
ATOM     36  O   UNL A   1      34.579  31.787  27.646  1.00  0.00    -0.376 OA
BRANCH  36  37
ATOM     37  C   UNL A   1      35.749  31.025  27.908  1.00  0.00     0.202 C 
BRANCH  37  38
ATOM     38  C   UNL A   1      35.947  30.111  29.140  1.00  0.00     0.261 C 
BRANCH  38  39
ATOM     39  O   UNL A   1      36.942  29.073  29.091  1.00  0.00    -0.460 OA
BRANCH  39  40
ATOM     40  C   UNL A   1      37.726  28.857  30.170  1.00  0.00     0.338 C 
ATOM     41  O   UNL A   1      37.364  28.500  31.275  1.00  0.00    -0.246 OA
BRANCH  40  42
ATOM     42  C   UNL A   1      39.139  28.908  29.701  1.00  0.00     0.060 A 
ATOM     43  C   UNL A   1      39.424  29.293  28.379  1.00  0.00     0.016 A 
ATOM     44  C   UNL A   1      40.186  28.642  30.584  1.00  0.00     0.016 A 
ATOM     45  C   UNL A   1      40.753  29.378  27.927  1.00  0.00     0.010 A 
ATOM     46  C   UNL A   1      41.511  28.746  30.137  1.00  0.00     0.010 A 
ATOM     47  C   UNL A   1      41.811  29.066  28.791  1.00  0.00    -0.014 A 
BRANCH  47  48
ATOM     48  C   UNL A   1      43.176  28.754  28.269  1.00  0.00     0.031 A 
ATOM     49  C   UNL A   1      44.166  29.896  28.318  1.00  0.00     0.074 A 
ATOM     50  C   UNL A   1      43.558  27.573  27.737  1.00  0.00     0.049 A 
ATOM     51  N   UNL A   1      45.393  29.958  27.874  1.00  0.00    -0.248 NA
ATOM     52  C   UNL A   1      43.682  31.160  28.908  1.00  0.00     0.031 C 
ATOM     53  C   UNL A   1      42.730  26.375  27.603  1.00  0.00     0.029 A 
ATOM     54  N   UNL A   1      44.758  27.199  27.167  1.00  0.00    -0.354 N 
ATOM     55  C   UNL A   1      45.802  31.262  28.121  1.00  0.00     0.074 A 
ATOM     56  C   UNL A   1      44.660  31.992  28.609  1.00  0.00     0.031 C 
ATOM     57  C   UNL A   1      43.432  25.416  26.962  1.00  0.00     0.029 A 
ATOM     58  C   UNL A   1      44.771  25.916  26.658  1.00  0.00     0.049 A 
ATOM     59  H   UNL A   1      45.539  27.797  27.126  1.00  0.00     0.167 HD
ATOM     60  C   UNL A   1      47.036  31.803  28.035  1.00  0.00     0.031 A 
ATOM     61  C   UNL A   1      45.753  25.222  26.039  1.00  0.00     0.031 A 
ATOM     62  C   UNL A   1      48.187  31.082  27.583  1.00  0.00     0.049 A 
ATOM     63  C   UNL A   1      47.121  25.857  25.891  1.00  0.00     0.074 A 
ATOM     64  C   UNL A   1      49.499  31.511  27.524  1.00  0.00     0.029 A 
ATOM     65  N   UNL A   1      48.159  29.782  27.108  1.00  0.00    -0.354 N 
ATOM     66  N   UNL A   1      47.519  27.058  26.243  1.00  0.00    -0.248 NA
ATOM     67  C   UNL A   1      48.185  25.023  25.310  1.00  0.00     0.031 C 
ATOM     68  C   UNL A   1      50.254  30.495  26.937  1.00  0.00     0.029 A 
ATOM     69  C   UNL A   1      49.430  29.401  26.721  1.00  0.00     0.049 A 
ATOM     70  H   UNL A   1      47.356  29.216  27.053  1.00  0.00     0.167 HD
ATOM     71  C   UNL A   1      48.890  27.094  25.993  1.00  0.00     0.074 A 
ATOM     72  C   UNL A   1      49.250  25.798  25.457  1.00  0.00     0.031 C 
ATOM     73  C   UNL A   1      49.775  28.101  26.205  1.00  0.00     0.031 A 
BRANCH  60  74
ATOM     74  C   UNL A   1      47.181  33.239  28.460  1.00  0.00    -0.014 A 
ATOM     75  C   UNL A   1      47.508  33.575  29.789  1.00  0.00     0.010 A 
ATOM     76  C   UNL A   1      46.966  34.264  27.526  1.00  0.00     0.010 A 
ATOM     77  C   UNL A   1      47.559  34.910  30.189  1.00  0.00     0.020 A 
ATOM     78  C   UNL A   1      47.061  35.603  27.912  1.00  0.00     0.020 A 
ATOM     79  C   UNL A   1      47.338  35.916  29.244  1.00  0.00     0.054 A 
BRANCH  79  80
ATOM     80  S   UNL A   1      47.448  37.642  29.784  1.00  0.00     0.124 S 
ATOM     81  O   UNL A   1      46.927  38.355  28.619  1.00  0.00    -0.237 OA
ATOM     82  O   UNL A   1      46.590  37.659  30.965  1.00  0.00    -0.237 OA
ATOM     83  O   UNL A   1      48.872  37.833  30.045  1.00  0.00    -0.744 OA
ENDBRANCH  79  80
ENDBRANCH  60  74
BRANCH  61  84
ATOM     84  C   UNL A   1      45.536  23.815  25.571  1.00  0.00    -0.014 A 
ATOM     85  C   UNL A   1      45.119  23.557  24.249  1.00  0.00     0.010 A 
ATOM     86  C   UNL A   1      45.686  22.728  26.450  1.00  0.00     0.010 A 
ATOM     87  C   UNL A   1      44.834  22.252  23.826  1.00  0.00     0.020 A 
ATOM     88  C   UNL A   1      45.429  21.417  26.023  1.00  0.00     0.020 A 
ATOM     89  C   UNL A   1      44.997  21.187  24.715  1.00  0.00     0.054 A 
BRANCH  89  90
ATOM     90  S   UNL A   1      44.671  19.500  24.124  1.00  0.00     0.124 S 
ATOM     91  O   UNL A   1      43.489  19.125  24.894  1.00  0.00    -0.237 OA
ATOM     92  O   UNL A   1      44.455  19.710  22.694  1.00  0.00    -0.237 OA
ATOM     93  O   UNL A   1      45.894  18.777  24.462  1.00  0.00    -0.744 OA
ENDBRANCH  89  90
ENDBRANCH  61  84
BRANCH  73  94
ATOM     94  C   UNL A   1      51.236  27.828  25.949  1.00  0.00    -0.014 A 
ATOM     95  C   UNL A   1      51.842  28.098  24.711  1.00  0.00     0.010 A 
ATOM     96  C   UNL A   1      52.030  27.345  27.009  1.00  0.00     0.010 A 
ATOM     97  C   UNL A   1      53.204  27.841  24.523  1.00  0.00     0.020 A 
ATOM     98  C   UNL A   1      53.398  27.129  26.837  1.00  0.00     0.020 A 
ATOM     99  C   UNL A   1      53.972  27.357  25.587  1.00  0.00     0.054 A 
BRANCH  99 100
ATOM    100  S   UNL A   1      55.739  27.052  25.321  1.00  0.00     0.124 S 
ATOM    101  O   UNL A   1      55.729  26.266  24.091  1.00  0.00    -0.237 OA
ATOM    102  O   UNL A   1      56.280  28.404  25.200  1.00  0.00    -0.237 OA
ATOM    103  O   UNL A   1      56.150  26.326  26.520  1.00  0.00    -0.744 OA
ENDBRANCH  99 100
ENDBRANCH  73  94
ENDBRANCH  47  48
ENDBRANCH  40  42
ENDBRANCH  39  40
ENDBRANCH  38  39
ENDBRANCH  37  38
ENDBRANCH  36  37
ENDBRANCH  35  36
ENDBRANCH  34  35
ENDBRANCH   1  34
TORSDOF 27
ENDMDL
MODEL 2
REMARK VINA RESULT:      -9.5      6.792     12.122
REMARK SMILES O=C(OCCOCCOCCOCCOC(=O)c1ccc(-c2c3nc(c(-c4ccc(S(=O)(=O)[O-])cc4)c4ccc([nH]4)c(-c4ccc(S(=O)(=O)[O-])cc4)c4nc(c(-c5ccc(S(=O)(=O)[O-])cc5)c5ccc2[nH]5)C=C4)C=C3)cc1)C1=Cc2cc(Cl)cc(-c3ccc(CO)cc3)c2O[C@@H]1C(F)(F)F
REMARK SMILES IDX 9 1 8 2 7 3 6 4 5 5 4 6 3 7 2 8 1 9 78 10 79 11 96 12 80 13
REMARK SMILES IDX 95 14 81 15 94 16 82 17 85 18 83 19 84 20 97 21 98 22 99 23
REMARK SMILES IDX 100 24 86 25 87 26 93 27 88 28 92 29 89 30 90 31 91 32 10 34
REMARK SMILES IDX 11 35 12 36 13 37 14 38 15 39 16 40 17 41 18 42 19 43 77 44
REMARK SMILES IDX 20 45 76 46 21 47 22 48 23 49 70 50 24 51 75 52 69 53 71 54
REMARK SMILES IDX 25 55 74 56 68 57 67 58 26 60 56 61 37 62 55 63 38 64 41 65
REMARK SMILES IDX 54 66 72 67 39 68 40 69 53 71 73 72 42 73 27 74 28 75 36 76
REMARK SMILES IDX 29 77 35 78 30 79 31 80 32 81 33 82 34 83 57 84 58 85 66 86
REMARK SMILES IDX 59 87 65 88 60 89 61 90 62 91 63 92 64 93 43 94 44 95 52 96
REMARK SMILES IDX 45 97 51 98 46 99 47 100 48 101 49 102 50 103
REMARK H PARENT 91 33 71 59 41 70
REMARK Flexibility Score: inf
ROOT
ATOM      1  O   UNL A   1      35.096  22.930  25.310  1.00  0.00    -0.377 OA
ENDROOT
BRANCH   1   2
ATOM      2  C   UNL A   1      33.969  22.874  24.483  1.00  0.00     0.188 C 
BRANCH   2   3
ATOM      3  C   UNL A   1      34.372  23.196  23.056  1.00  0.00     0.188 C 
BRANCH   3   4
ATOM      4  O   UNL A   1      33.475  23.658  21.994  1.00  0.00    -0.376 OA
BRANCH   4   5
ATOM      5  C   UNL A   1      32.962  25.116  21.412  1.00  0.00     0.202 C 
BRANCH   5   6
ATOM      6  C   UNL A   1      33.002  27.043  22.437  1.00  0.00     0.261 C 
BRANCH   6   7
ATOM      7  O   UNL A   1      32.785  27.276  23.929  1.00  0.00    -0.460 OA
BRANCH   7   8
ATOM      8  C   UNL A   1      33.290  28.443  24.346  1.00  0.00     0.338 C 
ATOM      9  O   UNL A   1      33.775  29.331  23.691  1.00  0.00    -0.246 OA
BRANCH   8  10
ATOM     10  C   UNL A   1      33.504  28.046  25.727  1.00  0.00     0.087 C 
ATOM     11  C   UNL A   1      34.878  28.190  26.191  1.00  0.00     0.027 C 
ATOM     12  C   UNL A   1      32.011  29.060  26.380  1.00  0.00     0.316 C 
ATOM     13  C   UNL A   1      35.442  29.504  27.280  1.00  0.00     0.019 A 
ATOM     14  O   UNL A   1      32.610  30.584  27.459  1.00  0.00    -0.475 OA
ATOM     15  C   UNL A   1      36.777  29.505  27.594  1.00  0.00     0.032 A 
ATOM     16  C   UNL A   1      34.410  30.800  27.825  1.00  0.00     0.135 A 
ATOM     17  C   UNL A   1      37.210  30.596  28.346  1.00  0.00     0.042 A 
ATOM     18  C   UNL A   1      34.976  31.902  28.489  1.00  0.00     0.026 A 
ATOM     19  Cl  UNL A   1      38.875  30.610  28.829  1.00  0.00    -0.084 Cl
ATOM     20  C   UNL A   1      36.381  31.710  28.742  1.00  0.00     0.033 A 
BRANCH  12  21
ATOM     21  C   UNL A   1      31.213  27.575  26.710  1.00  0.00     0.430 C 
ATOM     22  F   UNL A   1      31.918  26.466  27.000  1.00  0.00    -0.167 F 
ATOM     23  F   UNL A   1      30.489  27.784  27.858  1.00  0.00    -0.167 F 
ATOM     24  F   UNL A   1      30.279  27.217  25.790  1.00  0.00    -0.167 F 
ENDBRANCH  12  21
BRANCH  18  25
ATOM     25  C   UNL A   1      34.432  33.162  29.012  1.00  0.00    -0.015 A 
ATOM     26  C   UNL A   1      33.651  34.074  28.285  1.00  0.00     0.009 A 
ATOM     27  C   UNL A   1      34.914  33.649  30.210  1.00  0.00     0.009 A 
ATOM     28  C   UNL A   1      33.180  35.283  28.863  1.00  0.00     0.007 A 
ATOM     29  C   UNL A   1      34.299  34.719  30.856  1.00  0.00     0.007 A 
ATOM     30  C   UNL A   1      33.419  35.562  30.205  1.00  0.00    -0.023 A 
BRANCH  30  31
ATOM     31  C   UNL A   1      32.796  36.703  30.965  1.00  0.00     0.191 C 
BRANCH  31  32
ATOM     32  O   UNL A   1      33.746  37.641  31.428  1.00  0.00    -0.392 OA
ATOM     33  H   UNL A   1      34.622  37.415  31.077  1.00  0.00     0.211 HD
ENDBRANCH  31  32
ENDBRANCH  30  31
ENDBRANCH  18  25
ENDBRANCH   8  10
ENDBRANCH   7   8
ENDBRANCH   6   7
ENDBRANCH   5   6
ENDBRANCH   4   5
ENDBRANCH   3   4
ENDBRANCH   2   3
ENDBRANCH   1   2
BRANCH   1  34
ATOM     34  C   UNL A   1      35.351  21.650  25.834  1.00  0.00     0.188 C 
BRANCH  34  35
ATOM     35  C   UNL A   1      36.076  20.656  24.939  1.00  0.00     0.188 C 
BRANCH  35  36
ATOM     36  O   UNL A   1      37.362  21.049  24.543  1.00  0.00    -0.376 OA
BRANCH  36  37
ATOM     37  C   UNL A   1      38.228  21.643  25.499  1.00  0.00     0.202 C 
BRANCH  37  38
ATOM     38  C   UNL A   1      39.718  21.270  25.688  1.00  0.00     0.261 C 
BRANCH  38  39
ATOM     39  O   UNL A   1      40.426  21.770  26.837  1.00  0.00    -0.460 OA
BRANCH  39  40
ATOM     40  C   UNL A   1      41.770  21.646  26.891  1.00  0.00     0.338 C 
ATOM     41  O   UNL A   1      42.450  20.813  26.323  1.00  0.00    -0.246 OA
BRANCH  40  42
ATOM     42  C   UNL A   1      42.292  22.857  27.584  1.00  0.00     0.060 A 
ATOM     43  C   UNL A   1      43.659  23.177  27.505  1.00  0.00     0.016 A 
ATOM     44  C   UNL A   1      41.421  23.715  28.258  1.00  0.00     0.016 A 
ATOM     45  C   UNL A   1      44.164  24.333  28.127  1.00  0.00     0.010 A 
ATOM     46  C   UNL A   1      41.922  24.877  28.861  1.00  0.00     0.010 A 
ATOM     47  C   UNL A   1      43.307  25.175  28.846  1.00  0.00    -0.014 A 
BRANCH  47  48
ATOM     48  C   UNL A   1      43.835  26.163  29.835  1.00  0.00     0.031 A 
ATOM     49  C   UNL A   1      44.358  25.572  31.126  1.00  0.00     0.074 A 
ATOM     50  C   UNL A   1      43.836  27.504  29.676  1.00  0.00     0.049 A 
ATOM     51  N   UNL A   1      44.806  26.170  32.197  1.00  0.00    -0.248 NA
ATOM     52  C   UNL A   1      44.322  24.101  31.236  1.00  0.00     0.031 C 
ATOM     53  C   UNL A   1      43.362  28.238  28.504  1.00  0.00     0.029 A 
ATOM     54  N   UNL A   1      44.230  28.503  30.543  1.00  0.00    -0.354 N 
ATOM     55  C   UNL A   1      45.082  25.146  33.094  1.00  0.00     0.074 A 
ATOM     56  C   UNL A   1      44.616  23.915  32.507  1.00  0.00     0.031 C 
ATOM     57  C   UNL A   1      43.458  29.564  28.737  1.00  0.00     0.029 A 
ATOM     58  C   UNL A   1      44.025  29.783  30.067  1.00  0.00     0.049 A 
ATOM     59  H   UNL A   1      44.623  28.320  31.427  1.00  0.00     0.167 HD
ATOM     60  C   UNL A   1      45.740  25.193  34.272  1.00  0.00     0.031 A 
ATOM     61  C   UNL A   1      44.283  30.985  30.629  1.00  0.00     0.031 A 
ATOM     62  C   UNL A   1      46.236  26.403  34.853  1.00  0.00     0.049 A 
ATOM     63  C   UNL A   1      44.969  31.034  31.979  1.00  0.00     0.074 A 
ATOM     64  C   UNL A   1      46.980  26.559  36.006  1.00  0.00     0.029 A 
ATOM     65  N   UNL A   1      46.034  27.667  34.323  1.00  0.00    -0.354 N 
ATOM     66  N   UNL A   1      45.331  30.042  32.760  1.00  0.00    -0.248 NA
ATOM     67  C   UNL A   1      45.328  32.363  32.499  1.00  0.00     0.031 C 
ATOM     68  C   UNL A   1      47.159  27.927  36.218  1.00  0.00     0.029 A 
ATOM     69  C   UNL A   1      46.611  28.615  35.146  1.00  0.00     0.049 A 
ATOM     70  H   UNL A   1      45.550  27.860  33.488  1.00  0.00     0.167 HD
ATOM     71  C   UNL A   1      46.021  30.625  33.822  1.00  0.00     0.074 A 
ATOM     72  C   UNL A   1      46.022  32.053  33.585  1.00  0.00     0.031 C 
ATOM     73  C   UNL A   1      46.617  30.032  34.888  1.00  0.00     0.031 A 
BRANCH  60  74
ATOM     74  C   UNL A   1      45.963  23.886  34.981  1.00  0.00    -0.014 A 
ATOM     75  C   UNL A   1      45.044  23.410  35.939  1.00  0.00     0.010 A 
ATOM     76  C   UNL A   1      47.114  23.133  34.703  1.00  0.00     0.010 A 
ATOM     77  C   UNL A   1      45.304  22.238  36.647  1.00  0.00     0.020 A 
ATOM     78  C   UNL A   1      47.355  21.934  35.377  1.00  0.00     0.020 A 
ATOM     79  C   UNL A   1      46.458  21.505  36.358  1.00  0.00     0.054 A 
BRANCH  79  80
ATOM     80  S   UNL A   1      46.751  19.966  37.267  1.00  0.00     0.124 S 
ATOM     81  O   UNL A   1      46.095  18.981  36.410  1.00  0.00    -0.237 OA
ATOM     82  O   UNL A   1      48.209  19.894  37.304  1.00  0.00    -0.237 OA
ATOM     83  O   UNL A   1      46.105  20.197  38.556  1.00  0.00    -0.744 OA
ENDBRANCH  79  80
ENDBRANCH  60  74
BRANCH  61  84
ATOM     84  C   UNL A   1      43.978  32.263  29.908  1.00  0.00    -0.014 A 
ATOM     85  C   UNL A   1      42.781  32.962  30.165  1.00  0.00     0.010 A 
ATOM     86  C   UNL A   1      44.846  32.764  28.921  1.00  0.00     0.010 A 
ATOM     87  C   UNL A   1      42.447  34.111  29.438  1.00  0.00     0.020 A 
ATOM     88  C   UNL A   1      44.530  33.931  28.211  1.00  0.00     0.020 A 
ATOM     89  C   UNL A   1      43.329  34.594  28.468  1.00  0.00     0.054 A 
BRANCH  89  90
ATOM     90  S   UNL A   1      42.895  36.118  27.578  1.00  0.00     0.124 S 
ATOM     91  O   UNL A   1      43.345  37.154  28.502  1.00  0.00    -0.237 OA
ATOM     92  O   UNL A   1      43.670  35.989  26.346  1.00  0.00    -0.237 OA
ATOM     93  O   UNL A   1      41.448  36.016  27.408  1.00  0.00    -0.744 OA
ENDBRANCH  89  90
ENDBRANCH  61  84
BRANCH  73  94
ATOM     94  C   UNL A   1      47.402  30.901  35.838  1.00  0.00    -0.014 A 
ATOM     95  C   UNL A   1      46.894  31.292  37.087  1.00  0.00     0.010 A 
ATOM     96  C   UNL A   1      48.713  31.280  35.483  1.00  0.00     0.010 A 
ATOM     97  C   UNL A   1      47.662  32.088  37.942  1.00  0.00     0.020 A 
ATOM     98  C   UNL A   1      49.498  32.038  36.352  1.00  0.00     0.020 A 
ATOM     99  C   UNL A   1      48.959  32.457  37.568  1.00  0.00     0.054 A 
BRANCH  99 100
ATOM    100  S   UNL A   1      49.940  33.472  38.704  1.00  0.00     0.124 S 
ATOM    101  O   UNL A   1      49.391  33.093  40.002  1.00  0.00    -0.237 OA
ATOM    102  O   UNL A   1      51.304  33.018  38.441  1.00  0.00    -0.237 OA
ATOM    103  O   UNL A   1      49.653  34.841  38.283  1.00  0.00    -0.744 OA
ENDBRANCH  99 100
ENDBRANCH  73  94
ENDBRANCH  47  48
ENDBRANCH  40  42
ENDBRANCH  39  40
ENDBRANCH  38  39
ENDBRANCH  37  38
ENDBRANCH  36  37
ENDBRANCH  35  36
ENDBRANCH  34  35
ENDBRANCH   1  34
TORSDOF 27
ENDMDL
MODEL 3
REMARK VINA RESULT:      -9.4      6.564     11.142
REMARK SMILES O=C(OCCOCCOCCOCCOC(=O)c1ccc(-c2c3nc(c(-c4ccc(S(=O)(=O)[O-])cc4)c4ccc([nH]4)c(-c4ccc(S(=O)(=O)[O-])cc4)c4nc(c(-c5ccc(S(=O)(=O)[O-])cc5)c5ccc2[nH]5)C=C4)C=C3)cc1)C1=Cc2cc(Cl)cc(-c3ccc(CO)cc3)c2O[C@@H]1C(F)(F)F
REMARK SMILES IDX 9 1 8 2 7 3 6 4 5 5 4 6 3 7 2 8 1 9 78 10 79 11 96 12 80 13
REMARK SMILES IDX 95 14 81 15 94 16 82 17 85 18 83 19 84 20 97 21 98 22 99 23
REMARK SMILES IDX 100 24 86 25 87 26 93 27 88 28 92 29 89 30 90 31 91 32 10 34
REMARK SMILES IDX 11 35 12 36 13 37 14 38 15 39 16 40 17 41 18 42 19 43 77 44
REMARK SMILES IDX 20 45 76 46 21 47 22 48 23 49 70 50 24 51 75 52 69 53 71 54
REMARK SMILES IDX 25 55 74 56 68 57 67 58 26 60 56 61 37 62 55 63 38 64 41 65
REMARK SMILES IDX 54 66 72 67 39 68 40 69 53 71 73 72 42 73 27 74 28 75 36 76
REMARK SMILES IDX 29 77 35 78 30 79 31 80 32 81 33 82 34 83 57 84 58 85 66 86
REMARK SMILES IDX 59 87 65 88 60 89 61 90 62 91 63 92 64 93 43 94 44 95 52 96
REMARK SMILES IDX 45 97 51 98 46 99 47 100 48 101 49 102 50 103
REMARK H PARENT 91 33 71 59 41 70
REMARK Flexibility Score: inf
ROOT
ATOM      1  O   UNL A   1      36.075  23.104  25.695  1.00  0.00    -0.377 OA
ENDROOT
BRANCH   1   2
ATOM      2  C   UNL A   1      34.868  23.172  24.991  1.00  0.00     0.188 C 
BRANCH   2   3
ATOM      3  C   UNL A   1      33.717  22.865  25.930  1.00  0.00     0.188 C 
BRANCH   3   4
ATOM      4  O   UNL A   1      32.302  22.789  25.557  1.00  0.00    -0.376 OA
BRANCH   4   5
ATOM      5  C   UNL A   1      31.194  23.793  24.857  1.00  0.00     0.202 C 
BRANCH   5   6
ATOM      6  C   UNL A   1      30.170  25.487  25.777  1.00  0.00     0.261 C 
BRANCH   6   7
ATOM      7  O   UNL A   1      30.503  26.962  25.573  1.00  0.00    -0.460 OA
BRANCH   7   8
ATOM      8  C   UNL A   1      31.370  27.424  26.482  1.00  0.00     0.338 C 
ATOM      9  O   UNL A   1      31.341  27.299  27.681  1.00  0.00    -0.246 OA
BRANCH   8  10
ATOM     10  C   UNL A   1      31.961  28.449  25.640  1.00  0.00     0.087 C 
ATOM     11  C   UNL A   1      31.727  29.814  26.096  1.00  0.00     0.027 C 
ATOM     12  C   UNL A   1      33.676  27.588  25.581  1.00  0.00     0.316 C 
ATOM     13  C   UNL A   1      32.969  30.835  26.900  1.00  0.00     0.019 A 
ATOM     14  O   UNL A   1      35.017  28.617  26.574  1.00  0.00    -0.475 OA
ATOM     15  C   UNL A   1      32.569  32.086  27.291  1.00  0.00     0.032 A 
ATOM     16  C   UNL A   1      34.566  30.257  27.299  1.00  0.00     0.135 A 
ATOM     17  C   UNL A   1      33.514  32.815  28.013  1.00  0.00     0.042 A 
ATOM     18  C   UNL A   1      35.398  31.038  28.121  1.00  0.00     0.026 A 
ATOM     19  Cl  UNL A   1      33.084  34.431  28.470  1.00  0.00    -0.084 Cl
ATOM     20  C   UNL A   1      34.812  32.322  28.409  1.00  0.00     0.033 A 
BRANCH  12  21
ATOM     21  C   UNL A   1      33.388  27.245  23.923  1.00  0.00     0.430 C 
ATOM     22  F   UNL A   1      32.216  27.570  23.347  1.00  0.00    -0.167 F 
ATOM     23  F   UNL A   1      34.293  28.001  23.220  1.00  0.00    -0.167 F 
ATOM     24  F   UNL A   1      33.666  25.967  23.552  1.00  0.00    -0.167 F 
ENDBRANCH  12  21
BRANCH  18  25
ATOM     25  C   UNL A   1      36.736  30.839  28.692  1.00  0.00    -0.015 A 
ATOM     26  C   UNL A   1      37.360  29.596  28.887  1.00  0.00     0.009 A 
ATOM     27  C   UNL A   1      37.349  31.894  29.337  1.00  0.00     0.009 A 
ATOM     28  C   UNL A   1      38.652  29.491  29.466  1.00  0.00     0.007 A 
ATOM     29  C   UNL A   1      38.688  31.832  29.716  1.00  0.00     0.007 A 
ATOM     30  C   UNL A   1      39.374  30.636  29.791  1.00  0.00    -0.023 A 
BRANCH  30  31
ATOM     31  C   UNL A   1      40.820  30.644  30.213  1.00  0.00     0.191 C 
BRANCH  31  32
ATOM     32  O   UNL A   1      41.032  31.313  31.440  1.00  0.00    -0.392 OA
ATOM     33  H   UNL A   1      40.232  31.250  31.985  1.00  0.00     0.211 HD
ENDBRANCH  31  32
ENDBRANCH  30  31
ENDBRANCH  18  25
ENDBRANCH   8  10
ENDBRANCH   7   8
ENDBRANCH   6   7
ENDBRANCH   5   6
ENDBRANCH   4   5
ENDBRANCH   3   4
ENDBRANCH   2   3
ENDBRANCH   1   2
BRANCH   1  34
ATOM     34  C   UNL A   1      37.087  22.637  24.838  1.00  0.00     0.188 C 
BRANCH  34  35
ATOM     35  C   UNL A   1      38.026  21.567  25.377  1.00  0.00     0.188 C 
BRANCH  35  36
ATOM     36  O   UNL A   1      38.844  21.982  26.436  1.00  0.00    -0.376 OA
BRANCH  36  37
ATOM     37  C   UNL A   1      40.013  21.234  26.742  1.00  0.00     0.202 C 
BRANCH  37  38
ATOM     38  C   UNL A   1      41.285  21.193  25.863  1.00  0.00     0.261 C 
BRANCH  38  39
ATOM     39  O   UNL A   1      41.818  22.424  25.342  1.00  0.00    -0.460 OA
BRANCH  39  40
ATOM     40  C   UNL A   1      43.151  22.640  25.389  1.00  0.00     0.338 C 
ATOM     41  O   UNL A   1      43.942  22.528  24.472  1.00  0.00    -0.246 OA
BRANCH  40  42
ATOM     42  C   UNL A   1      43.444  23.267  26.709  1.00  0.00     0.060 A 
ATOM     43  C   UNL A   1      42.407  23.861  27.449  1.00  0.00     0.016 A 
ATOM     44  C   UNL A   1      44.730  23.210  27.247  1.00  0.00     0.016 A 
ATOM     45  C   UNL A   1      42.658  24.429  28.710  1.00  0.00     0.010 A 
ATOM     46  C   UNL A   1      44.976  23.759  28.513  1.00  0.00     0.010 A 
ATOM     47  C   UNL A   1      43.955  24.420  29.239  1.00  0.00    -0.014 A 
BRANCH  47  48
ATOM     48  C   UNL A   1      44.349  25.337  30.352  1.00  0.00     0.031 A 
ATOM     49  C   UNL A   1      44.519  26.790  29.965  1.00  0.00     0.074 A 
ATOM     50  C   UNL A   1      44.597  24.960  31.625  1.00  0.00     0.049 A 
ATOM     51  N   UNL A   1      44.924  27.802  30.683  1.00  0.00    -0.248 NA
ATOM     52  C   UNL A   1      44.238  27.132  28.557  1.00  0.00     0.031 C 
ATOM     53  C   UNL A   1      44.492  23.605  32.163  1.00  0.00     0.029 A 
ATOM     54  N   UNL A   1      45.030  25.701  32.705  1.00  0.00    -0.354 N 
ATOM     55  C   UNL A   1      44.956  28.878  29.805  1.00  0.00     0.074 A 
ATOM     56  C   UNL A   1      44.680  28.371  28.485  1.00  0.00     0.031 C 
ATOM     57  C   UNL A   1      44.882  23.605  33.455  1.00  0.00     0.029 A 
ATOM     58  C   UNL A   1      45.244  24.964  33.852  1.00  0.00     0.049 A 
ATOM     59  H   UNL A   1      45.175  26.674  32.661  1.00  0.00     0.167 HD
ATOM     60  C   UNL A   1      45.118  30.193  30.066  1.00  0.00     0.031 A 
ATOM     61  C   UNL A   1      45.663  25.345  35.080  1.00  0.00     0.031 A 
ATOM     62  C   UNL A   1      45.362  30.715  31.376  1.00  0.00     0.049 A 
ATOM     63  C   UNL A   1      45.900  26.816  35.353  1.00  0.00     0.074 A 
ATOM     64  C   UNL A   1      45.470  32.036  31.767  1.00  0.00     0.029 A 
ATOM     65  N   UNL A   1      45.540  29.938  32.508  1.00  0.00    -0.354 N 
ATOM     66  N   UNL A   1      45.807  27.836  34.531  1.00  0.00    -0.248 NA
ATOM     67  C   UNL A   1      46.248  27.193  36.732  1.00  0.00     0.031 C 
ATOM     68  C   UNL A   1      45.794  32.055  33.125  1.00  0.00     0.029 A 
ATOM     69  C   UNL A   1      45.792  30.751  33.597  1.00  0.00     0.049 A 
ATOM     70  H   UNL A   1      45.497  28.955  32.533  1.00  0.00     0.167 HD
ATOM     71  C   UNL A   1      46.013  28.974  35.310  1.00  0.00     0.074 A 
ATOM     72  C   UNL A   1      46.239  28.516  36.665  1.00  0.00     0.031 C 
ATOM     73  C   UNL A   1      45.998  30.281  34.943  1.00  0.00     0.031 A 
BRANCH  60  74
ATOM     74  C   UNL A   1      45.014  31.137  28.900  1.00  0.00    -0.014 A 
ATOM     75  C   UNL A   1      43.930  32.031  28.781  1.00  0.00     0.010 A 
ATOM     76  C   UNL A   1      45.998  31.116  27.900  1.00  0.00     0.010 A 
ATOM     77  C   UNL A   1      43.803  32.842  27.654  1.00  0.00     0.020 A 
ATOM     78  C   UNL A   1      45.898  31.960  26.792  1.00  0.00     0.020 A 
ATOM     79  C   UNL A   1      44.792  32.804  26.668  1.00  0.00     0.054 A 
BRANCH  79  80
ATOM     80  S   UNL A   1      44.621  33.897  25.234  1.00  0.00     0.124 S 
ATOM     81  O   UNL A   1      46.004  34.303  24.998  1.00  0.00    -0.237 OA
ATOM     82  O   UNL A   1      44.047  33.008  24.227  1.00  0.00    -0.237 OA
ATOM     83  O   UNL A   1      43.734  34.955  25.709  1.00  0.00    -0.744 OA
ENDBRANCH  79  80
ENDBRANCH  60  74
BRANCH  61  84
ATOM     84  C   UNL A   1      45.817  24.352  36.192  1.00  0.00    -0.014 A 
ATOM     85  C   UNL A   1      44.857  24.274  37.221  1.00  0.00     0.010 A 
ATOM     86  C   UNL A   1      46.947  23.517  36.267  1.00  0.00     0.010 A 
ATOM     87  C   UNL A   1      45.033  23.408  38.307  1.00  0.00     0.020 A 
ATOM     88  C   UNL A   1      47.113  22.627  37.338  1.00  0.00     0.020 A 
ATOM     89  C   UNL A   1      46.159  22.583  38.356  1.00  0.00     0.054 A 
BRANCH  89  90
ATOM     90  S   UNL A   1      46.335  21.431  39.750  1.00  0.00     0.124 S 
ATOM     91  O   UNL A   1      46.065  20.141  39.121  1.00  0.00    -0.237 OA
ATOM     92  O   UNL A   1      47.718  21.655  40.165  1.00  0.00    -0.237 OA
ATOM     93  O   UNL A   1      45.325  21.887  40.702  1.00  0.00    -0.744 OA
ENDBRANCH  89  90
ENDBRANCH  61  84
BRANCH  73  94
ATOM     94  C   UNL A   1      46.138  31.324  36.023  1.00  0.00    -0.014 A 
ATOM     95  C   UNL A   1      47.384  31.860  36.387  1.00  0.00     0.010 A 
ATOM     96  C   UNL A   1      44.973  31.821  36.640  1.00  0.00     0.010 A 
ATOM     97  C   UNL A   1      47.466  32.836  37.385  1.00  0.00     0.020 A 
ATOM     98  C   UNL A   1      45.047  32.825  37.605  1.00  0.00     0.020 A 
ATOM     99  C   UNL A   1      46.297  33.311  37.988  1.00  0.00     0.054 A 
BRANCH  99 100
ATOM    100  S   UNL A   1      46.430  34.590  39.265  1.00  0.00     0.124 S 
ATOM    101  O   UNL A   1      47.304  35.569  38.624  1.00  0.00    -0.237 OA
ATOM    102  O   UNL A   1      45.041  35.009  39.443  1.00  0.00    -0.237 OA
ATOM    103  O   UNL A   1      47.014  33.886  40.404  1.00  0.00    -0.744 OA
ENDBRANCH  99 100
ENDBRANCH  73  94
ENDBRANCH  47  48
ENDBRANCH  40  42
ENDBRANCH  39  40
ENDBRANCH  38  39
ENDBRANCH  37  38
ENDBRANCH  36  37
ENDBRANCH  35  36
ENDBRANCH  34  35
ENDBRANCH   1  34
TORSDOF 27
ENDMDL
