MODEL 1
REMARK VINA RESULT:      -8.5      0.000      0.000
REMARK SMILES Cc1c(C(=O)OCCOCCOCCOCCOC(=O)c2ccc(-c3c4nc(c(-c5ccc(S(=O)(=O)[O-])cc5)c5ccc([nH]5)c(-c5ccc(S(=O)(=O)[O-])cc5)c5nc(c(-c6ccc(S(=O)(=O)[O-])cc6)c6ccc3[nH]6)C=C5)C=C4)cc2)oc2c1/C(=N/NC(=O)C(c1ccccc1)c1ccccc1)CCC2
REMARK SMILES IDX 12 1 11 2 10 3 9 4 8 5 7 6 6 7 4 8 5 9 3 10 1 11 2 12 83 13
REMARK SMILES IDX 81 14 82 15 84 16 104 17 85 18 102 19 103 20 86 21 87 22
REMARK SMILES IDX 88 24 89 25 90 26 91 27 95 28 92 29 94 30 93 31 96 32 97 33
REMARK SMILES IDX 101 34 98 35 100 36 99 37 13 38 14 39 15 40 16 41 17 42
REMARK SMILES IDX 18 43 19 44 20 45 21 46 22 47 80 48 23 49 79 50 24 51 25 52
REMARK SMILES IDX 26 53 73 54 27 55 78 56 72 57 74 58 28 59 77 60 71 61 70 62
REMARK SMILES IDX 29 64 59 65 40 66 58 67 41 68 44 69 57 70 75 71 42 72 43 73
REMARK SMILES IDX 56 75 76 76 45 77 30 78 31 79 39 80 32 81 38 82 33 83 34 84
REMARK SMILES IDX 35 85 36 86 37 87 60 88 61 89 69 90 62 91 68 92 63 93 64 94
REMARK SMILES IDX 65 95 66 96 67 97 46 98 47 99 55 100 48 101 54 102 49 103
REMARK SMILES IDX 50 104 51 105 52 106 53 107
REMARK H PARENT 86 23 74 63 44 74
REMARK Flexibility Score: inf
ROOT
ATOM      1  O   UNL A   1      34.464  22.993  25.428  1.00  0.00    -0.377 OA
ENDROOT
BRANCH   1   2
ATOM      2  C   UNL A   1      33.140  22.564  25.746  1.00  0.00     0.188 C 
BRANCH   2   3
ATOM      3  C   UNL A   1      32.543  22.752  27.159  1.00  0.00     0.188 C 
BRANCH   3   4
ATOM      4  O   UNL A   1      31.896  24.007  27.300  1.00  0.00    -0.376 OA
BRANCH   4   5
ATOM      5  C   UNL A   1      30.803  24.333  26.471  1.00  0.00     0.202 C 
BRANCH   5   6
ATOM      6  C   UNL A   1      30.884  25.773  25.976  1.00  0.00     0.261 C 
BRANCH   6   7
ATOM      7  O   UNL A   1      31.714  26.625  26.765  1.00  0.00    -0.457 OA
BRANCH   7   8
ATOM      8  C   UNL A   1      32.982  26.931  26.384  1.00  0.00     0.374 C 
ATOM      9  O   UNL A   1      33.738  26.193  25.759  1.00  0.00    -0.242 OA
BRANCH   8  10
ATOM     10  C   UNL A   1      33.177  28.324  26.697  1.00  0.00     0.215 A 
ATOM     11  C   UNL A   1      35.714  28.771  26.939  1.00  0.00     0.049 C 
ATOM     12  C   UNL A   1      34.278  29.152  26.954  1.00  0.00     0.012 A 
ATOM     13  C   UNL A   1      33.722  30.454  27.166  1.00  0.00     0.043 A 
ATOM     14  O   UNL A   1      32.048  29.077  26.589  1.00  0.00    -0.453 OA
ATOM     15  C   UNL A   1      32.398  30.340  26.781  1.00  0.00     0.114 A 
ATOM     16  C   UNL A   1      34.166  31.754  27.668  1.00  0.00     0.072 C 
ATOM     17  C   UNL A   1      31.330  31.348  26.633  1.00  0.00     0.076 C 
ATOM     18  N   UNL A   1      35.408  31.954  27.987  1.00  0.00    -0.177 NA
ATOM     19  C   UNL A   1      33.001  32.661  27.871  1.00  0.00     0.059 C 
ATOM     20  C   UNL A   1      31.966  32.716  26.764  1.00  0.00     0.014 C 
BRANCH  18  21
ATOM     21  N   UNL A   1      36.043  33.024  28.593  1.00  0.00    -0.246 N 
ATOM     22  C   UNL A   1      36.855  33.380  29.651  1.00  0.00     0.252 C 
ATOM     23  H   UNL A   1      35.839  33.836  28.074  1.00  0.00     0.193 HD
ATOM     24  O   UNL A   1      37.249  34.564  29.619  1.00  0.00    -0.272 OA
BRANCH  22  25
ATOM     25  C   UNL A   1      37.333  32.506  30.865  1.00  0.00     0.140 C 
BRANCH  25  26
ATOM     26  C   UNL A   1      36.300  32.694  32.039  1.00  0.00    -0.031 A 
ATOM     27  C   UNL A   1      34.910  32.545  31.909  1.00  0.00     0.005 A 
ATOM     28  C   UNL A   1      36.755  33.213  33.282  1.00  0.00     0.005 A 
ATOM     29  C   UNL A   1      34.034  33.115  32.853  1.00  0.00     0.000 A 
ATOM     30  C   UNL A   1      35.887  33.781  34.216  1.00  0.00     0.000 A 
ATOM     31  C   UNL A   1      34.523  33.773  33.979  1.00  0.00     0.000 A 
ENDBRANCH  25  26
BRANCH  25  32
ATOM     32  C   UNL A   1      37.814  31.129  30.296  1.00  0.00    -0.031 A 
ATOM     33  C   UNL A   1      37.553  29.967  31.066  1.00  0.00     0.005 A 
ATOM     34  C   UNL A   1      38.563  30.925  29.127  1.00  0.00     0.005 A 
ATOM     35  C   UNL A   1      38.225  28.761  30.853  1.00  0.00     0.000 A 
ATOM     36  C   UNL A   1      39.231  29.706  28.898  1.00  0.00     0.000 A 
ATOM     37  C   UNL A   1      39.109  28.647  29.793  1.00  0.00     0.000 A 
ENDBRANCH  25  32
ENDBRANCH  22  25
ENDBRANCH  18  21
ENDBRANCH   8  10
ENDBRANCH   7   8
ENDBRANCH   6   7
ENDBRANCH   5   6
ENDBRANCH   4   5
ENDBRANCH   3   4
ENDBRANCH   2   3
ENDBRANCH   1   2
BRANCH   1  38
ATOM     38  C   UNL A   1      35.559  22.337  26.053  1.00  0.00     0.188 C 
BRANCH  38  39
ATOM     39  C   UNL A   1      36.163  21.179  25.222  1.00  0.00     0.188 C 
BRANCH  39  40
ATOM     40  O   UNL A   1      37.578  21.202  25.100  1.00  0.00    -0.376 OA
BRANCH  40  41
ATOM     41  C   UNL A   1      38.444  21.940  25.943  1.00  0.00     0.202 C 
BRANCH  41  42
ATOM     42  C   UNL A   1      39.800  21.427  26.421  1.00  0.00     0.261 C 
BRANCH  42  43
ATOM     43  O   UNL A   1      40.899  22.236  26.086  1.00  0.00    -0.460 OA
BRANCH  43  44
ATOM     44  C   UNL A   1      42.024  21.573  25.790  1.00  0.00     0.338 C 
ATOM     45  O   UNL A   1      42.188  20.367  25.758  1.00  0.00    -0.246 OA
BRANCH  44  46
ATOM     46  C   UNL A   1      43.075  22.576  25.609  1.00  0.00     0.060 A 
ATOM     47  C   UNL A   1      44.266  22.313  26.278  1.00  0.00     0.016 A 
ATOM     48  C   UNL A   1      42.693  23.865  25.199  1.00  0.00     0.016 A 
ATOM     49  C   UNL A   1      44.907  23.383  26.842  1.00  0.00     0.010 A 
ATOM     50  C   UNL A   1      43.314  24.930  25.789  1.00  0.00     0.010 A 
ATOM     51  C   UNL A   1      44.336  24.652  26.687  1.00  0.00    -0.014 A 
BRANCH  51  52
ATOM     52  C   UNL A   1      44.857  25.702  27.517  1.00  0.00     0.031 A 
ATOM     53  C   UNL A   1      46.185  26.156  27.092  1.00  0.00     0.074 A 
ATOM     54  C   UNL A   1      44.165  26.227  28.539  1.00  0.00     0.049 A 
ATOM     55  N   UNL A   1      47.311  25.910  27.666  1.00  0.00    -0.248 NA
ATOM     56  C   UNL A   1      46.284  26.787  25.769  1.00  0.00     0.031 C 
ATOM     57  C   UNL A   1      42.746  26.073  28.865  1.00  0.00     0.029 A 
ATOM     58  N   UNL A   1      44.599  27.133  29.447  1.00  0.00    -0.354 N 
ATOM     59  C   UNL A   1      48.259  26.541  26.878  1.00  0.00     0.074 A 
ATOM     60  C   UNL A   1      47.605  26.875  25.636  1.00  0.00     0.031 C 
ATOM     61  C   UNL A   1      42.395  27.047  29.737  1.00  0.00     0.029 A 
ATOM     62  C   UNL A   1      43.586  27.793  30.117  1.00  0.00     0.049 A 
ATOM     63  H   UNL A   1      45.553  27.305  29.616  1.00  0.00     0.167 HD
ATOM     64  C   UNL A   1      49.433  26.987  27.396  1.00  0.00     0.031 A 
ATOM     65  C   UNL A   1      43.731  28.940  30.826  1.00  0.00     0.031 A 
ATOM     66  C   UNL A   1      49.710  26.413  28.688  1.00  0.00     0.049 A 
ATOM     67  C   UNL A   1      45.176  29.066  31.170  1.00  0.00     0.074 A 
ATOM     68  C   UNL A   1      49.855  25.120  29.152  1.00  0.00     0.029 A 
ATOM     69  N   UNL A   1      49.454  27.188  29.797  1.00  0.00    -0.354 N 
ATOM     70  N   UNL A   1      45.795  28.251  31.980  1.00  0.00    -0.248 NA
ATOM     71  C   UNL A   1      46.043  29.806  30.263  1.00  0.00     0.031 C 
ATOM     72  C   UNL A   1      49.217  25.109  30.425  1.00  0.00     0.029 A 
ATOM     73  C   UNL A   1      48.771  26.405  30.696  1.00  0.00     0.049 A 
ATOM     74  H   UNL A   1      49.712  28.130  29.923  1.00  0.00     0.167 HD
ATOM     75  C   UNL A   1      47.049  28.056  31.413  1.00  0.00     0.074 A 
ATOM     76  C   UNL A   1      47.179  29.116  30.415  1.00  0.00     0.031 C 
ATOM     77  C   UNL A   1      47.746  26.894  31.600  1.00  0.00     0.031 A 
BRANCH  64  78
ATOM     78  C   UNL A   1      50.103  28.227  26.885  1.00  0.00    -0.014 A 
ATOM     79  C   UNL A   1      51.406  28.147  26.369  1.00  0.00     0.010 A 
ATOM     80  C   UNL A   1      49.577  29.518  27.119  1.00  0.00     0.010 A 
ATOM     81  C   UNL A   1      52.156  29.305  26.131  1.00  0.00     0.020 A 
ATOM     82  C   UNL A   1      50.292  30.676  26.836  1.00  0.00     0.020 A 
ATOM     83  C   UNL A   1      51.593  30.561  26.374  1.00  0.00     0.054 A 
BRANCH  83  84
ATOM     84  S   UNL A   1      52.595  32.048  26.148  1.00  0.00     0.124 S 
ATOM     85  O   UNL A   1      51.991  32.635  24.956  1.00  0.00    -0.237 OA
ATOM     86  O   UNL A   1      52.367  32.768  27.398  1.00  0.00    -0.237 OA
ATOM     87  O   UNL A   1      53.948  31.525  25.974  1.00  0.00    -0.744 OA
ENDBRANCH  83  84
ENDBRANCH  64  78
BRANCH  65  88
ATOM     88  C   UNL A   1      42.774  30.074  30.873  1.00  0.00    -0.014 A 
ATOM     89  C   UNL A   1      42.140  30.440  32.072  1.00  0.00     0.010 A 
ATOM     90  C   UNL A   1      42.677  30.968  29.783  1.00  0.00     0.010 A 
ATOM     91  C   UNL A   1      41.484  31.678  32.194  1.00  0.00     0.020 A 
ATOM     92  C   UNL A   1      42.016  32.195  29.892  1.00  0.00     0.020 A 
ATOM     93  C   UNL A   1      41.443  32.556  31.107  1.00  0.00     0.054 A 
BRANCH  93  94
ATOM     94  S   UNL A   1      40.753  34.222  31.321  1.00  0.00     0.124 S 
ATOM     95  O   UNL A   1      40.222  34.511  29.992  1.00  0.00    -0.237 OA
ATOM     96  O   UNL A   1      39.758  34.019  32.371  1.00  0.00    -0.237 OA
ATOM     97  O   UNL A   1      41.909  35.026  31.715  1.00  0.00    -0.744 OA
ENDBRANCH  93  94
ENDBRANCH  65  88
BRANCH  77  98
ATOM     98  C   UNL A   1      47.262  25.919  32.652  1.00  0.00    -0.014 A 
ATOM     99  C   UNL A   1      47.816  25.828  33.946  1.00  0.00     0.010 A 
ATOM    100  C   UNL A   1      46.099  25.178  32.375  1.00  0.00     0.010 A 
ATOM    101  C   UNL A   1      47.240  24.998  34.920  1.00  0.00     0.020 A 
ATOM    102  C   UNL A   1      45.508  24.365  33.347  1.00  0.00     0.020 A 
ATOM    103  C   UNL A   1      46.087  24.271  34.613  1.00  0.00     0.054 A 
BRANCH 103 104
ATOM    104  S   UNL A   1      45.316  23.238  35.892  1.00  0.00     0.124 S 
ATOM    105  O   UNL A   1      44.617  24.221  36.716  1.00  0.00    -0.237 OA
ATOM    106  O   UNL A   1      44.459  22.344  35.114  1.00  0.00    -0.237 OA
ATOM    107  O   UNL A   1      46.450  22.582  36.541  1.00  0.00    -0.744 OA
ENDBRANCH 103 104
ENDBRANCH  77  98
ENDBRANCH  51  52
ENDBRANCH  44  46
ENDBRANCH  43  44
ENDBRANCH  42  43
ENDBRANCH  41  42
ENDBRANCH  40  41
ENDBRANCH  39  40
ENDBRANCH  38  39
ENDBRANCH   1  38
TORSDOF 27
ENDMDL
MODEL 2
REMARK VINA RESULT:      -8.4      3.033      8.398
REMARK SMILES Cc1c(C(=O)OCCOCCOCCOCCOC(=O)c2ccc(-c3c4nc(c(-c5ccc(S(=O)(=O)[O-])cc5)c5ccc([nH]5)c(-c5ccc(S(=O)(=O)[O-])cc5)c5nc(c(-c6ccc(S(=O)(=O)[O-])cc6)c6ccc3[nH]6)C=C5)C=C4)cc2)oc2c1/C(=N/NC(=O)C(c1ccccc1)c1ccccc1)CCC2
REMARK SMILES IDX 12 1 11 2 10 3 9 4 8 5 7 6 6 7 4 8 5 9 3 10 1 11 2 12 83 13
REMARK SMILES IDX 81 14 82 15 84 16 104 17 85 18 102 19 103 20 86 21 87 22
REMARK SMILES IDX 88 24 89 25 90 26 91 27 95 28 92 29 94 30 93 31 96 32 97 33
REMARK SMILES IDX 101 34 98 35 100 36 99 37 13 38 14 39 15 40 16 41 17 42
REMARK SMILES IDX 18 43 19 44 20 45 21 46 22 47 80 48 23 49 79 50 24 51 25 52
REMARK SMILES IDX 26 53 73 54 27 55 78 56 72 57 74 58 28 59 77 60 71 61 70 62
REMARK SMILES IDX 29 64 59 65 40 66 58 67 41 68 44 69 57 70 75 71 42 72 43 73
REMARK SMILES IDX 56 75 76 76 45 77 30 78 31 79 39 80 32 81 38 82 33 83 34 84
REMARK SMILES IDX 35 85 36 86 37 87 60 88 61 89 69 90 62 91 68 92 63 93 64 94
REMARK SMILES IDX 65 95 66 96 67 97 46 98 47 99 55 100 48 101 54 102 49 103
REMARK SMILES IDX 50 104 51 105 52 106 53 107
REMARK H PARENT 86 23 74 63 44 74
REMARK Flexibility Score: inf
ROOT
ATOM      1  O   UNL A   1      33.805  22.460  25.331  1.00  0.00    -0.377 OA
ENDROOT
BRANCH   1   2
ATOM      2  C   UNL A   1      32.875  21.927  26.276  1.00  0.00     0.188 C 
BRANCH   2   3
ATOM      3  C   UNL A   1      32.575  22.642  27.612  1.00  0.00     0.188 C 
BRANCH   3   4
ATOM      4  O   UNL A   1      31.834  23.837  27.419  1.00  0.00    -0.376 OA
BRANCH   4   5
ATOM      5  C   UNL A   1      30.771  23.865  26.492  1.00  0.00     0.202 C 
BRANCH   5   6
ATOM      6  C   UNL A   1      30.802  25.130  25.643  1.00  0.00     0.261 C 
BRANCH   6   7
ATOM      7  O   UNL A   1      31.842  26.047  25.981  1.00  0.00    -0.457 OA
BRANCH   7   8
ATOM      8  C   UNL A   1      32.430  26.832  25.039  1.00  0.00     0.374 C 
ATOM      9  O   UNL A   1      32.762  26.471  23.914  1.00  0.00    -0.242 OA
BRANCH   8  10
ATOM     10  C   UNL A   1      32.412  28.176  25.559  1.00  0.00     0.215 A 
ATOM     11  C   UNL A   1      34.683  28.652  26.703  1.00  0.00     0.049 C 
ATOM     12  C   UNL A   1      33.302  28.991  26.271  1.00  0.00     0.012 A 
ATOM     13  C   UNL A   1      32.619  30.238  26.429  1.00  0.00     0.043 A 
ATOM     14  O   UNL A   1      31.335  28.907  25.159  1.00  0.00    -0.453 OA
ATOM     15  C   UNL A   1      31.512  30.142  25.604  1.00  0.00     0.114 A 
ATOM     16  C   UNL A   1      32.778  31.472  27.199  1.00  0.00     0.072 C 
ATOM     17  C   UNL A   1      30.489  31.133  25.219  1.00  0.00     0.076 C 
ATOM     18  N   UNL A   1      33.823  31.660  27.944  1.00  0.00    -0.177 NA
ATOM     19  C   UNL A   1      31.552  32.313  27.095  1.00  0.00     0.059 C 
ATOM     20  C   UNL A   1      30.947  32.488  25.715  1.00  0.00     0.014 C 
BRANCH  18  21
ATOM     21  N   UNL A   1      34.142  32.657  28.850  1.00  0.00    -0.246 N 
ATOM     22  C   UNL A   1      34.813  32.913  30.029  1.00  0.00     0.252 C 
ATOM     23  H   UNL A   1      33.740  33.498  28.534  1.00  0.00     0.193 HD
ATOM     24  O   UNL A   1      34.880  34.123  30.327  1.00  0.00    -0.272 OA
BRANCH  22  25
ATOM     25  C   UNL A   1      35.484  31.899  31.023  1.00  0.00     0.140 C 
BRANCH  25  26
ATOM     26  C   UNL A   1      36.568  31.080  30.226  1.00  0.00    -0.031 A 
ATOM     27  C   UNL A   1      37.309  31.581  29.144  1.00  0.00     0.005 A 
ATOM     28  C   UNL A   1      36.708  29.689  30.484  1.00  0.00     0.005 A 
ATOM     29  C   UNL A   1      37.937  30.706  28.236  1.00  0.00     0.000 A 
ATOM     30  C   UNL A   1      37.328  28.821  29.582  1.00  0.00     0.000 A 
ATOM     31  C   UNL A   1      37.905  29.327  28.429  1.00  0.00     0.000 A 
ENDBRANCH  25  26
BRANCH  25  32
ATOM     32  C   UNL A   1      35.733  32.654  32.372  1.00  0.00    -0.031 A 
ATOM     33  C   UNL A   1      34.599  33.095  33.101  1.00  0.00     0.005 A 
ATOM     34  C   UNL A   1      36.977  33.022  32.904  1.00  0.00     0.005 A 
ATOM     35  C   UNL A   1      34.686  34.065  34.103  1.00  0.00     0.000 A 
ATOM     36  C   UNL A   1      37.070  33.989  33.926  1.00  0.00     0.000 A 
ATOM     37  C   UNL A   1      35.925  34.552  34.481  1.00  0.00     0.000 A 
ENDBRANCH  25  32
ENDBRANCH  22  25
ENDBRANCH  18  21
ENDBRANCH   8  10
ENDBRANCH   7   8
ENDBRANCH   6   7
ENDBRANCH   5   6
ENDBRANCH   4   5
ENDBRANCH   3   4
ENDBRANCH   2   3
ENDBRANCH   1   2
BRANCH   1  38
ATOM     38  C   UNL A   1      35.187  22.450  25.660  1.00  0.00     0.188 C 
BRANCH  38  39
ATOM     39  C   UNL A   1      35.891  21.094  25.406  1.00  0.00     0.188 C 
BRANCH  39  40
ATOM     40  O   UNL A   1      37.310  21.142  25.418  1.00  0.00    -0.376 OA
BRANCH  40  41
ATOM     41  C   UNL A   1      38.073  22.334  25.345  1.00  0.00     0.202 C 
BRANCH  41  42
ATOM     42  C   UNL A   1      39.045  22.785  26.431  1.00  0.00     0.261 C 
BRANCH  42  43
ATOM     43  O   UNL A   1      38.912  24.123  26.837  1.00  0.00    -0.460 OA
BRANCH  43  44
ATOM     44  C   UNL A   1      39.977  24.899  26.599  1.00  0.00     0.338 C 
ATOM     45  O   UNL A   1      40.913  24.666  25.856  1.00  0.00    -0.246 OA
BRANCH  44  46
ATOM     46  C   UNL A   1      39.868  26.057  27.486  1.00  0.00     0.060 A 
ATOM     47  C   UNL A   1      40.673  27.140  27.148  1.00  0.00     0.016 A 
ATOM     48  C   UNL A   1      39.366  25.850  28.783  1.00  0.00     0.016 A 
ATOM     49  C   UNL A   1      41.258  27.822  28.180  1.00  0.00     0.010 A 
ATOM     50  C   UNL A   1      39.975  26.509  29.814  1.00  0.00     0.010 A 
ATOM     51  C   UNL A   1      40.990  27.400  29.487  1.00  0.00    -0.014 A 
BRANCH  51  52
ATOM     52  C   UNL A   1      41.826  27.934  30.525  1.00  0.00     0.031 A 
ATOM     53  C   UNL A   1      41.142  28.936  31.348  1.00  0.00     0.074 A 
ATOM     54  C   UNL A   1      43.083  27.512  30.730  1.00  0.00     0.049 A 
ATOM     55  N   UNL A   1      41.316  30.212  31.326  1.00  0.00    -0.248 NA
ATOM     56  C   UNL A   1      39.993  28.478  32.141  1.00  0.00     0.031 C 
ATOM     57  C   UNL A   1      43.759  26.334  30.184  1.00  0.00     0.029 A 
ATOM     58  N   UNL A   1      43.990  28.021  31.598  1.00  0.00    -0.354 N 
ATOM     59  C   UNL A   1      40.432  30.710  32.267  1.00  0.00     0.074 A 
ATOM     60  C   UNL A   1      39.513  29.641  32.575  1.00  0.00     0.031 C 
ATOM     61  C   UNL A   1      44.866  26.089  30.924  1.00  0.00     0.029 A 
ATOM     62  C   UNL A   1      45.033  27.162  31.894  1.00  0.00     0.049 A 
ATOM     63  H   UNL A   1      43.914  28.923  31.983  1.00  0.00     0.167 HD
ATOM     64  C   UNL A   1      40.676  31.872  32.927  1.00  0.00     0.031 A 
ATOM     65  C   UNL A   1      45.881  27.290  32.945  1.00  0.00     0.031 A 
ATOM     66  C   UNL A   1      41.701  32.657  32.289  1.00  0.00     0.049 A 
ATOM     67  C   UNL A   1      45.822  28.712  33.388  1.00  0.00     0.074 A 
ATOM     68  C   UNL A   1      41.845  33.201  31.027  1.00  0.00     0.029 A 
ATOM     69  N   UNL A   1      42.965  32.616  32.832  1.00  0.00    -0.354 N 
ATOM     70  N   UNL A   1      46.251  29.708  32.662  1.00  0.00    -0.248 NA
ATOM     71  C   UNL A   1      44.869  29.076  34.428  1.00  0.00     0.031 C 
ATOM     72  C   UNL A   1      43.220  33.018  30.700  1.00  0.00     0.029 A 
ATOM     73  C   UNL A   1      43.850  32.429  31.798  1.00  0.00     0.049 A 
ATOM     74  H   UNL A   1      43.193  32.705  33.786  1.00  0.00     0.167 HD
ATOM     75  C   UNL A   1      45.328  30.728  32.861  1.00  0.00     0.074 A 
ATOM     76  C   UNL A   1      44.559  30.316  34.033  1.00  0.00     0.031 C 
ATOM     77  C   UNL A   1      45.083  31.668  31.899  1.00  0.00     0.031 A 
BRANCH  64  78
ATOM     78  C   UNL A   1      40.246  32.078  34.349  1.00  0.00    -0.014 A 
ATOM     79  C   UNL A   1      39.371  31.159  34.948  1.00  0.00     0.010 A 
ATOM     80  C   UNL A   1      40.489  33.287  35.041  1.00  0.00     0.010 A 
ATOM     81  C   UNL A   1      38.745  31.453  36.166  1.00  0.00     0.020 A 
ATOM     82  C   UNL A   1      39.916  33.567  36.276  1.00  0.00     0.020 A 
ATOM     83  C   UNL A   1      39.019  32.660  36.816  1.00  0.00     0.054 A 
BRANCH  83  84
ATOM     84  S   UNL A   1      38.142  33.071  38.342  1.00  0.00     0.124 S 
ATOM     85  O   UNL A   1      38.234  34.528  38.353  1.00  0.00    -0.237 OA
ATOM     86  O   UNL A   1      36.814  32.519  38.095  1.00  0.00    -0.237 OA
ATOM     87  O   UNL A   1      38.915  32.385  39.375  1.00  0.00    -0.744 OA
ENDBRANCH  83  84
ENDBRANCH  64  78
BRANCH  65  88
ATOM     88  C   UNL A   1      46.413  26.189  33.787  1.00  0.00    -0.014 A 
ATOM     89  C   UNL A   1      46.108  24.847  33.504  1.00  0.00     0.010 A 
ATOM     90  C   UNL A   1      47.438  26.442  34.725  1.00  0.00     0.010 A 
ATOM     91  C   UNL A   1      46.839  23.800  34.092  1.00  0.00     0.020 A 
ATOM     92  C   UNL A   1      48.161  25.407  35.324  1.00  0.00     0.020 A 
ATOM     93  C   UNL A   1      47.875  24.089  34.986  1.00  0.00     0.054 A 
BRANCH  93  94
ATOM     94  S   UNL A   1      48.931  22.747  35.605  1.00  0.00     0.124 S 
ATOM     95  O   UNL A   1      49.144  23.137  36.995  1.00  0.00    -0.237 OA
ATOM     96  O   UNL A   1      48.096  21.567  35.398  1.00  0.00    -0.237 OA
ATOM     97  O   UNL A   1      50.116  22.820  34.752  1.00  0.00    -0.744 OA
ENDBRANCH  93  94
ENDBRANCH  65  88
BRANCH  77  98
ATOM     98  C   UNL A   1      46.019  31.753  30.711  1.00  0.00    -0.014 A 
ATOM     99  C   UNL A   1      45.877  30.969  29.548  1.00  0.00     0.010 A 
ATOM    100  C   UNL A   1      46.983  32.777  30.707  1.00  0.00     0.010 A 
ATOM    101  C   UNL A   1      46.696  31.185  28.429  1.00  0.00     0.020 A 
ATOM    102  C   UNL A   1      47.788  33.012  29.589  1.00  0.00     0.020 A 
ATOM    103  C   UNL A   1      47.647  32.208  28.457  1.00  0.00     0.054 A 
BRANCH 103 104
ATOM    104  S   UNL A   1      48.670  32.517  26.989  1.00  0.00     0.124 S 
ATOM    105  O   UNL A   1      49.679  33.444  27.494  1.00  0.00    -0.237 OA
ATOM    106  O   UNL A   1      49.156  31.182  26.645  1.00  0.00    -0.237 OA
ATOM    107  O   UNL A   1      47.732  33.091  26.025  1.00  0.00    -0.744 OA
ENDBRANCH 103 104
ENDBRANCH  77  98
ENDBRANCH  51  52
ENDBRANCH  44  46
ENDBRANCH  43  44
ENDBRANCH  42  43
ENDBRANCH  41  42
ENDBRANCH  40  41
ENDBRANCH  39  40
ENDBRANCH  38  39
ENDBRANCH   1  38
TORSDOF 27
ENDMDL
MODEL 3
REMARK VINA RESULT:      -8.3      1.681      2.199
REMARK SMILES Cc1c(C(=O)OCCOCCOCCOCCOC(=O)c2ccc(-c3c4nc(c(-c5ccc(S(=O)(=O)[O-])cc5)c5ccc([nH]5)c(-c5ccc(S(=O)(=O)[O-])cc5)c5nc(c(-c6ccc(S(=O)(=O)[O-])cc6)c6ccc3[nH]6)C=C5)C=C4)cc2)oc2c1/C(=N/NC(=O)C(c1ccccc1)c1ccccc1)CCC2
REMARK SMILES IDX 12 1 11 2 10 3 9 4 8 5 7 6 6 7 4 8 5 9 3 10 1 11 2 12 83 13
REMARK SMILES IDX 81 14 82 15 84 16 104 17 85 18 102 19 103 20 86 21 87 22
REMARK SMILES IDX 88 24 89 25 90 26 91 27 95 28 92 29 94 30 93 31 96 32 97 33
REMARK SMILES IDX 101 34 98 35 100 36 99 37 13 38 14 39 15 40 16 41 17 42
REMARK SMILES IDX 18 43 19 44 20 45 21 46 22 47 80 48 23 49 79 50 24 51 25 52
REMARK SMILES IDX 26 53 73 54 27 55 78 56 72 57 74 58 28 59 77 60 71 61 70 62
REMARK SMILES IDX 29 64 59 65 40 66 58 67 41 68 44 69 57 70 75 71 42 72 43 73
REMARK SMILES IDX 56 75 76 76 45 77 30 78 31 79 39 80 32 81 38 82 33 83 34 84
REMARK SMILES IDX 35 85 36 86 37 87 60 88 61 89 69 90 62 91 68 92 63 93 64 94
REMARK SMILES IDX 65 95 66 96 67 97 46 98 47 99 55 100 48 101 54 102 49 103
REMARK SMILES IDX 50 104 51 105 52 106 53 107
REMARK H PARENT 86 23 74 63 44 74
REMARK Flexibility Score: inf
ROOT
ATOM      1  O   UNL A   1      34.160  22.739  25.322  1.00  0.00    -0.377 OA
ENDROOT
BRANCH   1   2
ATOM      2  C   UNL A   1      33.078  22.141  26.038  1.00  0.00     0.188 C 
BRANCH   2   3
ATOM      3  C   UNL A   1      32.739  22.553  27.488  1.00  0.00     0.188 C 
BRANCH   3   4
ATOM      4  O   UNL A   1      31.924  23.714  27.533  1.00  0.00    -0.376 OA
BRANCH   4   5
ATOM      5  C   UNL A   1      31.002  23.969  26.497  1.00  0.00     0.202 C 
BRANCH   5   6
ATOM      6  C   UNL A   1      31.077  25.415  26.022  1.00  0.00     0.261 C 
BRANCH   6   7
ATOM      7  O   UNL A   1      31.861  26.272  26.852  1.00  0.00    -0.457 OA
BRANCH   7   8
ATOM      8  C   UNL A   1      33.084  26.715  26.459  1.00  0.00     0.374 C 
ATOM      9  O   UNL A   1      33.953  26.033  25.922  1.00  0.00    -0.242 OA
BRANCH   8  10
ATOM     10  C   UNL A   1      33.075  28.146  26.632  1.00  0.00     0.215 A 
ATOM     11  C   UNL A   1      35.513  28.962  26.917  1.00  0.00     0.049 C 
ATOM     12  C   UNL A   1      34.040  29.139  26.841  1.00  0.00     0.012 A 
ATOM     13  C   UNL A   1      33.305  30.366  26.896  1.00  0.00     0.043 A 
ATOM     14  O   UNL A   1      31.861  28.720  26.405  1.00  0.00    -0.453 OA
ATOM     15  C   UNL A   1      32.029  30.032  26.477  1.00  0.00     0.114 A 
ATOM     16  C   UNL A   1      33.545  31.759  27.275  1.00  0.00     0.072 C 
ATOM     17  C   UNL A   1      30.844  30.863  26.186  1.00  0.00     0.076 C 
ATOM     18  N   UNL A   1      34.731  32.159  27.616  1.00  0.00    -0.177 NA
ATOM     19  C   UNL A   1      32.259  32.511  27.339  1.00  0.00     0.059 C 
ATOM     20  C   UNL A   1      31.283  32.313  26.196  1.00  0.00     0.014 C 
BRANCH  18  21
ATOM     21  N   UNL A   1      35.185  33.362  28.129  1.00  0.00    -0.246 N 
ATOM     22  C   UNL A   1      35.993  33.921  29.098  1.00  0.00     0.252 C 
ATOM     23  H   UNL A   1      34.779  34.091  27.607  1.00  0.00     0.193 HD
ATOM     24  O   UNL A   1      36.136  35.157  28.995  1.00  0.00    -0.272 OA
BRANCH  22  25
ATOM     25  C   UNL A   1      36.738  33.217  30.289  1.00  0.00     0.140 C 
BRANCH  25  26
ATOM     26  C   UNL A   1      36.050  33.673  31.631  1.00  0.00    -0.031 A 
ATOM     27  C   UNL A   1      36.685  34.413  32.641  1.00  0.00     0.005 A 
ATOM     28  C   UNL A   1      34.756  33.175  31.946  1.00  0.00     0.005 A 
ATOM     29  C   UNL A   1      36.171  34.430  33.952  1.00  0.00     0.000 A 
ATOM     30  C   UNL A   1      34.248  33.190  33.247  1.00  0.00     0.000 A 
ATOM     31  C   UNL A   1      34.980  33.779  34.263  1.00  0.00     0.000 A 
ENDBRANCH  25  26
BRANCH  25  32
ATOM     32  C   UNL A   1      37.006  31.733  29.868  1.00  0.00    -0.031 A 
ATOM     33  C   UNL A   1      36.292  30.715  30.550  1.00  0.00     0.005 A 
ATOM     34  C   UNL A   1      37.953  31.289  28.933  1.00  0.00     0.005 A 
ATOM     35  C   UNL A   1      36.692  29.376  30.522  1.00  0.00     0.000 A 
ATOM     36  C   UNL A   1      38.349  29.937  28.890  1.00  0.00     0.000 A 
ATOM     37  C   UNL A   1      37.759  28.995  29.727  1.00  0.00     0.000 A 
ENDBRANCH  25  32
ENDBRANCH  22  25
ENDBRANCH  18  21
ENDBRANCH   8  10
ENDBRANCH   7   8
ENDBRANCH   6   7
ENDBRANCH   5   6
ENDBRANCH   4   5
ENDBRANCH   3   4
ENDBRANCH   2   3
ENDBRANCH   1   2
BRANCH   1  38
ATOM     38  C   UNL A   1      35.481  22.559  25.814  1.00  0.00     0.188 C 
BRANCH  38  39
ATOM     39  C   UNL A   1      36.130  21.212  25.410  1.00  0.00     0.188 C 
BRANCH  39  40
ATOM     40  O   UNL A   1      37.550  21.189  25.465  1.00  0.00    -0.376 OA
BRANCH  40  41
ATOM     41  C   UNL A   1      38.354  22.279  25.879  1.00  0.00     0.202 C 
BRANCH  41  42
ATOM     42  C   UNL A   1      39.595  22.130  26.754  1.00  0.00     0.261 C 
BRANCH  42  43
ATOM     43  O   UNL A   1      40.770  22.694  26.229  1.00  0.00    -0.460 OA
BRANCH  43  44
ATOM     44  C   UNL A   1      41.877  21.957  26.390  1.00  0.00     0.338 C 
ATOM     45  O   UNL A   1      41.975  20.878  26.947  1.00  0.00    -0.246 OA
BRANCH  44  46
ATOM     46  C   UNL A   1      42.993  22.741  25.861  1.00  0.00     0.060 A 
ATOM     47  C   UNL A   1      44.232  22.468  26.431  1.00  0.00     0.016 A 
ATOM     48  C   UNL A   1      42.698  23.951  25.208  1.00  0.00     0.016 A 
ATOM     49  C   UNL A   1      45.059  23.536  26.652  1.00  0.00     0.010 A 
ATOM     50  C   UNL A   1      43.509  25.022  25.458  1.00  0.00     0.010 A 
ATOM     51  C   UNL A   1      44.613  24.807  26.273  1.00  0.00    -0.014 A 
BRANCH  51  52
ATOM     52  C   UNL A   1      45.358  25.930  26.769  1.00  0.00     0.031 A 
ATOM     53  C   UNL A   1      46.723  25.988  26.234  1.00  0.00     0.074 A 
ATOM     54  C   UNL A   1      44.827  26.842  27.597  1.00  0.00     0.049 A 
ATOM     55  N   UNL A   1      47.814  25.705  26.856  1.00  0.00    -0.248 NA
ATOM     56  C   UNL A   1      46.865  26.192  24.786  1.00  0.00     0.031 C 
ATOM     57  C   UNL A   1      43.423  27.056  27.952  1.00  0.00     0.029 A 
ATOM     58  N   UNL A   1      45.465  27.867  28.210  1.00  0.00    -0.354 N 
ATOM     59  C   UNL A   1      48.818  25.900  25.922  1.00  0.00     0.074 A 
ATOM     60  C   UNL A   1      48.172  25.988  24.636  1.00  0.00     0.031 C 
ATOM     61  C   UNL A   1      43.300  28.283  28.509  1.00  0.00     0.029 A 
ATOM     62  C   UNL A   1      44.624  28.867  28.662  1.00  0.00     0.049 A 
ATOM     63  H   UNL A   1      46.442  27.897  28.324  1.00  0.00     0.167 HD
ATOM     64  C   UNL A   1      50.078  26.243  26.295  1.00  0.00     0.031 A 
ATOM     65  C   UNL A   1      45.012  30.119  29.014  1.00  0.00     0.031 A 
ATOM     66  C   UNL A   1      50.315  26.014  27.697  1.00  0.00     0.049 A 
ATOM     67  C   UNL A   1      46.471  30.062  29.310  1.00  0.00     0.074 A 
ATOM     68  C   UNL A   1      50.247  24.900  28.510  1.00  0.00     0.029 A 
ATOM     69  N   UNL A   1      50.261  27.103  28.538  1.00  0.00    -0.354 N 
ATOM     70  N   UNL A   1      46.974  29.405  30.320  1.00  0.00    -0.248 NA
ATOM     71  C   UNL A   1      47.410  30.340  28.231  1.00  0.00     0.031 C 
ATOM     72  C   UNL A   1      49.684  25.367  29.733  1.00  0.00     0.029 A 
ATOM     73  C   UNL A   1      49.496  26.746  29.622  1.00  0.00     0.049 A 
ATOM     74  H   UNL A   1      50.692  27.975  28.390  1.00  0.00     0.167 HD
ATOM     75  C   UNL A   1      48.141  28.826  29.834  1.00  0.00     0.074 A 
ATOM     76  C   UNL A   1      48.408  29.519  28.576  1.00  0.00     0.031 C 
ATOM     77  C   UNL A   1      48.625  27.654  30.346  1.00  0.00     0.031 A 
BRANCH  64  78
ATOM     78  C   UNL A   1      50.935  27.140  25.451  1.00  0.00    -0.014 A 
ATOM     79  C   UNL A   1      51.068  28.494  25.796  1.00  0.00     0.010 A 
ATOM     80  C   UNL A   1      51.422  26.743  24.185  1.00  0.00     0.010 A 
ATOM     81  C   UNL A   1      51.633  29.410  24.900  1.00  0.00     0.020 A 
ATOM     82  C   UNL A   1      52.033  27.633  23.309  1.00  0.00     0.020 A 
ATOM     83  C   UNL A   1      52.105  28.971  23.660  1.00  0.00     0.054 A 
BRANCH  83  84
ATOM     84  S   UNL A   1      52.752  30.171  22.474  1.00  0.00     0.124 S 
ATOM     85  O   UNL A   1      53.638  30.972  23.315  1.00  0.00    -0.237 OA
ATOM     86  O   UNL A   1      53.409  29.313  21.492  1.00  0.00    -0.237 OA
ATOM     87  O   UNL A   1      51.555  30.856  21.993  1.00  0.00    -0.744 OA
ENDBRANCH  83  84
ENDBRANCH  64  78
BRANCH  65  88
ATOM     88  C   UNL A   1      44.280  31.380  28.733  1.00  0.00    -0.014 A 
ATOM     89  C   UNL A   1      43.659  32.104  29.765  1.00  0.00     0.010 A 
ATOM     90  C   UNL A   1      44.410  32.013  27.478  1.00  0.00     0.010 A 
ATOM     91  C   UNL A   1      43.238  33.430  29.565  1.00  0.00     0.020 A 
ATOM     92  C   UNL A   1      43.982  33.327  27.266  1.00  0.00     0.020 A 
ATOM     93  C   UNL A   1      43.420  34.039  28.320  1.00  0.00     0.054 A 
BRANCH  93  94
ATOM     94  S   UNL A   1      43.039  35.803  28.116  1.00  0.00     0.124 S 
ATOM     95  O   UNL A   1      43.465  36.056  26.743  1.00  0.00    -0.237 OA
ATOM     96  O   UNL A   1      41.598  35.844  28.350  1.00  0.00    -0.237 OA
ATOM     97  O   UNL A   1      43.848  36.452  29.146  1.00  0.00    -0.744 OA
ENDBRANCH  93  94
ENDBRANCH  65  88
BRANCH  77  98
ATOM     98  C   UNL A   1      48.027  27.122  31.633  1.00  0.00    -0.014 A 
ATOM     99  C   UNL A   1      46.846  26.354  31.686  1.00  0.00     0.010 A 
ATOM    100  C   UNL A   1      48.775  27.270  32.814  1.00  0.00     0.010 A 
ATOM    101  C   UNL A   1      46.414  25.779  32.890  1.00  0.00     0.020 A 
ATOM    102  C   UNL A   1      48.362  26.683  34.014  1.00  0.00     0.020 A 
ATOM    103  C   UNL A   1      47.177  25.947  34.049  1.00  0.00     0.054 A 
BRANCH 103 104
ATOM    104  S   UNL A   1      46.641  25.159  35.594  1.00  0.00     0.124 S 
ATOM    105  O   UNL A   1      45.427  24.455  35.187  1.00  0.00    -0.237 OA
ATOM    106  O   UNL A   1      47.778  24.308  35.937  1.00  0.00    -0.237 OA
ATOM    107  O   UNL A   1      46.426  26.284  36.502  1.00  0.00    -0.744 OA
ENDBRANCH 103 104
ENDBRANCH  77  98
ENDBRANCH  51  52
ENDBRANCH  44  46
ENDBRANCH  43  44
ENDBRANCH  42  43
ENDBRANCH  41  42
ENDBRANCH  40  41
ENDBRANCH  39  40
ENDBRANCH  38  39
ENDBRANCH   1  38
TORSDOF 27
ENDMDL
