MODEL 1
REMARK VINA RESULT:     -10.3      0.000      0.000
REMARK SMILES CC1(C)[C@H](C(=O)Nc2cccc3[nH]ccc23)[C@H]1C(=O)OCCOCCOCCOCCOC(=O)c1ccc(-c2c3nc(c(-c4ccc(S(=O)(=O)[O-])cc4)c4ccc([nH]4)c(-c4ccc(S(=O)(=O)[O-])cc4)c4nc(c(-c5ccc(S(=O)(=O)[O-])cc5)c5ccc2[nH]5)C=C4)C=C3)cc1
REMARK SMILES IDX 27 1 26 2 25 3 24 4 23 5 22 6 21 7 20 8 18 9 19 10 17 11
REMARK SMILES IDX 1 12 2 13 3 14 4 15 5 16 6 17 7 18 8 20 9 21 16 22 10 23
REMARK SMILES IDX 12 24 15 25 11 26 13 27 14 28 28 30 29 31 30 32 31 33 32 34
REMARK SMILES IDX 33 35 34 36 35 37 36 38 94 39 37 40 93 41 38 42 39 43 40 44
REMARK SMILES IDX 87 45 41 46 92 47 86 48 88 49 42 50 91 51 85 52 84 53 43 55
REMARK SMILES IDX 73 56 54 57 72 58 55 59 58 60 71 61 89 62 56 63 57 64 70 66
REMARK SMILES IDX 90 67 59 68 44 69 45 70 53 71 46 72 52 73 47 74 48 75 49 76
REMARK SMILES IDX 50 77 51 78 74 79 75 80 83 81 76 82 82 83 77 84 78 85 79 86
REMARK SMILES IDX 80 87 81 88 60 89 61 90 69 91 62 92 68 93 63 94 64 95 65 96
REMARK SMILES IDX 66 97 67 98
REMARK H PARENT 7 19 13 29 88 54 58 65
REMARK Flexibility Score: inf
ROOT
ATOM      1  C   UNL A   1      35.738  22.130  25.485  1.00  0.00     0.188 C 
ENDROOT
BRANCH   1   2
ATOM      2  O   UNL A   1      35.038  20.923  25.782  1.00  0.00    -0.377 OA
BRANCH   2   3
ATOM      3  C   UNL A   1      33.662  20.818  25.452  1.00  0.00     0.188 C 
BRANCH   3   4
ATOM      4  C   UNL A   1      32.757  22.044  25.656  1.00  0.00     0.188 C 
BRANCH   4   5
ATOM      5  O   UNL A   1      32.116  22.481  24.465  1.00  0.00    -0.376 OA
BRANCH   5   6
ATOM      6  C   UNL A   1      32.689  22.041  23.241  1.00  0.00     0.202 C 
BRANCH   6   7
ATOM      7  C   UNL A   1      33.095  23.117  22.220  1.00  0.00     0.261 C 
BRANCH   7   8
ATOM      8  O   UNL A   1      32.346  24.332  22.326  1.00  0.00    -0.463 OA
BRANCH   8   9
ATOM      9  C   UNL A   1      33.013  25.493  22.483  1.00  0.00     0.310 C 
ATOM     10  O   UNL A   1      33.882  25.941  21.748  1.00  0.00    -0.252 OA
BRANCH   9  11
ATOM     11  C   UNL A   1      32.455  26.291  23.602  1.00  0.00     0.118 C 
ATOM     12  C   UNL A   1      34.251  25.508  25.371  1.00  0.00     0.013 C 
ATOM     13  C   UNL A   1      33.023  26.319  25.023  1.00  0.00    -0.009 C 
ATOM     14  C   UNL A   1      32.048  26.378  26.173  1.00  0.00     0.013 C 
ATOM     15  C   UNL A   1      33.212  27.506  24.076  1.00  0.00     0.100 C 
BRANCH  15  16
ATOM     16  C   UNL A   1      32.572  28.850  24.211  1.00  0.00     0.228 C 
ATOM     17  O   UNL A   1      33.044  29.662  24.999  1.00  0.00    -0.274 OA
ATOM     18  N   UNL A   1      31.664  29.213  23.242  1.00  0.00    -0.325 N 
ATOM     19  H   UNL A   1      32.008  29.717  22.469  1.00  0.00     0.169 HD
BRANCH  18  20
ATOM     20  C   UNL A   1      30.287  28.923  23.260  1.00  0.00     0.050 A 
ATOM     21  C   UNL A   1      29.805  27.692  23.720  1.00  0.00     0.027 A 
ATOM     22  C   UNL A   1      29.349  29.880  22.808  1.00  0.00     0.023 A 
ATOM     23  C   UNL A   1      28.461  27.344  23.604  1.00  0.00     0.004 A 
ATOM     24  C   UNL A   1      28.005  29.508  22.708  1.00  0.00     0.047 A 
ATOM     25  C   UNL A   1      29.428  31.234  22.363  1.00  0.00     0.030 A 
ATOM     26  C   UNL A   1      27.538  28.237  23.065  1.00  0.00     0.027 A 
ATOM     27  N   UNL A   1      27.312  30.588  22.210  1.00  0.00    -0.361 N 
ATOM     28  C   UNL A   1      28.159  31.648  22.027  1.00  0.00     0.083 A 
ATOM     29  H   UNL A   1      26.348  30.597  22.015  1.00  0.00     0.166 HD
ENDBRANCH  18  20
ENDBRANCH  15  16
ENDBRANCH   9  11
ENDBRANCH   8   9
ENDBRANCH   7   8
ENDBRANCH   6   7
ENDBRANCH   5   6
ENDBRANCH   4   5
ENDBRANCH   3   4
ENDBRANCH   2   3
ENDBRANCH   1   2
BRANCH   1  30
ATOM     30  C   UNL A   1      37.183  22.083  24.942  1.00  0.00     0.188 C 
BRANCH  30  31
ATOM     31  O   UNL A   1      38.159  21.595  25.854  1.00  0.00    -0.376 OA
BRANCH  31  32
ATOM     32  C   UNL A   1      39.219  22.487  26.175  1.00  0.00     0.202 C 
BRANCH  32  33
ATOM     33  C   UNL A   1      38.767  23.905  26.548  1.00  0.00     0.261 C 
BRANCH  33  34
ATOM     34  O   UNL A   1      39.652  24.609  27.435  1.00  0.00    -0.460 OA
BRANCH  34  35
ATOM     35  C   UNL A   1      40.185  25.767  26.990  1.00  0.00     0.338 C 
ATOM     36  O   UNL A   1      40.567  26.024  25.864  1.00  0.00    -0.246 OA
BRANCH  35  37
ATOM     37  C   UNL A   1      40.076  26.750  28.082  1.00  0.00     0.060 A 
ATOM     38  C   UNL A   1      40.794  27.949  27.992  1.00  0.00     0.016 A 
ATOM     39  C   UNL A   1      39.263  26.483  29.185  1.00  0.00     0.016 A 
ATOM     40  C   UNL A   1      40.718  28.880  29.029  1.00  0.00     0.010 A 
ATOM     41  C   UNL A   1      39.204  27.406  30.228  1.00  0.00     0.010 A 
ATOM     42  C   UNL A   1      39.950  28.595  30.167  1.00  0.00    -0.014 A 
BRANCH  42  43
ATOM     43  C   UNL A   1      40.052  29.451  31.370  1.00  0.00     0.031 A 
ATOM     44  C   UNL A   1      41.180  29.201  32.331  1.00  0.00     0.074 A 
ATOM     45  C   UNL A   1      39.150  30.416  31.615  1.00  0.00     0.049 A 
ATOM     46  N   UNL A   1      41.434  29.777  33.476  1.00  0.00    -0.248 NA
ATOM     47  C   UNL A   1      42.151  28.162  31.947  1.00  0.00     0.031 C 
ATOM     48  C   UNL A   1      38.035  30.778  30.742  1.00  0.00     0.029 A 
ATOM     49  N   UNL A   1      39.027  31.262  32.689  1.00  0.00    -0.354 N 
ATOM     50  C   UNL A   1      42.589  29.171  33.953  1.00  0.00     0.074 A 
ATOM     51  C   UNL A   1      42.974  28.167  32.985  1.00  0.00     0.031 C 
ATOM     52  C   UNL A   1      37.331  31.766  31.323  1.00  0.00     0.029 A 
ATOM     53  C   UNL A   1      37.926  32.082  32.620  1.00  0.00     0.049 A 
ATOM     54  H   UNL A   1      39.668  31.281  33.436  1.00  0.00     0.167 HD
ATOM     55  C   UNL A   1      43.271  29.427  35.094  1.00  0.00     0.031 A 
ATOM     56  C   UNL A   1      37.441  32.964  33.517  1.00  0.00     0.031 A 
ATOM     57  C   UNL A   1      42.869  30.401  36.072  1.00  0.00     0.049 A 
ATOM     58  C   UNL A   1      38.161  33.162  34.826  1.00  0.00     0.074 A 
ATOM     59  C   UNL A   1      43.499  30.743  37.255  1.00  0.00     0.029 A 
ATOM     60  N   UNL A   1      41.723  31.175  35.990  1.00  0.00    -0.354 N 
ATOM     61  N   UNL A   1      39.272  32.607  35.249  1.00  0.00    -0.248 NA
ATOM     62  C   UNL A   1      37.558  34.103  35.780  1.00  0.00     0.031 C 
ATOM     63  C   UNL A   1      42.704  31.684  37.916  1.00  0.00     0.029 A 
ATOM     64  C   UNL A   1      41.607  31.969  37.118  1.00  0.00     0.049 A 
ATOM     65  H   UNL A   1      41.086  31.163  35.240  1.00  0.00     0.167 HD
ATOM     66  C   UNL A   1      39.510  33.144  36.509  1.00  0.00     0.074 A 
ATOM     67  C   UNL A   1      38.436  34.080  36.775  1.00  0.00     0.031 C 
ATOM     68  C   UNL A   1      40.525  32.887  37.371  1.00  0.00     0.031 A 
BRANCH  55  69
ATOM     69  C   UNL A   1      44.502  28.605  35.357  1.00  0.00    -0.014 A 
ATOM     70  C   UNL A   1      44.428  27.399  36.076  1.00  0.00     0.010 A 
ATOM     71  C   UNL A   1      45.748  29.039  34.871  1.00  0.00     0.010 A 
ATOM     72  C   UNL A   1      45.585  26.661  36.339  1.00  0.00     0.020 A 
ATOM     73  C   UNL A   1      46.904  28.293  35.112  1.00  0.00     0.020 A 
ATOM     74  C   UNL A   1      46.817  27.117  35.861  1.00  0.00     0.054 A 
BRANCH  74  75
ATOM     75  S   UNL A   1      48.303  26.140  36.212  1.00  0.00     0.124 S 
ATOM     76  O   UNL A   1      47.822  24.776  36.006  1.00  0.00    -0.237 OA
ATOM     77  O   UNL A   1      49.252  26.628  35.215  1.00  0.00    -0.237 OA
ATOM     78  O   UNL A   1      48.626  26.482  37.595  1.00  0.00    -0.744 OA
ENDBRANCH  74  75
ENDBRANCH  55  69
BRANCH  56  79
ATOM     79  C   UNL A   1      36.188  33.711  33.221  1.00  0.00    -0.014 A 
ATOM     80  C   UNL A   1      36.238  35.002  32.668  1.00  0.00     0.010 A 
ATOM     81  C   UNL A   1      34.935  33.132  33.496  1.00  0.00     0.010 A 
ATOM     82  C   UNL A   1      35.058  35.704  32.404  1.00  0.00     0.020 A 
ATOM     83  C   UNL A   1      33.753  33.821  33.210  1.00  0.00     0.020 A 
ATOM     84  C   UNL A   1      33.824  35.108  32.674  1.00  0.00     0.054 A 
BRANCH  84  85
ATOM     85  S   UNL A   1      32.305  36.016  32.268  1.00  0.00     0.124 S 
ATOM     86  O   UNL A   1      32.528  36.371  30.871  1.00  0.00    -0.237 OA
ATOM     87  O   UNL A   1      31.267  35.017  32.510  1.00  0.00    -0.237 OA
ATOM     88  O   UNL A   1      32.314  37.133  33.210  1.00  0.00    -0.744 OA
ENDBRANCH  84  85
ENDBRANCH  56  79
BRANCH  68  89
ATOM     89  C   UNL A   1      40.535  33.635  38.678  1.00  0.00    -0.014 A 
ATOM     90  C   UNL A   1      41.171  34.884  38.792  1.00  0.00     0.010 A 
ATOM     91  C   UNL A   1      39.844  33.113  39.785  1.00  0.00     0.010 A 
ATOM     92  C   UNL A   1      41.133  35.588  40.000  1.00  0.00     0.020 A 
ATOM     93  C   UNL A   1      39.782  33.825  40.986  1.00  0.00     0.020 A 
ATOM     94  C   UNL A   1      40.439  35.053  41.090  1.00  0.00     0.054 A 
BRANCH  94  95
ATOM     95  S   UNL A   1      40.357  36.009  42.630  1.00  0.00     0.124 S 
ATOM     96  O   UNL A   1      39.256  36.929  42.359  1.00  0.00    -0.237 OA
ATOM     97  O   UNL A   1      40.085  34.981  43.633  1.00  0.00    -0.237 OA
ATOM     98  O   UNL A   1      41.677  36.627  42.725  1.00  0.00    -0.744 OA
ENDBRANCH  94  95
ENDBRANCH  68  89
ENDBRANCH  42  43
ENDBRANCH  35  37
ENDBRANCH  34  35
ENDBRANCH  33  34
ENDBRANCH  32  33
ENDBRANCH  31  32
ENDBRANCH  30  31
ENDBRANCH   1  30
TORSDOF 25
ENDMDL
MODEL 2
REMARK VINA RESULT:     -10.2      1.634      3.130
REMARK SMILES CC1(C)[C@H](C(=O)Nc2cccc3[nH]ccc23)[C@H]1C(=O)OCCOCCOCCOCCOC(=O)c1ccc(-c2c3nc(c(-c4ccc(S(=O)(=O)[O-])cc4)c4ccc([nH]4)c(-c4ccc(S(=O)(=O)[O-])cc4)c4nc(c(-c5ccc(S(=O)(=O)[O-])cc5)c5ccc2[nH]5)C=C4)C=C3)cc1
REMARK SMILES IDX 27 1 26 2 25 3 24 4 23 5 22 6 21 7 20 8 18 9 19 10 17 11
REMARK SMILES IDX 1 12 2 13 3 14 4 15 5 16 6 17 7 18 8 20 9 21 16 22 10 23
REMARK SMILES IDX 12 24 15 25 11 26 13 27 14 28 28 30 29 31 30 32 31 33 32 34
REMARK SMILES IDX 33 35 34 36 35 37 36 38 94 39 37 40 93 41 38 42 39 43 40 44
REMARK SMILES IDX 87 45 41 46 92 47 86 48 88 49 42 50 91 51 85 52 84 53 43 55
REMARK SMILES IDX 73 56 54 57 72 58 55 59 58 60 71 61 89 62 56 63 57 64 70 66
REMARK SMILES IDX 90 67 59 68 44 69 45 70 53 71 46 72 52 73 47 74 48 75 49 76
REMARK SMILES IDX 50 77 51 78 74 79 75 80 83 81 76 82 82 83 77 84 78 85 79 86
REMARK SMILES IDX 80 87 81 88 60 89 61 90 69 91 62 92 68 93 63 94 64 95 65 96
REMARK SMILES IDX 66 97 67 98
REMARK H PARENT 7 19 13 29 88 54 58 65
REMARK Flexibility Score: inf
ROOT
ATOM      1  C   UNL A   1      34.542  22.562  24.783  1.00  0.00     0.188 C 
ENDROOT
BRANCH   1   2
ATOM      2  O   UNL A   1      33.745  21.526  24.213  1.00  0.00    -0.377 OA
BRANCH   2   3
ATOM      3  C   UNL A   1      32.379  21.778  23.926  1.00  0.00     0.188 C 
BRANCH   3   4
ATOM      4  C   UNL A   1      31.673  22.938  24.649  1.00  0.00     0.188 C 
BRANCH   4   5
ATOM      5  O   UNL A   1      31.277  23.991  23.781  1.00  0.00    -0.376 OA
BRANCH   5   6
ATOM      6  C   UNL A   1      32.056  24.168  22.605  1.00  0.00     0.202 C 
BRANCH   6   7
ATOM      7  C   UNL A   1      32.582  25.581  22.308  1.00  0.00     0.261 C 
BRANCH   7   8
ATOM      8  O   UNL A   1      31.703  26.630  22.731  1.00  0.00    -0.463 OA
BRANCH   8   9
ATOM      9  C   UNL A   1      32.237  27.797  23.142  1.00  0.00     0.310 C 
ATOM     10  O   UNL A   1      32.913  28.565  22.472  1.00  0.00    -0.252 OA
BRANCH   9  11
ATOM     11  C   UNL A   1      31.773  28.156  24.503  1.00  0.00     0.118 C 
ATOM     12  C   UNL A   1      33.583  26.705  25.762  1.00  0.00     0.013 C 
ATOM     13  C   UNL A   1      32.395  27.639  25.803  1.00  0.00    -0.009 C 
ATOM     14  C   UNL A   1      31.470  27.317  26.951  1.00  0.00     0.013 C 
ATOM     15  C   UNL A   1      32.621  29.080  25.340  1.00  0.00     0.100 C 
BRANCH  15  16
ATOM     16  C   UNL A   1      32.071  30.310  25.989  1.00  0.00     0.228 C 
ATOM     17  O   UNL A   1      31.099  30.867  25.491  1.00  0.00    -0.274 OA
ATOM     18  N   UNL A   1      32.499  30.589  27.267  1.00  0.00    -0.325 N 
ATOM     19  H   UNL A   1      31.957  30.241  28.011  1.00  0.00     0.169 HD
BRANCH  18  20
ATOM     20  C   UNL A   1      33.649  31.330  27.601  1.00  0.00     0.050 A 
ATOM     21  C   UNL A   1      33.580  32.699  27.882  1.00  0.00     0.027 A 
ATOM     22  C   UNL A   1      34.914  30.699  27.660  1.00  0.00     0.023 A 
ATOM     23  C   UNL A   1      34.729  33.466  28.067  1.00  0.00     0.004 A 
ATOM     24  C   UNL A   1      36.050  31.490  27.855  1.00  0.00     0.047 A 
ATOM     25  C   UNL A   1      35.374  29.354  27.533  1.00  0.00     0.030 A 
ATOM     26  C   UNL A   1      35.991  32.879  28.026  1.00  0.00     0.027 A 
ATOM     27  N   UNL A   1      37.144  30.656  27.831  1.00  0.00    -0.361 N 
ATOM     28  C   UNL A   1      36.744  29.357  27.668  1.00  0.00     0.083 A 
ATOM     29  H   UNL A   1      38.079  30.950  27.919  1.00  0.00     0.166 HD
ENDBRANCH  18  20
ENDBRANCH  15  16
ENDBRANCH   9  11
ENDBRANCH   8   9
ENDBRANCH   7   8
ENDBRANCH   6   7
ENDBRANCH   5   6
ENDBRANCH   4   5
ENDBRANCH   3   4
ENDBRANCH   2   3
ENDBRANCH   1   2
BRANCH   1  30
ATOM     30  C   UNL A   1      36.070  22.587  24.560  1.00  0.00     0.188 C 
BRANCH  30  31
ATOM     31  O   UNL A   1      36.851  22.125  25.657  1.00  0.00    -0.376 OA
BRANCH  31  32
ATOM     32  C   UNL A   1      38.097  22.779  25.858  1.00  0.00     0.202 C 
BRANCH  32  33
ATOM     33  C   UNL A   1      37.995  24.152  26.534  1.00  0.00     0.261 C 
BRANCH  33  34
ATOM     34  O   UNL A   1      39.070  24.467  27.433  1.00  0.00    -0.460 OA
BRANCH  34  35
ATOM     35  C   UNL A   1      39.890  25.484  27.090  1.00  0.00     0.338 C 
ATOM     36  O   UNL A   1      40.484  25.635  26.039  1.00  0.00    -0.246 OA
BRANCH  35  37
ATOM     37  C   UNL A   1      39.818  26.490  28.164  1.00  0.00     0.060 A 
ATOM     38  C   UNL A   1      40.525  27.689  28.021  1.00  0.00     0.016 A 
ATOM     39  C   UNL A   1      39.048  26.243  29.303  1.00  0.00     0.016 A 
ATOM     40  C   UNL A   1      40.484  28.642  29.040  1.00  0.00     0.010 A 
ATOM     41  C   UNL A   1      39.024  27.189  30.327  1.00  0.00     0.010 A 
ATOM     42  C   UNL A   1      39.762  28.379  30.211  1.00  0.00    -0.014 A 
BRANCH  42  43
ATOM     43  C   UNL A   1      39.906  29.261  31.391  1.00  0.00     0.031 A 
ATOM     44  C   UNL A   1      41.048  29.012  32.335  1.00  0.00     0.074 A 
ATOM     45  C   UNL A   1      39.027  30.250  31.631  1.00  0.00     0.049 A 
ATOM     46  N   UNL A   1      41.336  29.610  33.461  1.00  0.00    -0.248 NA
ATOM     47  C   UNL A   1      41.990  27.945  31.958  1.00  0.00     0.031 C 
ATOM     48  C   UNL A   1      37.902  30.613  30.772  1.00  0.00     0.029 A 
ATOM     49  N   UNL A   1      38.943  31.124  32.686  1.00  0.00    -0.354 N 
ATOM     50  C   UNL A   1      42.489  28.993  33.929  1.00  0.00     0.074 A 
ATOM     51  C   UNL A   1      42.834  27.958  32.978  1.00  0.00     0.031 C 
ATOM     52  C   UNL A   1      37.230  31.629  31.342  1.00  0.00     0.029 A 
ATOM     53  C   UNL A   1      37.857  31.964  32.620  1.00  0.00     0.049 A 
ATOM     54  H   UNL A   1      39.599  31.148  33.420  1.00  0.00     0.167 HD
ATOM     55  C   UNL A   1      43.199  29.262  35.049  1.00  0.00     0.031 A 
ATOM     56  C   UNL A   1      37.408  32.877  33.504  1.00  0.00     0.031 A 
ATOM     57  C   UNL A   1      42.837  30.267  36.011  1.00  0.00     0.049 A 
ATOM     58  C   UNL A   1      38.158  33.091  34.793  1.00  0.00     0.074 A 
ATOM     59  C   UNL A   1      43.497  30.624  37.173  1.00  0.00     0.029 A 
ATOM     60  N   UNL A   1      41.704  31.062  35.933  1.00  0.00    -0.354 N 
ATOM     61  N   UNL A   1      39.267  32.525  35.207  1.00  0.00    -0.248 NA
ATOM     62  C   UNL A   1      37.594  34.067  35.735  1.00  0.00     0.031 C 
ATOM     63  C   UNL A   1      42.735  31.597  37.826  1.00  0.00     0.029 A 
ATOM     64  C   UNL A   1      41.627  31.885  37.043  1.00  0.00     0.049 A 
ATOM     65  H   UNL A   1      41.051  31.045  35.197  1.00  0.00     0.167 HD
ATOM     66  C   UNL A   1      39.541  33.087  36.449  1.00  0.00     0.074 A 
ATOM     67  C   UNL A   1      38.492  34.050  36.713  1.00  0.00     0.031 C 
ATOM     68  C   UNL A   1      40.569  32.830  37.296  1.00  0.00     0.031 A 
BRANCH  55  69
ATOM     69  C   UNL A   1      44.419  28.422  35.308  1.00  0.00    -0.014 A 
ATOM     70  C   UNL A   1      44.327  27.208  36.012  1.00  0.00     0.010 A 
ATOM     71  C   UNL A   1      45.672  28.847  34.832  1.00  0.00     0.010 A 
ATOM     72  C   UNL A   1      45.474  26.453  36.270  1.00  0.00     0.020 A 
ATOM     73  C   UNL A   1      46.818  28.084  35.069  1.00  0.00     0.020 A 
ATOM     74  C   UNL A   1      46.713  26.901  35.803  1.00  0.00     0.054 A 
BRANCH  74  75
ATOM     75  S   UNL A   1      48.186  25.901  36.149  1.00  0.00     0.124 S 
ATOM     76  O   UNL A   1      48.963  26.078  34.925  1.00  0.00    -0.237 OA
ATOM     77  O   UNL A   1      48.737  26.541  37.341  1.00  0.00    -0.237 OA
ATOM     78  O   UNL A   1      47.653  24.557  36.357  1.00  0.00    -0.744 OA
ENDBRANCH  74  75
ENDBRANCH  55  69
BRANCH  56  79
ATOM     79  C   UNL A   1      36.164  33.641  33.215  1.00  0.00    -0.014 A 
ATOM     80  C   UNL A   1      36.230  34.958  32.730  1.00  0.00     0.010 A 
ATOM     81  C   UNL A   1      34.904  33.053  33.429  1.00  0.00     0.010 A 
ATOM     82  C   UNL A   1      35.059  35.676  32.472  1.00  0.00     0.020 A 
ATOM     83  C   UNL A   1      33.731  33.759  33.150  1.00  0.00     0.020 A 
ATOM     84  C   UNL A   1      33.816  35.071  32.681  1.00  0.00     0.054 A 
BRANCH  84  85
ATOM     85  S   UNL A   1      32.310  36.003  32.284  1.00  0.00     0.124 S 
ATOM     86  O   UNL A   1      32.490  37.220  33.069  1.00  0.00    -0.237 OA
ATOM     87  O   UNL A   1      32.411  36.162  30.836  1.00  0.00    -0.237 OA
ATOM     88  O   UNL A   1      31.235  35.119  32.732  1.00  0.00    -0.744 OA
ENDBRANCH  84  85
ENDBRANCH  56  79
BRANCH  68  89
ATOM     89  C   UNL A   1      40.621  33.609  38.584  1.00  0.00    -0.014 A 
ATOM     90  C   UNL A   1      41.283  34.847  38.655  1.00  0.00     0.010 A 
ATOM     91  C   UNL A   1      39.941  33.128  39.717  1.00  0.00     0.010 A 
ATOM     92  C   UNL A   1      41.284  35.580  39.846  1.00  0.00     0.020 A 
ATOM     93  C   UNL A   1      39.918  33.869  40.901  1.00  0.00     0.020 A 
ATOM     94  C   UNL A   1      40.601  35.086  40.962  1.00  0.00     0.054 A 
BRANCH  94  95
ATOM     95  S   UNL A   1      40.570  36.080  42.480  1.00  0.00     0.124 S 
ATOM     96  O   UNL A   1      41.069  35.132  43.473  1.00  0.00    -0.237 OA
ATOM     97  O   UNL A   1      41.471  37.185  42.160  1.00  0.00    -0.237 OA
ATOM     98  O   UNL A   1      39.165  36.451  42.623  1.00  0.00    -0.744 OA
ENDBRANCH  94  95
ENDBRANCH  68  89
ENDBRANCH  42  43
ENDBRANCH  35  37
ENDBRANCH  34  35
ENDBRANCH  33  34
ENDBRANCH  32  33
ENDBRANCH  31  32
ENDBRANCH  30  31
ENDBRANCH   1  30
TORSDOF 25
ENDMDL
MODEL 3
REMARK VINA RESULT:      -9.4      6.085      8.567
REMARK SMILES CC1(C)[C@H](C(=O)Nc2cccc3[nH]ccc23)[C@H]1C(=O)OCCOCCOCCOCCOC(=O)c1ccc(-c2c3nc(c(-c4ccc(S(=O)(=O)[O-])cc4)c4ccc([nH]4)c(-c4ccc(S(=O)(=O)[O-])cc4)c4nc(c(-c5ccc(S(=O)(=O)[O-])cc5)c5ccc2[nH]5)C=C4)C=C3)cc1
REMARK SMILES IDX 27 1 26 2 25 3 24 4 23 5 22 6 21 7 20 8 18 9 19 10 17 11
REMARK SMILES IDX 1 12 2 13 3 14 4 15 5 16 6 17 7 18 8 20 9 21 16 22 10 23
REMARK SMILES IDX 12 24 15 25 11 26 13 27 14 28 28 30 29 31 30 32 31 33 32 34
REMARK SMILES IDX 33 35 34 36 35 37 36 38 94 39 37 40 93 41 38 42 39 43 40 44
REMARK SMILES IDX 87 45 41 46 92 47 86 48 88 49 42 50 91 51 85 52 84 53 43 55
REMARK SMILES IDX 73 56 54 57 72 58 55 59 58 60 71 61 89 62 56 63 57 64 70 66
REMARK SMILES IDX 90 67 59 68 44 69 45 70 53 71 46 72 52 73 47 74 48 75 49 76
REMARK SMILES IDX 50 77 51 78 74 79 75 80 83 81 76 82 82 83 77 84 78 85 79 86
REMARK SMILES IDX 80 87 81 88 60 89 61 90 69 91 62 92 68 93 63 94 64 95 65 96
REMARK SMILES IDX 66 97 67 98
REMARK H PARENT 7 19 13 29 88 54 58 65
REMARK Flexibility Score: inf
ROOT
ATOM      1  C   UNL A   1      35.713  23.445  24.271  1.00  0.00     0.188 C 
ENDROOT
BRANCH   1   2
ATOM      2  O   UNL A   1      34.928  22.394  23.711  1.00  0.00    -0.377 OA
BRANCH   2   3
ATOM      3  C   UNL A   1      33.557  22.624  23.431  1.00  0.00     0.188 C 
BRANCH   3   4
ATOM      4  C   UNL A   1      32.779  23.617  24.312  1.00  0.00     0.188 C 
BRANCH   4   5
ATOM      5  O   UNL A   1      32.188  24.682  23.580  1.00  0.00    -0.376 OA
BRANCH   5   6
ATOM      6  C   UNL A   1      32.619  24.841  22.235  1.00  0.00     0.202 C 
BRANCH   6   7
ATOM      7  C   UNL A   1      32.993  26.258  21.773  1.00  0.00     0.261 C 
BRANCH   7   8
ATOM      8  O   UNL A   1      32.387  27.301  22.544  1.00  0.00    -0.463 OA
BRANCH   8   9
ATOM      9  C   UNL A   1      33.160  28.020  23.382  1.00  0.00     0.310 C 
ATOM     10  O   UNL A   1      34.268  28.477  23.141  1.00  0.00    -0.252 OA
BRANCH   9  11
ATOM     11  C   UNL A   1      32.436  28.355  24.632  1.00  0.00     0.118 C 
ATOM     12  C   UNL A   1      33.720  26.599  26.128  1.00  0.00     0.013 C 
ATOM     13  C   UNL A   1      32.673  27.681  25.986  1.00  0.00    -0.009 C 
ATOM     14  C   UNL A   1      31.475  27.418  26.865  1.00  0.00     0.013 C 
ATOM     15  C   UNL A   1      33.168  29.104  25.717  1.00  0.00     0.100 C 
BRANCH  15  16
ATOM     16  C   UNL A   1      32.630  30.355  26.335  1.00  0.00     0.228 C 
ATOM     17  O   UNL A   1      31.624  30.872  25.861  1.00  0.00    -0.274 OA
ATOM     18  N   UNL A   1      33.118  30.702  27.574  1.00  0.00    -0.325 N 
ATOM     19  H   UNL A   1      32.619  30.381  28.361  1.00  0.00     0.169 HD
BRANCH  18  20
ATOM     20  C   UNL A   1      34.269  31.475  27.813  1.00  0.00     0.050 A 
ATOM     21  C   UNL A   1      35.551  30.914  27.760  1.00  0.00     0.027 A 
ATOM     22  C   UNL A   1      34.155  32.852  28.117  1.00  0.00     0.023 A 
ATOM     23  C   UNL A   1      36.680  31.636  28.139  1.00  0.00     0.004 A 
ATOM     24  C   UNL A   1      35.306  33.555  28.486  1.00  0.00     0.047 A 
ATOM     25  C   UNL A   1      33.075  33.783  28.177  1.00  0.00     0.030 A 
ATOM     26  C   UNL A   1      36.575  32.966  28.541  1.00  0.00     0.027 A 
ATOM     27  N   UNL A   1      34.928  34.848  28.770  1.00  0.00    -0.361 N 
ATOM     28  C   UNL A   1      33.585  35.004  28.555  1.00  0.00     0.083 A 
ATOM     29  H   UNL A   1      35.535  35.557  29.080  1.00  0.00     0.166 HD
ENDBRANCH  18  20
ENDBRANCH  15  16
ENDBRANCH   9  11
ENDBRANCH   8   9
ENDBRANCH   7   8
ENDBRANCH   6   7
ENDBRANCH   5   6
ENDBRANCH   4   5
ENDBRANCH   3   4
ENDBRANCH   2   3
ENDBRANCH   1   2
BRANCH   1  30
ATOM     30  C   UNL A   1      37.030  23.129  25.013  1.00  0.00     0.188 C 
BRANCH  30  31
ATOM     31  O   UNL A   1      37.080  21.855  25.646  1.00  0.00    -0.376 OA
BRANCH  31  32
ATOM     32  C   UNL A   1      38.238  21.072  25.389  1.00  0.00     0.202 C 
BRANCH  32  33
ATOM     33  C   UNL A   1      39.500  21.540  26.125  1.00  0.00     0.261 C 
BRANCH  33  34
ATOM     34  O   UNL A   1      40.339  20.485  26.622  1.00  0.00    -0.460 OA
BRANCH  34  35
ATOM     35  C   UNL A   1      41.580  20.378  26.100  1.00  0.00     0.338 C 
ATOM     36  O   UNL A   1      42.015  19.486  25.397  1.00  0.00    -0.246 OA
BRANCH  35  37
ATOM     37  C   UNL A   1      42.290  21.636  26.392  1.00  0.00     0.060 A 
ATOM     38  C   UNL A   1      42.720  21.886  27.701  1.00  0.00     0.016 A 
ATOM     39  C   UNL A   1      42.528  22.558  25.371  1.00  0.00     0.016 A 
ATOM     40  C   UNL A   1      43.374  23.083  27.997  1.00  0.00     0.010 A 
ATOM     41  C   UNL A   1      43.165  23.761  25.673  1.00  0.00     0.010 A 
ATOM     42  C   UNL A   1      43.567  24.039  26.990  1.00  0.00    -0.014 A 
BRANCH  42  43
ATOM     43  C   UNL A   1      44.032  25.401  27.334  1.00  0.00     0.031 A 
ATOM     44  C   UNL A   1      45.446  25.781  26.994  1.00  0.00     0.074 A 
ATOM     45  C   UNL A   1      43.223  26.276  27.956  1.00  0.00     0.049 A 
ATOM     46  N   UNL A   1      46.091  26.888  27.255  1.00  0.00    -0.248 NA
ATOM     47  C   UNL A   1      46.237  24.777  26.263  1.00  0.00     0.031 C 
ATOM     48  C   UNL A   1      41.823  26.038  28.303  1.00  0.00     0.029 A 
ATOM     49  N   UNL A   1      43.475  27.544  28.416  1.00  0.00    -0.354 N 
ATOM     50  C   UNL A   1      47.363  26.715  26.724  1.00  0.00     0.074 A 
ATOM     51  C   UNL A   1      47.406  25.388  26.147  1.00  0.00     0.031 C 
ATOM     52  C   UNL A   1      41.342  27.123  28.937  1.00  0.00     0.029 A 
ATOM     53  C   UNL A   1      42.408  28.116  29.067  1.00  0.00     0.049 A 
ATOM     54  H   UNL A   1      44.338  28.002  28.290  1.00  0.00     0.167 HD
ATOM     55  C   UNL A   1      48.402  27.582  26.715  1.00  0.00     0.031 A 
ATOM     56  C   UNL A   1      42.314  29.293  29.717  1.00  0.00     0.031 A 
ATOM     57  C   UNL A   1      48.369  28.886  27.319  1.00  0.00     0.049 A 
ATOM     58  C   UNL A   1      43.516  30.201  29.781  1.00  0.00     0.074 A 
ATOM     59  C   UNL A   1      49.367  29.844  27.353  1.00  0.00     0.029 A 
ATOM     60  N   UNL A   1      47.287  29.409  28.011  1.00  0.00    -0.354 N 
ATOM     61  N   UNL A   1      44.702  30.040  29.244  1.00  0.00    -0.248 NA
ATOM     62  C   UNL A   1      43.365  31.449  30.542  1.00  0.00     0.031 C 
ATOM     63  C   UNL A   1      48.907  30.923  28.114  1.00  0.00     0.029 A 
ATOM     64  C   UNL A   1      47.604  30.661  28.507  1.00  0.00     0.049 A 
ATOM     65  H   UNL A   1      46.422  28.956  28.130  1.00  0.00     0.167 HD
ATOM     66  C   UNL A   1      45.432  31.172  29.589  1.00  0.00     0.074 A 
ATOM     67  C   UNL A   1      44.550  32.019  30.366  1.00  0.00     0.031 C 
ATOM     68  C   UNL A   1      46.718  31.485  29.289  1.00  0.00     0.031 A 
BRANCH  55  69
ATOM     69  C   UNL A   1      49.675  27.120  26.063  1.00  0.00    -0.014 A 
ATOM     70  C   UNL A   1      50.042  27.577  24.785  1.00  0.00     0.010 A 
ATOM     71  C   UNL A   1      50.522  26.225  26.742  1.00  0.00     0.010 A 
ATOM     72  C   UNL A   1      51.214  27.116  24.179  1.00  0.00     0.020 A 
ATOM     73  C   UNL A   1      51.706  25.779  26.150  1.00  0.00     0.020 A 
ATOM     74  C   UNL A   1      52.035  26.214  24.863  1.00  0.00     0.054 A 
BRANCH  74  75
ATOM     75  S   UNL A   1      53.552  25.634  24.058  1.00  0.00     0.124 S 
ATOM     76  O   UNL A   1      54.518  26.647  24.472  1.00  0.00    -0.237 OA
ATOM     77  O   UNL A   1      53.741  24.309  24.644  1.00  0.00    -0.237 OA
ATOM     78  O   UNL A   1      53.215  25.640  22.637  1.00  0.00    -0.744 OA
ENDBRANCH  74  75
ENDBRANCH  55  69
BRANCH  56  79
ATOM     79  C   UNL A   1      41.042  29.672  30.388  1.00  0.00    -0.014 A 
ATOM     80  C   UNL A   1      40.217  30.672  29.845  1.00  0.00     0.010 A 
ATOM     81  C   UNL A   1      40.651  29.034  31.579  1.00  0.00     0.010 A 
ATOM     82  C   UNL A   1      39.028  31.033  30.487  1.00  0.00     0.020 A 
ATOM     83  C   UNL A   1      39.451  29.375  32.210  1.00  0.00     0.020 A 
ATOM     84  C   UNL A   1      38.652  30.380  31.664  1.00  0.00     0.054 A 
BRANCH  84  85
ATOM     85  S   UNL A   1      37.076  30.825  32.446  1.00  0.00     0.124 S 
ATOM     86  O   UNL A   1      36.970  32.246  32.130  1.00  0.00    -0.237 OA
ATOM     87  O   UNL A   1      36.126  29.951  31.762  1.00  0.00    -0.237 OA
ATOM     88  O   UNL A   1      37.295  30.510  33.857  1.00  0.00    -0.744 OA
ENDBRANCH  84  85
ENDBRANCH  56  79
BRANCH  68  89
ATOM     89  C   UNL A   1      47.249  32.802  29.790  1.00  0.00    -0.014 A 
ATOM     90  C   UNL A   1      48.014  32.873  30.967  1.00  0.00     0.010 A 
ATOM     91  C   UNL A   1      47.036  33.971  29.038  1.00  0.00     0.010 A 
ATOM     92  C   UNL A   1      48.539  34.097  31.396  1.00  0.00     0.020 A 
ATOM     93  C   UNL A   1      47.580  35.191  29.449  1.00  0.00     0.020 A 
ATOM     94  C   UNL A   1      48.318  35.248  30.633  1.00  0.00     0.054 A 
BRANCH  94  95
ATOM     95  S   UNL A   1      49.053  36.814  31.180  1.00  0.00     0.124 S 
ATOM     96  O   UNL A   1      49.496  36.485  32.533  1.00  0.00    -0.237 OA
ATOM     97  O   UNL A   1      50.120  37.027  30.205  1.00  0.00    -0.237 OA
ATOM     98  O   UNL A   1      47.947  37.764  31.101  1.00  0.00    -0.744 OA
ENDBRANCH  94  95
ENDBRANCH  68  89
ENDBRANCH  42  43
ENDBRANCH  35  37
ENDBRANCH  34  35
ENDBRANCH  33  34
ENDBRANCH  32  33
ENDBRANCH  31  32
ENDBRANCH  30  31
ENDBRANCH   1  30
TORSDOF 25
ENDMDL
