MODEL 1
REMARK VINA RESULT:      -9.1      0.000      0.000
REMARK SMILES O=C(C[C@H]1C[C@H]2CC[C@@H](C1)N2C(=O)[C@H]1CCCCO1)OCCOCCOCCOCCOC(=O)c1ccc(-c2c3nc(c(-c4ccc(S(=O)(=O)[O-])cc4)c4ccc([nH]4)c(-c4ccc(S(=O)(=O)[O-])cc4)c4nc(c(-c5ccc(S(=O)(=O)[O-])cc5)c5ccc2[nH]5)C=C4)C=C3)cc1
REMARK SMILES IDX 26 1 25 2 24 3 23 4 22 5 21 6 20 7 2 8 1 9 3 10 4 11 5 12
REMARK SMILES IDX 10 13 6 14 9 15 7 16 11 17 8 18 12 19 13 20 14 21 15 22
REMARK SMILES IDX 19 23 16 24 18 25 17 26 27 27 28 28 29 29 30 30 31 31 32 32
REMARK SMILES IDX 33 33 34 34 35 35 36 36 94 37 37 38 93 39 38 40 39 41 40 42
REMARK SMILES IDX 87 43 41 44 92 45 86 46 88 47 42 48 91 49 85 50 84 51 43 53
REMARK SMILES IDX 73 54 54 55 72 56 55 57 58 58 71 59 89 60 56 61 57 62 70 64
REMARK SMILES IDX 90 65 59 66 44 67 45 68 53 69 46 70 52 71 47 72 48 73 49 74
REMARK SMILES IDX 50 75 51 76 74 77 75 78 83 79 76 80 82 81 77 82 78 83 79 84
REMARK SMILES IDX 80 85 81 86 60 87 61 88 69 89 62 90 68 91 63 92 64 93 65 94
REMARK SMILES IDX 66 95 67 96
REMARK H PARENT 88 52 58 63
REMARK Flexibility Score: inf
ROOT
ATOM      1  O   UNL A   1      31.411  31.064  26.066  1.00  0.00    -0.377 OA
ENDROOT
BRANCH   1   2
ATOM      2  C   UNL A   1      31.906  29.967  26.825  1.00  0.00     0.188 C 
BRANCH   2   3
ATOM      3  C   UNL A   1      31.870  28.573  26.205  1.00  0.00     0.188 C 
BRANCH   3   4
ATOM      4  O   UNL A   1      32.612  28.394  25.007  1.00  0.00    -0.376 OA
BRANCH   4   5
ATOM      5  C   UNL A   1      32.058  28.767  23.750  1.00  0.00     0.202 C 
BRANCH   5   6
ATOM      6  C   UNL A   1      30.575  28.392  23.599  1.00  0.00     0.261 C 
BRANCH   6   7
ATOM      7  O   UNL A   1      30.403  27.190  22.830  1.00  0.00    -0.463 OA
BRANCH   7   8
ATOM      8  C   UNL A   1      30.026  26.120  23.564  1.00  0.00     0.306 C 
ATOM      9  O   UNL A   1      29.313  26.194  24.562  1.00  0.00    -0.252 OA
BRANCH   8  10
ATOM     10  C   UNL A   1      30.720  24.830  23.157  1.00  0.00     0.126 C 
BRANCH  10  11
ATOM     11  C   UNL A   1      31.965  24.321  23.918  1.00  0.00     0.004 C 
ATOM     12  C   UNL A   1      32.280  24.920  25.318  1.00  0.00     0.029 C 
ATOM     13  C   UNL A   1      31.974  22.762  23.901  1.00  0.00     0.029 C 
ATOM     14  C   UNL A   1      32.106  24.011  26.531  1.00  0.00     0.085 C 
ATOM     15  C   UNL A   1      31.927  22.075  25.284  1.00  0.00     0.085 C 
ATOM     16  C   UNL A   1      30.697  23.502  26.782  1.00  0.00     0.027 C 
ATOM     17  N   UNL A   1      32.784  22.791  26.223  1.00  0.00    -0.334 N 
ATOM     18  C   UNL A   1      30.542  22.256  25.913  1.00  0.00     0.027 C 
BRANCH  17  19
ATOM     19  C   UNL A   1      33.937  22.436  26.890  1.00  0.00     0.252 C 
ATOM     20  O   UNL A   1      33.932  22.089  28.070  1.00  0.00    -0.272 OA
BRANCH  19  21
ATOM     21  C   UNL A   1      35.216  22.500  26.064  1.00  0.00     0.207 C 
ATOM     22  C   UNL A   1      35.467  21.126  25.451  1.00  0.00     0.042 C 
ATOM     23  O   UNL A   1      35.221  23.452  25.006  1.00  0.00    -0.368 OA
ATOM     24  C   UNL A   1      36.883  21.109  24.908  1.00  0.00     0.006 C 
ATOM     25  C   UNL A   1      36.520  23.575  24.429  1.00  0.00     0.161 C 
ATOM     26  C   UNL A   1      37.040  22.239  23.896  1.00  0.00     0.029 C 
ENDBRANCH  19  21
ENDBRANCH  17  19
ENDBRANCH  10  11
ENDBRANCH   8  10
ENDBRANCH   7   8
ENDBRANCH   6   7
ENDBRANCH   5   6
ENDBRANCH   4   5
ENDBRANCH   3   4
ENDBRANCH   2   3
ENDBRANCH   1   2
BRANCH   1  27
ATOM     27  C   UNL A   1      31.464  32.376  26.594  1.00  0.00     0.188 C 
BRANCH  27  28
ATOM     28  C   UNL A   1      32.775  32.695  27.337  1.00  0.00     0.188 C 
BRANCH  28  29
ATOM     29  O   UNL A   1      32.838  33.900  28.092  1.00  0.00    -0.376 OA
BRANCH  29  30
ATOM     30  C   UNL A   1      33.854  34.001  29.093  1.00  0.00     0.202 C 
BRANCH  30  31
ATOM     31  C   UNL A   1      34.610  32.738  29.564  1.00  0.00     0.261 C 
BRANCH  31  32
ATOM     32  O   UNL A   1      35.917  32.993  30.121  1.00  0.00    -0.460 OA
BRANCH  32  33
ATOM     33  C   UNL A   1      36.348  32.138  31.077  1.00  0.00     0.338 C 
ATOM     34  O   UNL A   1      35.797  31.913  32.151  1.00  0.00    -0.246 OA
BRANCH  33  35
ATOM     35  C   UNL A   1      37.460  31.302  30.571  1.00  0.00     0.060 A 
ATOM     36  C   UNL A   1      38.274  30.646  31.511  1.00  0.00     0.016 A 
ATOM     37  C   UNL A   1      37.746  31.197  29.210  1.00  0.00     0.016 A 
ATOM     38  C   UNL A   1      39.386  29.909  31.098  1.00  0.00     0.010 A 
ATOM     39  C   UNL A   1      38.887  30.492  28.799  1.00  0.00     0.010 A 
ATOM     40  C   UNL A   1      39.732  29.875  29.742  1.00  0.00    -0.014 A 
BRANCH  40  41
ATOM     41  C   UNL A   1      41.093  29.427  29.347  1.00  0.00     0.031 A 
ATOM     42  C   UNL A   1      42.206  30.444  29.379  1.00  0.00     0.074 A 
ATOM     43  C   UNL A   1      41.359  28.158  28.987  1.00  0.00     0.049 A 
ATOM     44  N   UNL A   1      43.461  30.316  29.040  1.00  0.00    -0.248 NA
ATOM     45  C   UNL A   1      41.844  31.789  29.859  1.00  0.00     0.031 C 
ATOM     46  C   UNL A   1      40.396  27.059  28.972  1.00  0.00     0.029 A 
ATOM     47  N   UNL A   1      42.532  27.582  28.558  1.00  0.00    -0.354 N 
ATOM     48  C   UNL A   1      44.039  31.562  29.258  1.00  0.00     0.074 A 
ATOM     49  C   UNL A   1      42.990  32.439  29.731  1.00  0.00     0.031 C 
ATOM     50  C   UNL A   1      41.014  25.944  28.540  1.00  0.00     0.029 A 
ATOM     51  C   UNL A   1      42.406  26.256  28.217  1.00  0.00     0.049 A 
ATOM     52  H   UNL A   1      43.382  28.075  28.500  1.00  0.00     0.167 HD
ATOM     53  C   UNL A   1      45.324  31.949  29.079  1.00  0.00     0.031 A 
ATOM     54  C   UNL A   1      43.305  25.401  27.683  1.00  0.00     0.031 A 
ATOM     55  C   UNL A   1      46.363  31.088  28.580  1.00  0.00     0.049 A 
ATOM     56  C   UNL A   1      44.710  25.876  27.403  1.00  0.00     0.074 A 
ATOM     57  C   UNL A   1      47.698  31.386  28.367  1.00  0.00     0.029 A 
ATOM     58  N   UNL A   1      46.182  29.766  28.202  1.00  0.00    -0.354 N 
ATOM     59  N   UNL A   1      45.245  27.053  27.630  1.00  0.00    -0.248 NA
ATOM     60  C   UNL A   1      45.633  24.905  26.798  1.00  0.00     0.031 C 
ATOM     61  C   UNL A   1      48.309  30.263  27.800  1.00  0.00     0.029 A 
ATOM     62  C   UNL A   1      47.373  29.243  27.726  1.00  0.00     0.049 A 
ATOM     63  H   UNL A   1      45.333  29.273  28.263  1.00  0.00     0.167 HD
ATOM     64  C   UNL A   1      46.574  26.952  27.226  1.00  0.00     0.074 A 
ATOM     65  C   UNL A   1      46.763  25.597  26.750  1.00  0.00     0.031 C 
ATOM     66  C   UNL A   1      47.550  27.894  27.251  1.00  0.00     0.031 A 
BRANCH  53  67
ATOM     67  C   UNL A   1      45.661  33.386  29.381  1.00  0.00    -0.014 A 
ATOM     68  C   UNL A   1      45.859  33.830  30.702  1.00  0.00     0.010 A 
ATOM     69  C   UNL A   1      45.792  34.304  28.324  1.00  0.00     0.010 A 
ATOM     70  C   UNL A   1      46.133  35.176  30.961  1.00  0.00     0.020 A 
ATOM     71  C   UNL A   1      46.097  35.644  28.577  1.00  0.00     0.020 A 
ATOM     72  C   UNL A   1      46.247  36.075  29.897  1.00  0.00     0.054 A 
BRANCH  72  73
ATOM     73  S   UNL A   1      46.609  37.813  30.261  1.00  0.00     0.124 S 
ATOM     74  O   UNL A   1      45.741  38.069  31.408  1.00  0.00    -0.237 OA
ATOM     75  O   UNL A   1      48.041  37.787  30.552  1.00  0.00    -0.237 OA
ATOM     76  O   UNL A   1      46.239  38.511  29.032  1.00  0.00    -0.744 OA
ENDBRANCH  72  73
ENDBRANCH  53  67
BRANCH  54  77
ATOM     77  C   UNL A   1      42.900  24.004  27.354  1.00  0.00    -0.014 A 
ATOM     78  C   UNL A   1      42.464  23.666  26.061  1.00  0.00     0.010 A 
ATOM     79  C   UNL A   1      42.943  23.002  28.342  1.00  0.00     0.010 A 
ATOM     80  C   UNL A   1      42.071  22.356  25.764  1.00  0.00     0.020 A 
ATOM     81  C   UNL A   1      42.579  21.686  28.042  1.00  0.00     0.020 A 
ATOM     82  C   UNL A   1      42.138  21.372  26.755  1.00  0.00     0.054 A 
BRANCH  82  83
ATOM     83  S   UNL A   1      41.689  19.666  26.329  1.00  0.00     0.124 S 
ATOM     84  O   UNL A   1      42.138  18.930  27.506  1.00  0.00    -0.237 OA
ATOM     85  O   UNL A   1      40.242  19.758  26.152  1.00  0.00    -0.237 OA
ATOM     86  O   UNL A   1      42.443  19.410  25.105  1.00  0.00    -0.744 OA
ENDBRANCH  82  83
ENDBRANCH  54  77
BRANCH  66  87
ATOM     87  C   UNL A   1      48.927  27.493  26.788  1.00  0.00    -0.014 A 
ATOM     88  C   UNL A   1      49.827  26.830  27.642  1.00  0.00     0.010 A 
ATOM     89  C   UNL A   1      49.301  27.724  25.449  1.00  0.00     0.010 A 
ATOM     90  C   UNL A   1      51.084  26.432  27.175  1.00  0.00     0.020 A 
ATOM     91  C   UNL A   1      50.545  27.301  24.971  1.00  0.00     0.020 A 
ATOM     92  C   UNL A   1      51.435  26.669  25.842  1.00  0.00     0.054 A 
BRANCH  92  93
ATOM     93  S   UNL A   1      53.052  26.102  25.250  1.00  0.00     0.124 S 
ATOM     94  O   UNL A   1      52.859  26.088  23.803  1.00  0.00    -0.237 OA
ATOM     95  O   UNL A   1      53.958  27.131  25.754  1.00  0.00    -0.237 OA
ATOM     96  O   UNL A   1      53.208  24.787  25.869  1.00  0.00    -0.744 OA
ENDBRANCH  92  93
ENDBRANCH  66  87
ENDBRANCH  40  41
ENDBRANCH  33  35
ENDBRANCH  32  33
ENDBRANCH  31  32
ENDBRANCH  30  31
ENDBRANCH  29  30
ENDBRANCH  28  29
ENDBRANCH  27  28
ENDBRANCH   1  27
TORSDOF 26
ENDMDL
MODEL 2
REMARK VINA RESULT:      -8.7      1.339      7.974
REMARK SMILES O=C(C[C@H]1C[C@H]2CC[C@@H](C1)N2C(=O)[C@H]1CCCCO1)OCCOCCOCCOCCOC(=O)c1ccc(-c2c3nc(c(-c4ccc(S(=O)(=O)[O-])cc4)c4ccc([nH]4)c(-c4ccc(S(=O)(=O)[O-])cc4)c4nc(c(-c5ccc(S(=O)(=O)[O-])cc5)c5ccc2[nH]5)C=C4)C=C3)cc1
REMARK SMILES IDX 26 1 25 2 24 3 23 4 22 5 21 6 20 7 2 8 1 9 3 10 4 11 5 12
REMARK SMILES IDX 10 13 6 14 9 15 7 16 11 17 8 18 12 19 13 20 14 21 15 22
REMARK SMILES IDX 19 23 16 24 18 25 17 26 27 27 28 28 29 29 30 30 31 31 32 32
REMARK SMILES IDX 33 33 34 34 35 35 36 36 94 37 37 38 93 39 38 40 39 41 40 42
REMARK SMILES IDX 87 43 41 44 92 45 86 46 88 47 42 48 91 49 85 50 84 51 43 53
REMARK SMILES IDX 73 54 54 55 72 56 55 57 58 58 71 59 89 60 56 61 57 62 70 64
REMARK SMILES IDX 90 65 59 66 44 67 45 68 53 69 46 70 52 71 47 72 48 73 49 74
REMARK SMILES IDX 50 75 51 76 74 77 75 78 83 79 76 80 82 81 77 82 78 83 79 84
REMARK SMILES IDX 80 85 81 86 60 87 61 88 69 89 62 90 68 91 63 92 64 93 65 94
REMARK SMILES IDX 66 95 67 96
REMARK H PARENT 88 52 58 63
REMARK Flexibility Score: inf
ROOT
ATOM      1  O   UNL A   1      31.712  30.809  26.352  1.00  0.00    -0.377 OA
ENDROOT
BRANCH   1   2
ATOM      2  C   UNL A   1      32.157  29.663  27.068  1.00  0.00     0.188 C 
BRANCH   2   3
ATOM      3  C   UNL A   1      32.272  28.334  26.327  1.00  0.00     0.188 C 
BRANCH   3   4
ATOM      4  O   UNL A   1      32.476  28.410  24.922  1.00  0.00    -0.376 OA
BRANCH   4   5
ATOM      5  C   UNL A   1      31.435  28.055  24.020  1.00  0.00     0.202 C 
BRANCH   5   6
ATOM      6  C   UNL A   1      30.239  27.370  24.702  1.00  0.00     0.261 C 
BRANCH   6   7
ATOM      7  O   UNL A   1      30.121  25.991  24.313  1.00  0.00    -0.463 OA
BRANCH   7   8
ATOM      8  C   UNL A   1      30.483  25.118  25.279  1.00  0.00     0.306 C 
ATOM      9  O   UNL A   1      30.538  25.405  26.473  1.00  0.00    -0.252 OA
BRANCH   8  10
ATOM     10  C   UNL A   1      31.002  23.796  24.737  1.00  0.00     0.126 C 
BRANCH  10  11
ATOM     11  C   UNL A   1      32.445  23.326  25.032  1.00  0.00     0.004 C 
ATOM     12  C   UNL A   1      32.664  22.223  26.105  1.00  0.00     0.029 C 
ATOM     13  C   UNL A   1      33.171  23.025  23.684  1.00  0.00     0.029 C 
ATOM     14  C   UNL A   1      33.126  20.850  25.625  1.00  0.00     0.085 C 
ATOM     15  C   UNL A   1      33.667  21.574  23.499  1.00  0.00     0.085 C 
ATOM     16  C   UNL A   1      32.172  20.117  24.697  1.00  0.00     0.027 C 
ATOM     17  N   UNL A   1      34.233  21.079  24.750  1.00  0.00    -0.334 N 
ATOM     18  C   UNL A   1      32.476  20.635  23.293  1.00  0.00     0.027 C 
BRANCH  17  19
ATOM     19  C   UNL A   1      35.508  20.703  25.112  1.00  0.00     0.252 C 
ATOM     20  O   UNL A   1      35.932  19.562  24.932  1.00  0.00    -0.272 OA
BRANCH  19  21
ATOM     21  C   UNL A   1      36.358  21.798  25.745  1.00  0.00     0.207 C 
ATOM     22  C   UNL A   1      37.785  21.669  25.221  1.00  0.00     0.042 C 
ATOM     23  O   UNL A   1      35.927  23.133  25.501  1.00  0.00    -0.368 OA
ATOM     24  C   UNL A   1      38.678  22.540  26.083  1.00  0.00     0.006 C 
ATOM     25  C   UNL A   1      36.661  24.065  26.294  1.00  0.00     0.161 C 
ATOM     26  C   UNL A   1      38.166  23.975  26.039  1.00  0.00     0.029 C 
ENDBRANCH  19  21
ENDBRANCH  17  19
ENDBRANCH  10  11
ENDBRANCH   8  10
ENDBRANCH   7   8
ENDBRANCH   6   7
ENDBRANCH   5   6
ENDBRANCH   4   5
ENDBRANCH   3   4
ENDBRANCH   2   3
ENDBRANCH   1   2
BRANCH   1  27
ATOM     27  C   UNL A   1      31.932  32.106  26.875  1.00  0.00     0.188 C 
BRANCH  27  28
ATOM     28  C   UNL A   1      33.336  32.303  27.477  1.00  0.00     0.188 C 
BRANCH  28  29
ATOM     29  O   UNL A   1      33.588  33.500  28.203  1.00  0.00    -0.376 OA
BRANCH  29  30
ATOM     30  C   UNL A   1      34.876  33.650  28.806  1.00  0.00     0.202 C 
BRANCH  30  31
ATOM     31  C   UNL A   1      35.855  32.455  28.856  1.00  0.00     0.261 C 
BRANCH  31  32
ATOM     32  O   UNL A   1      36.815  32.509  29.933  1.00  0.00    -0.460 OA
BRANCH  32  33
ATOM     33  C   UNL A   1      36.999  31.370  30.641  1.00  0.00     0.338 C 
ATOM     34  O   UNL A   1      36.213  30.884  31.449  1.00  0.00    -0.246 OA
BRANCH  33  35
ATOM     35  C   UNL A   1      38.180  30.629  30.145  1.00  0.00     0.060 A 
ATOM     36  C   UNL A   1      39.201  30.325  31.061  1.00  0.00     0.016 A 
ATOM     37  C   UNL A   1      38.323  30.279  28.802  1.00  0.00     0.016 A 
ATOM     38  C   UNL A   1      40.376  29.699  30.636  1.00  0.00     0.010 A 
ATOM     39  C   UNL A   1      39.520  29.688  28.369  1.00  0.00     0.010 A 
ATOM     40  C   UNL A   1      40.565  29.428  29.277  1.00  0.00    -0.014 A 
BRANCH  40  41
ATOM     41  C   UNL A   1      41.931  29.122  28.776  1.00  0.00     0.031 A 
ATOM     42  C   UNL A   1      42.220  27.710  28.335  1.00  0.00     0.074 A 
ATOM     43  C   UNL A   1      42.894  30.059  28.690  1.00  0.00     0.049 A 
ATOM     44  N   UNL A   1      43.336  27.183  27.905  1.00  0.00    -0.248 NA
ATOM     45  C   UNL A   1      41.089  26.768  28.388  1.00  0.00     0.031 C 
ATOM     46  C   UNL A   1      42.736  31.473  29.022  1.00  0.00     0.029 A 
ATOM     47  N   UNL A   1      44.207  29.950  28.297  1.00  0.00    -0.354 N 
ATOM     48  C   UNL A   1      43.046  25.848  27.645  1.00  0.00     0.074 A 
ATOM     49  C   UNL A   1      41.657  25.640  27.991  1.00  0.00     0.031 C 
ATOM     50  C   UNL A   1      43.913  32.099  28.832  1.00  0.00     0.029 A 
ATOM     51  C   UNL A   1      44.915  31.125  28.398  1.00  0.00     0.049 A 
ATOM     52  H   UNL A   1      44.603  29.109  27.974  1.00  0.00     0.167 HD
ATOM     53  C   UNL A   1      43.859  24.878  27.164  1.00  0.00     0.031 A 
ATOM     54  C   UNL A   1      46.224  31.378  28.187  1.00  0.00     0.031 A 
ATOM     55  C   UNL A   1      45.249  25.073  26.848  1.00  0.00     0.049 A 
ATOM     56  C   UNL A   1      47.136  30.262  27.741  1.00  0.00     0.074 A 
ATOM     57  C   UNL A   1      46.155  24.153  26.352  1.00  0.00     0.029 A 
ATOM     58  N   UNL A   1      45.937  26.266  27.010  1.00  0.00    -0.354 N 
ATOM     59  N   UNL A   1      46.844  29.009  27.483  1.00  0.00    -0.248 NA
ATOM     60  C   UNL A   1      48.556  30.597  27.553  1.00  0.00     0.031 C 
ATOM     61  C   UNL A   1      47.407  24.773  26.275  1.00  0.00     0.029 A 
ATOM     62  C   UNL A   1      47.264  26.098  26.654  1.00  0.00     0.049 A 
ATOM     63  H   UNL A   1      45.540  27.107  27.330  1.00  0.00     0.167 HD
ATOM     64  C   UNL A   1      48.036  28.416  27.072  1.00  0.00     0.074 A 
ATOM     65  C   UNL A   1      49.049  29.449  27.107  1.00  0.00     0.031 C 
ATOM     66  C   UNL A   1      48.267  27.133  26.696  1.00  0.00     0.031 A 
BRANCH  53  67
ATOM     67  C   UNL A   1      43.269  23.501  27.001  1.00  0.00    -0.014 A 
ATOM     68  C   UNL A   1      42.806  23.046  25.752  1.00  0.00     0.010 A 
ATOM     69  C   UNL A   1      43.187  22.645  28.114  1.00  0.00     0.010 A 
ATOM     70  C   UNL A   1      42.227  21.780  25.632  1.00  0.00     0.020 A 
ATOM     71  C   UNL A   1      42.639  21.366  27.991  1.00  0.00     0.020 A 
ATOM     72  C   UNL A   1      42.144  20.949  26.754  1.00  0.00     0.054 A 
BRANCH  72  73
ATOM     73  S   UNL A   1      41.395  19.309  26.568  1.00  0.00     0.124 S 
ATOM     74  O   UNL A   1      40.990  19.005  27.939  1.00  0.00    -0.237 OA
ATOM     75  O   UNL A   1      40.300  19.561  25.633  1.00  0.00    -0.237 OA
ATOM     76  O   UNL A   1      42.482  18.486  26.044  1.00  0.00    -0.744 OA
ENDBRANCH  72  73
ENDBRANCH  53  67
BRANCH  54  77
ATOM     77  C   UNL A   1      46.764  32.749  28.417  1.00  0.00    -0.014 A 
ATOM     78  C   UNL A   1      47.255  33.128  29.679  1.00  0.00     0.010 A 
ATOM     79  C   UNL A   1      46.783  33.689  27.368  1.00  0.00     0.010 A 
ATOM     80  C   UNL A   1      47.747  34.421  29.890  1.00  0.00     0.020 A 
ATOM     81  C   UNL A   1      47.299  34.972  27.568  1.00  0.00     0.020 A 
ATOM     82  C   UNL A   1      47.772  35.333  28.831  1.00  0.00     0.054 A 
BRANCH  82  83
ATOM     83  S   UNL A   1      48.476  36.982  29.111  1.00  0.00     0.124 S 
ATOM     84  O   UNL A   1      47.291  37.832  29.065  1.00  0.00    -0.237 OA
ATOM     85  O   UNL A   1      49.102  36.838  30.423  1.00  0.00    -0.237 OA
ATOM     86  O   UNL A   1      49.410  37.148  27.999  1.00  0.00    -0.744 OA
ENDBRANCH  82  83
ENDBRANCH  54  77
BRANCH  66  87
ATOM     87  C   UNL A   1      49.662  26.771  26.252  1.00  0.00    -0.014 A 
ATOM     88  C   UNL A   1      50.594  26.207  27.143  1.00  0.00     0.010 A 
ATOM     89  C   UNL A   1      50.022  26.934  24.900  1.00  0.00     0.010 A 
ATOM     90  C   UNL A   1      51.868  25.842  26.697  1.00  0.00     0.020 A 
ATOM     91  C   UNL A   1      51.284  26.542  24.445  1.00  0.00     0.020 A 
ATOM     92  C   UNL A   1      52.205  26.011  25.349  1.00  0.00     0.054 A 
BRANCH  92  93
ATOM     93  S   UNL A   1      53.848  25.486  24.787  1.00  0.00     0.124 S 
ATOM     94  O   UNL A   1      53.958  26.161  23.497  1.00  0.00    -0.237 OA
ATOM     95  O   UNL A   1      54.724  25.994  25.840  1.00  0.00    -0.237 OA
ATOM     96  O   UNL A   1      53.744  24.030  24.721  1.00  0.00    -0.744 OA
ENDBRANCH  92  93
ENDBRANCH  66  87
ENDBRANCH  40  41
ENDBRANCH  33  35
ENDBRANCH  32  33
ENDBRANCH  31  32
ENDBRANCH  30  31
ENDBRANCH  29  30
ENDBRANCH  28  29
ENDBRANCH  27  28
ENDBRANCH   1  27
TORSDOF 26
ENDMDL
MODEL 3
REMARK VINA RESULT:      -8.7      1.752      2.621
REMARK SMILES O=C(C[C@H]1C[C@H]2CC[C@@H](C1)N2C(=O)[C@H]1CCCCO1)OCCOCCOCCOCCOC(=O)c1ccc(-c2c3nc(c(-c4ccc(S(=O)(=O)[O-])cc4)c4ccc([nH]4)c(-c4ccc(S(=O)(=O)[O-])cc4)c4nc(c(-c5ccc(S(=O)(=O)[O-])cc5)c5ccc2[nH]5)C=C4)C=C3)cc1
REMARK SMILES IDX 26 1 25 2 24 3 23 4 22 5 21 6 20 7 2 8 1 9 3 10 4 11 5 12
REMARK SMILES IDX 10 13 6 14 9 15 7 16 11 17 8 18 12 19 13 20 14 21 15 22
REMARK SMILES IDX 19 23 16 24 18 25 17 26 27 27 28 28 29 29 30 30 31 31 32 32
REMARK SMILES IDX 33 33 34 34 35 35 36 36 94 37 37 38 93 39 38 40 39 41 40 42
REMARK SMILES IDX 87 43 41 44 92 45 86 46 88 47 42 48 91 49 85 50 84 51 43 53
REMARK SMILES IDX 73 54 54 55 72 56 55 57 58 58 71 59 89 60 56 61 57 62 70 64
REMARK SMILES IDX 90 65 59 66 44 67 45 68 53 69 46 70 52 71 47 72 48 73 49 74
REMARK SMILES IDX 50 75 51 76 74 77 75 78 83 79 76 80 82 81 77 82 78 83 79 84
REMARK SMILES IDX 80 85 81 86 60 87 61 88 69 89 62 90 68 91 63 92 64 93 65 94
REMARK SMILES IDX 66 95 67 96
REMARK H PARENT 88 52 58 63
REMARK Flexibility Score: inf
ROOT
ATOM      1  O   UNL A   1      31.562  31.061  26.091  1.00  0.00    -0.377 OA
ENDROOT
BRANCH   1   2
ATOM      2  C   UNL A   1      32.238  30.112  26.909  1.00  0.00     0.188 C 
BRANCH   2   3
ATOM      3  C   UNL A   1      32.666  28.785  26.291  1.00  0.00     0.188 C 
BRANCH   3   4
ATOM      4  O   UNL A   1      32.594  28.695  24.875  1.00  0.00    -0.376 OA
BRANCH   4   5
ATOM      5  C   UNL A   1      31.401  28.251  24.237  1.00  0.00     0.202 C 
BRANCH   5   6
ATOM      6  C   UNL A   1      30.589  27.256  25.082  1.00  0.00     0.261 C 
BRANCH   6   7
ATOM      7  O   UNL A   1      30.914  25.893  24.760  1.00  0.00    -0.463 OA
BRANCH   7   8
ATOM      8  C   UNL A   1      31.749  25.306  25.645  1.00  0.00     0.306 C 
ATOM      9  O   UNL A   1      31.548  25.276  26.857  1.00  0.00    -0.252 OA
BRANCH   8  10
ATOM     10  C   UNL A   1      33.061  24.849  25.029  1.00  0.00     0.126 C 
BRANCH  10  11
ATOM     11  C   UNL A   1      33.411  23.347  24.922  1.00  0.00     0.004 C 
ATOM     12  C   UNL A   1      34.257  22.863  23.711  1.00  0.00     0.029 C 
ATOM     13  C   UNL A   1      33.963  22.852  26.294  1.00  0.00     0.029 C 
ATOM     14  C   UNL A   1      35.684  22.398  23.985  1.00  0.00     0.085 C 
ATOM     15  C   UNL A   1      35.404  22.294  26.276  1.00  0.00     0.085 C 
ATOM     16  C   UNL A   1      36.626  23.446  24.551  1.00  0.00     0.027 C 
ATOM     17  N   UNL A   1      35.607  21.482  25.080  1.00  0.00    -0.334 N 
ATOM     18  C   UNL A   1      36.405  23.433  26.062  1.00  0.00     0.027 C 
BRANCH  17  19
ATOM     19  C   UNL A   1      35.857  20.139  24.897  1.00  0.00     0.252 C 
ATOM     20  O   UNL A   1      36.986  19.662  24.996  1.00  0.00    -0.272 OA
BRANCH  19  21
ATOM     21  C   UNL A   1      34.638  19.286  24.567  1.00  0.00     0.207 C 
ATOM     22  C   UNL A   1      35.068  17.824  24.515  1.00  0.00     0.042 C 
ATOM     23  O   UNL A   1      33.550  19.384  25.481  1.00  0.00    -0.368 OA
ATOM     24  C   UNL A   1      33.942  17.029  23.882  1.00  0.00     0.006 C 
ATOM     25  C   UNL A   1      32.395  18.713  24.982  1.00  0.00     0.161 C 
ATOM     26  C   UNL A   1      32.669  17.236  24.694  1.00  0.00     0.029 C 
ENDBRANCH  19  21
ENDBRANCH  17  19
ENDBRANCH  10  11
ENDBRANCH   8  10
ENDBRANCH   7   8
ENDBRANCH   6   7
ENDBRANCH   5   6
ENDBRANCH   4   5
ENDBRANCH   3   4
ENDBRANCH   2   3
ENDBRANCH   1   2
BRANCH   1  27
ATOM     27  C   UNL A   1      31.239  32.340  26.602  1.00  0.00     0.188 C 
BRANCH  27  28
ATOM     28  C   UNL A   1      32.427  33.063  27.265  1.00  0.00     0.188 C 
BRANCH  28  29
ATOM     29  O   UNL A   1      32.167  34.282  27.950  1.00  0.00    -0.376 OA
BRANCH  29  30
ATOM     30  C   UNL A   1      33.227  34.842  28.729  1.00  0.00     0.202 C 
BRANCH  30  31
ATOM     31  C   UNL A   1      34.480  33.998  29.057  1.00  0.00     0.261 C 
BRANCH  31  32
ATOM     32  O   UNL A   1      34.941  34.111  30.421  1.00  0.00    -0.460 OA
BRANCH  32  33
ATOM     33  C   UNL A   1      34.986  32.968  31.144  1.00  0.00     0.338 C 
ATOM     34  O   UNL A   1      34.093  32.529  31.862  1.00  0.00    -0.246 OA
BRANCH  33  35
ATOM     35  C   UNL A   1      36.171  32.161  30.777  1.00  0.00     0.060 A 
ATOM     36  C   UNL A   1      36.943  31.612  31.815  1.00  0.00     0.016 A 
ATOM     37  C   UNL A   1      36.563  31.983  29.449  1.00  0.00     0.016 A 
ATOM     38  C   UNL A   1      38.117  30.909  31.534  1.00  0.00     0.010 A 
ATOM     39  C   UNL A   1      37.764  31.314  29.170  1.00  0.00     0.010 A 
ATOM     40  C   UNL A   1      38.564  30.804  30.212  1.00  0.00    -0.014 A 
BRANCH  40  41
ATOM     41  C   UNL A   1      39.971  30.404  29.946  1.00  0.00     0.031 A 
ATOM     42  C   UNL A   1      41.047  31.442  30.140  1.00  0.00     0.074 A 
ATOM     43  C   UNL A   1      40.306  29.158  29.564  1.00  0.00     0.049 A 
ATOM     44  N   UNL A   1      42.334  31.356  29.933  1.00  0.00    -0.248 NA
ATOM     45  C   UNL A   1      40.601  32.756  30.636  1.00  0.00     0.031 C 
ATOM     46  C   UNL A   1      39.379  28.040  29.399  1.00  0.00     0.029 A 
ATOM     47  N   UNL A   1      41.533  28.628  29.239  1.00  0.00    -0.354 N 
ATOM     48  C   UNL A   1      42.853  32.604  30.264  1.00  0.00     0.074 A 
ATOM     49  C   UNL A   1      41.737  33.436  30.658  1.00  0.00     0.031 C 
ATOM     50  C   UNL A   1      40.069  26.960  28.989  1.00  0.00     0.029 A 
ATOM     51  C   UNL A   1      41.479  27.316  28.830  1.00  0.00     0.049 A 
ATOM     52  H   UNL A   1      42.371  29.141  29.293  1.00  0.00     0.167 HD
ATOM     53  C   UNL A   1      44.139  33.025  30.241  1.00  0.00     0.031 A 
ATOM     54  C   UNL A   1      42.451  26.505  28.360  1.00  0.00     0.031 A 
ATOM     55  C   UNL A   1      45.247  32.210  29.820  1.00  0.00     0.049 A 
ATOM     56  C   UNL A   1      43.865  27.023  28.253  1.00  0.00     0.074 A 
ATOM     57  C   UNL A   1      46.589  32.546  29.764  1.00  0.00     0.029 A 
ATOM     58  N   UNL A   1      45.142  30.904  29.369  1.00  0.00    -0.354 N 
ATOM     59  N   UNL A   1      44.342  28.199  28.586  1.00  0.00    -0.248 NA
ATOM     60  C   UNL A   1      44.872  26.099  27.710  1.00  0.00     0.031 C 
ATOM     61  C   UNL A   1      47.286  31.463  29.219  1.00  0.00     0.029 A 
ATOM     62  C   UNL A   1      46.390  30.428  29.002  1.00  0.00     0.049 A 
ATOM     63  H   UNL A   1      44.304  30.390  29.317  1.00  0.00     0.167 HD
ATOM     64  C   UNL A   1      45.709  28.144  28.322  1.00  0.00     0.074 A 
ATOM     65  C   UNL A   1      45.982  26.817  27.812  1.00  0.00     0.031 C 
ATOM     66  C   UNL A   1      46.652  29.106  28.493  1.00  0.00     0.031 A 
BRANCH  53  67
ATOM     67  C   UNL A   1      44.405  34.454  30.638  1.00  0.00    -0.014 A 
ATOM     68  C   UNL A   1      43.841  35.529  29.925  1.00  0.00     0.010 A 
ATOM     69  C   UNL A   1      45.224  34.725  31.748  1.00  0.00     0.010 A 
ATOM     70  C   UNL A   1      44.132  36.847  30.287  1.00  0.00     0.020 A 
ATOM     71  C   UNL A   1      45.491  36.041  32.134  1.00  0.00     0.020 A 
ATOM     72  C   UNL A   1      44.958  37.095  31.388  1.00  0.00     0.054 A 
BRANCH  72  73
ATOM     73  S   UNL A   1      45.314  38.814  31.840  1.00  0.00     0.124 S 
ATOM     74  O   UNL A   1      43.981  39.412  31.823  1.00  0.00    -0.237 OA
ATOM     75  O   UNL A   1      45.923  38.677  33.162  1.00  0.00    -0.237 OA
ATOM     76  O   UNL A   1      46.216  39.272  30.786  1.00  0.00    -0.744 OA
ENDBRANCH  72  73
ENDBRANCH  53  67
BRANCH  54  77
ATOM     77  C   UNL A   1      42.120  25.116  27.931  1.00  0.00    -0.014 A 
ATOM     78  C   UNL A   1      41.658  24.855  26.629  1.00  0.00     0.010 A 
ATOM     79  C   UNL A   1      42.261  24.043  28.832  1.00  0.00     0.010 A 
ATOM     80  C   UNL A   1      41.335  23.551  26.238  1.00  0.00     0.020 A 
ATOM     81  C   UNL A   1      41.967  22.735  28.437  1.00  0.00     0.020 A 
ATOM     82  C   UNL A   1      41.498  22.498  27.143  1.00  0.00     0.054 A 
BRANCH  82  83
ATOM     83  S   UNL A   1      41.138  20.806  26.593  1.00  0.00     0.124 S 
ATOM     84  O   UNL A   1      42.189  20.575  25.607  1.00  0.00    -0.237 OA
ATOM     85  O   UNL A   1      41.253  20.042  27.833  1.00  0.00    -0.237 OA
ATOM     86  O   UNL A   1      39.784  20.902  26.054  1.00  0.00    -0.744 OA
ENDBRANCH  82  83
ENDBRANCH  54  77
BRANCH  66  87
ATOM     87  C   UNL A   1      48.081  28.756  28.162  1.00  0.00    -0.014 A 
ATOM     88  C   UNL A   1      48.851  27.937  29.008  1.00  0.00     0.010 A 
ATOM     89  C   UNL A   1      48.639  29.199  26.947  1.00  0.00     0.010 A 
ATOM     90  C   UNL A   1      50.161  27.594  28.659  1.00  0.00     0.020 A 
ATOM     91  C   UNL A   1      49.937  28.832  26.581  1.00  0.00     0.020 A 
ATOM     92  C   UNL A   1      50.696  28.043  27.447  1.00  0.00     0.054 A 
BRANCH  92  93
ATOM     93  S   UNL A   1      52.380  27.544  26.996  1.00  0.00     0.124 S 
ATOM     94  O   UNL A   1      52.646  28.385  25.833  1.00  0.00    -0.237 OA
ATOM     95  O   UNL A   1      53.144  27.872  28.198  1.00  0.00    -0.237 OA
ATOM     96  O   UNL A   1      52.257  26.115  26.716  1.00  0.00    -0.744 OA
ENDBRANCH  92  93
ENDBRANCH  66  87
ENDBRANCH  40  41
ENDBRANCH  33  35
ENDBRANCH  32  33
ENDBRANCH  31  32
ENDBRANCH  30  31
ENDBRANCH  29  30
ENDBRANCH  28  29
ENDBRANCH  27  28
ENDBRANCH   1  27
TORSDOF 26
ENDMDL
