MODEL 1
REMARK VINA RESULT:      -7.1      0.000      0.000
REMARK SMILES CCOc1cc(/C=C(/F)C(=O)OCCOCCOCCOCCOC(=O)c2ccc(-c3c4nc(c(-c5ccc(S(=O)(=O)[O-])cc5)c5ccc([nH]5)c(-c5ccc(S(=O)(=O)[O-])cc5)c5nc(c(-c6ccc(S(=O)(=O)[O-])cc6)c6ccc3[nH]6)C=C5)C=C4)cc2)ccc1O
REMARK SMILES IDX 18 1 17 2 16 3 15 4 14 5 13 6 12 7 10 8 11 9 8 10 7 11 9 12
REMARK SMILES IDX 6 13 4 14 5 15 89 16 88 17 87 18 3 19 2 20 1 21 90 22 19 24
REMARK SMILES IDX 20 25 21 26 22 27 23 28 24 29 25 30 26 31 27 32 28 33 86 34
REMARK SMILES IDX 29 35 85 36 30 37 31 38 32 39 79 40 33 41 84 42 78 43 80 44
REMARK SMILES IDX 34 45 83 46 77 47 76 48 35 50 65 51 46 52 64 53 47 54 50 55
REMARK SMILES IDX 63 56 81 57 48 58 49 59 62 61 82 62 51 63 36 64 37 65 45 66
REMARK SMILES IDX 38 67 44 68 39 69 40 70 41 71 42 72 43 73 66 74 67 75 75 76
REMARK SMILES IDX 68 77 74 78 69 79 70 80 71 81 72 82 73 83 52 84 53 85 61 86
REMARK SMILES IDX 54 87 60 88 55 89 56 90 57 91 58 92 59 93
REMARK H PARENT 90 23 80 49 50 60
REMARK Flexibility Score: inf
ROOT
ATOM      1  O   UNL A   1      37.692  33.129  34.144  1.00  0.00    -0.377 OA
ENDROOT
BRANCH   1   2
ATOM      2  C   UNL A   1      38.013  31.809  34.566  1.00  0.00     0.188 C 
BRANCH   2   3
ATOM      3  C   UNL A   1      39.087  30.999  33.816  1.00  0.00     0.188 C 
BRANCH   3   4
ATOM      4  O   UNL A   1      40.365  31.620  33.727  1.00  0.00    -0.376 OA
BRANCH   4   5
ATOM      5  C   UNL A   1      41.465  31.047  34.416  1.00  0.00     0.202 C 
BRANCH   5   6
ATOM      6  C   UNL A   1      42.123  31.969  35.448  1.00  0.00     0.261 C 
BRANCH   6   7
ATOM      7  O   UNL A   1      41.178  32.479  36.405  1.00  0.00    -0.458 OA
BRANCH   7   8
ATOM      8  C   UNL A   1      41.415  33.727  36.879  1.00  0.00     0.367 C 
ATOM      9  O   UNL A   1      42.326  34.058  37.619  1.00  0.00    -0.243 OA
BRANCH   8  10
ATOM     10  C   UNL A   1      40.476  34.654  36.206  1.00  0.00     0.208 C 
ATOM     11  C   UNL A   1      39.523  35.417  36.770  1.00  0.00     0.055 C 
ATOM     12  F   UNL A   1      40.732  34.824  34.887  1.00  0.00    -0.199 F 
BRANCH  11  13
ATOM     13  C   UNL A   1      39.133  35.655  38.182  1.00  0.00    -0.019 A 
ATOM     14  C   UNL A   1      38.653  34.799  40.423  1.00  0.00     0.161 A 
ATOM     15  C   UNL A   1      38.643  34.659  39.033  1.00  0.00     0.058 A 
ATOM     16  C   UNL A   1      39.021  36.016  40.980  1.00  0.00     0.157 A 
ATOM     17  C   UNL A   1      39.373  37.077  40.154  1.00  0.00     0.051 A 
ATOM     18  C   UNL A   1      39.470  36.884  38.768  1.00  0.00     0.012 A 
BRANCH  14  19
ATOM     19  O   UNL A   1      38.620  33.630  41.132  1.00  0.00    -0.490 OA
BRANCH  19  20
ATOM     20  C   UNL A   1      38.170  32.463  40.451  1.00  0.00     0.226 C 
ATOM     21  C   UNL A   1      38.005  31.399  41.527  1.00  0.00     0.049 C 
ENDBRANCH  19  20
ENDBRANCH  14  19
BRANCH  16  22
ATOM     22  O   UNL A   1      39.164  36.188  42.325  1.00  0.00    -0.504 OA
ATOM     23  H   UNL A   1      39.966  35.943  42.746  1.00  0.00     0.293 HD
ENDBRANCH  16  22
ENDBRANCH  11  13
ENDBRANCH   8  10
ENDBRANCH   7   8
ENDBRANCH   6   7
ENDBRANCH   5   6
ENDBRANCH   4   5
ENDBRANCH   3   4
ENDBRANCH   2   3
ENDBRANCH   1   2
BRANCH   1  24
ATOM     24  C   UNL A   1      36.832  33.867  35.002  1.00  0.00     0.188 C 
BRANCH  24  25
ATOM     25  C   UNL A   1      35.560  34.349  34.274  1.00  0.00     0.188 C 
BRANCH  25  26
ATOM     26  O   UNL A   1      35.829  35.338  33.287  1.00  0.00    -0.376 OA
BRANCH  26  27
ATOM     27  C   UNL A   1      34.734  36.035  32.711  1.00  0.00     0.202 C 
BRANCH  27  28
ATOM     28  C   UNL A   1      33.479  35.285  32.223  1.00  0.00     0.261 C 
BRANCH  28  29
ATOM     29  O   UNL A   1      33.670  34.050  31.520  1.00  0.00    -0.460 OA
BRANCH  29  30
ATOM     30  C   UNL A   1      33.991  34.095  30.204  1.00  0.00     0.338 C 
ATOM     31  O   UNL A   1      33.439  34.724  29.339  1.00  0.00    -0.246 OA
BRANCH  30  32
ATOM     32  C   UNL A   1      35.302  33.403  30.078  1.00  0.00     0.060 A 
ATOM     33  C   UNL A   1      35.662  32.456  31.048  1.00  0.00     0.016 A 
ATOM     34  C   UNL A   1      36.125  33.627  28.972  1.00  0.00     0.016 A 
ATOM     35  C   UNL A   1      36.859  31.747  30.922  1.00  0.00     0.010 A 
ATOM     36  C   UNL A   1      37.337  32.941  28.863  1.00  0.00     0.010 A 
ATOM     37  C   UNL A   1      37.721  32.021  29.854  1.00  0.00    -0.014 A 
BRANCH  37  38
ATOM     38  C   UNL A   1      39.121  31.535  29.902  1.00  0.00     0.031 A 
ATOM     39  C   UNL A   1      40.174  32.497  30.380  1.00  0.00     0.074 A 
ATOM     40  C   UNL A   1      39.453  30.279  29.552  1.00  0.00     0.049 A 
ATOM     41  N   UNL A   1      41.466  32.330  30.484  1.00  0.00    -0.248 NA
ATOM     42  C   UNL A   1      39.702  33.830  30.795  1.00  0.00     0.031 C 
ATOM     43  C   UNL A   1      38.519  29.242  29.120  1.00  0.00     0.029 A 
ATOM     44  N   UNL A   1      40.682  29.669  29.503  1.00  0.00    -0.354 N 
ATOM     45  C   UNL A   1      41.960  33.535  30.970  1.00  0.00     0.074 A 
ATOM     46  C   UNL A   1      40.836  34.433  31.113  1.00  0.00     0.031 C 
ATOM     47  C   UNL A   1      39.211  28.123  28.839  1.00  0.00     0.029 A 
ATOM     48  C   UNL A   1      40.638  28.374  29.041  1.00  0.00     0.049 A 
ATOM     49  H   UNL A   1      41.517  30.115  29.774  1.00  0.00     0.167 HD
ATOM     50  C   UNL A   1      43.237  33.865  31.276  1.00  0.00     0.031 A 
ATOM     51  C   UNL A   1      41.638  27.504  28.791  1.00  0.00     0.031 A 
ATOM     52  C   UNL A   1      44.355  32.980  31.107  1.00  0.00     0.049 A 
ATOM     53  C   UNL A   1      43.063  27.925  29.055  1.00  0.00     0.074 A 
ATOM     54  C   UNL A   1      45.688  33.215  31.392  1.00  0.00     0.029 A 
ATOM     55  N   UNL A   1      44.273  31.694  30.597  1.00  0.00    -0.354 N 
ATOM     56  N   UNL A   1      43.514  29.057  29.542  1.00  0.00    -0.248 NA
ATOM     57  C   UNL A   1      44.114  26.946  28.739  1.00  0.00     0.031 C 
ATOM     58  C   UNL A   1      46.421  32.092  30.995  1.00  0.00     0.029 A 
ATOM     59  C   UNL A   1      45.537  31.133  30.528  1.00  0.00     0.049 A 
ATOM     60  H   UNL A   1      43.441  31.245  30.323  1.00  0.00     0.167 HD
ATOM     61  C   UNL A   1      44.897  28.915  29.618  1.00  0.00     0.074 A 
ATOM     62  C   UNL A   1      45.207  27.583  29.140  1.00  0.00     0.031 C 
ATOM     63  C   UNL A   1      45.827  29.805  30.048  1.00  0.00     0.031 A 
BRANCH  50  64
ATOM     64  C   UNL A   1      43.487  35.261  31.781  1.00  0.00    -0.014 A 
ATOM     65  C   UNL A   1      43.852  36.300  30.906  1.00  0.00     0.010 A 
ATOM     66  C   UNL A   1      43.337  35.540  33.151  1.00  0.00     0.010 A 
ATOM     67  C   UNL A   1      44.101  37.584  31.398  1.00  0.00     0.020 A 
ATOM     68  C   UNL A   1      43.556  36.829  33.644  1.00  0.00     0.020 A 
ATOM     69  C   UNL A   1      43.953  37.840  32.765  1.00  0.00     0.054 A 
BRANCH  69  70
ATOM     70  S   UNL A   1      44.261  39.521  33.373  1.00  0.00     0.124 S 
ATOM     71  O   UNL A   1      44.946  40.130  32.236  1.00  0.00    -0.237 OA
ATOM     72  O   UNL A   1      42.913  40.018  33.633  1.00  0.00    -0.237 OA
ATOM     73  O   UNL A   1      45.086  39.315  34.560  1.00  0.00    -0.744 OA
ENDBRANCH  69  70
ENDBRANCH  50  64
BRANCH  51  74
ATOM     74  C   UNL A   1      41.334  26.154  28.238  1.00  0.00    -0.014 A 
ATOM     75  C   UNL A   1      40.507  26.006  27.111  1.00  0.00     0.010 A 
ATOM     76  C   UNL A   1      41.868  25.002  28.846  1.00  0.00     0.010 A 
ATOM     77  C   UNL A   1      40.208  24.734  26.611  1.00  0.00     0.020 A 
ATOM     78  C   UNL A   1      41.597  23.731  28.332  1.00  0.00     0.020 A 
ATOM     79  C   UNL A   1      40.759  23.605  27.223  1.00  0.00     0.054 A 
BRANCH  79  80
ATOM     80  S   UNL A   1      40.403  21.969  26.523  1.00  0.00     0.124 S 
ATOM     81  O   UNL A   1      39.074  22.164  25.951  1.00  0.00    -0.237 OA
ATOM     82  O   UNL A   1      41.487  21.798  25.559  1.00  0.00    -0.237 OA
ATOM     83  O   UNL A   1      40.464  21.080  27.681  1.00  0.00    -0.744 OA
ENDBRANCH  79  80
ENDBRANCH  51  74
BRANCH  63  84
ATOM     84  C   UNL A   1      47.268  29.362  30.058  1.00  0.00    -0.014 A 
ATOM     85  C   UNL A   1      48.105  29.572  28.948  1.00  0.00     0.010 A 
ATOM     86  C   UNL A   1      47.807  28.790  31.224  1.00  0.00     0.010 A 
ATOM     87  C   UNL A   1      49.450  29.192  28.997  1.00  0.00     0.020 A 
ATOM     88  C   UNL A   1      49.157  28.436  31.288  1.00  0.00     0.020 A 
ATOM     89  C   UNL A   1      49.968  28.627  30.167  1.00  0.00     0.054 A 
BRANCH  89  90
ATOM     90  S   UNL A   1      51.726  28.188  30.221  1.00  0.00     0.124 S 
ATOM     91  O   UNL A   1      51.693  26.877  30.865  1.00  0.00    -0.237 OA
ATOM     92  O   UNL A   1      52.099  28.184  28.809  1.00  0.00    -0.237 OA
ATOM     93  O   UNL A   1      52.327  29.256  31.015  1.00  0.00    -0.744 OA
ENDBRANCH  89  90
ENDBRANCH  63  84
ENDBRANCH  37  38
ENDBRANCH  30  32
ENDBRANCH  29  30
ENDBRANCH  28  29
ENDBRANCH  27  28
ENDBRANCH  26  27
ENDBRANCH  25  26
ENDBRANCH  24  25
ENDBRANCH   1  24
TORSDOF 27
ENDMDL
MODEL 2
REMARK VINA RESULT:      -7.1      5.045     13.728
REMARK SMILES CCOc1cc(/C=C(/F)C(=O)OCCOCCOCCOCCOC(=O)c2ccc(-c3c4nc(c(-c5ccc(S(=O)(=O)[O-])cc5)c5ccc([nH]5)c(-c5ccc(S(=O)(=O)[O-])cc5)c5nc(c(-c6ccc(S(=O)(=O)[O-])cc6)c6ccc3[nH]6)C=C5)C=C4)cc2)ccc1O
REMARK SMILES IDX 18 1 17 2 16 3 15 4 14 5 13 6 12 7 10 8 11 9 8 10 7 11 9 12
REMARK SMILES IDX 6 13 4 14 5 15 89 16 88 17 87 18 3 19 2 20 1 21 90 22 19 24
REMARK SMILES IDX 20 25 21 26 22 27 23 28 24 29 25 30 26 31 27 32 28 33 86 34
REMARK SMILES IDX 29 35 85 36 30 37 31 38 32 39 79 40 33 41 84 42 78 43 80 44
REMARK SMILES IDX 34 45 83 46 77 47 76 48 35 50 65 51 46 52 64 53 47 54 50 55
REMARK SMILES IDX 63 56 81 57 48 58 49 59 62 61 82 62 51 63 36 64 37 65 45 66
REMARK SMILES IDX 38 67 44 68 39 69 40 70 41 71 42 72 43 73 66 74 67 75 75 76
REMARK SMILES IDX 68 77 74 78 69 79 70 80 71 81 72 82 73 83 52 84 53 85 61 86
REMARK SMILES IDX 54 87 60 88 55 89 56 90 57 91 58 92 59 93
REMARK H PARENT 90 23 80 49 50 60
REMARK Flexibility Score: inf
ROOT
ATOM      1  O   UNL A   1      40.296  20.244  25.643  1.00  0.00    -0.377 OA
ENDROOT
BRANCH   1   2
ATOM      2  C   UNL A   1      38.891  20.435  25.761  1.00  0.00     0.188 C 
BRANCH   2   3
ATOM      3  C   UNL A   1      38.296  21.853  25.691  1.00  0.00     0.188 C 
BRANCH   3   4
ATOM      4  O   UNL A   1      37.026  21.949  25.054  1.00  0.00    -0.376 OA
BRANCH   4   5
ATOM      5  C   UNL A   1      36.705  23.118  24.316  1.00  0.00     0.202 C 
BRANCH   5   6
ATOM      6  C   UNL A   1      35.551  22.948  23.323  1.00  0.00     0.261 C 
BRANCH   6   7
ATOM      7  O   UNL A   1      35.123  24.202  22.764  1.00  0.00    -0.458 OA
BRANCH   7   8
ATOM      8  C   UNL A   1      33.896  24.218  22.189  1.00  0.00     0.367 C 
ATOM      9  O   UNL A   1      33.493  23.460  21.322  1.00  0.00    -0.243 OA
BRANCH   8  10
ATOM     10  C   UNL A   1      33.066  25.208  22.916  1.00  0.00     0.208 C 
ATOM     11  C   UNL A   1      32.489  25.073  24.122  1.00  0.00     0.055 C 
ATOM     12  F   UNL A   1      33.024  26.423  22.321  1.00  0.00    -0.199 F 
BRANCH  11  13
ATOM     13  C   UNL A   1      32.525  23.989  25.136  1.00  0.00    -0.019 A 
ATOM     14  C   UNL A   1      32.163  21.651  25.755  1.00  0.00     0.161 A 
ATOM     15  C   UNL A   1      31.824  22.785  25.014  1.00  0.00     0.058 A 
ATOM     16  C   UNL A   1      33.127  21.752  26.749  1.00  0.00     0.157 A 
ATOM     17  C   UNL A   1      33.740  22.974  26.997  1.00  0.00     0.051 A 
ATOM     18  C   UNL A   1      33.472  24.073  26.168  1.00  0.00     0.012 A 
BRANCH  14  19
ATOM     19  O   UNL A   1      31.761  20.458  25.220  1.00  0.00    -0.490 OA
BRANCH  19  20
ATOM     20  C   UNL A   1      32.617  19.847  24.261  1.00  0.00     0.226 C 
ATOM     21  C   UNL A   1      32.687  18.377  24.650  1.00  0.00     0.049 C 
ENDBRANCH  19  20
ENDBRANCH  14  19
BRANCH  16  22
ATOM     22  O   UNL A   1      33.589  20.664  27.429  1.00  0.00    -0.504 OA
ATOM     23  H   UNL A   1      34.086  20.780  28.217  1.00  0.00     0.293 HD
ENDBRANCH  16  22
ENDBRANCH  11  13
ENDBRANCH   8  10
ENDBRANCH   7   8
ENDBRANCH   6   7
ENDBRANCH   5   6
ENDBRANCH   4   5
ENDBRANCH   3   4
ENDBRANCH   2   3
ENDBRANCH   1   2
BRANCH   1  24
ATOM     24  C   UNL A   1      41.011  20.098  26.863  1.00  0.00     0.188 C 
BRANCH  24  25
ATOM     25  C   UNL A   1      40.997  21.394  27.701  1.00  0.00     0.188 C 
BRANCH  25  26
ATOM     26  O   UNL A   1      41.723  22.455  27.092  1.00  0.00    -0.376 OA
BRANCH  26  27
ATOM     27  C   UNL A   1      40.996  23.537  26.530  1.00  0.00     0.202 C 
BRANCH  27  28
ATOM     28  C   UNL A   1      41.695  24.857  26.152  1.00  0.00     0.261 C 
BRANCH  28  29
ATOM     29  O   UNL A   1      42.324  25.604  27.202  1.00  0.00    -0.460 OA
BRANCH  29  30
ATOM     30  C   UNL A   1      42.683  26.888  26.961  1.00  0.00     0.338 C 
ATOM     31  O   UNL A   1      43.110  27.346  25.933  1.00  0.00    -0.246 OA
BRANCH  30  32
ATOM     32  C   UNL A   1      42.223  27.670  28.140  1.00  0.00     0.060 A 
ATOM     33  C   UNL A   1      42.457  29.053  28.167  1.00  0.00     0.016 A 
ATOM     34  C   UNL A   1      41.499  27.058  29.166  1.00  0.00     0.016 A 
ATOM     35  C   UNL A   1      41.983  29.822  29.231  1.00  0.00     0.010 A 
ATOM     36  C   UNL A   1      41.053  27.822  30.247  1.00  0.00     0.010 A 
ATOM     37  C   UNL A   1      41.320  29.202  30.297  1.00  0.00    -0.014 A 
BRANCH  37  38
ATOM     38  C   UNL A   1      41.126  29.943  31.567  1.00  0.00     0.031 A 
ATOM     39  C   UNL A   1      42.158  29.754  32.645  1.00  0.00     0.074 A 
ATOM     40  C   UNL A   1      40.083  30.770  31.759  1.00  0.00     0.049 A 
ATOM     41  N   UNL A   1      42.203  30.258  33.850  1.00  0.00    -0.248 NA
ATOM     42  C   UNL A   1      43.293  28.873  32.317  1.00  0.00     0.031 C 
ATOM     43  C   UNL A   1      39.046  31.071  30.775  1.00  0.00     0.029 A 
ATOM     44  N   UNL A   1      39.727  31.504  32.862  1.00  0.00    -0.354 N 
ATOM     45  C   UNL A   1      43.364  29.753  34.423  1.00  0.00     0.074 A 
ATOM     46  C   UNL A   1      43.980  28.881  33.448  1.00  0.00     0.031 C 
ATOM     47  C   UNL A   1      38.161  31.924  31.324  1.00  0.00     0.029 A 
ATOM     48  C   UNL A   1      38.552  32.202  32.706  1.00  0.00     0.049 A 
ATOM     49  H   UNL A   1      40.262  31.531  33.688  1.00  0.00     0.167 HD
ATOM     50  C   UNL A   1      43.877  29.997  35.652  1.00  0.00     0.031 A 
ATOM     51  C   UNL A   1      37.864  32.957  33.586  1.00  0.00     0.031 A 
ATOM     52  C   UNL A   1      43.249  30.842  36.629  1.00  0.00     0.049 A 
ATOM     53  C   UNL A   1      38.409  33.143  34.981  1.00  0.00     0.074 A 
ATOM     54  C   UNL A   1      43.689  31.159  37.901  1.00  0.00     0.029 A 
ATOM     55  N   UNL A   1      42.040  31.495  36.446  1.00  0.00    -0.354 N 
ATOM     56  N   UNL A   1      39.523  32.684  35.502  1.00  0.00    -0.248 NA
ATOM     57  C   UNL A   1      37.605  33.955  35.906  1.00  0.00     0.031 C 
ATOM     58  C   UNL A   1      42.714  31.954  38.511  1.00  0.00     0.029 A 
ATOM     59  C   UNL A   1      41.701  32.189  37.595  1.00  0.00     0.049 A 
ATOM     60  H   UNL A   1      41.501  31.469  35.623  1.00  0.00     0.167 HD
ATOM     61  C   UNL A   1      39.566  33.175  36.803  1.00  0.00     0.074 A 
ATOM     62  C   UNL A   1      38.374  33.977  36.987  1.00  0.00     0.031 C 
ATOM     63  C   UNL A   1      40.509  32.982  37.761  1.00  0.00     0.031 A 
BRANCH  50  64
ATOM     64  C   UNL A   1      45.160  29.298  36.015  1.00  0.00    -0.014 A 
ATOM     65  C   UNL A   1      45.154  28.026  36.616  1.00  0.00     0.010 A 
ATOM     66  C   UNL A   1      46.391  29.919  35.736  1.00  0.00     0.010 A 
ATOM     67  C   UNL A   1      46.356  27.404  36.965  1.00  0.00     0.020 A 
ATOM     68  C   UNL A   1      47.596  29.288  36.057  1.00  0.00     0.020 A 
ATOM     69  C   UNL A   1      47.569  28.041  36.685  1.00  0.00     0.054 A 
BRANCH  69  70
ATOM     70  S   UNL A   1      49.114  27.200  37.130  1.00  0.00     0.124 S 
ATOM     71  O   UNL A   1      49.193  27.456  38.565  1.00  0.00    -0.237 OA
ATOM     72  O   UNL A   1      48.844  25.815  36.753  1.00  0.00    -0.237 OA
ATOM     73  O   UNL A   1      50.123  27.877  36.319  1.00  0.00    -0.744 OA
ENDBRANCH  69  70
ENDBRANCH  50  64
BRANCH  51  74
ATOM     74  C   UNL A   1      36.570  33.580  33.187  1.00  0.00    -0.014 A 
ATOM     75  C   UNL A   1      35.376  32.838  33.211  1.00  0.00     0.010 A 
ATOM     76  C   UNL A   1      36.527  34.924  32.771  1.00  0.00     0.010 A 
ATOM     77  C   UNL A   1      34.168  33.422  32.814  1.00  0.00     0.020 A 
ATOM     78  C   UNL A   1      35.318  35.520  32.402  1.00  0.00     0.020 A 
ATOM     79  C   UNL A   1      34.147  34.762  32.416  1.00  0.00     0.054 A 
BRANCH  79  80
ATOM     80  S   UNL A   1      32.560  35.514  31.960  1.00  0.00     0.124 S 
ATOM     81  O   UNL A   1      31.627  34.816  32.840  1.00  0.00    -0.237 OA
ATOM     82  O   UNL A   1      32.783  36.925  32.265  1.00  0.00    -0.237 OA
ATOM     83  O   UNL A   1      32.432  35.205  30.537  1.00  0.00    -0.744 OA
ENDBRANCH  79  80
ENDBRANCH  51  74
BRANCH  63  84
ATOM     84  C   UNL A   1      40.314  33.677  39.084  1.00  0.00    -0.014 A 
ATOM     85  C   UNL A   1      39.557  33.090  40.113  1.00  0.00     0.010 A 
ATOM     86  C   UNL A   1      40.961  34.903  39.322  1.00  0.00     0.010 A 
ATOM     87  C   UNL A   1      39.427  33.734  41.347  1.00  0.00     0.020 A 
ATOM     88  C   UNL A   1      40.859  35.535  40.564  1.00  0.00     0.020 A 
ATOM     89  C   UNL A   1      40.080  34.952  41.566  1.00  0.00     0.054 A 
BRANCH  89  90
ATOM     90  S   UNL A   1      39.935  35.742  43.192  1.00  0.00     0.124 S 
ATOM     91  O   UNL A   1      39.234  34.720  43.965  1.00  0.00    -0.237 OA
ATOM     92  O   UNL A   1      41.330  35.965  43.566  1.00  0.00    -0.237 OA
ATOM     93  O   UNL A   1      39.168  36.955  42.922  1.00  0.00    -0.744 OA
ENDBRANCH  89  90
ENDBRANCH  63  84
ENDBRANCH  37  38
ENDBRANCH  30  32
ENDBRANCH  29  30
ENDBRANCH  28  29
ENDBRANCH  27  28
ENDBRANCH  26  27
ENDBRANCH  25  26
ENDBRANCH  24  25
ENDBRANCH   1  24
TORSDOF 27
ENDMDL
MODEL 3
REMARK VINA RESULT:      -6.5      1.894      2.538
REMARK SMILES CCOc1cc(/C=C(/F)C(=O)OCCOCCOCCOCCOC(=O)c2ccc(-c3c4nc(c(-c5ccc(S(=O)(=O)[O-])cc5)c5ccc([nH]5)c(-c5ccc(S(=O)(=O)[O-])cc5)c5nc(c(-c6ccc(S(=O)(=O)[O-])cc6)c6ccc3[nH]6)C=C5)C=C4)cc2)ccc1O
REMARK SMILES IDX 18 1 17 2 16 3 15 4 14 5 13 6 12 7 10 8 11 9 8 10 7 11 9 12
REMARK SMILES IDX 6 13 4 14 5 15 89 16 88 17 87 18 3 19 2 20 1 21 90 22 19 24
REMARK SMILES IDX 20 25 21 26 22 27 23 28 24 29 25 30 26 31 27 32 28 33 86 34
REMARK SMILES IDX 29 35 85 36 30 37 31 38 32 39 79 40 33 41 84 42 78 43 80 44
REMARK SMILES IDX 34 45 83 46 77 47 76 48 35 50 65 51 46 52 64 53 47 54 50 55
REMARK SMILES IDX 63 56 81 57 48 58 49 59 62 61 82 62 51 63 36 64 37 65 45 66
REMARK SMILES IDX 38 67 44 68 39 69 40 70 41 71 42 72 43 73 66 74 67 75 75 76
REMARK SMILES IDX 68 77 74 78 69 79 70 80 71 81 72 82 73 83 52 84 53 85 61 86
REMARK SMILES IDX 54 87 60 88 55 89 56 90 57 91 58 92 59 93
REMARK H PARENT 90 23 80 49 50 60
REMARK Flexibility Score: inf
ROOT
ATOM      1  O   UNL A   1      38.672  33.204  34.548  1.00  0.00    -0.377 OA
ENDROOT
BRANCH   1   2
ATOM      2  C   UNL A   1      39.392  32.055  34.978  1.00  0.00     0.188 C 
BRANCH   2   3
ATOM      3  C   UNL A   1      40.476  31.440  34.073  1.00  0.00     0.188 C 
BRANCH   3   4
ATOM      4  O   UNL A   1      41.606  32.270  33.828  1.00  0.00    -0.376 OA
BRANCH   4   5
ATOM      5  C   UNL A   1      42.910  31.742  34.016  1.00  0.00     0.202 C 
BRANCH   5   6
ATOM      6  C   UNL A   1      43.893  32.696  34.702  1.00  0.00     0.261 C 
BRANCH   6   7
ATOM      7  O   UNL A   1      43.538  32.952  36.072  1.00  0.00    -0.458 OA
BRANCH   7   8
ATOM      8  C   UNL A   1      44.519  33.447  36.866  1.00  0.00     0.367 C 
ATOM      9  O   UNL A   1      45.200  32.813  37.655  1.00  0.00    -0.243 OA
BRANCH   8  10
ATOM     10  C   UNL A   1      44.740  34.862  36.486  1.00  0.00     0.208 C 
ATOM     11  C   UNL A   1      43.933  35.913  36.713  1.00  0.00     0.055 C 
ATOM     12  F   UNL A   1      45.970  35.101  35.973  1.00  0.00    -0.199 F 
BRANCH  11  13
ATOM     13  C   UNL A   1      42.648  36.053  37.442  1.00  0.00    -0.019 A 
ATOM     14  C   UNL A   1      41.356  36.970  39.305  1.00  0.00     0.161 A 
ATOM     15  C   UNL A   1      42.549  36.480  38.771  1.00  0.00     0.058 A 
ATOM     16  C   UNL A   1      40.194  36.900  38.549  1.00  0.00     0.157 A 
ATOM     17  C   UNL A   1      40.228  36.344  37.276  1.00  0.00     0.051 A 
ATOM     18  C   UNL A   1      41.454  35.963  36.711  1.00  0.00     0.012 A 
BRANCH  14  19
ATOM     19  O   UNL A   1      41.491  37.782  40.397  1.00  0.00    -0.490 OA
BRANCH  19  20
ATOM     20  C   UNL A   1      41.866  39.136  40.165  1.00  0.00     0.226 C 
ATOM     21  C   UNL A   1      42.383  39.653  41.500  1.00  0.00     0.049 C 
ENDBRANCH  19  20
ENDBRANCH  14  19
BRANCH  16  22
ATOM     22  O   UNL A   1      39.021  37.463  38.961  1.00  0.00    -0.504 OA
ATOM     23  H   UNL A   1      38.808  37.487  39.874  1.00  0.00     0.293 HD
ENDBRANCH  16  22
ENDBRANCH  11  13
ENDBRANCH   8  10
ENDBRANCH   7   8
ENDBRANCH   6   7
ENDBRANCH   5   6
ENDBRANCH   4   5
ENDBRANCH   3   4
ENDBRANCH   2   3
ENDBRANCH   1   2
BRANCH   1  24
ATOM     24  C   UNL A   1      37.927  33.885  35.550  1.00  0.00     0.188 C 
BRANCH  24  25
ATOM     25  C   UNL A   1      36.417  33.904  35.236  1.00  0.00     0.188 C 
BRANCH  25  26
ATOM     26  O   UNL A   1      36.128  34.411  33.938  1.00  0.00    -0.376 OA
BRANCH  26  27
ATOM     27  C   UNL A   1      34.776  34.689  33.605  1.00  0.00     0.202 C 
BRANCH  27  28
ATOM     28  C   UNL A   1      33.795  33.558  33.244  1.00  0.00     0.261 C 
BRANCH  28  29
ATOM     29  O   UNL A   1      34.226  32.580  32.286  1.00  0.00    -0.460 OA
BRANCH  29  30
ATOM     30  C   UNL A   1      34.507  32.987  31.025  1.00  0.00     0.338 C 
ATOM     31  O   UNL A   1      33.869  33.746  30.343  1.00  0.00    -0.246 OA
BRANCH  30  32
ATOM     32  C   UNL A   1      35.882  32.500  30.734  1.00  0.00     0.060 A 
ATOM     33  C   UNL A   1      36.627  31.921  31.771  1.00  0.00     0.016 A 
ATOM     34  C   UNL A   1      36.395  32.540  29.435  1.00  0.00     0.016 A 
ATOM     35  C   UNL A   1      37.897  31.399  31.513  1.00  0.00     0.010 A 
ATOM     36  C   UNL A   1      37.678  32.048  29.184  1.00  0.00     0.010 A 
ATOM     37  C   UNL A   1      38.445  31.503  30.229  1.00  0.00    -0.014 A 
BRANCH  37  38
ATOM     38  C   UNL A   1      39.896  31.272  30.034  1.00  0.00     0.031 A 
ATOM     39  C   UNL A   1      40.832  32.392  30.398  1.00  0.00     0.074 A 
ATOM     40  C   UNL A   1      40.377  30.107  29.565  1.00  0.00     0.049 A 
ATOM     41  N   UNL A   1      42.133  32.455  30.292  1.00  0.00    -0.248 NA
ATOM     42  C   UNL A   1      40.212  33.607  30.956  1.00  0.00     0.031 C 
ATOM     43  C   UNL A   1      39.576  28.933  29.223  1.00  0.00     0.029 A 
ATOM     44  N   UNL A   1      41.667  29.726  29.293  1.00  0.00    -0.354 N 
ATOM     45  C   UNL A   1      42.486  33.713  30.764  1.00  0.00     0.074 A 
ATOM     46  C   UNL A   1      41.264  34.392  31.130  1.00  0.00     0.031 C 
ATOM     47  C   UNL A   1      40.395  27.963  28.776  1.00  0.00     0.029 A 
ATOM     48  C   UNL A   1      41.771  28.459  28.770  1.00  0.00     0.049 A 
ATOM     49  H   UNL A   1      42.446  30.306  29.457  1.00  0.00     0.167 HD
ATOM     50  C   UNL A   1      43.720  34.256  30.888  1.00  0.00     0.031 A 
ATOM     51  C   UNL A   1      42.851  27.788  28.319  1.00  0.00     0.031 A 
ATOM     52  C   UNL A   1      44.931  33.590  30.498  1.00  0.00     0.049 A 
ATOM     53  C   UNL A   1      44.207  28.447  28.384  1.00  0.00     0.074 A 
ATOM     54  C   UNL A   1      46.232  34.050  30.588  1.00  0.00     0.029 A 
ATOM     55  N   UNL A   1      44.989  32.325  29.934  1.00  0.00    -0.354 N 
ATOM     56  N   UNL A   1      44.531  29.627  28.859  1.00  0.00    -0.248 NA
ATOM     57  C   UNL A   1      45.345  27.681  27.854  1.00  0.00     0.031 C 
ATOM     58  C   UNL A   1      47.072  33.087  30.019  1.00  0.00     0.029 A 
ATOM     59  C   UNL A   1      46.301  32.000  29.639  1.00  0.00     0.049 A 
ATOM     60  H   UNL A   1      44.212  31.744  29.767  1.00  0.00     0.167 HD
ATOM     61  C   UNL A   1      45.912  29.731  28.713  1.00  0.00     0.074 A 
ATOM     62  C   UNL A   1      46.363  28.491  28.118  1.00  0.00     0.031 C 
ATOM     63  C   UNL A   1      46.733  30.759  29.045  1.00  0.00     0.031 A 
BRANCH  50  64
ATOM     64  C   UNL A   1      43.806  35.659  31.428  1.00  0.00    -0.014 A 
ATOM     65  C   UNL A   1      43.876  36.769  30.567  1.00  0.00     0.010 A 
ATOM     66  C   UNL A   1      43.801  35.869  32.818  1.00  0.00     0.010 A 
ATOM     67  C   UNL A   1      43.977  38.062  31.089  1.00  0.00     0.020 A 
ATOM     68  C   UNL A   1      43.872  37.162  33.344  1.00  0.00     0.020 A 
ATOM     69  C   UNL A   1      43.976  38.249  32.475  1.00  0.00     0.054 A 
BRANCH  69  70
ATOM     70  S   UNL A   1      44.086  39.940  33.122  1.00  0.00     0.124 S 
ATOM     71  O   UNL A   1      43.789  39.739  34.538  1.00  0.00    -0.237 OA
ATOM     72  O   UNL A   1      45.466  40.310  32.817  1.00  0.00    -0.237 OA
ATOM     73  O   UNL A   1      43.068  40.667  32.369  1.00  0.00    -0.744 OA
ENDBRANCH  69  70
ENDBRANCH  50  64
BRANCH  51  74
ATOM     74  C   UNL A   1      42.697  26.422  27.743  1.00  0.00    -0.014 A 
ATOM     75  C   UNL A   1      42.577  26.234  26.355  1.00  0.00     0.010 A 
ATOM     76  C   UNL A   1      42.663  25.296  28.587  1.00  0.00     0.010 A 
ATOM     77  C   UNL A   1      42.411  24.951  25.824  1.00  0.00     0.020 A 
ATOM     78  C   UNL A   1      42.527  24.010  28.058  1.00  0.00     0.020 A 
ATOM     79  C   UNL A   1      42.392  23.846  26.679  1.00  0.00     0.054 A 
BRANCH  79  80
ATOM     80  S   UNL A   1      42.232  22.187  25.962  1.00  0.00     0.124 S 
ATOM     81  O   UNL A   1      43.017  21.377  26.889  1.00  0.00    -0.237 OA
ATOM     82  O   UNL A   1      40.788  21.968  25.997  1.00  0.00    -0.237 OA
ATOM     83  O   UNL A   1      42.799  22.336  24.624  1.00  0.00    -0.744 OA
ENDBRANCH  79  80
ENDBRANCH  51  74
BRANCH  63  84
ATOM     84  C   UNL A   1      48.211  30.579  28.807  1.00  0.00    -0.014 A 
ATOM     85  C   UNL A   1      48.813  30.989  27.605  1.00  0.00     0.010 A 
ATOM     86  C   UNL A   1      49.017  30.057  29.835  1.00  0.00     0.010 A 
ATOM     87  C   UNL A   1      50.192  30.851  27.425  1.00  0.00     0.020 A 
ATOM     88  C   UNL A   1      50.400  29.946  29.670  1.00  0.00     0.020 A 
ATOM     89  C   UNL A   1      50.978  30.332  28.459  1.00  0.00     0.054 A 
BRANCH  89  90
ATOM     90  S   UNL A   1      52.771  30.210  28.218  1.00  0.00     0.124 S 
ATOM     91  O   UNL A   1      52.940  28.795  27.899  1.00  0.00    -0.237 OA
ATOM     92  O   UNL A   1      53.010  31.136  27.113  1.00  0.00    -0.237 OA
ATOM     93  O   UNL A   1      53.324  30.629  29.504  1.00  0.00    -0.744 OA
ENDBRANCH  89  90
ENDBRANCH  63  84
ENDBRANCH  37  38
ENDBRANCH  30  32
ENDBRANCH  29  30
ENDBRANCH  28  29
ENDBRANCH  27  28
ENDBRANCH  26  27
ENDBRANCH  25  26
ENDBRANCH  24  25
ENDBRANCH   1  24
TORSDOF 27
ENDMDL
