MODEL 1
REMARK VINA RESULT:      -4.7      0.000      0.000
REMARK SMILES CCCC[C@@H](Sc1nc(OCCC2CCCCC2)cc(OCCC2CCCCC2)n1)C(=O)OCCOCCOCCOCCOC(=O)c1ccc(-c2c3nc(c(-c4ccc(S(=O)(=O)[O-])cc4)c4ccc([nH]4)c(-c4ccc(S(=O)(=O)[O-])cc4)c4nc(c(-c5ccc(S(=O)(=O)[O-])cc5)c5ccc2[nH]5)C=C4)C=C3)cc1
REMARK SMILES IDX 37 1 36 2 35 3 34 4 33 5 31 6 32 7 5 8 4 9 3 10 2 11 1 12
REMARK SMILES IDX 6 13 7 14 8 15 30 16 9 17 20 18 19 19 10 20 11 21 12 22
REMARK SMILES IDX 13 23 14 24 18 25 15 26 17 27 16 28 21 29 22 30 23 31 24 32
REMARK SMILES IDX 25 33 29 34 26 35 28 36 27 37 38 38 39 39 40 40 41 41 42 42
REMARK SMILES IDX 43 43 44 44 45 45 46 46 47 47 48 48 49 49 107 50 50 51
REMARK SMILES IDX 106 52 51 53 52 54 53 55 100 56 54 57 105 58 99 59 101 60
REMARK SMILES IDX 55 61 104 62 98 63 97 64 56 66 86 67 67 68 85 69 68 70 71 71
REMARK SMILES IDX 84 72 102 73 69 74 70 75 83 77 103 78 72 79 57 80 58 81
REMARK SMILES IDX 66 82 59 83 65 84 60 85 61 86 62 87 63 88 64 89 87 90 88 91
REMARK SMILES IDX 96 92 89 93 95 94 90 95 91 96 92 97 93 98 94 99 73 100
REMARK SMILES IDX 74 101 82 102 75 103 81 104 76 105 77 106 78 107 79 108
REMARK SMILES IDX 80 109
REMARK H PARENT 101 65 71 76
REMARK Flexibility Score: inf
ROOT
ATOM      1  C   UNL A   1      41.191  32.282  43.960  1.00  0.00     0.188 C 
ENDROOT
BRANCH   1   2
ATOM      2  O   UNL A   1      41.097  32.802  42.643  1.00  0.00    -0.376 OA
BRANCH   2   3
ATOM      3  C   UNL A   1      40.153  32.313  41.699  1.00  0.00     0.202 C 
BRANCH   3   4
ATOM      4  C   UNL A   1      39.556  33.193  40.593  1.00  0.00     0.261 C 
BRANCH   4   5
ATOM      5  O   UNL A   1      39.285  32.547  39.344  1.00  0.00    -0.462 OA
BRANCH   5   6
ATOM      6  C   UNL A   1      40.056  32.956  38.310  1.00  0.00     0.319 C 
ATOM      7  O   UNL A   1      41.079  33.628  38.434  1.00  0.00    -0.251 OA
BRANCH   6   8
ATOM      8  C   UNL A   1      39.503  32.592  36.942  1.00  0.00     0.164 C 
BRANCH   8   9
ATOM      9  C   UNL A   1      37.968  32.587  36.742  1.00  0.00     0.027 C 
BRANCH   9  10
ATOM     10  C   UNL A   1      37.461  32.790  35.295  1.00  0.00     0.001 C 
BRANCH  10  11
ATOM     11  C   UNL A   1      36.535  33.978  34.961  1.00  0.00    -0.003 C 
ATOM     12  C   UNL A   1      35.282  33.636  34.171  1.00  0.00     0.004 C 
ENDBRANCH  10  11
ENDBRANCH   9  10
ENDBRANCH   8   9
BRANCH   8  13
ATOM     13  S   UNL A   1      40.377  33.747  35.797  1.00  0.00    -0.071 SA
BRANCH  13  14
ATOM     14  C   UNL A   1      41.146  32.584  34.723  1.00  0.00     0.195 A 
ATOM     15  N   UNL A   1      41.120  32.865  33.419  1.00  0.00    -0.187 NA
ATOM     16  N   UNL A   1      41.559  31.426  35.246  1.00  0.00    -0.187 NA
ATOM     17  C   UNL A   1      41.344  31.846  32.592  1.00  0.00     0.221 A 
ATOM     18  C   UNL A   1      41.750  30.418  34.405  1.00  0.00     0.221 A 
ATOM     19  C   UNL A   1      41.523  30.571  33.066  1.00  0.00     0.136 A 
BRANCH  17  20
ATOM     20  O   UNL A   1      41.477  32.229  31.286  1.00  0.00    -0.477 OA
BRANCH  20  21
ATOM     21  C   UNL A   1      40.368  32.175  30.398  1.00  0.00     0.231 C 
BRANCH  21  22
ATOM     22  C   UNL A   1      39.229  31.195  30.775  1.00  0.00     0.045 C 
BRANCH  22  23
ATOM     23  C   UNL A   1      39.242  29.854  30.034  1.00  0.00    -0.008 C 
ATOM     24  C   UNL A   1      40.378  29.659  29.026  1.00  0.00     0.004 C 
ATOM     25  C   UNL A   1      39.193  28.659  30.991  1.00  0.00     0.004 C 
ATOM     26  C   UNL A   1      40.128  28.378  28.213  1.00  0.00     0.000 C 
ATOM     27  C   UNL A   1      38.870  27.385  30.222  1.00  0.00     0.000 C 
ATOM     28  C   UNL A   1      39.849  27.144  29.076  1.00  0.00     0.000 C 
ENDBRANCH  22  23
ENDBRANCH  21  22
ENDBRANCH  20  21
ENDBRANCH  17  20
BRANCH  18  29
ATOM     29  O   UNL A   1      42.066  29.255  35.040  1.00  0.00    -0.477 OA
BRANCH  29  30
ATOM     30  C   UNL A   1      42.172  28.047  34.302  1.00  0.00     0.231 C 
BRANCH  30  31
ATOM     31  C   UNL A   1      42.842  26.898  35.078  1.00  0.00     0.045 C 
BRANCH  31  32
ATOM     32  C   UNL A   1      43.020  25.511  34.402  1.00  0.00    -0.008 C 
ATOM     33  C   UNL A   1      44.260  25.463  33.514  1.00  0.00     0.004 C 
ATOM     34  C   UNL A   1      42.831  24.330  35.366  1.00  0.00     0.004 C 
ATOM     35  C   UNL A   1      44.679  24.066  33.105  1.00  0.00     0.000 C 
ATOM     36  C   UNL A   1      43.775  23.126  35.251  1.00  0.00     0.000 C 
ATOM     37  C   UNL A   1      44.991  23.258  34.347  1.00  0.00     0.000 C 
ENDBRANCH  31  32
ENDBRANCH  30  31
ENDBRANCH  29  30
ENDBRANCH  18  29
ENDBRANCH  13  14
ENDBRANCH   8  13
ENDBRANCH   6   8
ENDBRANCH   5   6
ENDBRANCH   4   5
ENDBRANCH   3   4
ENDBRANCH   2   3
ENDBRANCH   1   2
BRANCH   1  38
ATOM     38  C   UNL A   1      41.212  30.773  44.228  1.00  0.00     0.188 C 
BRANCH  38  39
ATOM     39  O   UNL A   1      42.379  30.295  44.860  1.00  0.00    -0.377 OA
BRANCH  39  40
ATOM     40  C   UNL A   1      43.483  29.947  44.033  1.00  0.00     0.188 C 
BRANCH  40  41
ATOM     41  C   UNL A   1      44.190  28.609  44.315  1.00  0.00     0.188 C 
BRANCH  41  42
ATOM     42  O   UNL A   1      45.606  28.724  44.405  1.00  0.00    -0.376 OA
BRANCH  42  43
ATOM     43  C   UNL A   1      46.395  27.701  43.813  1.00  0.00     0.202 C 
BRANCH  43  44
ATOM     44  C   UNL A   1      47.135  28.049  42.509  1.00  0.00     0.261 C 
BRANCH  44  45
ATOM     45  O   UNL A   1      46.356  28.033  41.299  1.00  0.00    -0.460 OA
BRANCH  45  46
ATOM     46  C   UNL A   1      46.799  27.307  40.256  1.00  0.00     0.338 C 
ATOM     47  O   UNL A   1      47.275  26.179  40.294  1.00  0.00    -0.246 OA
BRANCH  46  48
ATOM     48  C   UNL A   1      46.432  28.012  39.014  1.00  0.00     0.060 A 
ATOM     49  C   UNL A   1      47.436  28.652  38.276  1.00  0.00     0.016 A 
ATOM     50  C   UNL A   1      45.101  28.069  38.595  1.00  0.00     0.016 A 
ATOM     51  C   UNL A   1      47.105  29.400  37.146  1.00  0.00     0.010 A 
ATOM     52  C   UNL A   1      44.767  28.836  37.474  1.00  0.00     0.010 A 
ATOM     53  C   UNL A   1      45.762  29.542  36.774  1.00  0.00    -0.014 A 
BRANCH  53  54
ATOM     54  C   UNL A   1      45.378  30.607  35.814  1.00  0.00     0.031 A 
ATOM     55  C   UNL A   1      45.364  30.264  34.347  1.00  0.00     0.074 A 
ATOM     56  C   UNL A   1      45.020  31.836  36.226  1.00  0.00     0.049 A 
ATOM     57  N   UNL A   1      45.105  31.028  33.318  1.00  0.00    -0.248 NA
ATOM     58  C   UNL A   1      45.688  28.870  33.995  1.00  0.00     0.031 C 
ATOM     59  C   UNL A   1      44.939  32.274  37.618  1.00  0.00     0.029 A 
ATOM     60  N   UNL A   1      44.661  32.944  35.500  1.00  0.00    -0.354 N 
ATOM     61  C   UNL A   1      45.246  30.212  32.200  1.00  0.00     0.074 A 
ATOM     62  C   UNL A   1      45.643  28.905  32.673  1.00  0.00     0.031 C 
ATOM     63  C   UNL A   1      44.560  33.565  37.645  1.00  0.00     0.029 A 
ATOM     64  C   UNL A   1      44.409  34.053  36.274  1.00  0.00     0.049 A 
ATOM     65  H   UNL A   1      44.590  32.946  34.519  1.00  0.00     0.167 HD
ATOM     66  C   UNL A   1      45.058  30.521  30.895  1.00  0.00     0.031 A 
ATOM     67  C   UNL A   1      44.113  35.318  35.915  1.00  0.00     0.031 A 
ATOM     68  C   UNL A   1      44.676  31.825  30.426  1.00  0.00     0.049 A 
ATOM     69  C   UNL A   1      43.990  35.661  34.451  1.00  0.00     0.074 A 
ATOM     70  C   UNL A   1      44.452  32.239  29.125  1.00  0.00     0.029 A 
ATOM     71  N   UNL A   1      44.471  32.930  31.239  1.00  0.00    -0.354 N 
ATOM     72  N   UNL A   1      44.108  34.876  33.405  1.00  0.00    -0.248 NA
ATOM     73  C   UNL A   1      43.684  37.060  34.118  1.00  0.00     0.031 C 
ATOM     74  C   UNL A   1      44.173  33.610  29.146  1.00  0.00     0.029 A 
ATOM     75  C   UNL A   1      44.150  34.033  30.465  1.00  0.00     0.049 A 
ATOM     76  H   UNL A   1      44.541  32.930  32.221  1.00  0.00     0.167 HD
ATOM     77  C   UNL A   1      43.857  35.679  32.296  1.00  0.00     0.074 A 
ATOM     78  C   UNL A   1      43.570  37.006  32.798  1.00  0.00     0.031 C 
ATOM     79  C   UNL A   1      43.861  35.347  30.980  1.00  0.00     0.031 A 
BRANCH  66  80
ATOM     80  C   UNL A   1      45.301  29.435  29.880  1.00  0.00    -0.014 A 
ATOM     81  C   UNL A   1      46.585  29.198  29.355  1.00  0.00     0.010 A 
ATOM     82  C   UNL A   1      44.232  28.620  29.468  1.00  0.00     0.010 A 
ATOM     83  C   UNL A   1      46.787  28.188  28.411  1.00  0.00     0.020 A 
ATOM     84  C   UNL A   1      44.436  27.589  28.547  1.00  0.00     0.020 A 
ATOM     85  C   UNL A   1      45.710  27.390  28.013  1.00  0.00     0.054 A 
BRANCH  85  86
ATOM     86  S   UNL A   1      46.006  26.070  26.804  1.00  0.00     0.124 S 
ATOM     87  O   UNL A   1      47.315  26.438  26.271  1.00  0.00    -0.237 OA
ATOM     88  O   UNL A   1      45.980  24.868  27.633  1.00  0.00    -0.237 OA
ATOM     89  O   UNL A   1      44.893  26.201  25.866  1.00  0.00    -0.744 OA
ENDBRANCH  85  86
ENDBRANCH  66  80
BRANCH  67  90
ATOM     90  C   UNL A   1      43.932  36.369  36.957  1.00  0.00    -0.014 A 
ATOM     91  C   UNL A   1      42.693  36.541  37.600  1.00  0.00     0.010 A 
ATOM     92  C   UNL A   1      45.001  37.218  37.300  1.00  0.00     0.010 A 
ATOM     93  C   UNL A   1      42.521  37.554  38.549  1.00  0.00     0.020 A 
ATOM     94  C   UNL A   1      44.842  38.212  38.270  1.00  0.00     0.020 A 
ATOM     95  C   UNL A   1      43.599  38.381  38.880  1.00  0.00     0.054 A 
BRANCH  95  96
ATOM     96  S   UNL A   1      43.362  39.662  40.144  1.00  0.00     0.124 S 
ATOM     97  O   UNL A   1      42.993  40.821  39.337  1.00  0.00    -0.237 OA
ATOM     98  O   UNL A   1      42.295  39.097  40.966  1.00  0.00    -0.237 OA
ATOM     99  O   UNL A   1      44.667  39.744  40.797  1.00  0.00    -0.744 OA
ENDBRANCH  95  96
ENDBRANCH  67  90
BRANCH  79 100
ATOM    100  C   UNL A   1      43.498  36.420  29.986  1.00  0.00    -0.014 A 
ATOM    101  C   UNL A   1      44.295  37.566  29.815  1.00  0.00     0.010 A 
ATOM    102  C   UNL A   1      42.371  36.243  29.160  1.00  0.00     0.010 A 
ATOM    103  C   UNL A   1      43.954  38.530  28.861  1.00  0.00     0.020 A 
ATOM    104  C   UNL A   1      42.044  37.188  28.184  1.00  0.00     0.020 A 
ATOM    105  C   UNL A   1      42.830  38.333  28.051  1.00  0.00     0.054 A 
BRANCH 105 106
ATOM    106  S   UNL A   1      42.435  39.576  26.790  1.00  0.00     0.124 S 
ATOM    107  O   UNL A   1      41.265  38.991  26.142  1.00  0.00    -0.237 OA
ATOM    108  O   UNL A   1      42.180  40.772  27.590  1.00  0.00    -0.237 OA
ATOM    109  O   UNL A   1      43.641  39.631  25.966  1.00  0.00    -0.744 OA
ENDBRANCH 105 106
ENDBRANCH  79 100
ENDBRANCH  53  54
ENDBRANCH  46  48
ENDBRANCH  45  46
ENDBRANCH  44  45
ENDBRANCH  43  44
ENDBRANCH  42  43
ENDBRANCH  41  42
ENDBRANCH  40  41
ENDBRANCH  39  40
ENDBRANCH  38  39
ENDBRANCH   1  38
TORSDOF 36
ENDMDL
MODEL 2
REMARK VINA RESULT:      -4.5      4.492      8.008
REMARK SMILES CCCC[C@@H](Sc1nc(OCCC2CCCCC2)cc(OCCC2CCCCC2)n1)C(=O)OCCOCCOCCOCCOC(=O)c1ccc(-c2c3nc(c(-c4ccc(S(=O)(=O)[O-])cc4)c4ccc([nH]4)c(-c4ccc(S(=O)(=O)[O-])cc4)c4nc(c(-c5ccc(S(=O)(=O)[O-])cc5)c5ccc2[nH]5)C=C4)C=C3)cc1
REMARK SMILES IDX 37 1 36 2 35 3 34 4 33 5 31 6 32 7 5 8 4 9 3 10 2 11 1 12
REMARK SMILES IDX 6 13 7 14 8 15 30 16 9 17 20 18 19 19 10 20 11 21 12 22
REMARK SMILES IDX 13 23 14 24 18 25 15 26 17 27 16 28 21 29 22 30 23 31 24 32
REMARK SMILES IDX 25 33 29 34 26 35 28 36 27 37 38 38 39 39 40 40 41 41 42 42
REMARK SMILES IDX 43 43 44 44 45 45 46 46 47 47 48 48 49 49 107 50 50 51
REMARK SMILES IDX 106 52 51 53 52 54 53 55 100 56 54 57 105 58 99 59 101 60
REMARK SMILES IDX 55 61 104 62 98 63 97 64 56 66 86 67 67 68 85 69 68 70 71 71
REMARK SMILES IDX 84 72 102 73 69 74 70 75 83 77 103 78 72 79 57 80 58 81
REMARK SMILES IDX 66 82 59 83 65 84 60 85 61 86 62 87 63 88 64 89 87 90 88 91
REMARK SMILES IDX 96 92 89 93 95 94 90 95 91 96 92 97 93 98 94 99 73 100
REMARK SMILES IDX 74 101 82 102 75 103 81 104 76 105 77 106 78 107 79 108
REMARK SMILES IDX 80 109
REMARK H PARENT 101 65 71 76
REMARK Flexibility Score: inf
ROOT
ATOM      1  C   UNL A   1      42.235  27.001  35.082  1.00  0.00     0.188 C 
ENDROOT
BRANCH   1   2
ATOM      2  O   UNL A   1      41.521  27.757  34.117  1.00  0.00    -0.376 OA
BRANCH   2   3
ATOM      3  C   UNL A   1      41.004  29.052  34.397  1.00  0.00     0.202 C 
BRANCH   3   4
ATOM      4  C   UNL A   1      40.771  30.104  33.305  1.00  0.00     0.261 C 
BRANCH   4   5
ATOM      5  O   UNL A   1      39.916  31.201  33.652  1.00  0.00    -0.462 OA
BRANCH   5   6
ATOM      6  C   UNL A   1      38.610  31.024  33.348  1.00  0.00     0.319 C 
ATOM      7  O   UNL A   1      37.776  30.555  34.122  1.00  0.00    -0.251 OA
BRANCH   6   8
ATOM      8  C   UNL A   1      38.255  31.374  31.912  1.00  0.00     0.164 C 
BRANCH   8   9
ATOM      9  C   UNL A   1      39.248  32.234  31.093  1.00  0.00     0.027 C 
BRANCH   9  10
ATOM     10  C   UNL A   1      38.931  32.407  29.589  1.00  0.00     0.001 C 
BRANCH  10  11
ATOM     11  C   UNL A   1      38.438  33.768  29.056  1.00  0.00    -0.003 C 
ATOM     12  C   UNL A   1      39.134  34.992  29.629  1.00  0.00     0.004 C 
ENDBRANCH  10  11
ENDBRANCH   9  10
ENDBRANCH   8   9
BRANCH   8  13
ATOM     13  S   UNL A   1      37.906  29.736  31.137  1.00  0.00    -0.071 SA
BRANCH  13  14
ATOM     14  C   UNL A   1      36.518  30.159  30.143  1.00  0.00     0.195 A 
ATOM     15  N   UNL A   1      36.341  29.448  29.027  1.00  0.00    -0.187 NA
ATOM     16  N   UNL A   1      35.826  31.256  30.467  1.00  0.00    -0.187 NA
ATOM     17  C   UNL A   1      35.552  29.991  28.101  1.00  0.00     0.221 A 
ATOM     18  C   UNL A   1      35.069  31.793  29.519  1.00  0.00     0.221 A 
ATOM     19  C   UNL A   1      35.013  31.241  28.270  1.00  0.00     0.136 A 
BRANCH  17  20
ATOM     20  O   UNL A   1      35.272  29.143  27.066  1.00  0.00    -0.477 OA
BRANCH  20  21
ATOM     21  C   UNL A   1      33.928  28.800  26.753  1.00  0.00     0.231 C 
BRANCH  21  22
ATOM     22  C   UNL A   1      33.727  27.776  25.608  1.00  0.00     0.045 C 
BRANCH  22  23
ATOM     23  C   UNL A   1      33.460  26.334  26.053  1.00  0.00    -0.008 C 
ATOM     24  C   UNL A   1      31.997  25.884  26.016  1.00  0.00     0.004 C 
ATOM     25  C   UNL A   1      34.329  25.321  25.303  1.00  0.00     0.004 C 
ATOM     26  C   UNL A   1      31.865  24.511  26.696  1.00  0.00     0.000 C 
ATOM     27  C   UNL A   1      34.279  23.969  26.001  1.00  0.00     0.000 C 
ATOM     28  C   UNL A   1      32.848  23.464  26.166  1.00  0.00     0.000 C 
ENDBRANCH  22  23
ENDBRANCH  21  22
ENDBRANCH  20  21
ENDBRANCH  17  20
BRANCH  18  29
ATOM     29  O   UNL A   1      34.488  32.962  29.909  1.00  0.00    -0.477 OA
BRANCH  29  30
ATOM     30  C   UNL A   1      35.294  34.056  30.316  1.00  0.00     0.231 C 
BRANCH  30  31
ATOM     31  C   UNL A   1      35.605  34.076  31.825  1.00  0.00     0.045 C 
BRANCH  31  32
ATOM     32  C   UNL A   1      34.643  34.805  32.801  1.00  0.00    -0.008 C 
ATOM     33  C   UNL A   1      34.853  36.317  32.788  1.00  0.00     0.004 C 
ATOM     34  C   UNL A   1      33.187  34.323  32.703  1.00  0.00     0.004 C 
ATOM     35  C   UNL A   1      33.738  37.106  33.443  1.00  0.00     0.000 C 
ATOM     36  C   UNL A   1      32.060  35.361  32.778  1.00  0.00     0.000 C 
ATOM     37  C   UNL A   1      32.440  36.832  32.714  1.00  0.00     0.000 C 
ENDBRANCH  31  32
ENDBRANCH  30  31
ENDBRANCH  29  30
ENDBRANCH  18  29
ENDBRANCH  13  14
ENDBRANCH   8  13
ENDBRANCH   6   8
ENDBRANCH   5   6
ENDBRANCH   4   5
ENDBRANCH   3   4
ENDBRANCH   2   3
ENDBRANCH   1   2
BRANCH   1  38
ATOM     38  C   UNL A   1      43.195  25.879  34.673  1.00  0.00     0.188 C 
BRANCH  38  39
ATOM     39  O   UNL A   1      43.230  24.774  35.548  1.00  0.00    -0.377 OA
BRANCH  39  40
ATOM     40  C   UNL A   1      43.286  25.039  36.945  1.00  0.00     0.188 C 
BRANCH  40  41
ATOM     41  C   UNL A   1      44.667  25.335  37.558  1.00  0.00     0.188 C 
BRANCH  41  42
ATOM     42  O   UNL A   1      45.737  24.671  36.893  1.00  0.00    -0.376 OA
BRANCH  42  43
ATOM     43  C   UNL A   1      46.474  25.404  35.924  1.00  0.00     0.202 C 
BRANCH  43  44
ATOM     44  C   UNL A   1      46.730  24.720  34.570  1.00  0.00     0.261 C 
BRANCH  44  45
ATOM     45  O   UNL A   1      46.531  25.521  33.392  1.00  0.00    -0.460 OA
BRANCH  45  46
ATOM     46  C   UNL A   1      47.612  25.994  32.744  1.00  0.00     0.338 C 
ATOM     47  O   UNL A   1      48.520  25.337  32.250  1.00  0.00    -0.246 OA
BRANCH  46  48
ATOM     48  C   UNL A   1      47.430  27.444  32.541  1.00  0.00     0.060 A 
ATOM     49  C   UNL A   1      48.153  28.337  33.344  1.00  0.00     0.016 A 
ATOM     50  C   UNL A   1      46.529  27.922  31.586  1.00  0.00     0.016 A 
ATOM     51  C   UNL A   1      47.934  29.710  33.234  1.00  0.00     0.010 A 
ATOM     52  C   UNL A   1      46.296  29.297  31.490  1.00  0.00     0.010 A 
ATOM     53  C   UNL A   1      46.964  30.192  32.346  1.00  0.00    -0.014 A 
BRANCH  53  54
ATOM     54  C   UNL A   1      46.478  31.588  32.482  1.00  0.00     0.031 A 
ATOM     55  C   UNL A   1      47.131  32.648  31.633  1.00  0.00     0.074 A 
ATOM     56  C   UNL A   1      45.468  31.909  33.308  1.00  0.00     0.049 A 
ATOM     57  N   UNL A   1      46.913  33.937  31.600  1.00  0.00    -0.248 NA
ATOM     58  C   UNL A   1      48.171  32.190  30.695  1.00  0.00     0.031 C 
ATOM     59  C   UNL A   1      44.719  30.968  34.139  1.00  0.00     0.029 A 
ATOM     60  N   UNL A   1      44.903  33.129  33.585  1.00  0.00    -0.354 N 
ATOM     61  C   UNL A   1      47.795  34.442  30.651  1.00  0.00     0.074 A 
ATOM     62  C   UNL A   1      48.571  33.329  30.152  1.00  0.00     0.031 C 
ATOM     63  C   UNL A   1      43.794  31.649  34.840  1.00  0.00     0.029 A 
ATOM     64  C   UNL A   1      43.911  33.075  34.536  1.00  0.00     0.049 A 
ATOM     65  H   UNL A   1      45.180  33.964  33.144  1.00  0.00     0.167 HD
ATOM     66  C   UNL A   1      47.943  35.720  30.226  1.00  0.00     0.031 A 
ATOM     67  C   UNL A   1      43.197  34.065  35.109  1.00  0.00     0.031 A 
ATOM     68  C   UNL A   1      47.179  36.827  30.732  1.00  0.00     0.049 A 
ATOM     69  C   UNL A   1      43.437  35.492  34.681  1.00  0.00     0.074 A 
ATOM     70  C   UNL A   1      47.248  38.159  30.362  1.00  0.00     0.029 A 
ATOM     71  N   UNL A   1      46.214  36.736  31.723  1.00  0.00    -0.354 N 
ATOM     72  N   UNL A   1      44.261  35.955  33.769  1.00  0.00    -0.248 NA
ATOM     73  C   UNL A   1      42.644  36.531  35.354  1.00  0.00     0.031 C 
ATOM     74  C   UNL A   1      46.368  38.883  31.174  1.00  0.00     0.029 A 
ATOM     75  C   UNL A   1      45.699  37.992  31.998  1.00  0.00     0.049 A 
ATOM     76  H   UNL A   1      45.935  35.902  32.165  1.00  0.00     0.167 HD
ATOM     77  C   UNL A   1      44.059  37.331  33.736  1.00  0.00     0.074 A 
ATOM     78  C   UNL A   1      43.028  37.625  34.710  1.00  0.00     0.031 C 
ATOM     79  C   UNL A   1      44.668  38.268  32.967  1.00  0.00     0.031 A 
BRANCH  66  80
ATOM     80  C   UNL A   1      49.000  35.990  29.187  1.00  0.00    -0.014 A 
ATOM     81  C   UNL A   1      50.332  36.256  29.550  1.00  0.00     0.010 A 
ATOM     82  C   UNL A   1      48.657  35.948  27.823  1.00  0.00     0.010 A 
ATOM     83  C   UNL A   1      51.296  36.508  28.570  1.00  0.00     0.020 A 
ATOM     84  C   UNL A   1      49.624  36.170  26.839  1.00  0.00     0.020 A 
ATOM     85  C   UNL A   1      50.934  36.464  27.220  1.00  0.00     0.054 A 
BRANCH  85  86
ATOM     86  S   UNL A   1      52.210  36.772  25.968  1.00  0.00     0.124 S 
ATOM     87  O   UNL A   1      52.957  35.517  25.984  1.00  0.00    -0.237 OA
ATOM     88  O   UNL A   1      51.422  37.018  24.763  1.00  0.00    -0.237 OA
ATOM     89  O   UNL A   1      52.933  37.932  26.485  1.00  0.00    -0.744 OA
ENDBRANCH  85  86
ENDBRANCH  66  80
BRANCH  67  90
ATOM     90  C   UNL A   1      42.199  33.751  36.170  1.00  0.00    -0.014 A 
ATOM     91  C   UNL A   1      40.847  33.535  35.847  1.00  0.00     0.010 A 
ATOM     92  C   UNL A   1      42.596  33.681  37.519  1.00  0.00     0.010 A 
ATOM     93  C   UNL A   1      39.910  33.278  36.853  1.00  0.00     0.020 A 
ATOM     94  C   UNL A   1      41.668  33.394  38.524  1.00  0.00     0.020 A 
ATOM     95  C   UNL A   1      40.328  33.206  38.185  1.00  0.00     0.054 A 
BRANCH  95  96
ATOM     96  S   UNL A   1      39.099  32.831  39.468  1.00  0.00     0.124 S 
ATOM     97  O   UNL A   1      38.542  34.150  39.751  1.00  0.00    -0.237 OA
ATOM     98  O   UNL A   1      38.207  31.899  38.784  1.00  0.00    -0.237 OA
ATOM     99  O   UNL A   1      39.897  32.244  40.544  1.00  0.00    -0.744 OA
ENDBRANCH  95  96
ENDBRANCH  67  90
BRANCH  79 100
ATOM    100  C   UNL A   1      44.208  39.697  33.106  1.00  0.00    -0.014 A 
ATOM    101  C   UNL A   1      44.727  40.544  34.101  1.00  0.00     0.010 A 
ATOM    102  C   UNL A   1      43.287  40.218  32.178  1.00  0.00     0.010 A 
ATOM    103  C   UNL A   1      44.308  41.875  34.187  1.00  0.00     0.020 A 
ATOM    104  C   UNL A   1      42.889  41.556  32.240  1.00  0.00     0.020 A 
ATOM    105  C   UNL A   1      43.392  42.373  33.254  1.00  0.00     0.054 A 
BRANCH 105 106
ATOM    106  S   UNL A   1      42.899  44.115  33.359  1.00  0.00     0.124 S 
ATOM    107  O   UNL A   1      42.111  44.135  34.588  1.00  0.00    -0.237 OA
ATOM    108  O   UNL A   1      44.184  44.808  33.424  1.00  0.00    -0.237 OA
ATOM    109  O   UNL A   1      42.141  44.337  32.130  1.00  0.00    -0.744 OA
ENDBRANCH 105 106
ENDBRANCH  79 100
ENDBRANCH  53  54
ENDBRANCH  46  48
ENDBRANCH  45  46
ENDBRANCH  44  45
ENDBRANCH  43  44
ENDBRANCH  42  43
ENDBRANCH  41  42
ENDBRANCH  40  41
ENDBRANCH  39  40
ENDBRANCH  38  39
ENDBRANCH   1  38
TORSDOF 36
ENDMDL
MODEL 3
REMARK VINA RESULT:      -4.4      3.435     10.214
REMARK SMILES CCCC[C@@H](Sc1nc(OCCC2CCCCC2)cc(OCCC2CCCCC2)n1)C(=O)OCCOCCOCCOCCOC(=O)c1ccc(-c2c3nc(c(-c4ccc(S(=O)(=O)[O-])cc4)c4ccc([nH]4)c(-c4ccc(S(=O)(=O)[O-])cc4)c4nc(c(-c5ccc(S(=O)(=O)[O-])cc5)c5ccc2[nH]5)C=C4)C=C3)cc1
REMARK SMILES IDX 37 1 36 2 35 3 34 4 33 5 31 6 32 7 5 8 4 9 3 10 2 11 1 12
REMARK SMILES IDX 6 13 7 14 8 15 30 16 9 17 20 18 19 19 10 20 11 21 12 22
REMARK SMILES IDX 13 23 14 24 18 25 15 26 17 27 16 28 21 29 22 30 23 31 24 32
REMARK SMILES IDX 25 33 29 34 26 35 28 36 27 37 38 38 39 39 40 40 41 41 42 42
REMARK SMILES IDX 43 43 44 44 45 45 46 46 47 47 48 48 49 49 107 50 50 51
REMARK SMILES IDX 106 52 51 53 52 54 53 55 100 56 54 57 105 58 99 59 101 60
REMARK SMILES IDX 55 61 104 62 98 63 97 64 56 66 86 67 67 68 85 69 68 70 71 71
REMARK SMILES IDX 84 72 102 73 69 74 70 75 83 77 103 78 72 79 57 80 58 81
REMARK SMILES IDX 66 82 59 83 65 84 60 85 61 86 62 87 63 88 64 89 87 90 88 91
REMARK SMILES IDX 96 92 89 93 95 94 90 95 91 96 92 97 93 98 94 99 73 100
REMARK SMILES IDX 74 101 82 102 75 103 81 104 76 105 77 106 78 107 79 108
REMARK SMILES IDX 80 109
REMARK H PARENT 101 65 71 76
REMARK Flexibility Score: inf
ROOT
ATOM      1  C   UNL A   1      41.398  28.279  30.662  1.00  0.00     0.188 C 
ENDROOT
BRANCH   1   2
ATOM      2  O   UNL A   1      42.264  27.661  29.723  1.00  0.00    -0.376 OA
BRANCH   2   3
ATOM      3  C   UNL A   1      43.537  28.200  29.394  1.00  0.00     0.202 C 
BRANCH   3   4
ATOM      4  C   UNL A   1      44.317  29.121  30.342  1.00  0.00     0.261 C 
BRANCH   4   5
ATOM      5  O   UNL A   1      44.366  30.507  29.984  1.00  0.00    -0.462 OA
BRANCH   5   6
ATOM      6  C   UNL A   1      45.033  31.299  30.855  1.00  0.00     0.319 C 
ATOM      7  O   UNL A   1      45.045  31.130  32.073  1.00  0.00    -0.251 OA
BRANCH   6   8
ATOM      8  C   UNL A   1      45.711  32.496  30.209  1.00  0.00     0.164 C 
BRANCH   8   9
ATOM      9  C   UNL A   1      45.596  33.875  30.904  1.00  0.00     0.027 C 
BRANCH   9  10
ATOM     10  C   UNL A   1      44.208  34.244  31.479  1.00  0.00     0.001 C 
BRANCH  10  11
ATOM     11  C   UNL A   1      44.040  34.487  32.993  1.00  0.00    -0.003 C 
ATOM     12  C   UNL A   1      43.225  35.711  33.378  1.00  0.00     0.004 C 
ENDBRANCH  10  11
ENDBRANCH   9  10
ENDBRANCH   8   9
BRANCH   8  13
ATOM     13  S   UNL A   1      47.457  31.942  29.988  1.00  0.00    -0.071 SA
BRANCH  13  14
ATOM     14  C   UNL A   1      47.345  31.213  28.391  1.00  0.00     0.195 A 
ATOM     15  N   UNL A   1      46.516  31.798  27.523  1.00  0.00    -0.187 NA
ATOM     16  N   UNL A   1      47.956  30.042  28.192  1.00  0.00    -0.187 NA
ATOM     17  C   UNL A   1      46.138  31.061  26.480  1.00  0.00     0.221 A 
ATOM     18  C   UNL A   1      47.543  29.314  27.163  1.00  0.00     0.221 A 
ATOM     19  C   UNL A   1      46.532  29.752  26.355  1.00  0.00     0.136 A 
BRANCH  17  20
ATOM     20  O   UNL A   1      45.436  31.768  25.544  1.00  0.00    -0.477 OA
BRANCH  20  21
ATOM     21  C   UNL A   1      44.346  32.596  25.929  1.00  0.00     0.231 C 
BRANCH  21  22
ATOM     22  C   UNL A   1      44.577  34.125  25.841  1.00  0.00     0.045 C 
BRANCH  22  23
ATOM     23  C   UNL A   1      43.620  34.985  26.675  1.00  0.00    -0.008 C 
ATOM     24  C   UNL A   1      43.186  34.389  28.017  1.00  0.00     0.004 C 
ATOM     25  C   UNL A   1      44.149  36.405  26.890  1.00  0.00     0.004 C 
ATOM     26  C   UNL A   1      42.068  35.252  28.624  1.00  0.00     0.000 C 
ATOM     27  C   UNL A   1      43.039  37.304  27.418  1.00  0.00     0.000 C 
ATOM     28  C   UNL A   1      42.407  36.744  28.689  1.00  0.00     0.000 C 
ENDBRANCH  22  23
ENDBRANCH  21  22
ENDBRANCH  20  21
ENDBRANCH  17  20
BRANCH  18  29
ATOM     29  O   UNL A   1      48.148  28.094  27.104  1.00  0.00    -0.477 OA
BRANCH  29  30
ATOM     30  C   UNL A   1      48.315  27.324  28.284  1.00  0.00     0.231 C 
BRANCH  30  31
ATOM     31  C   UNL A   1      48.070  25.816  28.087  1.00  0.00     0.045 C 
BRANCH  31  32
ATOM     32  C   UNL A   1      46.845  25.335  27.263  1.00  0.00    -0.008 C 
ATOM     33  C   UNL A   1      47.262  24.673  25.953  1.00  0.00     0.004 C 
ATOM     34  C   UNL A   1      45.801  24.580  28.100  1.00  0.00     0.004 C 
ATOM     35  C   UNL A   1      46.161  23.885  25.274  1.00  0.00     0.000 C 
ATOM     36  C   UNL A   1      45.132  23.337  27.498  1.00  0.00     0.000 C 
ATOM     37  C   UNL A   1      45.697  22.781  26.201  1.00  0.00     0.000 C 
ENDBRANCH  31  32
ENDBRANCH  30  31
ENDBRANCH  29  30
ENDBRANCH  18  29
ENDBRANCH  13  14
ENDBRANCH   8  13
ENDBRANCH   6   8
ENDBRANCH   5   6
ENDBRANCH   4   5
ENDBRANCH   3   4
ENDBRANCH   2   3
ENDBRANCH   1   2
BRANCH   1  38
ATOM     38  C   UNL A   1      39.911  27.921  30.740  1.00  0.00     0.188 C 
BRANCH  38  39
ATOM     39  O   UNL A   1      39.162  28.676  31.667  1.00  0.00    -0.377 OA
BRANCH  39  40
ATOM     40  C   UNL A   1      37.860  29.096  31.277  1.00  0.00     0.188 C 
BRANCH  40  41
ATOM     41  C   UNL A   1      37.458  28.897  29.804  1.00  0.00     0.188 C 
BRANCH  41  42
ATOM     42  O   UNL A   1      36.226  29.525  29.463  1.00  0.00    -0.376 OA
BRANCH  42  43
ATOM     43  C   UNL A   1      36.247  30.917  29.178  1.00  0.00     0.202 C 
BRANCH  43  44
ATOM     44  C   UNL A   1      35.701  31.865  30.260  1.00  0.00     0.261 C 
BRANCH  44  45
ATOM     45  O   UNL A   1      36.151  33.230  30.212  1.00  0.00    -0.460 OA
BRANCH  45  46
ATOM     46  C   UNL A   1      37.443  33.474  29.924  1.00  0.00     0.338 C 
ATOM     47  O   UNL A   1      37.925  33.674  28.815  1.00  0.00    -0.246 OA
BRANCH  46  48
ATOM     48  C   UNL A   1      38.171  33.665  31.192  1.00  0.00     0.060 A 
ATOM     49  C   UNL A   1      39.496  34.119  31.152  1.00  0.00     0.016 A 
ATOM     50  C   UNL A   1      37.562  33.367  32.414  1.00  0.00     0.016 A 
ATOM     51  C   UNL A   1      40.235  34.223  32.330  1.00  0.00     0.010 A 
ATOM     52  C   UNL A   1      38.310  33.453  33.592  1.00  0.00     0.010 A 
ATOM     53  C   UNL A   1      39.663  33.837  33.548  1.00  0.00    -0.014 A 
BRANCH  53  54
ATOM     54  C   UNL A   1      40.536  33.603  34.725  1.00  0.00     0.031 A 
ATOM     55  C   UNL A   1      41.337  32.327  34.769  1.00  0.00     0.074 A 
ATOM     56  C   UNL A   1      40.646  34.506  35.716  1.00  0.00     0.049 A 
ATOM     57  N   UNL A   1      42.135  31.879  35.703  1.00  0.00    -0.248 NA
ATOM     58  C   UNL A   1      41.217  31.437  33.600  1.00  0.00     0.031 C 
ATOM     59  C   UNL A   1      39.970  35.800  35.763  1.00  0.00     0.029 A 
ATOM     60  N   UNL A   1      41.373  34.461  36.880  1.00  0.00    -0.354 N 
ATOM     61  C   UNL A   1      42.601  30.653  35.240  1.00  0.00     0.074 A 
ATOM     62  C   UNL A   1      41.976  30.413  33.959  1.00  0.00     0.031 C 
ATOM     63  C   UNL A   1      40.308  36.426  36.906  1.00  0.00     0.029 A 
ATOM     64  C   UNL A   1      41.193  35.561  37.686  1.00  0.00     0.049 A 
ATOM     65  H   UNL A   1      41.966  33.712  37.117  1.00  0.00     0.167 HD
ATOM     66  C   UNL A   1      43.478  29.803  35.826  1.00  0.00     0.031 A 
ATOM     67  C   UNL A   1      41.672  35.827  38.917  1.00  0.00     0.031 A 
ATOM     68  C   UNL A   1      44.089  30.037  37.106  1.00  0.00     0.049 A 
ATOM     69  C   UNL A   1      42.581  34.827  39.589  1.00  0.00     0.074 A 
ATOM     70  C   UNL A   1      44.996  29.241  37.784  1.00  0.00     0.029 A 
ATOM     71  N   UNL A   1      43.849  31.144  37.907  1.00  0.00    -0.354 N 
ATOM     72  N   UNL A   1      43.029  33.680  39.133  1.00  0.00    -0.248 NA
ATOM     73  C   UNL A   1      43.057  35.162  40.939  1.00  0.00     0.031 C 
ATOM     74  C   UNL A   1      45.257  29.836  39.023  1.00  0.00     0.029 A 
ATOM     75  C   UNL A   1      44.570  31.038  39.085  1.00  0.00     0.049 A 
ATOM     76  H   UNL A   1      43.256  31.893  37.673  1.00  0.00     0.167 HD
ATOM     77  C   UNL A   1      43.865  33.176  40.125  1.00  0.00     0.074 A 
ATOM     78  C   UNL A   1      43.869  34.146  41.200  1.00  0.00     0.031 C 
ATOM     79  C   UNL A   1      44.568  32.016  40.144  1.00  0.00     0.031 A 
BRANCH  66  80
ATOM     80  C   UNL A   1      43.796  28.521  35.102  1.00  0.00    -0.014 A 
ATOM     81  C   UNL A   1      43.074  27.340  35.352  1.00  0.00     0.010 A 
ATOM     82  C   UNL A   1      44.815  28.508  34.132  1.00  0.00     0.010 A 
ATOM     83  C   UNL A   1      43.389  26.161  34.670  1.00  0.00     0.020 A 
ATOM     84  C   UNL A   1      45.113  27.339  33.428  1.00  0.00     0.020 A 
ATOM     85  C   UNL A   1      44.408  26.169  33.713  1.00  0.00     0.054 A 
BRANCH  85  86
ATOM     86  S   UNL A   1      44.779  24.630  32.827  1.00  0.00     0.124 S 
ATOM     87  O   UNL A   1      43.710  23.750  33.291  1.00  0.00    -0.237 OA
ATOM     88  O   UNL A   1      44.692  25.040  31.427  1.00  0.00    -0.237 OA
ATOM     89  O   UNL A   1      46.120  24.277  33.288  1.00  0.00    -0.744 OA
ENDBRANCH  85  86
ENDBRANCH  66  80
BRANCH  67  90
ATOM     90  C   UNL A   1      41.286  37.087  39.614  1.00  0.00    -0.014 A 
ATOM     91  C   UNL A   1      40.096  37.162  40.361  1.00  0.00     0.010 A 
ATOM     92  C   UNL A   1      42.104  38.228  39.521  1.00  0.00     0.010 A 
ATOM     93  C   UNL A   1      39.722  38.358  40.981  1.00  0.00     0.020 A 
ATOM     94  C   UNL A   1      41.749  39.417  40.165  1.00  0.00     0.020 A 
ATOM     95  C   UNL A   1      40.553  39.478  40.881  1.00  0.00     0.054 A 
BRANCH  95  96
ATOM     96  S   UNL A   1      40.066  41.007  41.729  1.00  0.00     0.124 S 
ATOM     97  O   UNL A   1      41.304  41.391  42.400  1.00  0.00    -0.237 OA
ATOM     98  O   UNL A   1      39.656  41.864  40.619  1.00  0.00    -0.237 OA
ATOM     99  O   UNL A   1      38.982  40.579  42.611  1.00  0.00    -0.744 OA
ENDBRANCH  95  96
ENDBRANCH  67  90
BRANCH  79 100
ATOM    100  C   UNL A   1      45.443  31.746  41.342  1.00  0.00    -0.014 A 
ATOM    101  C   UNL A   1      44.999  30.954  42.415  1.00  0.00     0.010 A 
ATOM    102  C   UNL A   1      46.760  32.244  41.360  1.00  0.00     0.010 A 
ATOM    103  C   UNL A   1      45.843  30.691  43.498  1.00  0.00     0.020 A 
ATOM    104  C   UNL A   1      47.618  31.958  42.425  1.00  0.00     0.020 A 
ATOM    105  C   UNL A   1      47.148  31.195  43.495  1.00  0.00     0.054 A 
BRANCH 105 106
ATOM    106  S   UNL A   1      48.238  30.802  44.891  1.00  0.00     0.124 S 
ATOM    107  O   UNL A   1      49.489  30.467  44.216  1.00  0.00    -0.237 OA
ATOM    108  O   UNL A   1      48.248  32.050  45.650  1.00  0.00    -0.237 OA
ATOM    109  O   UNL A   1      47.568  29.683  45.551  1.00  0.00    -0.744 OA
ENDBRANCH 105 106
ENDBRANCH  79 100
ENDBRANCH  53  54
ENDBRANCH  46  48
ENDBRANCH  45  46
ENDBRANCH  44  45
ENDBRANCH  43  44
ENDBRANCH  42  43
ENDBRANCH  41  42
ENDBRANCH  40  41
ENDBRANCH  39  40
ENDBRANCH  38  39
ENDBRANCH   1  38
TORSDOF 36
ENDMDL
