MODEL 1
REMARK VINA RESULT:     -13.0      0.000      0.000
REMARK SMILES Cc1ccc(N2C(=O)N=C(OCCOCCOCCOCCOC(=O)c3ccc(-c4c5nc(c(-c6ccc(S(=O)(=O)[O-])cc6)c6ccc([nH]6)c(-c6ccc(S(=O)(=O)[O-])cc6)c6nc(c(-c7ccc(S(=O)(=O)[O-])cc7)c7ccc4[nH]7)C=C6)C=C5)cc3)/C(=C\c3ccccc3OCc3cccc(C(=O)[O-])c3)C2=O)cc1
REMARK SMILES IDX 16 1 15 2 14 3 13 4 12 5 11 6 10 7 6 8 7 9 105 10 8 11 9 12
REMARK SMILES IDX 86 13 106 14 87 15 5 16 1 17 2 18 3 19 108 20 4 21 107 22
REMARK SMILES IDX 88 23 89 24 93 25 90 26 92 27 91 28 94 29 95 30 96 31 97 32
REMARK SMILES IDX 104 33 98 34 100 35 99 36 101 37 102 38 103 39 17 40 18 41
REMARK SMILES IDX 19 42 20 43 21 44 22 45 23 46 24 47 25 48 26 49 27 50 85 51
REMARK SMILES IDX 28 52 84 53 29 54 30 55 31 56 78 57 32 58 83 59 77 60 79 61
REMARK SMILES IDX 33 62 82 63 76 64 75 65 34 67 64 68 45 69 63 70 46 71 49 72
REMARK SMILES IDX 62 73 80 74 47 75 48 76 61 78 81 79 50 80 35 81 36 82 44 83
REMARK SMILES IDX 37 84 43 85 38 86 39 87 40 88 41 89 42 90 65 91 66 92 74 93
REMARK SMILES IDX 67 94 73 95 68 96 69 97 70 98 71 99 72 100 51 101 52 102
REMARK SMILES IDX 60 103 53 104 59 105 54 106 55 107 56 108 57 109 58 110
REMARK H PARENT 79 66 49 77
REMARK Flexibility Score: inf
ROOT
ATOM      1  C   UNL A   1      33.448  20.404  24.292  1.00  0.00     0.188 C 
ENDROOT
BRANCH   1   2
ATOM      2  C   UNL A   1      32.764  21.695  24.625  1.00  0.00     0.188 C 
BRANCH   2   3
ATOM      3  O   UNL A   1      33.288  22.937  23.751  1.00  0.00    -0.376 OA
BRANCH   3   4
ATOM      4  C   UNL A   1      34.154  24.317  24.032  1.00  0.00     0.201 C 
BRANCH   4   5
ATOM      5  C   UNL A   1      34.199  25.161  25.725  1.00  0.00     0.260 C 
BRANCH   5   6
ATOM      6  O   UNL A   1      33.332  26.679  26.088  1.00  0.00    -0.475 OA
BRANCH   6   7
ATOM      7  C   UNL A   1      33.491  28.146  26.275  1.00  0.00     0.231 C 
ATOM      8  N   UNL A   1      33.609  30.686  27.489  1.00  0.00    -0.226 N 
ATOM      9  C   UNL A   1      34.732  30.033  27.022  1.00  0.00     0.358 C 
ATOM     10  C   UNL A   1      32.395  30.314  26.984  1.00  0.00     0.272 C 
ATOM     11  O   UNL A   1      35.858  30.419  27.351  1.00  0.00    -0.245 OA
ATOM     12  N   UNL A   1      34.601  28.848  26.306  1.00  0.00    -0.156 NA
ATOM     13  C   UNL A   1      32.367  28.952  26.364  1.00  0.00     0.103 C 
ATOM     14  O   UNL A   1      31.409  31.041  27.029  1.00  0.00    -0.268 OA
ATOM     15  C   UNL A   1      31.501  28.489  25.479  1.00  0.00     0.031 C 
BRANCH   8  16
ATOM     16  C   UNL A   1      33.750  31.934  28.187  1.00  0.00     0.054 A 
ATOM     17  C   UNL A   1      34.436  35.596  30.398  1.00  0.00     0.044 C 
ATOM     18  C   UNL A   1      34.125  34.336  29.645  1.00  0.00    -0.051 A 
ATOM     19  C   UNL A   1      34.685  33.136  30.088  1.00  0.00     0.005 A 
ATOM     20  C   UNL A   1      33.348  34.325  28.479  1.00  0.00     0.005 A 
ATOM     21  C   UNL A   1      34.487  31.954  29.376  1.00  0.00     0.027 A 
ATOM     22  C   UNL A   1      33.176  33.135  27.738  1.00  0.00     0.027 A 
ENDBRANCH   8  16
BRANCH  15  23
ATOM     23  C   UNL A   1      31.092  27.201  24.837  1.00  0.00     0.018 A 
ATOM     24  C   UNL A   1      30.666  25.926  25.398  1.00  0.00     0.012 A 
ATOM     25  C   UNL A   1      31.125  27.296  23.503  1.00  0.00     0.127 A 
ATOM     26  C   UNL A   1      30.481  24.747  24.674  1.00  0.00     0.001 A 
ATOM     27  C   UNL A   1      30.991  26.053  22.790  1.00  0.00     0.047 A 
ATOM     28  C   UNL A   1      30.667  24.809  23.332  1.00  0.00     0.004 A 
BRANCH  25  29
ATOM     29  O   UNL A   1      31.499  28.538  22.970  1.00  0.00    -0.488 OA
BRANCH  29  30
ATOM     30  C   UNL A   1      31.020  29.821  22.397  1.00  0.00     0.265 C 
BRANCH  30  31
ATOM     31  C   UNL A   1      29.566  30.313  22.022  1.00  0.00    -0.010 A 
ATOM     32  C   UNL A   1      29.230  31.558  22.602  1.00  0.00     0.007 A 
ATOM     33  C   UNL A   1      28.574  29.356  21.902  1.00  0.00     0.017 A 
ATOM     34  C   UNL A   1      28.077  31.700  23.347  1.00  0.00     0.001 A 
ATOM     35  C   UNL A   1      27.624  29.368  22.908  1.00  0.00    -0.002 A 
ATOM     36  C   UNL A   1      27.346  30.551  23.609  1.00  0.00     0.010 A 
BRANCH  35  37
ATOM     37  C   UNL A   1      27.215  28.072  23.526  1.00  0.00     0.071 C 
ATOM     38  O   UNL A   1      27.883  27.090  23.570  1.00  0.00    -0.545 OA
ATOM     39  O   UNL A   1      25.904  28.067  23.878  1.00  0.00    -0.545 OA
ENDBRANCH  35  37
ENDBRANCH  30  31
ENDBRANCH  29  30
ENDBRANCH  25  29
ENDBRANCH  15  23
ENDBRANCH   6   7
ENDBRANCH   5   6
ENDBRANCH   4   5
ENDBRANCH   3   4
ENDBRANCH   2   3
ENDBRANCH   1   2
BRANCH   1  40
ATOM     40  O   UNL A   1      34.385  20.089  25.277  1.00  0.00    -0.377 OA
BRANCH  40  41
ATOM     41  C   UNL A   1      35.384  21.092  25.504  1.00  0.00     0.188 C 
BRANCH  41  42
ATOM     42  C   UNL A   1      36.405  21.430  24.261  1.00  0.00     0.188 C 
BRANCH  42  43
ATOM     43  O   UNL A   1      37.738  21.609  24.646  1.00  0.00    -0.376 OA
BRANCH  43  44
ATOM     44  C   UNL A   1      37.588  22.123  25.943  1.00  0.00     0.202 C 
BRANCH  44  45
ATOM     45  C   UNL A   1      37.872  23.722  26.115  1.00  0.00     0.261 C 
BRANCH  45  46
ATOM     46  O   UNL A   1      38.906  24.501  27.239  1.00  0.00    -0.460 OA
BRANCH  46  47
ATOM     47  C   UNL A   1      39.729  25.419  27.934  1.00  0.00     0.338 C 
ATOM     48  O   UNL A   1      40.798  24.979  28.373  1.00  0.00    -0.246 OA
BRANCH  47  49
ATOM     49  C   UNL A   1      39.547  26.984  28.275  1.00  0.00     0.060 A 
ATOM     50  C   UNL A   1      39.776  28.041  27.371  1.00  0.00     0.016 A 
ATOM     51  C   UNL A   1      39.083  27.497  29.477  1.00  0.00     0.016 A 
ATOM     52  C   UNL A   1      40.132  29.392  27.850  1.00  0.00     0.010 A 
ATOM     53  C   UNL A   1      39.569  28.760  29.976  1.00  0.00     0.010 A 
ATOM     54  C   UNL A   1      40.426  29.584  29.227  1.00  0.00    -0.014 A 
BRANCH  54  55
ATOM     55  C   UNL A   1      41.915  30.176  30.115  1.00  0.00     0.031 A 
ATOM     56  C   UNL A   1      42.913  29.317  28.866  1.00  0.00     0.074 A 
ATOM     57  C   UNL A   1      42.049  31.132  31.546  1.00  0.00     0.049 A 
ATOM     58  N   UNL A   1      43.134  27.996  28.865  1.00  0.00    -0.248 NA
ATOM     59  C   UNL A   1      43.409  29.750  27.556  1.00  0.00     0.031 C 
ATOM     60  C   UNL A   1      42.966  32.100  32.473  1.00  0.00     0.029 A 
ATOM     61  N   UNL A   1      41.159  31.254  32.922  1.00  0.00    -0.354 N 
ATOM     62  C   UNL A   1      44.292  27.608  28.149  1.00  0.00     0.074 A 
ATOM     63  C   UNL A   1      44.132  28.672  27.120  1.00  0.00     0.031 C 
ATOM     64  C   UNL A   1      42.922  31.805  33.854  1.00  0.00     0.029 A 
ATOM     65  C   UNL A   1      41.804  30.965  34.165  1.00  0.00     0.049 A 
ATOM     66  H   UNL A   1      40.211  31.518  32.892  1.00  0.00     0.167 HD
ATOM     67  C   UNL A   1      45.439  26.744  28.550  1.00  0.00     0.031 A 
ATOM     68  C   UNL A   1      41.372  29.984  35.076  1.00  0.00     0.031 A 
ATOM     69  C   UNL A   1      45.857  26.148  30.150  1.00  0.00     0.049 A 
ATOM     70  C   UNL A   1      42.298  28.522  35.573  1.00  0.00     0.074 A 
ATOM     71  C   UNL A   1      46.954  26.557  30.957  1.00  0.00     0.029 A 
ATOM     72  N   UNL A   1      45.100  25.441  31.272  1.00  0.00    -0.354 N 
ATOM     73  N   UNL A   1      43.525  28.152  35.197  1.00  0.00    -0.248 NA
ATOM     74  C   UNL A   1      41.912  27.390  36.472  1.00  0.00     0.031 C 
ATOM     75  C   UNL A   1      46.855  26.199  32.369  1.00  0.00     0.029 A 
ATOM     76  C   UNL A   1      45.521  25.872  32.715  1.00  0.00     0.049 A 
ATOM     77  H   UNL A   1      44.401  24.767  31.099  1.00  0.00     0.167 HD
ATOM     78  C   UNL A   1      43.901  26.651  35.264  1.00  0.00     0.074 A 
ATOM     79  C   UNL A   1      42.886  26.410  36.355  1.00  0.00     0.031 C 
ATOM     80  C   UNL A   1      44.727  25.664  34.299  1.00  0.00     0.031 A 
BRANCH  67  81
ATOM     81  C   UNL A   1      46.667  26.903  27.541  1.00  0.00    -0.014 A 
ATOM     82  C   UNL A   1      47.595  27.963  27.623  1.00  0.00     0.010 A 
ATOM     83  C   UNL A   1      46.906  26.026  26.458  1.00  0.00     0.010 A 
ATOM     84  C   UNL A   1      48.592  28.220  26.662  1.00  0.00     0.020 A 
ATOM     85  C   UNL A   1      47.894  26.270  25.468  1.00  0.00     0.020 A 
ATOM     86  C   UNL A   1      48.733  27.373  25.577  1.00  0.00     0.054 A 
BRANCH  86  87
ATOM     87  S   UNL A   1      50.105  27.663  24.425  1.00  0.00     0.124 S 
ATOM     88  O   UNL A   1      50.709  28.890  24.941  1.00  0.00    -0.237 OA
ATOM     89  O   UNL A   1      50.910  26.454  24.588  1.00  0.00    -0.237 OA
ATOM     90  O   UNL A   1      49.445  27.794  23.128  1.00  0.00    -0.744 OA
ENDBRANCH  86  87
ENDBRANCH  67  81
BRANCH  68  91
ATOM     91  C   UNL A   1      39.766  30.368  35.213  1.00  0.00    -0.014 A 
ATOM     92  C   UNL A   1      39.535  31.529  36.043  1.00  0.00     0.010 A 
ATOM     93  C   UNL A   1      38.707  30.165  34.278  1.00  0.00     0.010 A 
ATOM     94  C   UNL A   1      38.516  32.506  35.823  1.00  0.00     0.020 A 
ATOM     95  C   UNL A   1      37.623  31.130  34.090  1.00  0.00     0.020 A 
ATOM     96  C   UNL A   1      37.565  32.319  34.834  1.00  0.00     0.054 A 
BRANCH  96  97
ATOM     97  S   UNL A   1      36.403  33.709  34.444  1.00  0.00     0.124 S 
ATOM     98  O   UNL A   1      37.297  34.729  33.906  1.00  0.00    -0.237 OA
ATOM     99  O   UNL A   1      35.482  33.135  33.464  1.00  0.00    -0.237 OA
ATOM    100  O   UNL A   1      35.800  34.015  35.738  1.00  0.00    -0.744 OA
ENDBRANCH  96  97
ENDBRANCH  68  91
BRANCH  80 101
ATOM    101  C   UNL A   1      45.046  24.207  34.680  1.00  0.00    -0.014 A 
ATOM    102  C   UNL A   1      44.198  23.115  34.569  1.00  0.00     0.010 A 
ATOM    103  C   UNL A   1      46.323  23.932  35.259  1.00  0.00     0.010 A 
ATOM    104  C   UNL A   1      44.607  21.840  35.000  1.00  0.00     0.020 A 
ATOM    105  C   UNL A   1      46.750  22.687  35.680  1.00  0.00     0.020 A 
ATOM    106  C   UNL A   1      45.875  21.639  35.554  1.00  0.00     0.054 A 
BRANCH 106 107
ATOM    107  S   UNL A   1      46.365  20.014  36.142  1.00  0.00     0.124 S 
ATOM    108  O   UNL A   1      45.712  19.960  37.446  1.00  0.00    -0.237 OA
ATOM    109  O   UNL A   1      45.807  19.142  35.113  1.00  0.00    -0.237 OA
ATOM    110  O   UNL A   1      47.825  20.077  36.178  1.00  0.00    -0.744 OA
ENDBRANCH 106 107
ENDBRANCH  80 101
ENDBRANCH  54  55
ENDBRANCH  47  49
ENDBRANCH  46  47
ENDBRANCH  45  46
ENDBRANCH  44  45
ENDBRANCH  43  44
ENDBRANCH  42  43
ENDBRANCH  41  42
ENDBRANCH  40  41
ENDBRANCH   1  40
TORSDOF 28
ENDMDL
MODEL 2
REMARK VINA RESULT:     -10.4      5.590     12.124
REMARK SMILES Cc1ccc(N2C(=O)N=C(OCCOCCOCCOCCOC(=O)c3ccc(-c4c5nc(c(-c6ccc(S(=O)(=O)[O-])cc6)c6ccc([nH]6)c(-c6ccc(S(=O)(=O)[O-])cc6)c6nc(c(-c7ccc(S(=O)(=O)[O-])cc7)c7ccc4[nH]7)C=C6)C=C5)cc3)/C(=C\c3ccccc3OCc3cccc(C(=O)[O-])c3)C2=O)cc1
REMARK SMILES IDX 16 1 15 2 14 3 13 4 12 5 11 6 10 7 6 8 7 9 105 10 8 11 9 12
REMARK SMILES IDX 86 13 106 14 87 15 5 16 1 17 2 18 3 19 108 20 4 21 107 22
REMARK SMILES IDX 88 23 89 24 93 25 90 26 92 27 91 28 94 29 95 30 96 31 97 32
REMARK SMILES IDX 104 33 98 34 100 35 99 36 101 37 102 38 103 39 17 40 18 41
REMARK SMILES IDX 19 42 20 43 21 44 22 45 23 46 24 47 25 48 26 49 27 50 85 51
REMARK SMILES IDX 28 52 84 53 29 54 30 55 31 56 78 57 32 58 83 59 77 60 79 61
REMARK SMILES IDX 33 62 82 63 76 64 75 65 34 67 64 68 45 69 63 70 46 71 49 72
REMARK SMILES IDX 62 73 80 74 47 75 48 76 61 78 81 79 50 80 35 81 36 82 44 83
REMARK SMILES IDX 37 84 43 85 38 86 39 87 40 88 41 89 42 90 65 91 66 92 74 93
REMARK SMILES IDX 67 94 73 95 68 96 69 97 70 98 71 99 72 100 51 101 52 102
REMARK SMILES IDX 60 103 53 104 59 105 54 106 55 107 56 108 57 109 58 110
REMARK H PARENT 79 66 49 77
REMARK Flexibility Score: inf
ROOT
ATOM      1  C   UNL A   1      49.998  25.003  31.636  1.00  0.00     0.188 C 
ENDROOT
BRANCH   1   2
ATOM      2  C   UNL A   1      49.432  25.651  30.408  1.00  0.00     0.188 C 
BRANCH   2   3
ATOM      3  O   UNL A   1      49.386  27.255  30.499  1.00  0.00    -0.376 OA
BRANCH   3   4
ATOM      4  C   UNL A   1      48.399  28.457  29.938  1.00  0.00     0.201 C 
BRANCH   4   5
ATOM      5  C   UNL A   1      47.743  28.488  28.163  1.00  0.00     0.260 C 
BRANCH   5   6
ATOM      6  O   UNL A   1      46.081  28.008  27.723  1.00  0.00    -0.475 OA
BRANCH   6   7
ATOM      7  C   UNL A   1      44.664  28.458  27.686  1.00  0.00     0.231 C 
ATOM      8  N   UNL A   1      41.928  28.718  28.309  1.00  0.00    -0.226 N 
ATOM      9  C   UNL A   1      42.848  29.712  28.574  1.00  0.00     0.358 C 
ATOM     10  C   UNL A   1      42.246  27.787  27.360  1.00  0.00     0.272 C 
ATOM     11  O   UNL A   1      42.556  30.646  29.327  1.00  0.00    -0.245 OA
ATOM     12  N   UNL A   1      44.156  29.590  28.118  1.00  0.00    -0.156 NA
ATOM     13  C   UNL A   1      43.708  27.666  27.069  1.00  0.00     0.103 C 
ATOM     14  O   UNL A   1      41.398  27.111  26.787  1.00  0.00    -0.268 OA
ATOM     15  C   UNL A   1      44.273  27.174  25.980  1.00  0.00     0.031 C 
BRANCH   8  16
ATOM     16  C   UNL A   1      40.567  28.873  28.742  1.00  0.00     0.054 A 
ATOM     17  C   UNL A   1      36.380  29.326  29.760  1.00  0.00     0.044 C 
ATOM     18  C   UNL A   1      37.847  29.214  29.465  1.00  0.00    -0.051 A 
ATOM     19  C   UNL A   1      38.313  29.631  28.216  1.00  0.00     0.005 A 
ATOM     20  C   UNL A   1      38.758  28.648  30.367  1.00  0.00     0.005 A 
ATOM     21  C   UNL A   1      39.654  29.475  27.870  1.00  0.00     0.027 A 
ATOM     22  C   UNL A   1      40.109  28.457  30.004  1.00  0.00     0.027 A 
ENDBRANCH   8  16
BRANCH  15  23
ATOM     23  C   UNL A   1      45.617  26.753  25.473  1.00  0.00     0.018 A 
ATOM     24  C   UNL A   1      46.604  27.435  24.647  1.00  0.00     0.012 A 
ATOM     25  C   UNL A   1      45.928  25.524  25.898  1.00  0.00     0.127 A 
ATOM     26  C   UNL A   1      47.748  26.848  24.104  1.00  0.00     0.001 A 
ATOM     27  C   UNL A   1      47.079  24.924  25.274  1.00  0.00     0.047 A 
ATOM     28  C   UNL A   1      47.982  25.548  24.413  1.00  0.00     0.004 A 
BRANCH  25  29
ATOM     29  O   UNL A   1      44.990  24.888  26.725  1.00  0.00    -0.488 OA
BRANCH  29  30
ATOM     30  C   UNL A   1      44.113  23.703  26.900  1.00  0.00     0.265 C 
BRANCH  30  31
ATOM     31  C   UNL A   1      42.656  23.402  26.368  1.00  0.00    -0.010 A 
ATOM     32  C   UNL A   1      41.640  23.774  27.279  1.00  0.00     0.007 A 
ATOM     33  C   UNL A   1      42.470  22.260  25.609  1.00  0.00     0.017 A 
ATOM     34  C   UNL A   1      40.679  22.865  27.671  1.00  0.00     0.001 A 
ATOM     35  C   UNL A   1      41.758  21.252  26.234  1.00  0.00    -0.002 A 
ATOM     36  C   UNL A   1      40.830  21.555  27.241  1.00  0.00     0.010 A 
BRANCH  35  37
ATOM     37  C   UNL A   1      42.268  19.851  26.145  1.00  0.00     0.071 C 
ATOM     38  O   UNL A   1      42.581  19.295  25.143  1.00  0.00    -0.545 OA
ATOM     39  O   UNL A   1      42.161  19.195  27.329  1.00  0.00    -0.545 OA
ENDBRANCH  35  37
ENDBRANCH  30  31
ENDBRANCH  29  30
ENDBRANCH  25  29
ENDBRANCH  15  23
ENDBRANCH   6   7
ENDBRANCH   5   6
ENDBRANCH   4   5
ENDBRANCH   3   4
ENDBRANCH   2   3
ENDBRANCH   1   2
BRANCH   1  40
ATOM     40  O   UNL A   1      49.444  25.579  32.781  1.00  0.00    -0.377 OA
BRANCH  40  41
ATOM     41  C   UNL A   1      49.199  24.666  33.859  1.00  0.00     0.188 C 
BRANCH  41  42
ATOM     42  C   UNL A   1      47.639  24.225  34.130  1.00  0.00     0.188 C 
BRANCH  42  43
ATOM     43  O   UNL A   1      47.496  23.022  34.827  1.00  0.00    -0.376 OA
BRANCH  43  44
ATOM     44  C   UNL A   1      46.100  22.919  34.925  1.00  0.00     0.202 C 
BRANCH  44  45
ATOM     45  C   UNL A   1      45.403  23.777  36.127  1.00  0.00     0.261 C 
BRANCH  45  46
ATOM     46  O   UNL A   1      44.019  24.785  36.046  1.00  0.00    -0.460 OA
BRANCH  46  47
ATOM     47  C   UNL A   1      43.103  25.836  35.800  1.00  0.00     0.338 C 
ATOM     48  O   UNL A   1      42.426  26.214  36.764  1.00  0.00    -0.246 OA
BRANCH  47  49
ATOM     49  C   UNL A   1      42.757  26.673  34.466  1.00  0.00     0.060 A 
ATOM     50  C   UNL A   1      43.579  26.752  33.325  1.00  0.00     0.016 A 
ATOM     51  C   UNL A   1      41.582  27.374  34.238  1.00  0.00     0.016 A 
ATOM     52  C   UNL A   1      43.509  27.910  32.411  1.00  0.00     0.010 A 
ATOM     53  C   UNL A   1      41.586  28.584  33.454  1.00  0.00     0.010 A 
ATOM     54  C   UNL A   1      42.734  29.041  32.785  1.00  0.00    -0.014 A 
BRANCH  54  55
ATOM     55  C   UNL A   1      43.151  30.803  33.063  1.00  0.00     0.031 A 
ATOM     56  C   UNL A   1      44.187  30.263  34.453  1.00  0.00     0.074 A 
ATOM     57  C   UNL A   1      42.628  32.216  32.222  1.00  0.00     0.049 A 
ATOM     58  N   UNL A   1      43.706  29.929  35.657  1.00  0.00    -0.248 NA
ATOM     59  C   UNL A   1      45.585  29.827  34.508  1.00  0.00     0.031 C 
ATOM     60  C   UNL A   1      42.885  33.780  31.864  1.00  0.00     0.029 A 
ATOM     61  N   UNL A   1      41.225  32.648  31.483  1.00  0.00    -0.354 N 
ATOM     62  C   UNL A   1      44.656  30.026  36.703  1.00  0.00     0.074 A 
ATOM     63  C   UNL A   1      45.793  29.596  35.841  1.00  0.00     0.031 C 
ATOM     64  C   UNL A   1      41.737  34.598  31.948  1.00  0.00     0.029 A 
ATOM     65  C   UNL A   1      40.542  33.808  31.967  1.00  0.00     0.049 A 
ATOM     66  H   UNL A   1      40.865  32.124  30.730  1.00  0.00     0.167 HD
ATOM     67  C   UNL A   1      44.583  30.715  38.023  1.00  0.00     0.031 A 
ATOM     68  C   UNL A   1      39.216  33.812  32.434  1.00  0.00     0.031 A 
ATOM     69  C   UNL A   1      43.385  31.868  38.593  1.00  0.00     0.049 A 
ATOM     70  C   UNL A   1      38.685  34.215  34.108  1.00  0.00     0.074 A 
ATOM     71  C   UNL A   1      43.571  33.262  38.806  1.00  0.00     0.029 A 
ATOM     72  N   UNL A   1      41.859  31.911  38.632  1.00  0.00    -0.354 N 
ATOM     73  N   UNL A   1      39.437  34.596  35.144  1.00  0.00    -0.248 NA
ATOM     74  C   UNL A   1      37.323  34.186  34.725  1.00  0.00     0.031 C 
ATOM     75  C   UNL A   1      42.343  34.044  38.906  1.00  0.00     0.029 A 
ATOM     76  C   UNL A   1      41.240  33.325  38.381  1.00  0.00     0.049 A 
ATOM     77  H   UNL A   1      41.308  31.111  38.801  1.00  0.00     0.167 HD
ATOM     78  C   UNL A   1      38.907  34.341  36.577  1.00  0.00     0.074 A 
ATOM     79  C   UNL A   1      37.478  34.368  36.091  1.00  0.00     0.031 C 
ATOM     80  C   UNL A   1      39.589  33.843  37.946  1.00  0.00     0.031 A 
BRANCH  67  81
ATOM     81  C   UNL A   1      46.028  30.849  38.689  1.00  0.00    -0.014 A 
ATOM     82  C   UNL A   1      46.535  29.915  39.617  1.00  0.00     0.010 A 
ATOM     83  C   UNL A   1      46.904  31.931  38.443  1.00  0.00     0.010 A 
ATOM     84  C   UNL A   1      47.733  30.082  40.337  1.00  0.00     0.020 A 
ATOM     85  C   UNL A   1      48.109  32.132  39.166  1.00  0.00     0.020 A 
ATOM     86  C   UNL A   1      48.516  31.201  40.114  1.00  0.00     0.054 A 
BRANCH  86  87
ATOM     87  S   UNL A   1      50.112  31.324  40.970  1.00  0.00     0.124 S 
ATOM     88  O   UNL A   1      51.063  31.457  39.869  1.00  0.00    -0.237 OA
ATOM     89  O   UNL A   1      49.934  32.521  41.790  1.00  0.00    -0.237 OA
ATOM     90  O   UNL A   1      50.200  30.072  41.718  1.00  0.00    -0.744 OA
ENDBRANCH  86  87
ENDBRANCH  67  81
BRANCH  68  91
ATOM     91  C   UNL A   1      38.442  33.033  31.194  1.00  0.00    -0.014 A 
ATOM     92  C   UNL A   1      37.101  32.619  31.540  1.00  0.00     0.010 A 
ATOM     93  C   UNL A   1      38.598  33.203  29.785  1.00  0.00     0.010 A 
ATOM     94  C   UNL A   1      35.988  32.608  30.645  1.00  0.00     0.020 A 
ATOM     95  C   UNL A   1      37.473  33.130  28.851  1.00  0.00     0.020 A 
ATOM     96  C   UNL A   1      36.166  32.880  29.298  1.00  0.00     0.054 A 
BRANCH  96  97
ATOM     97  S   UNL A   1      34.669  33.068  28.223  1.00  0.00     0.124 S 
ATOM     98  O   UNL A   1      34.586  31.769  27.562  1.00  0.00    -0.237 OA
ATOM     99  O   UNL A   1      33.586  33.336  29.168  1.00  0.00    -0.237 OA
ATOM    100  O   UNL A   1      35.015  34.194  27.361  1.00  0.00    -0.744 OA
ENDBRANCH  96  97
ENDBRANCH  68  91
BRANCH  80 101
ATOM    101  C   UNL A   1      38.824  33.785  39.281  1.00  0.00    -0.014 A 
ATOM    102  C   UNL A   1      38.993  34.626  40.371  1.00  0.00     0.010 A 
ATOM    103  C   UNL A   1      37.872  32.735  39.461  1.00  0.00     0.010 A 
ATOM    104  C   UNL A   1      38.253  34.430  41.552  1.00  0.00     0.020 A 
ATOM    105  C   UNL A   1      37.127  32.530  40.607  1.00  0.00     0.020 A 
ATOM    106  C   UNL A   1      37.332  33.383  41.659  1.00  0.00     0.054 A 
BRANCH 106 107
ATOM    107  S   UNL A   1      36.430  33.119  43.190  1.00  0.00     0.124 S 
ATOM    108  O   UNL A   1      35.589  34.310  43.250  1.00  0.00    -0.237 OA
ATOM    109  O   UNL A   1      35.737  31.863  42.917  1.00  0.00    -0.237 OA
ATOM    110  O   UNL A   1      37.477  33.041  44.207  1.00  0.00    -0.744 OA
ENDBRANCH 106 107
ENDBRANCH  80 101
ENDBRANCH  54  55
ENDBRANCH  47  49
ENDBRANCH  46  47
ENDBRANCH  45  46
ENDBRANCH  44  45
ENDBRANCH  43  44
ENDBRANCH  42  43
ENDBRANCH  41  42
ENDBRANCH  40  41
ENDBRANCH   1  40
TORSDOF 28
ENDMDL
