MODEL 1
REMARK VINA RESULT:      -9.4      0.000      0.000
REMARK SMILES C[C@H]1[NH2+]CC[C@H]1C(=O)N1CC(C(=O)OCCOCCOCCOCCOC(=O)c2ccc(-c3c4nc(c(-c5ccc(S(=O)(=O)[O-])cc5)c5ccc([nH]5)c(-c5ccc(S(=O)(=O)[O-])cc5)c5nc(c(-c6ccc(S(=O)(=O)[O-])cc6)c6ccc3[nH]6)C=C5)C=C4)cc2)C1
REMARK SMILES IDX 21 1 20 2 19 3 18 4 17 5 16 6 15 7 14 8 12 9 13 10 11 11
REMARK SMILES IDX 7 12 8 13 9 14 10 15 89 16 6 17 1 18 2 19 3 20 4 21 5 24
REMARK SMILES IDX 22 25 23 26 24 27 25 28 26 29 27 30 28 31 29 32 30 33 88 34
REMARK SMILES IDX 31 35 87 36 32 37 33 38 34 39 81 40 35 41 86 42 80 43 82 44
REMARK SMILES IDX 36 45 85 46 79 47 78 48 37 50 67 51 48 52 66 53 49 54 52 55
REMARK SMILES IDX 65 56 83 57 50 58 51 59 64 61 84 62 53 63 38 64 39 65 47 66
REMARK SMILES IDX 40 67 46 68 41 69 42 70 43 71 44 72 45 73 68 74 69 75 77 76
REMARK SMILES IDX 70 77 76 78 71 79 72 80 73 81 74 82 75 83 54 84 55 85 63 86
REMARK SMILES IDX 56 87 62 88 57 89 58 90 59 91 60 92 61 93
REMARK H PARENT 3 22 3 23 82 49 52 60
REMARK Flexibility Score: inf
ROOT
ATOM      1  C   UNL A   1      36.036  21.636  25.483  1.00  0.00     0.188 C 
ENDROOT
BRANCH   1   2
ATOM      2  O   UNL A   1      35.390  20.402  25.778  1.00  0.00    -0.377 OA
BRANCH   2   3
ATOM      3  C   UNL A   1      35.110  19.579  24.666  1.00  0.00     0.188 C 
BRANCH   3   4
ATOM      4  C   UNL A   1      33.748  18.865  24.723  1.00  0.00     0.188 C 
BRANCH   4   5
ATOM      5  O   UNL A   1      32.542  19.534  24.379  1.00  0.00    -0.376 OA
BRANCH   5   6
ATOM      6  C   UNL A   1      32.549  20.824  23.782  1.00  0.00     0.202 C 
BRANCH   6   7
ATOM      7  C   UNL A   1      31.790  22.015  24.391  1.00  0.00     0.261 C 
BRANCH   7   8
ATOM      8  O   UNL A   1      31.558  21.940  25.802  1.00  0.00    -0.463 OA
BRANCH   8   9
ATOM      9  C   UNL A   1      31.994  22.979  26.567  1.00  0.00     0.312 C 
ATOM     10  O   UNL A   1      32.125  22.912  27.788  1.00  0.00    -0.252 OA
BRANCH   9  11
ATOM     11  C   UNL A   1      32.387  24.203  25.725  1.00  0.00     0.138 C 
ATOM     12  C   UNL A   1      33.604  27.030  24.930  1.00  0.00     0.231 C 
ATOM     13  O   UNL A   1      33.511  26.826  23.721  1.00  0.00    -0.274 OA
ATOM     14  N   UNL A   1      33.387  26.042  25.869  1.00  0.00    -0.340 N 
ATOM     15  C   UNL A   1      33.843  24.647  25.751  1.00  0.00     0.136 C 
ATOM     16  C   UNL A   1      32.029  25.608  26.195  1.00  0.00     0.136 C 
BRANCH  12  17
ATOM     17  C   UNL A   1      33.937  28.403  25.500  1.00  0.00     0.142 C 
ATOM     18  C   UNL A   1      31.479  29.290  25.312  1.00  0.00     0.076 C 
ATOM     19  C   UNL A   1      32.979  29.562  25.220  1.00  0.00     0.192 C 
ATOM     20  N   UNL A   1      33.355  30.582  26.220  1.00  0.00    -0.343 N 
ATOM     21  C   UNL A   1      34.017  29.918  27.346  1.00  0.00     0.261 C 
ATOM     22  H   UNL A   1      32.519  31.064  26.549  1.00  0.00     0.346 HD
ATOM     23  H   UNL A   1      33.987  31.263  25.798  1.00  0.00     0.346 HD
ATOM     24  C   UNL A   1      34.108  28.443  27.009  1.00  0.00     0.081 C 
ENDBRANCH  12  17
ENDBRANCH   9  11
ENDBRANCH   8   9
ENDBRANCH   7   8
ENDBRANCH   6   7
ENDBRANCH   5   6
ENDBRANCH   4   5
ENDBRANCH   3   4
ENDBRANCH   2   3
ENDBRANCH   1   2
BRANCH   1  25
ATOM     25  C   UNL A   1      37.367  21.579  24.697  1.00  0.00     0.188 C 
BRANCH  25  26
ATOM     26  O   UNL A   1      38.522  21.414  25.513  1.00  0.00    -0.376 OA
BRANCH  26  27
ATOM     27  C   UNL A   1      38.846  22.435  26.447  1.00  0.00     0.202 C 
BRANCH  27  28
ATOM     28  C   UNL A   1      39.909  23.468  26.032  1.00  0.00     0.261 C 
BRANCH  28  29
ATOM     29  O   UNL A   1      39.577  24.846  26.257  1.00  0.00    -0.460 OA
BRANCH  29  30
ATOM     30  C   UNL A   1      40.587  25.737  26.199  1.00  0.00     0.338 C 
ATOM     31  O   UNL A   1      41.195  26.088  25.199  1.00  0.00    -0.246 OA
BRANCH  30  32
ATOM     32  C   UNL A   1      40.713  26.387  27.519  1.00  0.00     0.060 A 
ATOM     33  C   UNL A   1      39.730  26.136  28.484  1.00  0.00     0.016 A 
ATOM     34  C   UNL A   1      41.768  27.261  27.793  1.00  0.00     0.016 A 
ATOM     35  C   UNL A   1      39.754  26.818  29.698  1.00  0.00     0.010 A 
ATOM     36  C   UNL A   1      41.782  27.959  29.004  1.00  0.00     0.010 A 
ATOM     37  C   UNL A   1      40.740  27.783  29.934  1.00  0.00    -0.014 A 
BRANCH  37  38
ATOM     38  C   UNL A   1      40.517  28.785  31.007  1.00  0.00     0.031 A 
ATOM     39  C   UNL A   1      41.390  28.710  32.233  1.00  0.00     0.074 A 
ATOM     40  C   UNL A   1      39.616  29.775  30.874  1.00  0.00     0.049 A 
ATOM     41  N   UNL A   1      41.398  29.471  33.297  1.00  0.00    -0.248 NA
ATOM     42  C   UNL A   1      42.391  27.628  32.263  1.00  0.00     0.031 C 
ATOM     43  C   UNL A   1      38.754  29.991  29.714  1.00  0.00     0.029 A 
ATOM     44  N   UNL A   1      39.286  30.793  31.733  1.00  0.00    -0.354 N 
ATOM     45  C   UNL A   1      42.393  28.956  34.121  1.00  0.00     0.074 A 
ATOM     46  C   UNL A   1      42.939  27.796  33.455  1.00  0.00     0.031 C 
ATOM     47  C   UNL A   1      37.991  31.077  29.935  1.00  0.00     0.029 A 
ATOM     48  C   UNL A   1      38.290  31.613  31.262  1.00  0.00     0.049 A 
ATOM     49  H   UNL A   1      39.723  30.924  32.606  1.00  0.00     0.167 HD
ATOM     50  C   UNL A   1      42.825  29.412  35.320  1.00  0.00     0.031 A 
ATOM     51  C   UNL A   1      37.682  32.668  31.842  1.00  0.00     0.031 A 
ATOM     52  C   UNL A   1      42.272  30.560  35.988  1.00  0.00     0.049 A 
ATOM     53  C   UNL A   1      38.128  33.114  33.213  1.00  0.00     0.074 A 
ATOM     54  C   UNL A   1      42.636  31.105  37.206  1.00  0.00     0.029 A 
ATOM     55  N   UNL A   1      41.234  31.336  35.496  1.00  0.00    -0.354 N 
ATOM     56  N   UNL A   1      39.075  32.621  33.977  1.00  0.00    -0.248 NA
ATOM     57  C   UNL A   1      37.434  34.274  33.789  1.00  0.00     0.031 C 
ATOM     58  C   UNL A   1      41.777  32.175  37.479  1.00  0.00     0.029 A 
ATOM     59  C   UNL A   1      40.932  32.345  36.394  1.00  0.00     0.049 A 
ATOM     60  H   UNL A   1      40.779  31.192  34.635  1.00  0.00     0.167 HD
ATOM     61  C   UNL A   1      39.119  33.439  35.103  1.00  0.00     0.074 A 
ATOM     62  C   UNL A   1      38.112  34.462  34.912  1.00  0.00     0.031 C 
ATOM     63  C   UNL A   1      39.926  33.359  36.191  1.00  0.00     0.031 A 
BRANCH  50  64
ATOM     64  C   UNL A   1      43.926  28.641  36.001  1.00  0.00    -0.014 A 
ATOM     65  C   UNL A   1      43.649  27.520  36.806  1.00  0.00     0.010 A 
ATOM     66  C   UNL A   1      45.265  29.032  35.812  1.00  0.00     0.010 A 
ATOM     67  C   UNL A   1      44.687  26.831  37.441  1.00  0.00     0.020 A 
ATOM     68  C   UNL A   1      46.307  28.324  36.418  1.00  0.00     0.020 A 
ATOM     69  C   UNL A   1      46.009  27.239  37.242  1.00  0.00     0.054 A 
BRANCH  69  70
ATOM     70  S   UNL A   1      47.336  26.310  38.059  1.00  0.00     0.124 S 
ATOM     71  O   UNL A   1      46.936  26.385  39.462  1.00  0.00    -0.237 OA
ATOM     72  O   UNL A   1      47.226  24.990  37.445  1.00  0.00    -0.237 OA
ATOM     73  O   UNL A   1      48.544  27.056  37.717  1.00  0.00    -0.744 OA
ENDBRANCH  69  70
ENDBRANCH  50  64
BRANCH  51  74
ATOM     74  C   UNL A   1      36.579  33.379  31.134  1.00  0.00    -0.014 A 
ATOM     75  C   UNL A   1      35.297  33.474  31.706  1.00  0.00     0.010 A 
ATOM     76  C   UNL A   1      36.804  33.950  29.869  1.00  0.00     0.010 A 
ATOM     77  C   UNL A   1      34.257  34.106  31.016  1.00  0.00     0.020 A 
ATOM     78  C   UNL A   1      35.776  34.611  29.190  1.00  0.00     0.020 A 
ATOM     79  C   UNL A   1      34.505  34.674  29.764  1.00  0.00     0.054 A 
BRANCH  79  80
ATOM     80  S   UNL A   1      33.153  35.528  28.908  1.00  0.00     0.124 S 
ATOM     81  O   UNL A   1      32.494  34.431  28.207  1.00  0.00    -0.237 OA
ATOM     82  O   UNL A   1      32.403  36.114  30.015  1.00  0.00    -0.237 OA
ATOM     83  O   UNL A   1      33.844  36.493  28.055  1.00  0.00    -0.744 OA
ENDBRANCH  79  80
ENDBRANCH  51  74
BRANCH  63  84
ATOM     84  C   UNL A   1      39.806  34.446  37.229  1.00  0.00    -0.014 A 
ATOM     85  C   UNL A   1      38.952  34.324  38.340  1.00  0.00     0.010 A 
ATOM     86  C   UNL A   1      40.587  35.610  37.096  1.00  0.00     0.010 A 
ATOM     87  C   UNL A   1      38.835  35.369  39.262  1.00  0.00     0.020 A 
ATOM     88  C   UNL A   1      40.503  36.641  38.035  1.00  0.00     0.020 A 
ATOM     89  C   UNL A   1      39.607  36.524  39.099  1.00  0.00     0.054 A 
BRANCH  89  90
ATOM     90  S   UNL A   1      39.438  37.866  40.306  1.00  0.00     0.124 S 
ATOM     91  O   UNL A   1      38.142  38.436  39.948  1.00  0.00    -0.237 OA
ATOM     92  O   UNL A   1      39.482  37.157  41.582  1.00  0.00    -0.237 OA
ATOM     93  O   UNL A   1      40.591  38.723  40.035  1.00  0.00    -0.744 OA
ENDBRANCH  89  90
ENDBRANCH  63  84
ENDBRANCH  37  38
ENDBRANCH  30  32
ENDBRANCH  29  30
ENDBRANCH  28  29
ENDBRANCH  27  28
ENDBRANCH  26  27
ENDBRANCH  25  26
ENDBRANCH   1  25
TORSDOF 24
ENDMDL
MODEL 2
REMARK VINA RESULT:      -9.0      5.300      7.204
REMARK SMILES C[C@H]1[NH2+]CC[C@H]1C(=O)N1CC(C(=O)OCCOCCOCCOCCOC(=O)c2ccc(-c3c4nc(c(-c5ccc(S(=O)(=O)[O-])cc5)c5ccc([nH]5)c(-c5ccc(S(=O)(=O)[O-])cc5)c5nc(c(-c6ccc(S(=O)(=O)[O-])cc6)c6ccc3[nH]6)C=C5)C=C4)cc2)C1
REMARK SMILES IDX 21 1 20 2 19 3 18 4 17 5 16 6 15 7 14 8 12 9 13 10 11 11
REMARK SMILES IDX 7 12 8 13 9 14 10 15 89 16 6 17 1 18 2 19 3 20 4 21 5 24
REMARK SMILES IDX 22 25 23 26 24 27 25 28 26 29 27 30 28 31 29 32 30 33 88 34
REMARK SMILES IDX 31 35 87 36 32 37 33 38 34 39 81 40 35 41 86 42 80 43 82 44
REMARK SMILES IDX 36 45 85 46 79 47 78 48 37 50 67 51 48 52 66 53 49 54 52 55
REMARK SMILES IDX 65 56 83 57 50 58 51 59 64 61 84 62 53 63 38 64 39 65 47 66
REMARK SMILES IDX 40 67 46 68 41 69 42 70 43 71 44 72 45 73 68 74 69 75 77 76
REMARK SMILES IDX 70 77 76 78 71 79 72 80 73 81 74 82 75 83 54 84 55 85 63 86
REMARK SMILES IDX 56 87 62 88 57 89 58 90 59 91 60 92 61 93
REMARK H PARENT 3 22 3 23 82 49 52 60
REMARK Flexibility Score: inf
ROOT
ATOM      1  C   UNL A   1      34.352  23.892  26.270  1.00  0.00     0.188 C 
ENDROOT
BRANCH   1   2
ATOM      2  O   UNL A   1      33.527  22.944  26.940  1.00  0.00    -0.377 OA
BRANCH   2   3
ATOM      3  C   UNL A   1      34.049  21.636  27.031  1.00  0.00     0.188 C 
BRANCH   3   4
ATOM      4  C   UNL A   1      33.503  20.653  25.981  1.00  0.00     0.188 C 
BRANCH   4   5
ATOM      5  O   UNL A   1      32.568  21.064  24.993  1.00  0.00    -0.376 OA
BRANCH   5   6
ATOM      6  C   UNL A   1      32.988  21.541  23.721  1.00  0.00     0.202 C 
BRANCH   6   7
ATOM      7  C   UNL A   1      32.601  22.935  23.198  1.00  0.00     0.261 C 
BRANCH   7   8
ATOM      8  O   UNL A   1      31.220  23.284  23.340  1.00  0.00    -0.463 OA
BRANCH   8   9
ATOM      9  C   UNL A   1      30.832  23.848  24.516  1.00  0.00     0.312 C 
ATOM     10  O   UNL A   1      30.539  23.196  25.516  1.00  0.00    -0.252 OA
BRANCH   9  11
ATOM     11  C   UNL A   1      30.888  25.384  24.477  1.00  0.00     0.138 C 
ATOM     12  C   UNL A   1      30.141  28.395  23.784  1.00  0.00     0.231 C 
ATOM     13  O   UNL A   1      30.877  28.866  24.647  1.00  0.00    -0.274 OA
ATOM     14  N   UNL A   1      29.873  27.044  23.693  1.00  0.00    -0.340 N 
ATOM     15  C   UNL A   1      29.624  26.151  24.838  1.00  0.00     0.136 C 
ATOM     16  C   UNL A   1      30.865  26.121  23.143  1.00  0.00     0.136 C 
BRANCH  12  17
ATOM     17  C   UNL A   1      29.483  29.259  22.716  1.00  0.00     0.142 C 
ATOM     18  C   UNL A   1      27.045  28.584  23.397  1.00  0.00     0.076 C 
ATOM     19  C   UNL A   1      28.046  28.938  22.301  1.00  0.00     0.192 C 
ATOM     20  N   UNL A   1      27.597  30.162  21.604  1.00  0.00    -0.343 N 
ATOM     21  C   UNL A   1      28.409  31.291  22.064  1.00  0.00     0.261 C 
ATOM     22  H   UNL A   1      26.615  30.336  21.815  1.00  0.00     0.346 HD
ATOM     23  H   UNL A   1      27.705  30.045  20.596  1.00  0.00     0.346 HD
ATOM     24  C   UNL A   1      29.435  30.744  23.036  1.00  0.00     0.081 C 
ENDBRANCH  12  17
ENDBRANCH   9  11
ENDBRANCH   8   9
ENDBRANCH   7   8
ENDBRANCH   6   7
ENDBRANCH   5   6
ENDBRANCH   4   5
ENDBRANCH   3   4
ENDBRANCH   2   3
ENDBRANCH   1   2
BRANCH   1  25
ATOM     25  C   UNL A   1      35.812  23.484  25.968  1.00  0.00     0.188 C 
BRANCH  25  26
ATOM     26  O   UNL A   1      36.051  23.123  24.612  1.00  0.00    -0.376 OA
BRANCH  26  27
ATOM     27  C   UNL A   1      36.812  21.953  24.344  1.00  0.00     0.202 C 
BRANCH  27  28
ATOM     28  C   UNL A   1      37.866  21.535  25.386  1.00  0.00     0.261 C 
BRANCH  28  29
ATOM     29  O   UNL A   1      39.046  22.349  25.457  1.00  0.00    -0.460 OA
BRANCH  29  30
ATOM     30  C   UNL A   1      39.833  22.193  26.540  1.00  0.00     0.338 C 
ATOM     31  O   UNL A   1      40.448  21.185  26.857  1.00  0.00    -0.246 OA
BRANCH  30  32
ATOM     32  C   UNL A   1      40.007  23.509  27.185  1.00  0.00     0.060 A 
ATOM     33  C   UNL A   1      39.350  24.616  26.632  1.00  0.00     0.016 A 
ATOM     34  C   UNL A   1      40.834  23.661  28.301  1.00  0.00     0.016 A 
ATOM     35  C   UNL A   1      39.579  25.890  27.145  1.00  0.00     0.010 A 
ATOM     36  C   UNL A   1      41.079  24.942  28.803  1.00  0.00     0.010 A 
ATOM     37  C   UNL A   1      40.498  26.066  28.187  1.00  0.00    -0.014 A 
BRANCH  37  38
ATOM     38  C   UNL A   1      41.051  27.423  28.430  1.00  0.00     0.031 A 
ATOM     39  C   UNL A   1      42.429  27.727  27.898  1.00  0.00     0.074 A 
ATOM     40  C   UNL A   1      40.333  28.382  29.041  1.00  0.00     0.049 A 
ATOM     41  N   UNL A   1      43.124  28.832  27.971  1.00  0.00    -0.248 NA
ATOM     42  C   UNL A   1      43.116  26.633  27.188  1.00  0.00     0.031 C 
ATOM     43  C   UNL A   1      38.971  28.231  29.547  1.00  0.00     0.029 A 
ATOM     44  N   UNL A   1      40.659  29.683  29.332  1.00  0.00    -0.354 N 
ATOM     45  C   UNL A   1      44.327  28.564  27.326  1.00  0.00     0.074 A 
ATOM     46  C   UNL A   1      44.285  27.183  26.905  1.00  0.00     0.031 C 
ATOM     47  C   UNL A   1      38.576  29.398  30.087  1.00  0.00     0.029 A 
ATOM     48  C   UNL A   1      39.667  30.366  29.993  1.00  0.00     0.049 A 
ATOM     49  H   UNL A   1      41.522  30.088  29.089  1.00  0.00     0.167 HD
ATOM     50  C   UNL A   1      45.370  29.394  27.093  1.00  0.00     0.031 A 
ATOM     51  C   UNL A   1      39.649  31.624  30.476  1.00  0.00     0.031 A 
ATOM     52  C   UNL A   1      45.415  30.766  27.524  1.00  0.00     0.049 A 
ATOM     53  C   UNL A   1      40.854  32.510  30.271  1.00  0.00     0.074 A 
ATOM     54  C   UNL A   1      46.426  31.693  27.340  1.00  0.00     0.029 A 
ATOM     55  N   UNL A   1      44.408  31.406  28.229  1.00  0.00    -0.354 N 
ATOM     56  N   UNL A   1      41.983  32.245  29.654  1.00  0.00    -0.248 NA
ATOM     57  C   UNL A   1      40.773  33.874  30.813  1.00  0.00     0.031 C 
ATOM     58  C   UNL A   1      46.055  32.876  27.988  1.00  0.00     0.029 A 
ATOM     59  C   UNL A   1      44.780  32.711  28.505  1.00  0.00     0.049 A 
ATOM     60  H   UNL A   1      43.554  30.994  28.495  1.00  0.00     0.167 HD
ATOM     61  C   UNL A   1      42.724  33.423  29.694  1.00  0.00     0.074 A 
ATOM     62  C   UNL A   1      41.911  34.401  30.386  1.00  0.00     0.031 C 
ATOM     63  C   UNL A   1      43.960  33.676  29.194  1.00  0.00     0.031 A 
BRANCH  50  64
ATOM     64  C   UNL A   1      46.563  28.824  26.369  1.00  0.00    -0.014 A 
ATOM     65  C   UNL A   1      47.784  28.596  27.032  1.00  0.00     0.010 A 
ATOM     66  C   UNL A   1      46.452  28.489  25.007  1.00  0.00     0.010 A 
ATOM     67  C   UNL A   1      48.882  28.082  26.335  1.00  0.00     0.020 A 
ATOM     68  C   UNL A   1      47.538  27.943  24.316  1.00  0.00     0.020 A 
ATOM     69  C   UNL A   1      48.751  27.760  24.981  1.00  0.00     0.054 A 
BRANCH  69  70
ATOM     70  S   UNL A   1      50.185  27.071  24.110  1.00  0.00     0.124 S 
ATOM     71  O   UNL A   1      49.550  26.332  23.022  1.00  0.00    -0.237 OA
ATOM     72  O   UNL A   1      50.920  28.268  23.711  1.00  0.00    -0.237 OA
ATOM     73  O   UNL A   1      50.842  26.246  25.121  1.00  0.00    -0.744 OA
ENDBRANCH  69  70
ENDBRANCH  50  64
BRANCH  51  74
ATOM     74  C   UNL A   1      38.453  32.129  31.208  1.00  0.00    -0.014 A 
ATOM     75  C   UNL A   1      37.498  32.936  30.562  1.00  0.00     0.010 A 
ATOM     76  C   UNL A   1      38.274  31.818  32.568  1.00  0.00     0.010 A 
ATOM     77  C   UNL A   1      36.401  33.441  31.267  1.00  0.00     0.020 A 
ATOM     78  C   UNL A   1      37.161  32.294  33.268  1.00  0.00     0.020 A 
ATOM     79  C   UNL A   1      36.238  33.113  32.616  1.00  0.00     0.054 A 
BRANCH  79  80
ATOM     80  S   UNL A   1      34.783  33.741  33.499  1.00  0.00     0.124 S 
ATOM     81  O   UNL A   1      35.167  33.551  34.894  1.00  0.00    -0.237 OA
ATOM     82  O   UNL A   1      34.715  35.127  33.043  1.00  0.00    -0.237 OA
ATOM     83  O   UNL A   1      33.699  32.884  33.024  1.00  0.00    -0.744 OA
ENDBRANCH  79  80
ENDBRANCH  51  74
BRANCH  63  84
ATOM     84  C   UNL A   1      44.484  35.085  29.313  1.00  0.00    -0.014 A 
ATOM     85  C   UNL A   1      45.261  35.501  30.409  1.00  0.00     0.010 A 
ATOM     86  C   UNL A   1      44.206  36.008  28.286  1.00  0.00     0.010 A 
ATOM     87  C   UNL A   1      45.696  36.827  30.506  1.00  0.00     0.020 A 
ATOM     88  C   UNL A   1      44.671  37.323  28.359  1.00  0.00     0.020 A 
ATOM     89  C   UNL A   1      45.392  37.730  29.482  1.00  0.00     0.054 A 
BRANCH  89  90
ATOM     90  S   UNL A   1      45.966  39.444  29.630  1.00  0.00     0.124 S 
ATOM     91  O   UNL A   1      46.977  39.518  28.579  1.00  0.00    -0.237 OA
ATOM     92  O   UNL A   1      44.748  40.213  29.386  1.00  0.00    -0.237 OA
ATOM     93  O   UNL A   1      46.482  39.520  30.996  1.00  0.00    -0.744 OA
ENDBRANCH  89  90
ENDBRANCH  63  84
ENDBRANCH  37  38
ENDBRANCH  30  32
ENDBRANCH  29  30
ENDBRANCH  28  29
ENDBRANCH  27  28
ENDBRANCH  26  27
ENDBRANCH  25  26
ENDBRANCH   1  25
TORSDOF 24
ENDMDL
MODEL 3
REMARK VINA RESULT:      -8.9      3.126      8.823
REMARK SMILES C[C@H]1[NH2+]CC[C@H]1C(=O)N1CC(C(=O)OCCOCCOCCOCCOC(=O)c2ccc(-c3c4nc(c(-c5ccc(S(=O)(=O)[O-])cc5)c5ccc([nH]5)c(-c5ccc(S(=O)(=O)[O-])cc5)c5nc(c(-c6ccc(S(=O)(=O)[O-])cc6)c6ccc3[nH]6)C=C5)C=C4)cc2)C1
REMARK SMILES IDX 21 1 20 2 19 3 18 4 17 5 16 6 15 7 14 8 12 9 13 10 11 11
REMARK SMILES IDX 7 12 8 13 9 14 10 15 89 16 6 17 1 18 2 19 3 20 4 21 5 24
REMARK SMILES IDX 22 25 23 26 24 27 25 28 26 29 27 30 28 31 29 32 30 33 88 34
REMARK SMILES IDX 31 35 87 36 32 37 33 38 34 39 81 40 35 41 86 42 80 43 82 44
REMARK SMILES IDX 36 45 85 46 79 47 78 48 37 50 67 51 48 52 66 53 49 54 52 55
REMARK SMILES IDX 65 56 83 57 50 58 51 59 64 61 84 62 53 63 38 64 39 65 47 66
REMARK SMILES IDX 40 67 46 68 41 69 42 70 43 71 44 72 45 73 68 74 69 75 77 76
REMARK SMILES IDX 70 77 76 78 71 79 72 80 73 81 74 82 75 83 54 84 55 85 63 86
REMARK SMILES IDX 56 87 62 88 57 89 58 90 59 91 60 92 61 93
REMARK H PARENT 3 22 3 23 82 49 52 60
REMARK Flexibility Score: inf
ROOT
ATOM      1  C   UNL A   1      33.795  24.026  26.188  1.00  0.00     0.188 C 
ENDROOT
BRANCH   1   2
ATOM      2  O   UNL A   1      33.502  23.025  27.157  1.00  0.00    -0.377 OA
BRANCH   2   3
ATOM      3  C   UNL A   1      34.154  21.787  26.972  1.00  0.00     0.188 C 
BRANCH   3   4
ATOM      4  C   UNL A   1      33.330  20.737  26.205  1.00  0.00     0.188 C 
BRANCH   4   5
ATOM      5  O   UNL A   1      32.451  21.107  25.151  1.00  0.00    -0.376 OA
BRANCH   5   6
ATOM      6  C   UNL A   1      32.917  21.286  23.820  1.00  0.00     0.202 C 
BRANCH   6   7
ATOM      7  C   UNL A   1      32.050  21.933  22.727  1.00  0.00     0.261 C 
BRANCH   7   8
ATOM      8  O   UNL A   1      31.632  23.277  22.989  1.00  0.00    -0.463 OA
BRANCH   8   9
ATOM      9  C   UNL A   1      32.469  24.282  22.608  1.00  0.00     0.312 C 
ATOM     10  O   UNL A   1      33.421  24.118  21.847  1.00  0.00    -0.252 OA
BRANCH   9  11
ATOM     11  C   UNL A   1      32.034  25.648  23.161  1.00  0.00     0.138 C 
ATOM     12  C   UNL A   1      30.378  28.332  23.563  1.00  0.00     0.231 C 
ATOM     13  O   UNL A   1      30.915  28.604  24.635  1.00  0.00    -0.274 OA
ATOM     14  N   UNL A   1      30.554  27.117  22.931  1.00  0.00    -0.340 N 
ATOM     15  C   UNL A   1      30.588  25.809  23.605  1.00  0.00     0.136 C 
ATOM     16  C   UNL A   1      31.796  26.820  22.217  1.00  0.00     0.136 C 
BRANCH  12  17
ATOM     17  C   UNL A   1      29.494  29.326  22.821  1.00  0.00     0.142 C 
ATOM     18  C   UNL A   1      27.259  28.150  23.516  1.00  0.00     0.076 C 
ATOM     19  C   UNL A   1      28.066  28.909  22.466  1.00  0.00     0.192 C 
ATOM     20  N   UNL A   1      27.390  30.186  22.156  1.00  0.00    -0.343 N 
ATOM     21  C   UNL A   1      28.111  31.274  22.822  1.00  0.00     0.261 C 
ATOM     22  H   UNL A   1      26.428  30.155  22.492  1.00  0.00     0.346 HD
ATOM     23  H   UNL A   1      27.385  30.339  21.147  1.00  0.00     0.346 HD
ATOM     24  C   UNL A   1      29.308  30.661  23.522  1.00  0.00     0.081 C 
ENDBRANCH  12  17
ENDBRANCH   9  11
ENDBRANCH   8   9
ENDBRANCH   7   8
ENDBRANCH   6   7
ENDBRANCH   5   6
ENDBRANCH   4   5
ENDBRANCH   3   4
ENDBRANCH   2   3
ENDBRANCH   1   2
BRANCH   1  25
ATOM     25  C   UNL A   1      35.226  24.063  25.605  1.00  0.00     0.188 C 
BRANCH  25  26
ATOM     26  O   UNL A   1      35.382  23.339  24.389  1.00  0.00    -0.376 OA
BRANCH  26  27
ATOM     27  C   UNL A   1      36.588  22.618  24.176  1.00  0.00     0.202 C 
BRANCH  27  28
ATOM     28  C   UNL A   1      37.529  22.434  25.381  1.00  0.00     0.261 C 
BRANCH  28  29
ATOM     29  O   UNL A   1      38.759  23.174  25.345  1.00  0.00    -0.460 OA
BRANCH  29  30
ATOM     30  C   UNL A   1      39.557  23.088  26.428  1.00  0.00     0.338 C 
ATOM     31  O   UNL A   1      40.242  22.131  26.756  1.00  0.00    -0.246 OA
BRANCH  30  32
ATOM     32  C   UNL A   1      39.639  24.422  27.055  1.00  0.00     0.060 A 
ATOM     33  C   UNL A   1      40.420  25.405  26.434  1.00  0.00     0.016 A 
ATOM     34  C   UNL A   1      38.983  24.693  28.259  1.00  0.00     0.016 A 
ATOM     35  C   UNL A   1      40.612  26.638  27.054  1.00  0.00     0.010 A 
ATOM     36  C   UNL A   1      39.191  25.924  28.889  1.00  0.00     0.010 A 
ATOM     37  C   UNL A   1      40.055  26.875  28.317  1.00  0.00    -0.014 A 
BRANCH  37  38
ATOM     38  C   UNL A   1      40.602  27.982  29.141  1.00  0.00     0.031 A 
ATOM     39  C   UNL A   1      39.738  29.199  29.349  1.00  0.00     0.074 A 
ATOM     40  C   UNL A   1      41.800  27.889  29.748  1.00  0.00     0.049 A 
ATOM     41  N   UNL A   1      39.983  30.287  30.031  1.00  0.00    -0.248 NA
ATOM     42  C   UNL A   1      38.416  29.186  28.696  1.00  0.00     0.031 C 
ATOM     43  C   UNL A   1      42.703  26.743  29.674  1.00  0.00     0.029 A 
ATOM     44  N   UNL A   1      42.456  28.784  30.555  1.00  0.00    -0.354 N 
ATOM     45  C   UNL A   1      38.854  31.087  29.883  1.00  0.00     0.074 A 
ATOM     46  C   UNL A   1      37.943  30.379  29.014  1.00  0.00     0.031 C 
ATOM     47  C   UNL A   1      43.799  27.004  30.409  1.00  0.00     0.029 A 
ATOM     48  C   UNL A   1      43.687  28.346  30.978  1.00  0.00     0.049 A 
ATOM     49  H   UNL A   1      42.078  29.657  30.809  1.00  0.00     0.167 HD
ATOM     50  C   UNL A   1      38.592  32.298  30.429  1.00  0.00     0.031 A 
ATOM     51  C   UNL A   1      44.621  28.965  31.728  1.00  0.00     0.031 A 
ATOM     52  C   UNL A   1      39.507  33.007  31.283  1.00  0.00     0.049 A 
ATOM     53  C   UNL A   1      44.339  30.347  32.265  1.00  0.00     0.074 A 
ATOM     54  C   UNL A   1      39.339  34.240  31.888  1.00  0.00     0.029 A 
ATOM     55  N   UNL A   1      40.762  32.549  31.650  1.00  0.00    -0.354 N 
ATOM     56  N   UNL A   1      43.265  31.089  32.121  1.00  0.00    -0.248 NA
ATOM     57  C   UNL A   1      45.391  30.967  33.083  1.00  0.00     0.031 C 
ATOM     58  C   UNL A   1      40.518  34.555  32.571  1.00  0.00     0.029 A 
ATOM     59  C   UNL A   1      41.388  33.482  32.459  1.00  0.00     0.049 A 
ATOM     60  H   UNL A   1      41.151  31.686  31.378  1.00  0.00     0.167 HD
ATOM     61  C   UNL A   1      43.495  32.240  32.869  1.00  0.00     0.074 A 
ATOM     62  C   UNL A   1      44.804  32.091  33.469  1.00  0.00     0.031 C 
ATOM     63  C   UNL A   1      42.693  33.319  33.052  1.00  0.00     0.031 A 
BRANCH  50  64
ATOM     64  C   UNL A   1      37.276  32.945  30.083  1.00  0.00    -0.014 A 
ATOM     65  C   UNL A   1      37.130  33.748  28.936  1.00  0.00     0.010 A 
ATOM     66  C   UNL A   1      36.158  32.726  30.909  1.00  0.00     0.010 A 
ATOM     67  C   UNL A   1      35.903  34.352  28.646  1.00  0.00     0.020 A 
ATOM     68  C   UNL A   1      34.921  33.300  30.603  1.00  0.00     0.020 A 
ATOM     69  C   UNL A   1      34.806  34.124  29.482  1.00  0.00     0.054 A 
BRANCH  69  70
ATOM     70  S   UNL A   1      33.221  34.900  29.066  1.00  0.00     0.124 S 
ATOM     71  O   UNL A   1      32.567  34.967  30.371  1.00  0.00    -0.237 OA
ATOM     72  O   UNL A   1      33.632  36.183  28.504  1.00  0.00    -0.237 OA
ATOM     73  O   UNL A   1      32.617  33.969  28.116  1.00  0.00    -0.744 OA
ENDBRANCH  69  70
ENDBRANCH  50  64
BRANCH  51  74
ATOM     74  C   UNL A   1      45.918  28.289  32.018  1.00  0.00    -0.014 A 
ATOM     75  C   UNL A   1      47.019  28.439  31.155  1.00  0.00     0.010 A 
ATOM     76  C   UNL A   1      46.050  27.474  33.156  1.00  0.00     0.010 A 
ATOM     77  C   UNL A   1      48.218  27.766  31.411  1.00  0.00     0.020 A 
ATOM     78  C   UNL A   1      47.258  26.826  33.434  1.00  0.00     0.020 A 
ATOM     79  C   UNL A   1      48.331  26.967  32.552  1.00  0.00     0.054 A 
BRANCH  79  80
ATOM     80  S   UNL A   1      49.911  26.142  32.889  1.00  0.00     0.124 S 
ATOM     81  O   UNL A   1      50.803  26.786  31.930  1.00  0.00    -0.237 OA
ATOM     82  O   UNL A   1      50.143  26.472  34.293  1.00  0.00    -0.237 OA
ATOM     83  O   UNL A   1      49.622  24.733  32.629  1.00  0.00    -0.744 OA
ENDBRANCH  79  80
ENDBRANCH  51  74
BRANCH  63  84
ATOM     84  C   UNL A   1      43.175  34.394  33.993  1.00  0.00    -0.014 A 
ATOM     85  C   UNL A   1      42.915  34.346  35.375  1.00  0.00     0.010 A 
ATOM     86  C   UNL A   1      43.927  35.468  33.479  1.00  0.00     0.010 A 
ATOM     87  C   UNL A   1      43.343  35.382  36.212  1.00  0.00     0.020 A 
ATOM     88  C   UNL A   1      44.390  36.485  34.317  1.00  0.00     0.020 A 
ATOM     89  C   UNL A   1      44.072  36.447  35.675  1.00  0.00     0.054 A 
BRANCH  89  90
ATOM     90  S   UNL A   1      44.616  37.779  36.780  1.00  0.00     0.124 S 
ATOM     91  O   UNL A   1      45.936  37.311  37.194  1.00  0.00    -0.237 OA
ATOM     92  O   UNL A   1      44.610  38.947  35.903  1.00  0.00    -0.237 OA
ATOM     93  O   UNL A   1      43.602  37.791  37.833  1.00  0.00    -0.744 OA
ENDBRANCH  89  90
ENDBRANCH  63  84
ENDBRANCH  37  38
ENDBRANCH  30  32
ENDBRANCH  29  30
ENDBRANCH  28  29
ENDBRANCH  27  28
ENDBRANCH  26  27
ENDBRANCH  25  26
ENDBRANCH   1  25
TORSDOF 24
ENDMDL
