MODEL 1
REMARK VINA RESULT:     -10.4      0.000      0.000
REMARK SMILES Cc1cc(/C=C2/C(=O)NC(=S)N=C2OCCOCCOCCOCCOC(=O)c2ccc(-c3c4nc(c(-c5ccc(S(=O)(=O)[O-])cc5)c5ccc([nH]5)c(-c5ccc(S(=O)(=O)[O-])cc5)c5nc(c(-c6ccc(S(=O)(=O)[O-])cc6)c6ccc3[nH]6)C=C5)C=C4)cc2)c(C)n1-c1cccc(C(=O)[O-])c1
REMARK SMILES IDX 21 1 20 2 19 3 18 4 17 5 16 6 15 7 14 8 13 9 5 10 6 11 7 12
REMARK SMILES IDX 8 13 9 14 12 15 10 16 11 18 4 19 1 20 2 21 3 22 91 23 89 24
REMARK SMILES IDX 90 25 92 26 93 27 100 28 94 29 96 30 95 31 97 32 98 33 99 34
REMARK SMILES IDX 22 35 23 36 24 37 25 38 26 39 27 40 28 41 29 42 30 43 88 44
REMARK SMILES IDX 31 45 87 46 32 47 33 48 34 49 81 50 35 51 86 52 80 53 82 54
REMARK SMILES IDX 36 55 85 56 79 57 78 58 37 60 67 61 48 62 66 63 49 64 52 65
REMARK SMILES IDX 65 66 83 67 50 68 51 69 64 71 84 72 53 73 38 74 39 75 47 76
REMARK SMILES IDX 40 77 46 78 41 79 42 80 43 81 44 82 45 83 68 84 69 85 77 86
REMARK SMILES IDX 70 87 76 88 71 89 72 90 73 91 74 92 75 93 54 94 55 95 63 96
REMARK SMILES IDX 56 97 62 98 57 99 58 100 59 101 60 102 61 103
REMARK H PARENT 9 17 82 59 52 70
REMARK Flexibility Score: inf
ROOT
ATOM      1  C   UNL A   1      35.839  33.811  29.495  1.00  0.00     0.188 C 
ENDROOT
BRANCH   1   2
ATOM      2  O   UNL A   1      35.191  33.270  28.372  1.00  0.00    -0.377 OA
BRANCH   2   3
ATOM      3  C   UNL A   1      34.467  32.062  28.499  1.00  0.00     0.188 C 
BRANCH   3   4
ATOM      4  C   UNL A   1      34.440  30.902  27.472  1.00  0.00     0.188 C 
BRANCH   4   5
ATOM      5  O   UNL A   1      33.280  30.317  26.917  1.00  0.00    -0.376 OA
BRANCH   5   6
ATOM      6  C   UNL A   1      33.124  29.778  25.614  1.00  0.00     0.201 C 
BRANCH   6   7
ATOM      7  C   UNL A   1      32.761  28.305  25.298  1.00  0.00     0.260 C 
BRANCH   7   8
ATOM      8  O   UNL A   1      32.257  28.057  23.959  1.00  0.00    -0.475 OA
BRANCH   8   9
ATOM      9  C   UNL A   1      30.933  28.086  23.783  1.00  0.00     0.229 C 
ATOM     10  C   UNL A   1      30.486  25.667  24.793  1.00  0.00     0.029 C 
ATOM     11  C   UNL A   1      30.187  26.871  24.226  1.00  0.00     0.103 C 
ATOM     12  C   UNL A   1      28.729  26.966  23.823  1.00  0.00     0.262 C 
ATOM     13  O   UNL A   1      27.875  26.126  24.090  1.00  0.00    -0.269 OA
ATOM     14  N   UNL A   1      28.379  28.054  23.070  1.00  0.00    -0.297 N 
ATOM     15  N   UNL A   1      30.448  29.113  23.176  1.00  0.00    -0.184 NA
ATOM     16  C   UNL A   1      29.167  29.116  22.747  1.00  0.00     0.203 C 
ATOM     17  H   UNL A   1      27.457  28.069  22.723  1.00  0.00     0.172 HD
ATOM     18  S   UNL A   1      28.531  30.328  21.784  1.00  0.00    -0.038 S 
BRANCH  10  19
ATOM     19  C   UNL A   1      31.635  24.890  25.231  1.00  0.00    -0.003 A 
ATOM     20  C   UNL A   1      33.171  22.305  27.514  1.00  0.00     0.065 C 
ATOM     21  C   UNL A   1      32.777  23.323  26.501  1.00  0.00     0.020 A 
ATOM     22  C   UNL A   1      31.608  24.068  26.412  1.00  0.00     0.031 A 
ATOM     23  N   UNL A   1      33.584  23.736  25.467  1.00  0.00    -0.318 N 
ATOM     24  C   UNL A   1      32.832  24.553  24.629  1.00  0.00     0.027 A 
ATOM     25  C   UNL A   1      33.328  24.766  23.262  1.00  0.00     0.065 C 
BRANCH  23  26
ATOM     26  C   UNL A   1      34.906  23.324  25.121  1.00  0.00     0.046 A 
ATOM     27  C   UNL A   1      35.032  22.062  24.508  1.00  0.00     0.026 A 
ATOM     28  C   UNL A   1      36.010  23.935  25.731  1.00  0.00     0.036 A 
ATOM     29  C   UNL A   1      36.234  21.366  24.575  1.00  0.00     0.003 A 
ATOM     30  C   UNL A   1      37.225  23.233  25.778  1.00  0.00    -0.001 A 
ATOM     31  C   UNL A   1      37.324  21.944  25.223  1.00  0.00     0.010 A 
BRANCH  30  32
ATOM     32  C   UNL A   1      38.432  23.748  26.478  1.00  0.00     0.072 C 
ATOM     33  O   UNL A   1      38.607  24.896  26.815  1.00  0.00    -0.545 OA
ATOM     34  O   UNL A   1      39.349  22.791  26.711  1.00  0.00    -0.545 OA
ENDBRANCH  30  32
ENDBRANCH  23  26
ENDBRANCH  10  19
ENDBRANCH   8   9
ENDBRANCH   7   8
ENDBRANCH   6   7
ENDBRANCH   5   6
ENDBRANCH   4   5
ENDBRANCH   3   4
ENDBRANCH   2   3
ENDBRANCH   1   2
BRANCH   1  35
ATOM     35  C   UNL A   1      36.559  32.752  30.328  1.00  0.00     0.188 C 
BRANCH  35  36
ATOM     36  O   UNL A   1      35.847  32.221  31.431  1.00  0.00    -0.376 OA
BRANCH  36  37
ATOM     37  C   UNL A   1      34.803  33.011  32.012  1.00  0.00     0.202 C 
BRANCH  37  38
ATOM     38  C   UNL A   1      34.721  33.325  33.550  1.00  0.00     0.261 C 
BRANCH  38  39
ATOM     39  O   UNL A   1      35.843  33.242  34.520  1.00  0.00    -0.460 OA
BRANCH  39  40
ATOM     40  C   UNL A   1      37.062  33.761  34.103  1.00  0.00     0.338 C 
ATOM     41  O   UNL A   1      37.204  34.969  33.938  1.00  0.00    -0.246 OA
BRANCH  40  42
ATOM     42  C   UNL A   1      38.297  32.803  33.929  1.00  0.00     0.060 A 
ATOM     43  C   UNL A   1      39.120  32.953  32.817  1.00  0.00     0.016 A 
ATOM     44  C   UNL A   1      38.522  31.571  34.596  1.00  0.00     0.016 A 
ATOM     45  C   UNL A   1      40.142  31.971  32.451  1.00  0.00     0.010 A 
ATOM     46  C   UNL A   1      39.533  30.528  34.169  1.00  0.00     0.010 A 
ATOM     47  C   UNL A   1      40.405  30.678  33.067  1.00  0.00    -0.014 A 
BRANCH  47  48
ATOM     48  C   UNL A   1      41.285  29.519  32.155  1.00  0.00     0.031 A 
ATOM     49  C   UNL A   1      42.601  29.589  32.847  1.00  0.00     0.074 A 
ATOM     50  C   UNL A   1      41.364  28.677  31.005  1.00  0.00     0.049 A 
ATOM     51  N   UNL A   1      43.190  30.747  32.903  1.00  0.00    -0.248 NA
ATOM     52  C   UNL A   1      43.100  28.606  33.809  1.00  0.00     0.031 C 
ATOM     53  C   UNL A   1      40.399  28.536  29.892  1.00  0.00     0.029 A 
ATOM     54  N   UNL A   1      42.363  27.715  30.515  1.00  0.00    -0.354 N 
ATOM     55  C   UNL A   1      44.301  30.597  33.684  1.00  0.00     0.074 A 
ATOM     56  C   UNL A   1      44.079  29.328  34.373  1.00  0.00     0.031 C 
ATOM     57  C   UNL A   1      40.725  27.527  29.017  1.00  0.00     0.029 A 
ATOM     58  C   UNL A   1      41.994  26.872  29.363  1.00  0.00     0.049 A 
ATOM     59  H   UNL A   1      43.247  27.638  30.941  1.00  0.00     0.167 HD
ATOM     60  C   UNL A   1      45.450  31.094  33.142  1.00  0.00     0.031 A 
ATOM     61  C   UNL A   1      42.664  25.826  28.673  1.00  0.00     0.031 A 
ATOM     62  C   UNL A   1      46.215  30.048  32.511  1.00  0.00     0.049 A 
ATOM     63  C   UNL A   1      44.092  26.135  28.816  1.00  0.00     0.074 A 
ATOM     64  C   UNL A   1      46.535  28.761  32.899  1.00  0.00     0.029 A 
ATOM     65  N   UNL A   1      46.313  30.091  31.135  1.00  0.00    -0.354 N 
ATOM     66  N   UNL A   1      44.650  27.078  28.120  1.00  0.00    -0.248 NA
ATOM     67  C   UNL A   1      45.000  25.329  29.623  1.00  0.00     0.031 C 
ATOM     68  C   UNL A   1      46.295  27.978  31.753  1.00  0.00     0.029 A 
ATOM     69  C   UNL A   1      46.253  28.805  30.637  1.00  0.00     0.049 A 
ATOM     70  H   UNL A   1      46.412  30.908  30.594  1.00  0.00     0.167 HD
ATOM     71  C   UNL A   1      45.787  27.332  28.823  1.00  0.00     0.074 A 
ATOM     72  C   UNL A   1      46.088  26.095  29.524  1.00  0.00     0.031 C 
ATOM     73  C   UNL A   1      45.961  28.611  29.238  1.00  0.00     0.031 A 
BRANCH  60  74
ATOM     74  C   UNL A   1      45.315  32.485  32.556  1.00  0.00    -0.014 A 
ATOM     75  C   UNL A   1      44.279  32.750  31.652  1.00  0.00     0.010 A 
ATOM     76  C   UNL A   1      46.256  33.511  32.813  1.00  0.00     0.010 A 
ATOM     77  C   UNL A   1      44.225  33.982  30.983  1.00  0.00     0.020 A 
ATOM     78  C   UNL A   1      46.230  34.723  32.124  1.00  0.00     0.020 A 
ATOM     79  C   UNL A   1      45.213  34.950  31.205  1.00  0.00     0.054 A 
BRANCH  79  80
ATOM     80  S   UNL A   1      45.178  36.479  30.232  1.00  0.00     0.124 S 
ATOM     81  O   UNL A   1      45.131  37.512  31.267  1.00  0.00    -0.237 OA
ATOM     82  O   UNL A   1      46.435  36.403  29.495  1.00  0.00    -0.237 OA
ATOM     83  O   UNL A   1      43.959  36.367  29.434  1.00  0.00    -0.744 OA
ENDBRANCH  79  80
ENDBRANCH  60  74
BRANCH  61  84
ATOM     84  C   UNL A   1      42.596  24.608  27.612  1.00  0.00    -0.014 A 
ATOM     85  C   UNL A   1      43.076  24.783  26.253  1.00  0.00     0.010 A 
ATOM     86  C   UNL A   1      42.530  23.251  27.985  1.00  0.00     0.010 A 
ATOM     87  C   UNL A   1      43.556  23.732  25.406  1.00  0.00     0.020 A 
ATOM     88  C   UNL A   1      42.985  22.179  27.126  1.00  0.00     0.020 A 
ATOM     89  C   UNL A   1      43.536  22.425  25.861  1.00  0.00     0.054 A 
BRANCH  89  90
ATOM     90  S   UNL A   1      44.354  21.097  24.871  1.00  0.00     0.124 S 
ATOM     91  O   UNL A   1      43.432  19.972  24.989  1.00  0.00    -0.237 OA
ATOM     92  O   UNL A   1      44.444  21.692  23.537  1.00  0.00    -0.237 OA
ATOM     93  O   UNL A   1      45.642  20.912  25.538  1.00  0.00    -0.744 OA
ENDBRANCH  89  90
ENDBRANCH  61  84
BRANCH  73  94
ATOM     94  C   UNL A   1      45.619  29.719  28.256  1.00  0.00    -0.014 A 
ATOM     95  C   UNL A   1      46.330  30.005  27.066  1.00  0.00     0.010 A 
ATOM     96  C   UNL A   1      44.556  30.574  28.589  1.00  0.00     0.010 A 
ATOM     97  C   UNL A   1      46.046  31.141  26.293  1.00  0.00     0.020 A 
ATOM     98  C   UNL A   1      44.236  31.685  27.800  1.00  0.00     0.020 A 
ATOM     99  C   UNL A   1      45.007  31.985  26.677  1.00  0.00     0.054 A 
BRANCH  99 100
ATOM    100  S   UNL A   1      44.698  33.499  25.723  1.00  0.00     0.124 S 
ATOM    101  O   UNL A   1      43.730  34.201  26.564  1.00  0.00    -0.237 OA
ATOM    102  O   UNL A   1      46.020  34.115  25.651  1.00  0.00    -0.237 OA
ATOM    103  O   UNL A   1      44.161  33.005  24.457  1.00  0.00    -0.744 OA
ENDBRANCH  99 100
ENDBRANCH  73  94
ENDBRANCH  47  48
ENDBRANCH  40  42
ENDBRANCH  39  40
ENDBRANCH  38  39
ENDBRANCH  37  38
ENDBRANCH  36  37
ENDBRANCH  35  36
ENDBRANCH   1  35
TORSDOF 25
ENDMDL
MODEL 2
REMARK VINA RESULT:     -10.0      1.694      2.404
REMARK SMILES Cc1cc(/C=C2/C(=O)NC(=S)N=C2OCCOCCOCCOCCOC(=O)c2ccc(-c3c4nc(c(-c5ccc(S(=O)(=O)[O-])cc5)c5ccc([nH]5)c(-c5ccc(S(=O)(=O)[O-])cc5)c5nc(c(-c6ccc(S(=O)(=O)[O-])cc6)c6ccc3[nH]6)C=C5)C=C4)cc2)c(C)n1-c1cccc(C(=O)[O-])c1
REMARK SMILES IDX 21 1 20 2 19 3 18 4 17 5 16 6 15 7 14 8 13 9 5 10 6 11 7 12
REMARK SMILES IDX 8 13 9 14 12 15 10 16 11 18 4 19 1 20 2 21 3 22 91 23 89 24
REMARK SMILES IDX 90 25 92 26 93 27 100 28 94 29 96 30 95 31 97 32 98 33 99 34
REMARK SMILES IDX 22 35 23 36 24 37 25 38 26 39 27 40 28 41 29 42 30 43 88 44
REMARK SMILES IDX 31 45 87 46 32 47 33 48 34 49 81 50 35 51 86 52 80 53 82 54
REMARK SMILES IDX 36 55 85 56 79 57 78 58 37 60 67 61 48 62 66 63 49 64 52 65
REMARK SMILES IDX 65 66 83 67 50 68 51 69 64 71 84 72 53 73 38 74 39 75 47 76
REMARK SMILES IDX 40 77 46 78 41 79 42 80 43 81 44 82 45 83 68 84 69 85 77 86
REMARK SMILES IDX 70 87 76 88 71 89 72 90 73 91 74 92 75 93 54 94 55 95 63 96
REMARK SMILES IDX 56 97 62 98 57 99 58 100 59 101 60 102 61 103
REMARK H PARENT 9 17 82 59 52 70
REMARK Flexibility Score: inf
ROOT
ATOM      1  C   UNL A   1      35.597  33.303  28.539  1.00  0.00     0.188 C 
ENDROOT
BRANCH   1   2
ATOM      2  O   UNL A   1      35.140  32.482  27.495  1.00  0.00    -0.377 OA
BRANCH   2   3
ATOM      3  C   UNL A   1      33.947  31.741  27.662  1.00  0.00     0.188 C 
BRANCH   3   4
ATOM      4  C   UNL A   1      33.526  30.494  26.843  1.00  0.00     0.188 C 
BRANCH   4   5
ATOM      5  O   UNL A   1      32.199  30.083  26.588  1.00  0.00    -0.376 OA
BRANCH   5   6
ATOM      6  C   UNL A   1      31.577  29.910  25.324  1.00  0.00     0.201 C 
BRANCH   6   7
ATOM      7  C   UNL A   1      32.044  28.914  24.233  1.00  0.00     0.260 C 
BRANCH   7   8
ATOM      8  O   UNL A   1      31.378  29.035  22.947  1.00  0.00    -0.475 OA
BRANCH   8   9
ATOM      9  C   UNL A   1      30.083  29.361  22.951  1.00  0.00     0.229 C 
ATOM     10  C   UNL A   1      29.205  26.919  23.531  1.00  0.00     0.029 C 
ATOM     11  C   UNL A   1      29.130  28.250  23.247  1.00  0.00     0.103 C 
ATOM     12  C   UNL A   1      27.699  28.714  23.060  1.00  0.00     0.262 C 
ATOM     13  O   UNL A   1      26.708  28.021  23.270  1.00  0.00    -0.269 OA
ATOM     14  N   UNL A   1      27.533  29.985  22.579  1.00  0.00    -0.297 N 
ATOM     15  N   UNL A   1      29.784  30.568  22.618  1.00  0.00    -0.184 NA
ATOM     16  C   UNL A   1      28.503  30.914  22.366  1.00  0.00     0.203 C 
ATOM     17  H   UNL A   1      26.611  30.255  22.363  1.00  0.00     0.172 HD
ATOM     18  S   UNL A   1      28.068  32.405  21.740  1.00  0.00    -0.038 S 
BRANCH  10  19
ATOM     19  C   UNL A   1      30.190  25.855  23.662  1.00  0.00    -0.003 A 
ATOM     20  C   UNL A   1      33.299  24.094  22.444  1.00  0.00     0.065 C 
ATOM     21  C   UNL A   1      32.083  24.638  23.111  1.00  0.00     0.020 A 
ATOM     22  C   UNL A   1      31.186  25.597  22.656  1.00  0.00     0.031 A 
ATOM     23  N   UNL A   1      31.614  24.209  24.330  1.00  0.00    -0.318 N 
ATOM     24  C   UNL A   1      30.577  25.052  24.717  1.00  0.00     0.027 A 
ATOM     25  C   UNL A   1      30.206  25.066  26.138  1.00  0.00     0.065 C 
BRANCH  23  26
ATOM     26  C   UNL A   1      32.134  23.211  25.207  1.00  0.00     0.046 A 
ATOM     27  C   UNL A   1      33.238  23.581  25.999  1.00  0.00     0.026 A 
ATOM     28  C   UNL A   1      31.840  21.859  24.979  1.00  0.00     0.036 A 
ATOM     29  C   UNL A   1      34.103  22.612  26.495  1.00  0.00     0.003 A 
ATOM     30  C   UNL A   1      32.708  20.886  25.499  1.00  0.00    -0.001 A 
ATOM     31  C   UNL A   1      33.847  21.268  26.232  1.00  0.00     0.010 A 
BRANCH  30  32
ATOM     32  C   UNL A   1      32.542  19.431  25.242  1.00  0.00     0.072 C 
ATOM     33  O   UNL A   1      32.125  18.946  24.216  1.00  0.00    -0.545 OA
ATOM     34  O   UNL A   1      32.907  18.670  26.291  1.00  0.00    -0.545 OA
ENDBRANCH  30  32
ENDBRANCH  23  26
ENDBRANCH  10  19
ENDBRANCH   8   9
ENDBRANCH   7   8
ENDBRANCH   6   7
ENDBRANCH   5   6
ENDBRANCH   4   5
ENDBRANCH   3   4
ENDBRANCH   2   3
ENDBRANCH   1   2
BRANCH   1  35
ATOM     35  C   UNL A   1      36.112  32.505  29.735  1.00  0.00     0.188 C 
BRANCH  35  36
ATOM     36  O   UNL A   1      35.231  32.370  30.835  1.00  0.00    -0.376 OA
BRANCH  36  37
ATOM     37  C   UNL A   1      34.531  33.532  31.294  1.00  0.00     0.202 C 
BRANCH  37  38
ATOM     38  C   UNL A   1      34.116  33.746  32.795  1.00  0.00     0.261 C 
BRANCH  38  39
ATOM     39  O   UNL A   1      34.743  33.098  33.976  1.00  0.00    -0.460 OA
BRANCH  39  40
ATOM     40  C   UNL A   1      35.934  33.653  34.427  1.00  0.00     0.338 C 
ATOM     41  O   UNL A   1      35.932  34.694  35.076  1.00  0.00    -0.246 OA
BRANCH  40  42
ATOM     42  C   UNL A   1      37.288  32.892  34.184  1.00  0.00     0.060 A 
ATOM     43  C   UNL A   1      37.923  33.014  32.952  1.00  0.00     0.016 A 
ATOM     44  C   UNL A   1      37.814  31.818  34.948  1.00  0.00     0.016 A 
ATOM     45  C   UNL A   1      39.050  32.168  32.554  1.00  0.00     0.010 A 
ATOM     46  C   UNL A   1      38.933  30.902  34.500  1.00  0.00     0.010 A 
ATOM     47  C   UNL A   1      39.616  31.034  33.271  1.00  0.00    -0.014 A 
BRANCH  47  48
ATOM     48  C   UNL A   1      40.567  29.916  32.379  1.00  0.00     0.031 A 
ATOM     49  C   UNL A   1      41.784  29.868  33.236  1.00  0.00     0.074 A 
ATOM     50  C   UNL A   1      40.765  29.169  31.179  1.00  0.00     0.049 A 
ATOM     51  N   UNL A   1      42.400  30.989  33.468  1.00  0.00    -0.248 NA
ATOM     52  C   UNL A   1      42.118  28.787  34.163  1.00  0.00     0.031 C 
ATOM     53  C   UNL A   1      39.950  29.166  29.944  1.00  0.00     0.029 A 
ATOM     54  N   UNL A   1      41.786  28.207  30.737  1.00  0.00    -0.354 N 
ATOM     55  C   UNL A   1      43.394  30.724  34.367  1.00  0.00     0.074 A 
ATOM     56  C   UNL A   1      43.040  29.414  34.908  1.00  0.00     0.031 C 
ATOM     57  C   UNL A   1      40.352  28.219  29.033  1.00  0.00     0.029 A 
ATOM     58  C   UNL A   1      41.541  27.480  29.478  1.00  0.00     0.049 A 
ATOM     59  H   UNL A   1      42.604  28.054  31.263  1.00  0.00     0.167 HD
ATOM     60  C   UNL A   1      44.621  31.212  34.021  1.00  0.00     0.031 A 
ATOM     61  C   UNL A   1      42.258  26.465  28.789  1.00  0.00     0.031 A 
ATOM     62  C   UNL A   1      45.424  30.187  33.403  1.00  0.00     0.049 A 
ATOM     63  C   UNL A   1      43.666  26.696  29.138  1.00  0.00     0.074 A 
ATOM     64  C   UNL A   1      45.646  28.860  33.713  1.00  0.00     0.029 A 
ATOM     65  N   UNL A   1      45.702  30.340  32.059  1.00  0.00    -0.354 N 
ATOM     66  N   UNL A   1      44.342  27.666  28.605  1.00  0.00    -0.248 NA
ATOM     67  C   UNL A   1      44.433  25.784  29.979  1.00  0.00     0.031 C 
ATOM     68  C   UNL A   1      45.530  28.185  32.482  1.00  0.00     0.029 A 
ATOM     69  C   UNL A   1      45.662  29.104  31.447  1.00  0.00     0.049 A 
ATOM     70  H   UNL A   1      45.899  31.193  31.609  1.00  0.00     0.167 HD
ATOM     71  C   UNL A   1      45.386  27.809  29.465  1.00  0.00     0.074 A 
ATOM     72  C   UNL A   1      45.550  26.506  30.087  1.00  0.00     0.031 C 
ATOM     73  C   UNL A   1      45.549  29.040  30.010  1.00  0.00     0.031 A 
BRANCH  60  74
ATOM     74  C   UNL A   1      44.612  32.650  33.548  1.00  0.00    -0.014 A 
ATOM     75  C   UNL A   1      43.426  33.391  33.625  1.00  0.00     0.010 A 
ATOM     76  C   UNL A   1      45.737  33.256  32.939  1.00  0.00     0.010 A 
ATOM     77  C   UNL A   1      43.354  34.670  33.055  1.00  0.00     0.020 A 
ATOM     78  C   UNL A   1      45.662  34.511  32.337  1.00  0.00     0.020 A 
ATOM     79  C   UNL A   1      44.464  35.213  32.395  1.00  0.00     0.054 A 
BRANCH  79  80
ATOM     80  S   UNL A   1      44.295  36.816  31.565  1.00  0.00     0.124 S 
ATOM     81  O   UNL A   1      45.680  37.145  31.229  1.00  0.00    -0.237 OA
ATOM     82  O   UNL A   1      43.447  36.483  30.425  1.00  0.00    -0.237 OA
ATOM     83  O   UNL A   1      43.697  37.681  32.579  1.00  0.00    -0.744 OA
ENDBRANCH  79  80
ENDBRANCH  60  74
BRANCH  61  84
ATOM     84  C   UNL A   1      42.287  25.344  27.624  1.00  0.00    -0.014 A 
ATOM     85  C   UNL A   1      43.015  25.577  26.390  1.00  0.00     0.010 A 
ATOM     86  C   UNL A   1      42.050  23.974  27.854  1.00  0.00     0.010 A 
ATOM     87  C   UNL A   1      43.555  24.555  25.545  1.00  0.00     0.020 A 
ATOM     88  C   UNL A   1      42.567  22.934  26.991  1.00  0.00     0.020 A 
ATOM     89  C   UNL A   1      43.353  23.224  25.868  1.00  0.00     0.054 A 
BRANCH  89  90
ATOM     90  S   UNL A   1      44.229  21.905  24.915  1.00  0.00     0.124 S 
ATOM     91  O   UNL A   1      45.522  21.808  25.584  1.00  0.00    -0.237 OA
ATOM     92  O   UNL A   1      43.353  20.745  25.081  1.00  0.00    -0.237 OA
ATOM     93  O   UNL A   1      44.276  22.437  23.554  1.00  0.00    -0.744 OA
ENDBRANCH  89  90
ENDBRANCH  61  84
BRANCH  73  94
ATOM     94  C   UNL A   1      45.376  30.240  29.094  1.00  0.00    -0.014 A 
ATOM     95  C   UNL A   1      44.443  31.287  29.285  1.00  0.00     0.010 A 
ATOM     96  C   UNL A   1      46.153  30.279  27.925  1.00  0.00     0.010 A 
ATOM     97  C   UNL A   1      44.238  32.278  28.312  1.00  0.00     0.020 A 
ATOM     98  C   UNL A   1      45.986  31.288  26.969  1.00  0.00     0.020 A 
ATOM     99  C   UNL A   1      45.003  32.260  27.149  1.00  0.00     0.054 A 
BRANCH  99 100
ATOM    100  S   UNL A   1      44.676  33.492  25.857  1.00  0.00     0.124 S 
ATOM    101  O   UNL A   1      45.990  34.107  25.677  1.00  0.00    -0.237 OA
ATOM    102  O   UNL A   1      44.214  32.676  24.737  1.00  0.00    -0.237 OA
ATOM    103  O   UNL A   1      43.671  34.365  26.458  1.00  0.00    -0.744 OA
ENDBRANCH  99 100
ENDBRANCH  73  94
ENDBRANCH  47  48
ENDBRANCH  40  42
ENDBRANCH  39  40
ENDBRANCH  38  39
ENDBRANCH  37  38
ENDBRANCH  36  37
ENDBRANCH  35  36
ENDBRANCH   1  35
TORSDOF 25
ENDMDL
MODEL 3
REMARK VINA RESULT:      -9.8      5.568      9.839
REMARK SMILES Cc1cc(/C=C2/C(=O)NC(=S)N=C2OCCOCCOCCOCCOC(=O)c2ccc(-c3c4nc(c(-c5ccc(S(=O)(=O)[O-])cc5)c5ccc([nH]5)c(-c5ccc(S(=O)(=O)[O-])cc5)c5nc(c(-c6ccc(S(=O)(=O)[O-])cc6)c6ccc3[nH]6)C=C5)C=C4)cc2)c(C)n1-c1cccc(C(=O)[O-])c1
REMARK SMILES IDX 21 1 20 2 19 3 18 4 17 5 16 6 15 7 14 8 13 9 5 10 6 11 7 12
REMARK SMILES IDX 8 13 9 14 12 15 10 16 11 18 4 19 1 20 2 21 3 22 91 23 89 24
REMARK SMILES IDX 90 25 92 26 93 27 100 28 94 29 96 30 95 31 97 32 98 33 99 34
REMARK SMILES IDX 22 35 23 36 24 37 25 38 26 39 27 40 28 41 29 42 30 43 88 44
REMARK SMILES IDX 31 45 87 46 32 47 33 48 34 49 81 50 35 51 86 52 80 53 82 54
REMARK SMILES IDX 36 55 85 56 79 57 78 58 37 60 67 61 48 62 66 63 49 64 52 65
REMARK SMILES IDX 65 66 83 67 50 68 51 69 64 71 84 72 53 73 38 74 39 75 47 76
REMARK SMILES IDX 40 77 46 78 41 79 42 80 43 81 44 82 45 83 68 84 69 85 77 86
REMARK SMILES IDX 70 87 76 88 71 89 72 90 73 91 74 92 75 93 54 94 55 95 63 96
REMARK SMILES IDX 56 97 62 98 57 99 58 100 59 101 60 102 61 103
REMARK H PARENT 9 17 82 59 52 70
REMARK Flexibility Score: inf
ROOT
ATOM      1  C   UNL A   1      35.549  33.580  29.739  1.00  0.00     0.188 C 
ENDROOT
BRANCH   1   2
ATOM      2  O   UNL A   1      35.443  32.850  28.543  1.00  0.00    -0.377 OA
BRANCH   2   3
ATOM      3  C   UNL A   1      34.186  32.338  28.149  1.00  0.00     0.188 C 
BRANCH   3   4
ATOM      4  C   UNL A   1      33.943  31.044  27.331  1.00  0.00     0.188 C 
BRANCH   4   5
ATOM      5  O   UNL A   1      32.742  30.303  27.293  1.00  0.00    -0.376 OA
BRANCH   5   6
ATOM      6  C   UNL A   1      31.907  30.068  26.170  1.00  0.00     0.201 C 
BRANCH   6   7
ATOM      7  C   UNL A   1      32.031  28.859  25.209  1.00  0.00     0.260 C 
BRANCH   7   8
ATOM      8  O   UNL A   1      31.613  29.102  23.838  1.00  0.00    -0.475 OA
BRANCH   8   9
ATOM      9  C   UNL A   1      30.330  29.407  23.629  1.00  0.00     0.229 C 
ATOM     10  C   UNL A   1      29.461  26.893  23.661  1.00  0.00     0.029 C 
ATOM     11  C   UNL A   1      29.386  28.251  23.563  1.00  0.00     0.103 C 
ATOM     12  C   UNL A   1      28.001  28.719  23.161  1.00  0.00     0.262 C 
ATOM     13  O   UNL A   1      27.019  27.990  23.065  1.00  0.00    -0.269 OA
ATOM     14  N   UNL A   1      27.878  30.045  22.846  1.00  0.00    -0.297 N 
ATOM     15  N   UNL A   1      30.050  30.646  23.421  1.00  0.00    -0.184 NA
ATOM     16  C   UNL A   1      28.831  31.009  22.969  1.00  0.00     0.203 C 
ATOM     17  H   UNL A   1      27.006  30.333  22.490  1.00  0.00     0.172 HD
ATOM     18  S   UNL A   1      28.463  32.571  22.492  1.00  0.00    -0.038 S 
BRANCH  10  19
ATOM     19  C   UNL A   1      30.445  25.835  23.831  1.00  0.00    -0.003 A 
ATOM     20  C   UNL A   1      33.712  24.208  22.869  1.00  0.00     0.065 C 
ATOM     21  C   UNL A   1      32.416  24.686  23.423  1.00  0.00     0.020 A 
ATOM     22  C   UNL A   1      31.559  25.664  22.935  1.00  0.00     0.031 A 
ATOM     23  N   UNL A   1      31.816  24.162  24.544  1.00  0.00    -0.318 N 
ATOM     24  C   UNL A   1      30.722  24.961  24.864  1.00  0.00     0.027 A 
ATOM     25  C   UNL A   1      30.187  24.867  26.229  1.00  0.00     0.065 C 
BRANCH  23  26
ATOM     26  C   UNL A   1      32.249  23.109  25.403  1.00  0.00     0.046 A 
ATOM     27  C   UNL A   1      33.160  23.458  26.419  1.00  0.00     0.026 A 
ATOM     28  C   UNL A   1      32.111  21.774  24.996  1.00  0.00     0.036 A 
ATOM     29  C   UNL A   1      33.999  22.497  26.972  1.00  0.00     0.003 A 
ATOM     30  C   UNL A   1      32.949  20.806  25.573  1.00  0.00    -0.001 A 
ATOM     31  C   UNL A   1      33.903  21.176  26.538  1.00  0.00     0.010 A 
BRANCH  30  32
ATOM     32  C   UNL A   1      32.949  19.380  25.152  1.00  0.00     0.072 C 
ATOM     33  O   UNL A   1      32.030  18.608  25.300  1.00  0.00    -0.545 OA
ATOM     34  O   UNL A   1      34.104  19.007  24.571  1.00  0.00    -0.545 OA
ENDBRANCH  30  32
ENDBRANCH  23  26
ENDBRANCH  10  19
ENDBRANCH   8   9
ENDBRANCH   7   8
ENDBRANCH   6   7
ENDBRANCH   5   6
ENDBRANCH   4   5
ENDBRANCH   3   4
ENDBRANCH   2   3
ENDBRANCH   1   2
BRANCH   1  35
ATOM     35  C   UNL A   1      34.824  32.911  30.905  1.00  0.00     0.188 C 
BRANCH  35  36
ATOM     36  O   UNL A   1      35.366  33.127  32.196  1.00  0.00    -0.376 OA
BRANCH  36  37
ATOM     37  C   UNL A   1      36.776  33.341  32.315  1.00  0.00     0.202 C 
BRANCH  37  38
ATOM     38  C   UNL A   1      37.834  32.186  32.179  1.00  0.00     0.261 C 
BRANCH  38  39
ATOM     39  O   UNL A   1      37.910  31.197  31.074  1.00  0.00    -0.460 OA
BRANCH  39  40
ATOM     40  C   UNL A   1      38.620  31.583  29.943  1.00  0.00     0.338 C 
ATOM     41  O   UNL A   1      38.341  31.120  28.842  1.00  0.00    -0.246 OA
BRANCH  40  42
ATOM     42  C   UNL A   1      39.729  32.691  30.062  1.00  0.00     0.060 A 
ATOM     43  C   UNL A   1      39.398  34.015  29.786  1.00  0.00     0.016 A 
ATOM     44  C   UNL A   1      41.133  32.493  30.108  1.00  0.00     0.016 A 
ATOM     45  C   UNL A   1      40.404  35.068  29.641  1.00  0.00     0.010 A 
ATOM     46  C   UNL A   1      42.168  33.575  29.887  1.00  0.00     0.010 A 
ATOM     47  C   UNL A   1      41.854  34.931  29.644  1.00  0.00    -0.014 A 
BRANCH  47  48
ATOM     48  C   UNL A   1      42.781  36.202  28.956  1.00  0.00     0.031 A 
ATOM     49  C   UNL A   1      44.135  35.834  29.452  1.00  0.00     0.074 A 
ATOM     50  C   UNL A   1      42.814  37.462  28.286  1.00  0.00     0.049 A 
ATOM     51  N   UNL A   1      44.296  35.725  30.737  1.00  0.00    -0.248 NA
ATOM     52  C   UNL A   1      45.178  35.191  28.652  1.00  0.00     0.031 C 
ATOM     53  C   UNL A   1      41.683  38.328  27.884  1.00  0.00     0.029 A 
ATOM     54  N   UNL A   1      43.900  38.324  27.794  1.00  0.00    -0.354 N 
ATOM     55  C   UNL A   1      45.563  35.260  30.948  1.00  0.00     0.074 A 
ATOM     56  C   UNL A   1      45.977  34.758  29.639  1.00  0.00     0.031 C 
ATOM     57  C   UNL A   1      42.072  39.410  27.130  1.00  0.00     0.029 A 
ATOM     58  C   UNL A   1      43.529  39.482  26.959  1.00  0.00     0.049 A 
ATOM     59  H   UNL A   1      44.840  38.134  28.014  1.00  0.00     0.167 HD
ATOM     60  C   UNL A   1      46.283  35.964  31.868  1.00  0.00     0.031 A 
ATOM     61  C   UNL A   1      44.291  40.473  26.283  1.00  0.00     0.031 A 
ATOM     62  C   UNL A   1      47.146  36.920  31.221  1.00  0.00     0.049 A 
ATOM     63  C   UNL A   1      45.515  40.617  27.082  1.00  0.00     0.074 A 
ATOM     64  C   UNL A   1      47.971  36.837  30.116  1.00  0.00     0.029 A 
ATOM     65  N   UNL A   1      46.840  38.255  31.397  1.00  0.00    -0.354 N 
ATOM     66  N   UNL A   1      45.511  41.257  28.210  1.00  0.00    -0.248 NA
ATOM     67  C   UNL A   1      46.825  40.189  26.606  1.00  0.00     0.031 C 
ATOM     68  C   UNL A   1      47.699  38.009  29.384  1.00  0.00     0.029 A 
ATOM     69  C   UNL A   1      47.076  38.931  30.217  1.00  0.00     0.049 A 
ATOM     70  H   UNL A   1      46.507  38.661  32.230  1.00  0.00     0.167 HD
ATOM     71  C   UNL A   1      46.645  40.806  28.810  1.00  0.00     0.074 A 
ATOM     72  C   UNL A   1      47.523  40.410  27.722  1.00  0.00     0.031 C 
ATOM     73  C   UNL A   1      46.491  40.236  30.031  1.00  0.00     0.031 A 
BRANCH  60  74
ATOM     74  C   UNL A   1      45.537  36.264  33.151  1.00  0.00    -0.014 A 
ATOM     75  C   UNL A   1      45.539  37.569  33.658  1.00  0.00     0.010 A 
ATOM     76  C   UNL A   1      44.908  35.252  33.918  1.00  0.00     0.010 A 
ATOM     77  C   UNL A   1      44.985  37.839  34.918  1.00  0.00     0.020 A 
ATOM     78  C   UNL A   1      44.389  35.505  35.187  1.00  0.00     0.020 A 
ATOM     79  C   UNL A   1      44.435  36.802  35.684  1.00  0.00     0.054 A 
BRANCH  79  80
ATOM     80  S   UNL A   1      43.841  37.168  37.357  1.00  0.00     0.124 S 
ATOM     81  O   UNL A   1      42.431  36.785  37.282  1.00  0.00    -0.237 OA
ATOM     82  O   UNL A   1      44.674  36.293  38.176  1.00  0.00    -0.237 OA
ATOM     83  O   UNL A   1      44.071  38.601  37.512  1.00  0.00    -0.744 OA
ENDBRANCH  79  80
ENDBRANCH  60  74
BRANCH  61  84
ATOM     84  C   UNL A   1      44.342  41.676  25.205  1.00  0.00    -0.014 A 
ATOM     85  C   UNL A   1      45.586  42.026  24.544  1.00  0.00     0.010 A 
ATOM     86  C   UNL A   1      43.213  42.140  24.499  1.00  0.00     0.010 A 
ATOM     87  C   UNL A   1      45.691  42.655  23.261  1.00  0.00     0.020 A 
ATOM     88  C   UNL A   1      43.309  42.803  23.217  1.00  0.00     0.020 A 
ATOM     89  C   UNL A   1      44.540  43.018  22.583  1.00  0.00     0.054 A 
BRANCH  89  90
ATOM     90  S   UNL A   1      44.656  43.624  20.841  1.00  0.00     0.124 S 
ATOM     91  O   UNL A   1      45.016  45.029  20.996  1.00  0.00    -0.237 OA
ATOM     92  O   UNL A   1      45.698  42.773  20.267  1.00  0.00    -0.237 OA
ATOM     93  O   UNL A   1      43.317  43.385  20.303  1.00  0.00    -0.744 OA
ENDBRANCH  89  90
ENDBRANCH  61  84
BRANCH  73  94
ATOM     94  C   UNL A   1      45.542  40.914  31.006  1.00  0.00    -0.014 A 
ATOM     95  C   UNL A   1      44.143  40.702  31.066  1.00  0.00     0.010 A 
ATOM     96  C   UNL A   1      46.082  41.882  31.868  1.00  0.00     0.010 A 
ATOM     97  C   UNL A   1      43.315  41.481  31.888  1.00  0.00     0.020 A 
ATOM     98  C   UNL A   1      45.268  42.634  32.724  1.00  0.00     0.020 A 
ATOM     99  C   UNL A   1      43.885  42.457  32.701  1.00  0.00     0.054 A 
BRANCH  99 100
ATOM    100  S   UNL A   1      42.802  43.520  33.699  1.00  0.00     0.124 S 
ATOM    101  O   UNL A   1      41.985  42.542  34.415  1.00  0.00    -0.237 OA
ATOM    102  O   UNL A   1      43.748  44.264  34.527  1.00  0.00    -0.237 OA
ATOM    103  O   UNL A   1      42.079  44.307  32.703  1.00  0.00    -0.744 OA
ENDBRANCH  99 100
ENDBRANCH  73  94
ENDBRANCH  47  48
ENDBRANCH  40  42
ENDBRANCH  39  40
ENDBRANCH  38  39
ENDBRANCH  37  38
ENDBRANCH  36  37
ENDBRANCH  35  36
ENDBRANCH   1  35
TORSDOF 25
ENDMDL
