MODEL 1
REMARK VINA RESULT:      -6.3      0.000      0.000
REMARK SMILES CN(C)S(=O)(=O)c1ccc(-n2c(CCC(=O)OCCOCCOCCOCCOC(=O)c3ccc(-c4c5nc(c(-c6ccc(S(=O)(=O)[O-])cc6)c6ccc([nH]6)c(-c6ccc(S(=O)(=O)[O-])cc6)c6nc(c(-c7ccc(S(=O)(=O)[O-])cc7)c7ccc4[nH]7)C=C6)C=C5)cc3)ccc2-c2ccc(F)cc2)cc1
REMARK SMILES IDX 22 1 21 2 20 3 19 4 18 5 17 6 15 7 16 8 14 9 13 10 12 11
REMARK SMILES IDX 11 12 94 13 92 14 93 15 10 16 7 17 8 18 103 19 9 20 102 21
REMARK SMILES IDX 4 22 5 23 6 24 2 25 1 26 3 27 95 28 96 29 101 30 97 31
REMARK SMILES IDX 100 32 98 33 99 34 23 35 24 36 25 37 26 38 27 39 28 40 29 41
REMARK SMILES IDX 30 42 31 43 32 44 33 45 91 46 34 47 90 48 35 49 36 50 37 51
REMARK SMILES IDX 84 52 38 53 89 54 83 55 85 56 39 57 88 58 82 59 81 60 40 62
REMARK SMILES IDX 70 63 51 64 69 65 52 66 55 67 68 68 86 69 53 70 54 71 67 73
REMARK SMILES IDX 87 74 56 75 41 76 42 77 50 78 43 79 49 80 44 81 45 82 46 83
REMARK SMILES IDX 47 84 48 85 71 86 72 87 80 88 73 89 79 90 74 91 75 92 76 93
REMARK SMILES IDX 77 94 78 95 57 96 58 97 66 98 59 99 65 100 60 101 61 102
REMARK SMILES IDX 62 103 63 104 64 105
REMARK H PARENT 85 61 55 72
REMARK Flexibility Score: inf
ROOT
ATOM      1  C   UNL A   1      33.026  35.635  29.714  1.00  0.00     0.188 C 
ENDROOT
BRANCH   1   2
ATOM      2  C   UNL A   1      33.298  35.768  31.217  1.00  0.00     0.188 C 
BRANCH   2   3
ATOM      3  O   UNL A   1      34.432  34.794  31.636  1.00  0.00    -0.376 OA
BRANCH   3   4
ATOM      4  C   UNL A   1      36.324  34.549  32.223  1.00  0.00     0.202 C 
BRANCH   4   5
ATOM      5  C   UNL A   1      37.172  33.162  32.833  1.00  0.00     0.261 C 
BRANCH   5   6
ATOM      6  O   UNL A   1      37.366  33.007  34.270  1.00  0.00    -0.463 OA
BRANCH   6   7
ATOM      7  C   UNL A   1      38.636  32.754  34.698  1.00  0.00     0.306 C 
ATOM      8  O   UNL A   1      39.162  31.646  34.633  1.00  0.00    -0.252 OA
BRANCH   7   9
ATOM      9  C   UNL A   1      39.415  33.981  35.183  1.00  0.00     0.129 C 
BRANCH   9  10
ATOM     10  C   UNL A   1      39.787  35.118  34.220  1.00  0.00     0.066 C 
BRANCH  10  11
ATOM     11  C   UNL A   1      40.832  34.754  33.231  1.00  0.00     0.024 A 
ATOM     12  N   UNL A   1      42.159  35.170  33.280  1.00  0.00    -0.314 N 
ATOM     13  C   UNL A   1      42.856  34.429  32.295  1.00  0.00     0.053 A 
ATOM     14  C   UNL A   1      40.653  34.004  32.085  1.00  0.00     0.024 A 
ATOM     15  C   UNL A   1      41.910  33.806  31.499  1.00  0.00     0.029 A 
BRANCH  12  16
ATOM     16  C   UNL A   1      42.739  36.110  34.203  1.00  0.00     0.046 A 
ATOM     17  C   UNL A   1      43.936  38.315  36.806  1.00  0.00     0.082 A 
ATOM     18  C   UNL A   1      43.424  36.653  37.189  1.00  0.00     0.024 A 
ATOM     19  C   UNL A   1      43.841  38.946  35.117  1.00  0.00     0.024 A 
ATOM     20  C   UNL A   1      42.869  35.547  35.908  1.00  0.00     0.028 A 
ATOM     21  C   UNL A   1      43.268  37.827  33.786  1.00  0.00     0.028 A 
BRANCH  17  22
ATOM     22  S   UNL A   1      44.781  39.254  38.035  1.00  0.00     0.242 S 
ATOM     23  O   UNL A   1      46.125  38.749  38.112  1.00  0.00    -0.207 OA
ATOM     24  O   UNL A   1      43.906  39.270  39.200  1.00  0.00    -0.207 OA
BRANCH  22  25
ATOM     25  N   UNL A   1      44.860  40.861  37.422  1.00  0.00    -0.204 NA
ATOM     26  C   UNL A   1      43.883  41.778  38.066  1.00  0.00     0.124 C 
ATOM     27  C   UNL A   1      46.210  41.478  37.412  1.00  0.00     0.124 C 
ENDBRANCH  22  25
ENDBRANCH  17  22
ENDBRANCH  12  16
BRANCH  13  28
ATOM     28  C   UNL A   1      44.313  34.263  32.150  1.00  0.00    -0.001 A 
ATOM     29  C   UNL A   1      45.155  34.373  33.270  1.00  0.00     0.013 A 
ATOM     30  C   UNL A   1      44.887  33.982  30.899  1.00  0.00     0.013 A 
ATOM     31  C   UNL A   1      46.527  34.126  33.156  1.00  0.00     0.040 A 
ATOM     32  C   UNL A   1      46.256  33.722  30.788  1.00  0.00     0.040 A 
ATOM     33  C   UNL A   1      47.061  33.786  31.919  1.00  0.00     0.123 A 
ATOM     34  F   UNL A   1      48.368  33.511  31.813  1.00  0.00    -0.207 F 
ENDBRANCH  13  28
ENDBRANCH  10  11
ENDBRANCH   9  10
ENDBRANCH   7   9
ENDBRANCH   6   7
ENDBRANCH   5   6
ENDBRANCH   4   5
ENDBRANCH   3   4
ENDBRANCH   2   3
ENDBRANCH   1   2
BRANCH   1  35
ATOM     35  O   UNL A   1      34.144  35.430  28.859  1.00  0.00    -0.377 OA
BRANCH  35  36
ATOM     36  C   UNL A   1      33.996  34.580  27.740  1.00  0.00     0.188 C 
BRANCH  36  37
ATOM     37  C   UNL A   1      33.686  33.101  27.985  1.00  0.00     0.188 C 
BRANCH  37  38
ATOM     38  O   UNL A   1      34.310  32.051  27.265  1.00  0.00    -0.376 OA
BRANCH  38  39
ATOM     39  C   UNL A   1      35.050  31.018  27.897  1.00  0.00     0.202 C 
BRANCH  39  40
ATOM     40  C   UNL A   1      35.771  31.230  29.231  1.00  0.00     0.261 C 
BRANCH  40  41
ATOM     41  O   UNL A   1      36.166  30.021  29.857  1.00  0.00    -0.460 OA
BRANCH  41  42
ATOM     42  C   UNL A   1      37.461  29.742  29.632  1.00  0.00     0.338 C 
ATOM     43  O   UNL A   1      37.924  28.970  28.806  1.00  0.00    -0.246 OA
BRANCH  42  44
ATOM     44  C   UNL A   1      38.308  30.440  30.611  1.00  0.00     0.060 A 
ATOM     45  C   UNL A   1      39.408  31.062  29.997  1.00  0.00     0.016 A 
ATOM     46  C   UNL A   1      38.447  29.623  31.730  1.00  0.00     0.016 A 
ATOM     47  C   UNL A   1      40.656  30.532  30.230  1.00  0.00     0.010 A 
ATOM     48  C   UNL A   1      39.673  29.029  31.907  1.00  0.00     0.010 A 
ATOM     49  C   UNL A   1      40.757  29.459  31.119  1.00  0.00    -0.014 A 
BRANCH  49  50
ATOM     50  C   UNL A   1      42.086  28.959  31.460  1.00  0.00     0.031 A 
ATOM     51  C   UNL A   1      42.373  27.713  30.605  1.00  0.00     0.074 A 
ATOM     52  C   UNL A   1      42.796  29.671  32.393  1.00  0.00     0.049 A 
ATOM     53  N   UNL A   1      43.394  26.927  30.630  1.00  0.00    -0.248 NA
ATOM     54  C   UNL A   1      41.396  27.261  29.559  1.00  0.00     0.031 C 
ATOM     55  C   UNL A   1      42.312  30.877  33.119  1.00  0.00     0.029 A 
ATOM     56  N   UNL A   1      44.065  29.541  32.920  1.00  0.00    -0.354 N 
ATOM     57  C   UNL A   1      43.312  26.083  29.503  1.00  0.00     0.074 A 
ATOM     58  C   UNL A   1      42.028  26.281  28.916  1.00  0.00     0.031 C 
ATOM     59  C   UNL A   1      43.226  31.303  34.026  1.00  0.00     0.029 A 
ATOM     60  C   UNL A   1      44.414  30.475  33.941  1.00  0.00     0.049 A 
ATOM     61  H   UNL A   1      44.690  28.848  32.610  1.00  0.00     0.167 HD
ATOM     62  C   UNL A   1      44.380  25.371  29.057  1.00  0.00     0.031 A 
ATOM     63  C   UNL A   1      45.582  30.562  34.654  1.00  0.00     0.031 A 
ATOM     64  C   UNL A   1      45.449  25.479  29.988  1.00  0.00     0.049 A 
ATOM     65  C   UNL A   1      46.521  29.703  33.925  1.00  0.00     0.074 A 
ATOM     66  C   UNL A   1      45.569  25.009  31.270  1.00  0.00     0.029 A 
ATOM     67  N   UNL A   1      46.331  26.515  29.785  1.00  0.00    -0.354 N 
ATOM     68  N   UNL A   1      47.075  30.026  32.798  1.00  0.00    -0.248 NA
ATOM     69  C   UNL A   1      46.888  28.400  34.485  1.00  0.00     0.031 C 
ATOM     70  C   UNL A   1      46.142  26.101  31.946  1.00  0.00     0.029 A 
ATOM     71  C   UNL A   1      46.591  27.050  31.019  1.00  0.00     0.049 A 
ATOM     72  H   UNL A   1      46.701  26.812  28.923  1.00  0.00     0.167 HD
ATOM     73  C   UNL A   1      47.476  28.807  32.327  1.00  0.00     0.074 A 
ATOM     74  C   UNL A   1      47.660  27.961  33.492  1.00  0.00     0.031 C 
ATOM     75  C   UNL A   1      47.047  28.414  31.100  1.00  0.00     0.031 A 
BRANCH  62  76
ATOM     76  C   UNL A   1      44.670  24.747  27.731  1.00  0.00    -0.014 A 
ATOM     77  C   UNL A   1      43.576  24.651  26.836  1.00  0.00     0.010 A 
ATOM     78  C   UNL A   1      45.795  23.946  27.489  1.00  0.00     0.010 A 
ATOM     79  C   UNL A   1      43.536  23.682  25.840  1.00  0.00     0.020 A 
ATOM     80  C   UNL A   1      45.778  22.996  26.456  1.00  0.00     0.020 A 
ATOM     81  C   UNL A   1      44.626  22.834  25.679  1.00  0.00     0.054 A 
BRANCH  81  82
ATOM     82  S   UNL A   1      44.469  21.470  24.497  1.00  0.00     0.124 S 
ATOM     83  O   UNL A   1      44.176  22.175  23.253  1.00  0.00    -0.237 OA
ATOM     84  O   UNL A   1      45.788  20.843  24.566  1.00  0.00    -0.237 OA
ATOM     85  O   UNL A   1      43.377  20.668  25.042  1.00  0.00    -0.744 OA
ENDBRANCH  81  82
ENDBRANCH  62  76
BRANCH  63  86
ATOM     86  C   UNL A   1      46.208  31.208  35.877  1.00  0.00    -0.014 A 
ATOM     87  C   UNL A   1      47.485  31.772  35.960  1.00  0.00     0.010 A 
ATOM     88  C   UNL A   1      45.337  31.496  36.975  1.00  0.00     0.010 A 
ATOM     89  C   UNL A   1      47.795  32.707  36.985  1.00  0.00     0.020 A 
ATOM     90  C   UNL A   1      45.602  32.463  37.944  1.00  0.00     0.020 A 
ATOM     91  C   UNL A   1      46.828  33.097  37.924  1.00  0.00     0.054 A 
BRANCH  91  92
ATOM     92  S   UNL A   1      47.079  34.541  39.002  1.00  0.00     0.124 S 
ATOM     93  O   UNL A   1      48.510  34.485  39.281  1.00  0.00    -0.237 OA
ATOM     94  O   UNL A   1      46.641  35.654  38.162  1.00  0.00    -0.237 OA
ATOM     95  O   UNL A   1      46.210  34.268  40.147  1.00  0.00    -0.744 OA
ENDBRANCH  91  92
ENDBRANCH  63  86
BRANCH  75  96
ATOM     96  C   UNL A   1      46.719  29.544  30.125  1.00  0.00    -0.014 A 
ATOM     97  C   UNL A   1      45.369  29.835  29.841  1.00  0.00     0.010 A 
ATOM     98  C   UNL A   1      47.692  30.263  29.397  1.00  0.00     0.010 A 
ATOM     99  C   UNL A   1      44.999  30.782  28.873  1.00  0.00     0.020 A 
ATOM    100  C   UNL A   1      47.330  31.221  28.423  1.00  0.00     0.020 A 
ATOM    101  C   UNL A   1      45.982  31.474  28.167  1.00  0.00     0.054 A 
BRANCH 101 102
ATOM    102  S   UNL A   1      45.461  32.699  26.926  1.00  0.00     0.124 S 
ATOM    103  O   UNL A   1      45.668  31.993  25.663  1.00  0.00    -0.237 OA
ATOM    104  O   UNL A   1      44.064  32.937  27.282  1.00  0.00    -0.237 OA
ATOM    105  O   UNL A   1      46.358  33.832  27.150  1.00  0.00    -0.744 OA
ENDBRANCH 101 102
ENDBRANCH  75  96
ENDBRANCH  49  50
ENDBRANCH  42  44
ENDBRANCH  41  42
ENDBRANCH  40  41
ENDBRANCH  39  40
ENDBRANCH  38  39
ENDBRANCH  37  38
ENDBRANCH  36  37
ENDBRANCH  35  36
ENDBRANCH   1  35
TORSDOF 29
ENDMDL
MODEL 2
REMARK VINA RESULT:      -6.1      2.549      3.569
REMARK SMILES CN(C)S(=O)(=O)c1ccc(-n2c(CCC(=O)OCCOCCOCCOCCOC(=O)c3ccc(-c4c5nc(c(-c6ccc(S(=O)(=O)[O-])cc6)c6ccc([nH]6)c(-c6ccc(S(=O)(=O)[O-])cc6)c6nc(c(-c7ccc(S(=O)(=O)[O-])cc7)c7ccc4[nH]7)C=C6)C=C5)cc3)ccc2-c2ccc(F)cc2)cc1
REMARK SMILES IDX 22 1 21 2 20 3 19 4 18 5 17 6 15 7 16 8 14 9 13 10 12 11
REMARK SMILES IDX 11 12 94 13 92 14 93 15 10 16 7 17 8 18 103 19 9 20 102 21
REMARK SMILES IDX 4 22 5 23 6 24 2 25 1 26 3 27 95 28 96 29 101 30 97 31
REMARK SMILES IDX 100 32 98 33 99 34 23 35 24 36 25 37 26 38 27 39 28 40 29 41
REMARK SMILES IDX 30 42 31 43 32 44 33 45 91 46 34 47 90 48 35 49 36 50 37 51
REMARK SMILES IDX 84 52 38 53 89 54 83 55 85 56 39 57 88 58 82 59 81 60 40 62
REMARK SMILES IDX 70 63 51 64 69 65 52 66 55 67 68 68 86 69 53 70 54 71 67 73
REMARK SMILES IDX 87 74 56 75 41 76 42 77 50 78 43 79 49 80 44 81 45 82 46 83
REMARK SMILES IDX 47 84 48 85 71 86 72 87 80 88 73 89 79 90 74 91 75 92 76 93
REMARK SMILES IDX 77 94 78 95 57 96 58 97 66 98 59 99 65 100 60 101 61 102
REMARK SMILES IDX 62 103 63 104 64 105
REMARK H PARENT 85 61 55 72
REMARK Flexibility Score: inf
ROOT
ATOM      1  C   UNL A   1      32.263  36.117  30.641  1.00  0.00     0.188 C 
ENDROOT
BRANCH   1   2
ATOM      2  C   UNL A   1      32.189  36.365  32.153  1.00  0.00     0.188 C 
BRANCH   2   3
ATOM      3  O   UNL A   1      33.104  35.357  32.898  1.00  0.00    -0.376 OA
BRANCH   3   4
ATOM      4  C   UNL A   1      34.943  34.859  33.495  1.00  0.00     0.202 C 
BRANCH   4   5
ATOM      5  C   UNL A   1      35.503  33.702  34.662  1.00  0.00     0.261 C 
BRANCH   5   6
ATOM      6  O   UNL A   1      35.629  34.090  36.062  1.00  0.00    -0.463 OA
BRANCH   6   7
ATOM      7  C   UNL A   1      36.740  33.658  36.725  1.00  0.00     0.306 C 
ATOM      8  O   UNL A   1      36.732  32.719  37.517  1.00  0.00    -0.252 OA
BRANCH   7   9
ATOM      9  C   UNL A   1      38.044  34.365  36.338  1.00  0.00     0.129 C 
BRANCH   9  10
ATOM     10  C   UNL A   1      38.857  33.920  35.113  1.00  0.00     0.066 C 
BRANCH  10  11
ATOM     11  C   UNL A   1      39.228  32.483  35.124  1.00  0.00     0.024 A 
ATOM     12  N   UNL A   1      40.519  31.989  34.965  1.00  0.00    -0.314 N 
ATOM     13  C   UNL A   1      40.466  30.605  35.260  1.00  0.00     0.053 A 
ATOM     14  C   UNL A   1      38.362  31.412  35.233  1.00  0.00     0.024 A 
ATOM     15  C   UNL A   1      39.131  30.244  35.312  1.00  0.00     0.029 A 
BRANCH  12  16
ATOM     16  C   UNL A   1      41.702  32.744  34.642  1.00  0.00     0.046 A 
ATOM     17  C   UNL A   1      44.639  34.806  34.211  1.00  0.00     0.082 A 
ATOM     18  C   UNL A   1      44.239  34.120  35.805  1.00  0.00     0.024 A 
ATOM     19  C   UNL A   1      43.574  34.513  32.784  1.00  0.00     0.024 A 
ATOM     20  C   UNL A   1      42.814  33.072  36.019  1.00  0.00     0.028 A 
ATOM     21  C   UNL A   1      42.101  33.443  32.983  1.00  0.00     0.028 A 
BRANCH  17  22
ATOM     22  S   UNL A   1      46.217  35.554  33.974  1.00  0.00     0.242 S 
ATOM     23  O   UNL A   1      46.713  35.930  35.271  1.00  0.00    -0.207 OA
ATOM     24  O   UNL A   1      46.040  36.536  32.912  1.00  0.00    -0.207 OA
BRANCH  22  25
ATOM     25  N   UNL A   1      47.238  34.308  33.365  1.00  0.00    -0.204 NA
ATOM     26  C   UNL A   1      47.320  33.130  34.269  1.00  0.00     0.124 C 
ATOM     27  C   UNL A   1      46.954  33.869  31.976  1.00  0.00     0.124 C 
ENDBRANCH  22  25
ENDBRANCH  17  22
ENDBRANCH  12  16
BRANCH  13  28
ATOM     28  C   UNL A   1      41.592  29.697  35.542  1.00  0.00    -0.001 A 
ATOM     29  C   UNL A   1      42.548  30.032  36.516  1.00  0.00     0.013 A 
ATOM     30  C   UNL A   1      41.726  28.479  34.855  1.00  0.00     0.013 A 
ATOM     31  C   UNL A   1      43.566  29.133  36.852  1.00  0.00     0.040 A 
ATOM     32  C   UNL A   1      42.735  27.576  35.201  1.00  0.00     0.040 A 
ATOM     33  C   UNL A   1      43.640  27.907  36.203  1.00  0.00     0.123 A 
ATOM     34  F   UNL A   1      44.589  27.028  36.549  1.00  0.00    -0.207 F 
ENDBRANCH  13  28
ENDBRANCH  10  11
ENDBRANCH   9  10
ENDBRANCH   7   9
ENDBRANCH   6   7
ENDBRANCH   5   6
ENDBRANCH   4   5
ENDBRANCH   3   4
ENDBRANCH   2   3
ENDBRANCH   1   2
BRANCH   1  35
ATOM     35  O   UNL A   1      33.548  36.150  30.032  1.00  0.00    -0.377 OA
BRANCH  35  36
ATOM     36  C   UNL A   1      33.744  35.450  28.821  1.00  0.00     0.188 C 
BRANCH  36  37
ATOM     37  C   UNL A   1      33.906  33.929  28.878  1.00  0.00     0.188 C 
BRANCH  37  38
ATOM     38  O   UNL A   1      34.745  33.207  27.992  1.00  0.00    -0.376 OA
BRANCH  38  39
ATOM     39  C   UNL A   1      35.780  32.347  28.440  1.00  0.00     0.202 C 
BRANCH  39  40
ATOM     40  C   UNL A   1      36.666  32.693  29.640  1.00  0.00     0.261 C 
BRANCH  40  41
ATOM     41  O   UNL A   1      37.305  31.565  30.214  1.00  0.00    -0.460 OA
BRANCH  41  42
ATOM     42  C   UNL A   1      38.466  31.283  29.601  1.00  0.00     0.338 C 
ATOM     43  O   UNL A   1      38.624  30.726  28.525  1.00  0.00    -0.246 OA
BRANCH  42  44
ATOM     44  C   UNL A   1      39.598  31.658  30.460  1.00  0.00     0.060 A 
ATOM     45  C   UNL A   1      40.789  31.787  29.726  1.00  0.00     0.016 A 
ATOM     46  C   UNL A   1      39.527  30.905  31.631  1.00  0.00     0.016 A 
ATOM     47  C   UNL A   1      41.766  30.839  29.916  1.00  0.00     0.010 A 
ATOM     48  C   UNL A   1      40.455  29.902  31.772  1.00  0.00     0.010 A 
ATOM     49  C   UNL A   1      41.543  29.852  30.881  1.00  0.00    -0.014 A 
BRANCH  49  50
ATOM     50  C   UNL A   1      42.617  28.906  31.171  1.00  0.00     0.031 A 
ATOM     51  C   UNL A   1      42.380  27.630  30.344  1.00  0.00     0.074 A 
ATOM     52  C   UNL A   1      43.590  29.320  32.044  1.00  0.00     0.049 A 
ATOM     53  N   UNL A   1      43.045  26.526  30.343  1.00  0.00    -0.248 NA
ATOM     54  C   UNL A   1      41.245  27.554  29.363  1.00  0.00     0.031 C 
ATOM     55  C   UNL A   1      43.622  30.629  32.753  1.00  0.00     0.029 A 
ATOM     56  N   UNL A   1      44.753  28.743  32.510  1.00  0.00    -0.354 N 
ATOM     57  C   UNL A   1      42.595  25.757  29.251  1.00  0.00     0.074 A 
ATOM     58  C   UNL A   1      41.439  26.402  28.722  1.00  0.00     0.031 C 
ATOM     59  C   UNL A   1      44.680  30.703  33.598  1.00  0.00     0.029 A 
ATOM     60  C   UNL A   1      45.478  29.497  33.480  1.00  0.00     0.049 A 
ATOM     61  H   UNL A   1      45.065  27.865  32.192  1.00  0.00     0.167 HD
ATOM     62  C   UNL A   1      43.302  24.698  28.775  1.00  0.00     0.031 A 
ATOM     63  C   UNL A   1      46.637  29.160  34.131  1.00  0.00     0.031 A 
ATOM     64  C   UNL A   1      44.390  24.420  29.647  1.00  0.00     0.049 A 
ATOM     65  C   UNL A   1      47.155  28.009  33.385  1.00  0.00     0.074 A 
ATOM     66  C   UNL A   1      44.405  23.955  30.937  1.00  0.00     0.029 A 
ATOM     67  N   UNL A   1      45.575  25.060  29.366  1.00  0.00    -0.354 N 
ATOM     68  N   UNL A   1      47.721  28.093  32.221  1.00  0.00    -0.248 NA
ATOM     69  C   UNL A   1      47.054  26.668  33.968  1.00  0.00     0.031 C 
ATOM     70  C   UNL A   1      45.375  24.770  31.547  1.00  0.00     0.029 A 
ATOM     71  C   UNL A   1      46.084  25.478  30.567  1.00  0.00     0.049 A 
ATOM     72  H   UNL A   1      45.976  25.191  28.478  1.00  0.00     0.167 HD
ATOM     73  C   UNL A   1      47.623  26.806  31.771  1.00  0.00     0.074 A 
ATOM     74  C   UNL A   1      47.554  25.966  32.952  1.00  0.00     0.031 C 
ATOM     75  C   UNL A   1      47.009  26.582  30.581  1.00  0.00     0.031 A 
BRANCH  62  76
ATOM     76  C   UNL A   1      43.267  23.996  27.457  1.00  0.00    -0.014 A 
ATOM     77  C   UNL A   1      43.085  22.592  27.505  1.00  0.00     0.010 A 
ATOM     78  C   UNL A   1      43.766  24.558  26.274  1.00  0.00     0.010 A 
ATOM     79  C   UNL A   1      43.536  21.767  26.480  1.00  0.00     0.020 A 
ATOM     80  C   UNL A   1      44.181  23.732  25.218  1.00  0.00     0.020 A 
ATOM     81  C   UNL A   1      44.116  22.342  25.355  1.00  0.00     0.054 A 
BRANCH  81  82
ATOM     82  S   UNL A   1      44.853  21.237  24.125  1.00  0.00     0.124 S 
ATOM     83  O   UNL A   1      46.271  21.299  24.467  1.00  0.00    -0.237 OA
ATOM     84  O   UNL A   1      44.195  19.963  24.413  1.00  0.00    -0.237 OA
ATOM     85  O   UNL A   1      44.483  21.846  22.850  1.00  0.00    -0.744 OA
ENDBRANCH  81  82
ENDBRANCH  62  76
BRANCH  63  86
ATOM     86  C   UNL A   1      47.526  29.548  35.299  1.00  0.00    -0.014 A 
ATOM     87  C   UNL A   1      48.883  29.877  35.240  1.00  0.00     0.010 A 
ATOM     88  C   UNL A   1      46.874  29.849  36.537  1.00  0.00     0.010 A 
ATOM     89  C   UNL A   1      49.491  30.624  36.287  1.00  0.00     0.020 A 
ATOM     90  C   UNL A   1      47.436  30.641  37.538  1.00  0.00     0.020 A 
ATOM     91  C   UNL A   1      48.743  31.059  37.391  1.00  0.00     0.054 A 
BRANCH  91  92
ATOM     92  S   UNL A   1      49.392  32.308  38.546  1.00  0.00     0.124 S 
ATOM     93  O   UNL A   1      49.208  33.551  37.805  1.00  0.00    -0.237 OA
ATOM     94  O   UNL A   1      48.539  32.139  39.720  1.00  0.00    -0.237 OA
ATOM     95  O   UNL A   1      50.783  31.901  38.743  1.00  0.00    -0.744 OA
ENDBRANCH  91  92
ENDBRANCH  63  86
BRANCH  75  96
ATOM     96  C   UNL A   1      47.058  27.742  29.586  1.00  0.00    -0.014 A 
ATOM     97  C   UNL A   1      48.309  28.171  29.095  1.00  0.00     0.010 A 
ATOM     98  C   UNL A   1      45.930  28.493  29.196  1.00  0.00     0.010 A 
ATOM     99  C   UNL A   1      48.437  29.299  28.269  1.00  0.00     0.020 A 
ATOM    100  C   UNL A   1      46.046  29.628  28.362  1.00  0.00     0.020 A 
ATOM    101  C   UNL A   1      47.304  30.023  27.903  1.00  0.00     0.054 A 
BRANCH 101 102
ATOM    102  S   UNL A   1      47.511  31.475  26.825  1.00  0.00     0.124 S 
ATOM    103  O   UNL A   1      46.605  31.190  25.714  1.00  0.00    -0.237 OA
ATOM    104  O   UNL A   1      47.101  32.576  27.693  1.00  0.00    -0.237 OA
ATOM    105  O   UNL A   1      48.932  31.458  26.479  1.00  0.00    -0.744 OA
ENDBRANCH 101 102
ENDBRANCH  75  96
ENDBRANCH  49  50
ENDBRANCH  42  44
ENDBRANCH  41  42
ENDBRANCH  40  41
ENDBRANCH  39  40
ENDBRANCH  38  39
ENDBRANCH  37  38
ENDBRANCH  36  37
ENDBRANCH  35  36
ENDBRANCH   1  35
TORSDOF 29
ENDMDL
MODEL 3
REMARK VINA RESULT:      -5.7      7.553     12.029
REMARK SMILES CN(C)S(=O)(=O)c1ccc(-n2c(CCC(=O)OCCOCCOCCOCCOC(=O)c3ccc(-c4c5nc(c(-c6ccc(S(=O)(=O)[O-])cc6)c6ccc([nH]6)c(-c6ccc(S(=O)(=O)[O-])cc6)c6nc(c(-c7ccc(S(=O)(=O)[O-])cc7)c7ccc4[nH]7)C=C6)C=C5)cc3)ccc2-c2ccc(F)cc2)cc1
REMARK SMILES IDX 22 1 21 2 20 3 19 4 18 5 17 6 15 7 16 8 14 9 13 10 12 11
REMARK SMILES IDX 11 12 94 13 92 14 93 15 10 16 7 17 8 18 103 19 9 20 102 21
REMARK SMILES IDX 4 22 5 23 6 24 2 25 1 26 3 27 95 28 96 29 101 30 97 31
REMARK SMILES IDX 100 32 98 33 99 34 23 35 24 36 25 37 26 38 27 39 28 40 29 41
REMARK SMILES IDX 30 42 31 43 32 44 33 45 91 46 34 47 90 48 35 49 36 50 37 51
REMARK SMILES IDX 84 52 38 53 89 54 83 55 85 56 39 57 88 58 82 59 81 60 40 62
REMARK SMILES IDX 70 63 51 64 69 65 52 66 55 67 68 68 86 69 53 70 54 71 67 73
REMARK SMILES IDX 87 74 56 75 41 76 42 77 50 78 43 79 49 80 44 81 45 82 46 83
REMARK SMILES IDX 47 84 48 85 71 86 72 87 80 88 73 89 79 90 74 91 75 92 76 93
REMARK SMILES IDX 77 94 78 95 57 96 58 97 66 98 59 99 65 100 60 101 61 102
REMARK SMILES IDX 62 103 63 104 64 105
REMARK H PARENT 85 61 55 72
REMARK Flexibility Score: inf
ROOT
ATOM      1  C   UNL A   1      50.995  38.641  30.941  1.00  0.00     0.188 C 
ENDROOT
BRANCH   1   2
ATOM      2  C   UNL A   1      52.144  37.657  30.683  1.00  0.00     0.188 C 
BRANCH   2   3
ATOM      3  O   UNL A   1      51.922  36.931  29.329  1.00  0.00    -0.376 OA
BRANCH   3   4
ATOM      4  C   UNL A   1      51.073  36.936  27.523  1.00  0.00     0.202 C 
BRANCH   4   5
ATOM      5  C   UNL A   1      49.738  37.839  26.878  1.00  0.00     0.261 C 
BRANCH   5   6
ATOM      6  O   UNL A   1      48.828  38.530  27.783  1.00  0.00    -0.463 OA
BRANCH   6   7
ATOM      7  C   UNL A   1      48.819  39.893  27.729  1.00  0.00     0.306 C 
ATOM      8  O   UNL A   1      49.796  40.586  28.002  1.00  0.00    -0.252 OA
BRANCH   7   9
ATOM      9  C   UNL A   1      47.521  40.514  27.200  1.00  0.00     0.129 C 
BRANCH   9  10
ATOM     10  C   UNL A   1      47.157  40.447  25.710  1.00  0.00     0.066 C 
BRANCH  10  11
ATOM     11  C   UNL A   1      45.865  41.095  25.374  1.00  0.00     0.024 A 
ATOM     12  N   UNL A   1      45.649  41.931  24.283  1.00  0.00    -0.314 N 
ATOM     13  C   UNL A   1      44.252  42.148  24.205  1.00  0.00     0.053 A 
ATOM     14  C   UNL A   1      44.696  41.024  26.107  1.00  0.00     0.024 A 
ATOM     15  C   UNL A   1      43.694  41.684  25.384  1.00  0.00     0.029 A 
BRANCH  12  16
ATOM     16  C   UNL A   1      46.637  42.423  23.359  1.00  0.00     0.046 A 
ATOM     17  C   UNL A   1      48.983  44.039  21.135  1.00  0.00     0.082 A 
ATOM     18  C   UNL A   1      48.513  44.808  22.671  1.00  0.00     0.024 A 
ATOM     19  C   UNL A   1      48.278  42.453  20.640  1.00  0.00     0.024 A 
ATOM     20  C   UNL A   1      47.387  44.002  23.791  1.00  0.00     0.028 A 
ATOM     21  C   UNL A   1      47.114  41.610  21.774  1.00  0.00     0.028 A 
BRANCH  17  22
ATOM     22  S   UNL A   1      50.336  44.707  20.223  1.00  0.00     0.242 S 
ATOM     23  O   UNL A   1      50.429  46.103  20.554  1.00  0.00    -0.207 OA
ATOM     24  O   UNL A   1      50.153  44.261  18.848  1.00  0.00    -0.207 OA
BRANCH  22  25
ATOM     25  N   UNL A   1      51.744  43.929  20.839  1.00  0.00    -0.204 NA
ATOM     26  C   UNL A   1      52.910  44.028  19.922  1.00  0.00     0.124 C 
ATOM     27  C   UNL A   1      52.141  44.318  22.216  1.00  0.00     0.124 C 
ENDBRANCH  22  25
ENDBRANCH  17  22
ENDBRANCH  12  16
BRANCH  13  28
ATOM     28  C   UNL A   1      43.483  42.692  23.072  1.00  0.00    -0.001 A 
ATOM     29  C   UNL A   1      44.111  43.506  22.113  1.00  0.00     0.013 A 
ATOM     30  C   UNL A   1      42.118  42.401  22.919  1.00  0.00     0.013 A 
ATOM     31  C   UNL A   1      43.410  43.951  20.987  1.00  0.00     0.040 A 
ATOM     32  C   UNL A   1      41.421  42.834  21.787  1.00  0.00     0.040 A 
ATOM     33  C   UNL A   1      42.076  43.596  20.827  1.00  0.00     0.123 A 
ATOM     34  F   UNL A   1      41.412  43.986  19.731  1.00  0.00    -0.207 F 
ENDBRANCH  13  28
ENDBRANCH  10  11
ENDBRANCH   9  10
ENDBRANCH   7   9
ENDBRANCH   6   7
ENDBRANCH   5   6
ENDBRANCH   4   5
ENDBRANCH   3   4
ENDBRANCH   2   3
ENDBRANCH   1   2
BRANCH   1  35
ATOM     35  O   UNL A   1      50.227  38.460  32.124  1.00  0.00    -0.377 OA
BRANCH  35  36
ATOM     36  C   UNL A   1      49.025  39.187  32.271  1.00  0.00     0.188 C 
BRANCH  36  37
ATOM     37  C   UNL A   1      47.982  39.103  31.154  1.00  0.00     0.188 C 
BRANCH  37  38
ATOM     38  O   UNL A   1      46.607  39.379  31.360  1.00  0.00    -0.376 OA
BRANCH  38  39
ATOM     39  C   UNL A   1      45.749  39.833  30.324  1.00  0.00     0.202 C 
BRANCH  39  40
ATOM     40  C   UNL A   1      44.809  38.887  29.571  1.00  0.00     0.261 C 
BRANCH  40  41
ATOM     41  O   UNL A   1      45.435  37.688  29.148  1.00  0.00    -0.460 OA
BRANCH  41  42
ATOM     42  C   UNL A   1      44.581  36.883  28.494  1.00  0.00     0.338 C 
ATOM     43  O   UNL A   1      43.565  37.204  27.896  1.00  0.00    -0.246 OA
BRANCH  42  44
ATOM     44  C   UNL A   1      44.976  35.478  28.664  1.00  0.00     0.060 A 
ATOM     45  C   UNL A   1      44.373  34.648  27.704  1.00  0.00     0.016 A 
ATOM     46  C   UNL A   1      44.952  35.177  30.024  1.00  0.00     0.016 A 
ATOM     47  C   UNL A   1      43.400  33.774  28.132  1.00  0.00     0.010 A 
ATOM     48  C   UNL A   1      43.925  34.375  30.456  1.00  0.00     0.010 A 
ATOM     49  C   UNL A   1      43.128  33.717  29.501  1.00  0.00    -0.014 A 
BRANCH  49  50
ATOM     50  C   UNL A   1      42.177  32.717  29.981  1.00  0.00     0.031 A 
ATOM     51  C   UNL A   1      42.858  31.339  29.944  1.00  0.00     0.074 A 
ATOM     52  C   UNL A   1      40.947  33.173  30.381  1.00  0.00     0.049 A 
ATOM     53  N   UNL A   1      42.364  30.180  30.218  1.00  0.00    -0.248 NA
ATOM     54  C   UNL A   1      44.302  31.208  29.554  1.00  0.00     0.031 C 
ATOM     55  C   UNL A   1      40.483  34.587  30.325  1.00  0.00     0.029 A 
ATOM     56  N   UNL A   1      39.837  32.557  30.922  1.00  0.00    -0.354 N 
ATOM     57  C   UNL A   1      43.433  29.263  30.276  1.00  0.00     0.074 A 
ATOM     58  C   UNL A   1      44.595  29.930  29.791  1.00  0.00     0.031 C 
ATOM     59  C   UNL A   1      39.192  34.696  30.728  1.00  0.00     0.029 A 
ATOM     60  C   UNL A   1      38.706  33.396  31.148  1.00  0.00     0.049 A 
ATOM     61  H   UNL A   1      39.827  31.597  31.140  1.00  0.00     0.167 HD
ATOM     62  C   UNL A   1      43.302  28.040  30.855  1.00  0.00     0.031 A 
ATOM     63  C   UNL A   1      37.474  33.052  31.642  1.00  0.00     0.031 A 
ATOM     64  C   UNL A   1      41.938  27.810  31.184  1.00  0.00     0.049 A 
ATOM     65  C   UNL A   1      37.663  31.708  32.196  1.00  0.00     0.074 A 
ATOM     66  C   UNL A   1      40.842  27.635  30.379  1.00  0.00     0.029 A 
ATOM     67  N   UNL A   1      41.540  28.206  32.439  1.00  0.00    -0.354 N 
ATOM     68  N   UNL A   1      38.283  31.461  33.308  1.00  0.00    -0.248 NA
ATOM     69  C   UNL A   1      37.119  30.551  31.480  1.00  0.00     0.031 C 
ATOM     70  C   UNL A   1      39.866  28.423  31.014  1.00  0.00     0.029 A 
ATOM     71  C   UNL A   1      40.314  28.799  32.287  1.00  0.00     0.049 A 
ATOM     72  H   UNL A   1      42.037  28.087  33.280  1.00  0.00     0.167 HD
ATOM     73  C   UNL A   1      38.577  30.133  33.173  1.00  0.00     0.074 A 
ATOM     74  C   UNL A   1      37.581  29.584  32.273  1.00  0.00     0.031 C 
ATOM     75  C   UNL A   1      39.873  29.744  33.282  1.00  0.00     0.031 A 
BRANCH  62  76
ATOM     76  C   UNL A   1      44.319  27.081  31.385  1.00  0.00    -0.014 A 
ATOM     77  C   UNL A   1      43.981  25.708  31.306  1.00  0.00     0.010 A 
ATOM     78  C   UNL A   1      45.349  27.459  32.258  1.00  0.00     0.010 A 
ATOM     79  C   UNL A   1      44.529  24.774  32.178  1.00  0.00     0.020 A 
ATOM     80  C   UNL A   1      45.938  26.512  33.109  1.00  0.00     0.020 A 
ATOM     81  C   UNL A   1      45.481  25.190  33.102  1.00  0.00     0.054 A 
BRANCH  81  82
ATOM     82  S   UNL A   1      46.040  23.991  34.338  1.00  0.00     0.124 S 
ATOM     83  O   UNL A   1      45.821  22.721  33.654  1.00  0.00    -0.237 OA
ATOM     84  O   UNL A   1      47.440  24.367  34.528  1.00  0.00    -0.237 OA
ATOM     85  O   UNL A   1      45.173  24.251  35.484  1.00  0.00    -0.744 OA
ENDBRANCH  81  82
ENDBRANCH  62  76
BRANCH  63  86
ATOM     86  C   UNL A   1      36.051  33.557  31.806  1.00  0.00    -0.014 A 
ATOM     87  C   UNL A   1      35.448  33.977  32.994  1.00  0.00     0.010 A 
ATOM     88  C   UNL A   1      35.334  33.871  30.608  1.00  0.00     0.010 A 
ATOM     89  C   UNL A   1      34.299  34.814  32.964  1.00  0.00     0.020 A 
ATOM     90  C   UNL A   1      34.251  34.748  30.559  1.00  0.00     0.020 A 
ATOM     91  C   UNL A   1      33.755  35.249  31.746  1.00  0.00     0.054 A 
BRANCH  91  92
ATOM     92  S   UNL A   1      32.531  36.595  31.678  1.00  0.00     0.124 S 
ATOM     93  O   UNL A   1      31.404  35.964  30.999  1.00  0.00    -0.237 OA
ATOM     94  O   UNL A   1      32.320  36.913  33.089  1.00  0.00    -0.237 OA
ATOM     95  O   UNL A   1      33.213  37.640  30.916  1.00  0.00    -0.744 OA
ENDBRANCH  91  92
ENDBRANCH  63  86
BRANCH  75  96
ATOM     96  C   UNL A   1      40.762  30.645  34.140  1.00  0.00    -0.014 A 
ATOM     97  C   UNL A   1      41.657  31.531  33.505  1.00  0.00     0.010 A 
ATOM     98  C   UNL A   1      40.823  30.579  35.548  1.00  0.00     0.010 A 
ATOM     99  C   UNL A   1      42.579  32.303  34.229  1.00  0.00     0.020 A 
ATOM    100  C   UNL A   1      41.744  31.354  36.287  1.00  0.00     0.020 A 
ATOM    101  C   UNL A   1      42.618  32.215  35.620  1.00  0.00     0.054 A 
BRANCH 101 102
ATOM    102  S   UNL A   1      43.822  33.238  36.522  1.00  0.00     0.124 S 
ATOM    103  O   UNL A   1      44.420  32.290  37.460  1.00  0.00    -0.237 OA
ATOM    104  O   UNL A   1      44.708  33.699  35.456  1.00  0.00    -0.237 OA
ATOM    105  O   UNL A   1      43.005  34.281  37.141  1.00  0.00    -0.744 OA
ENDBRANCH 101 102
ENDBRANCH  75  96
ENDBRANCH  49  50
ENDBRANCH  42  44
ENDBRANCH  41  42
ENDBRANCH  40  41
ENDBRANCH  39  40
ENDBRANCH  38  39
ENDBRANCH  37  38
ENDBRANCH  36  37
ENDBRANCH  35  36
ENDBRANCH   1  35
TORSDOF 29
ENDMDL
