MODEL 1
REMARK VINA RESULT:      -8.9      0.000      0.000
REMARK SMILES C[C@@H]1[C@@H](C(=O)OCCOCCOCCOCCOC(=O)c2ccc(-c3c4nc(c(-c5ccc(S(=O)(=O)[O-])cc5)c5ccc([nH]5)c(-c5ccc(S(=O)(=O)[O-])cc5)c5nc(c(-c6ccc(S(=O)(=O)[O-])cc6)c6ccc3[nH]6)C=C5)C=C4)cc2)CCN1C(=O)N[C@@H](C)Cc1ccco1
REMARK SMILES IDX 11 1 10 2 9 3 8 4 7 5 6 6 4 7 5 8 3 9 1 10 2 11 83 12 81 13
REMARK SMILES IDX 82 14 84 15 85 16 86 17 87 19 88 20 89 21 90 22 91 23 94 24
REMARK SMILES IDX 92 25 93 26 12 27 13 28 14 29 15 30 16 31 17 32 18 33 19 34
REMARK SMILES IDX 20 35 21 36 22 37 80 38 23 39 79 40 24 41 25 42 26 43 73 44
REMARK SMILES IDX 27 45 78 46 72 47 74 48 28 49 77 50 71 51 70 52 29 54 59 55
REMARK SMILES IDX 40 56 58 57 41 58 44 59 57 60 75 61 42 62 43 63 56 65 76 66
REMARK SMILES IDX 45 67 30 68 31 69 39 70 32 71 38 72 33 73 34 74 35 75 36 76
REMARK SMILES IDX 37 77 60 78 61 79 69 80 62 81 68 82 63 83 64 84 65 85 66 86
REMARK SMILES IDX 67 87 46 88 47 89 55 90 48 91 54 92 49 93 50 94 51 95 52 96
REMARK SMILES IDX 53 97
REMARK H PARENT 86 18 74 53 44 64
REMARK Flexibility Score: inf
ROOT
ATOM      1  C   UNL A   1      38.995  23.399  26.563  1.00  0.00     0.188 C 
ENDROOT
BRANCH   1   2
ATOM      2  C   UNL A   1      37.903  22.668  25.766  1.00  0.00     0.188 C 
BRANCH   2   3
ATOM      3  O   UNL A   1      37.582  23.220  24.507  1.00  0.00    -0.376 OA
BRANCH   3   4
ATOM      4  C   UNL A   1      36.582  22.679  23.656  1.00  0.00     0.202 C 
BRANCH   4   5
ATOM      5  C   UNL A   1      35.372  23.416  23.051  1.00  0.00     0.261 C 
BRANCH   5   6
ATOM      6  O   UNL A   1      34.190  23.488  23.837  1.00  0.00    -0.463 OA
BRANCH   6   7
ATOM      7  C   UNL A   1      34.361  23.420  25.178  1.00  0.00     0.311 C 
ATOM      8  O   UNL A   1      34.705  24.358  25.881  1.00  0.00    -0.252 OA
BRANCH   7   9
ATOM      9  C   UNL A   1      33.979  22.035  25.674  1.00  0.00     0.123 C 
ATOM     10  C   UNL A   1      32.159  20.304  25.280  1.00  0.00     0.032 C 
ATOM     11  C   UNL A   1      32.492  21.796  25.392  1.00  0.00     0.098 C 
ATOM     12  N   UNL A   1      31.820  22.395  26.543  1.00  0.00    -0.321 N 
ATOM     13  C   UNL A   1      34.078  21.943  27.185  1.00  0.00     0.039 C 
ATOM     14  C   UNL A   1      32.774  22.580  27.640  1.00  0.00     0.122 C 
BRANCH  12  15
ATOM     15  C   UNL A   1      30.641  23.063  26.619  1.00  0.00     0.317 C 
ATOM     16  O   UNL A   1      29.739  22.688  27.377  1.00  0.00    -0.249 OA
ATOM     17  N   UNL A   1      30.360  24.170  25.911  1.00  0.00    -0.335 N 
ATOM     18  H   UNL A   1      29.534  24.600  26.230  1.00  0.00     0.165 HD
BRANCH  17  19
ATOM     19  C   UNL A   1      30.947  24.913  24.793  1.00  0.00     0.088 C 
ATOM     20  C   UNL A   1      30.645  24.146  23.502  1.00  0.00     0.031 C 
BRANCH  19  21
ATOM     21  C   UNL A   1      30.385  26.344  24.681  1.00  0.00     0.100 C 
BRANCH  21  22
ATOM     22  C   UNL A   1      31.433  27.392  24.589  1.00  0.00     0.105 A 
ATOM     23  C   UNL A   1      31.507  28.693  25.040  1.00  0.00     0.045 A 
ATOM     24  O   UNL A   1      32.560  27.074  23.893  1.00  0.00    -0.469 OA
ATOM     25  C   UNL A   1      32.755  29.196  24.609  1.00  0.00     0.042 A 
ATOM     26  C   UNL A   1      33.351  28.178  23.904  1.00  0.00     0.195 A 
ENDBRANCH  21  22
ENDBRANCH  19  21
ENDBRANCH  17  19
ENDBRANCH  12  15
ENDBRANCH   7   9
ENDBRANCH   6   7
ENDBRANCH   5   6
ENDBRANCH   4   5
ENDBRANCH   3   4
ENDBRANCH   2   3
ENDBRANCH   1   2
BRANCH   1  27
ATOM     27  O   UNL A   1      39.953  22.544  27.152  1.00  0.00    -0.377 OA
BRANCH  27  28
ATOM     28  C   UNL A   1      40.610  21.584  26.330  1.00  0.00     0.188 C 
BRANCH  28  29
ATOM     29  C   UNL A   1      40.803  20.114  26.771  1.00  0.00     0.188 C 
BRANCH  29  30
ATOM     30  O   UNL A   1      42.018  19.847  27.459  1.00  0.00    -0.376 OA
BRANCH  30  31
ATOM     31  C   UNL A   1      42.653  18.602  27.206  1.00  0.00     0.202 C 
BRANCH  31  32
ATOM     32  C   UNL A   1      43.047  18.340  25.746  1.00  0.00     0.261 C 
BRANCH  32  33
ATOM     33  O   UNL A   1      43.177  19.504  24.914  1.00  0.00    -0.460 OA
BRANCH  33  34
ATOM     34  C   UNL A   1      44.425  19.953  24.658  1.00  0.00     0.338 C 
ATOM     35  O   UNL A   1      45.286  19.394  24.001  1.00  0.00    -0.246 OA
BRANCH  34  36
ATOM     36  C   UNL A   1      44.510  21.349  25.137  1.00  0.00     0.060 A 
ATOM     37  C   UNL A   1      44.360  22.393  24.215  1.00  0.00     0.016 A 
ATOM     38  C   UNL A   1      44.724  21.624  26.490  1.00  0.00     0.016 A 
ATOM     39  C   UNL A   1      44.468  23.719  24.638  1.00  0.00     0.010 A 
ATOM     40  C   UNL A   1      44.854  22.951  26.907  1.00  0.00     0.010 A 
ATOM     41  C   UNL A   1      44.765  24.002  25.977  1.00  0.00    -0.014 A 
BRANCH  41  42
ATOM     42  C   UNL A   1      45.202  25.366  26.362  1.00  0.00     0.031 A 
ATOM     43  C   UNL A   1      44.163  26.319  26.888  1.00  0.00     0.074 A 
ATOM     44  C   UNL A   1      46.488  25.750  26.265  1.00  0.00     0.049 A 
ATOM     45  N   UNL A   1      44.288  27.570  27.247  1.00  0.00    -0.248 NA
ATOM     46  C   UNL A   1      42.796  25.787  27.026  1.00  0.00     0.031 C 
ATOM     47  C   UNL A   1      47.596  24.908  25.818  1.00  0.00     0.029 A 
ATOM     48  N   UNL A   1      47.074  26.962  26.537  1.00  0.00    -0.354 N 
ATOM     49  C   UNL A   1      43.020  27.977  27.642  1.00  0.00     0.074 A 
ATOM     50  C   UNL A   1      42.133  26.851  27.452  1.00  0.00     0.031 C 
ATOM     51  C   UNL A   1      48.728  25.634  25.838  1.00  0.00     0.029 A 
ATOM     52  C   UNL A   1      48.420  26.998  26.265  1.00  0.00     0.049 A 
ATOM     53  H   UNL A   1      46.576  27.733  26.894  1.00  0.00     0.167 HD
ATOM     54  C   UNL A   1      42.627  29.179  28.127  1.00  0.00     0.031 A 
ATOM     55  C   UNL A   1      49.296  28.021  26.330  1.00  0.00     0.031 A 
ATOM     56  C   UNL A   1      43.507  30.303  28.298  1.00  0.00     0.049 A 
ATOM     57  C   UNL A   1      48.819  29.376  26.793  1.00  0.00     0.074 A 
ATOM     58  C   UNL A   1      43.207  31.561  28.790  1.00  0.00     0.029 A 
ATOM     59  N   UNL A   1      44.855  30.310  27.974  1.00  0.00    -0.354 N 
ATOM     60  N   UNL A   1      47.622  29.740  27.187  1.00  0.00    -0.248 NA
ATOM     61  C   UNL A   1      49.816  30.457  26.826  1.00  0.00     0.031 C 
ATOM     62  C   UNL A   1      44.360  32.348  28.704  1.00  0.00     0.029 A 
ATOM     63  C   UNL A   1      45.394  31.559  28.226  1.00  0.00     0.049 A 
ATOM     64  H   UNL A   1      45.353  29.540  27.616  1.00  0.00     0.167 HD
ATOM     65  C   UNL A   1      47.730  31.080  27.546  1.00  0.00     0.074 A 
ATOM     66  C   UNL A   1      49.112  31.459  27.334  1.00  0.00     0.031 C 
ATOM     67  C   UNL A   1      46.773  31.922  28.012  1.00  0.00     0.031 A 
BRANCH  54  68
ATOM     68  C   UNL A   1      41.169  29.347  28.468  1.00  0.00    -0.014 A 
ATOM     69  C   UNL A   1      40.169  29.212  27.489  1.00  0.00     0.010 A 
ATOM     70  C   UNL A   1      40.795  29.615  29.797  1.00  0.00     0.010 A 
ATOM     71  C   UNL A   1      38.823  29.376  27.826  1.00  0.00     0.020 A 
ATOM     72  C   UNL A   1      39.448  29.751  30.145  1.00  0.00     0.020 A 
ATOM     73  C   UNL A   1      38.472  29.646  29.152  1.00  0.00     0.054 A 
BRANCH  73  74
ATOM     74  S   UNL A   1      36.715  29.832  29.565  1.00  0.00     0.124 S 
ATOM     75  O   UNL A   1      36.067  29.335  28.354  1.00  0.00    -0.237 OA
ATOM     76  O   UNL A   1      36.574  28.984  30.746  1.00  0.00    -0.237 OA
ATOM     77  O   UNL A   1      36.566  31.264  29.808  1.00  0.00    -0.744 OA
ENDBRANCH  73  74
ENDBRANCH  54  68
BRANCH  55  78
ATOM     78  C   UNL A   1      50.717  27.815  25.928  1.00  0.00    -0.014 A 
ATOM     79  C   UNL A   1      51.703  27.523  26.888  1.00  0.00     0.010 A 
ATOM     80  C   UNL A   1      51.094  27.926  24.577  1.00  0.00     0.010 A 
ATOM     81  C   UNL A   1      53.039  27.362  26.507  1.00  0.00     0.020 A 
ATOM     82  C   UNL A   1      52.423  27.736  24.188  1.00  0.00     0.020 A 
ATOM     83  C   UNL A   1      53.390  27.466  25.158  1.00  0.00     0.054 A 
BRANCH  83  84
ATOM     84  S   UNL A   1      55.121  27.203  24.682  1.00  0.00     0.124 S 
ATOM     85  O   UNL A   1      55.202  25.747  24.621  1.00  0.00    -0.237 OA
ATOM     86  O   UNL A   1      55.203  27.898  23.401  1.00  0.00    -0.237 OA
ATOM     87  O   UNL A   1      55.872  27.828  25.770  1.00  0.00    -0.744 OA
ENDBRANCH  83  84
ENDBRANCH  55  78
BRANCH  67  88
ATOM     88  C   UNL A   1      47.188  33.326  28.370  1.00  0.00    -0.014 A 
ATOM     89  C   UNL A   1      47.677  33.644  29.649  1.00  0.00     0.010 A 
ATOM     90  C   UNL A   1      47.145  34.332  27.386  1.00  0.00     0.010 A 
ATOM     91  C   UNL A   1      48.085  34.948  29.946  1.00  0.00     0.020 A 
ATOM     92  C   UNL A   1      47.580  35.629  27.669  1.00  0.00     0.020 A 
ATOM     93  C   UNL A   1      48.034  35.933  28.953  1.00  0.00     0.054 A 
BRANCH  93  94
ATOM     94  S   UNL A   1      48.609  37.606  29.353  1.00  0.00     0.124 S 
ATOM     95  O   UNL A   1      49.075  38.086  28.054  1.00  0.00    -0.237 OA
ATOM     96  O   UNL A   1      47.401  38.246  29.865  1.00  0.00    -0.237 OA
ATOM     97  O   UNL A   1      49.659  37.383  30.346  1.00  0.00    -0.744 OA
ENDBRANCH  93  94
ENDBRANCH  67  88
ENDBRANCH  41  42
ENDBRANCH  34  36
ENDBRANCH  33  34
ENDBRANCH  32  33
ENDBRANCH  31  32
ENDBRANCH  30  31
ENDBRANCH  29  30
ENDBRANCH  28  29
ENDBRANCH  27  28
ENDBRANCH   1  27
TORSDOF 27
ENDMDL
MODEL 2
REMARK VINA RESULT:      -8.9      1.248      8.059
REMARK SMILES C[C@@H]1[C@@H](C(=O)OCCOCCOCCOCCOC(=O)c2ccc(-c3c4nc(c(-c5ccc(S(=O)(=O)[O-])cc5)c5ccc([nH]5)c(-c5ccc(S(=O)(=O)[O-])cc5)c5nc(c(-c6ccc(S(=O)(=O)[O-])cc6)c6ccc3[nH]6)C=C5)C=C4)cc2)CCN1C(=O)N[C@@H](C)Cc1ccco1
REMARK SMILES IDX 11 1 10 2 9 3 8 4 7 5 6 6 4 7 5 8 3 9 1 10 2 11 83 12 81 13
REMARK SMILES IDX 82 14 84 15 85 16 86 17 87 19 88 20 89 21 90 22 91 23 94 24
REMARK SMILES IDX 92 25 93 26 12 27 13 28 14 29 15 30 16 31 17 32 18 33 19 34
REMARK SMILES IDX 20 35 21 36 22 37 80 38 23 39 79 40 24 41 25 42 26 43 73 44
REMARK SMILES IDX 27 45 78 46 72 47 74 48 28 49 77 50 71 51 70 52 29 54 59 55
REMARK SMILES IDX 40 56 58 57 41 58 44 59 57 60 75 61 42 62 43 63 56 65 76 66
REMARK SMILES IDX 45 67 30 68 31 69 39 70 32 71 38 72 33 73 34 74 35 75 36 76
REMARK SMILES IDX 37 77 60 78 61 79 69 80 62 81 68 82 63 83 64 84 65 85 66 86
REMARK SMILES IDX 67 87 46 88 47 89 55 90 48 91 54 92 49 93 50 94 51 95 52 96
REMARK SMILES IDX 53 97
REMARK H PARENT 86 18 74 53 44 64
REMARK Flexibility Score: inf
ROOT
ATOM      1  C   UNL A   1      38.259  22.306  25.746  1.00  0.00     0.188 C 
ENDROOT
BRANCH   1   2
ATOM      2  C   UNL A   1      37.630  21.112  25.010  1.00  0.00     0.188 C 
BRANCH   2   3
ATOM      3  O   UNL A   1      36.308  21.295  24.551  1.00  0.00    -0.376 OA
BRANCH   3   4
ATOM      4  C   UNL A   1      35.166  21.044  25.357  1.00  0.00     0.202 C 
BRANCH   4   5
ATOM      5  C   UNL A   1      33.818  20.448  24.907  1.00  0.00     0.261 C 
BRANCH   5   6
ATOM      6  O   UNL A   1      32.643  20.941  25.537  1.00  0.00    -0.463 OA
BRANCH   6   7
ATOM      7  C   UNL A   1      32.042  21.994  24.936  1.00  0.00     0.311 C 
ATOM      8  O   UNL A   1      31.874  22.101  23.731  1.00  0.00    -0.252 OA
BRANCH   7   9
ATOM      9  C   UNL A   1      31.540  22.967  25.990  1.00  0.00     0.123 C 
ATOM     10  C   UNL A   1      30.057  25.028  26.130  1.00  0.00     0.032 C 
ATOM     11  C   UNL A   1      31.096  24.263  25.303  1.00  0.00     0.098 C 
ATOM     12  N   UNL A   1      32.333  25.031  25.180  1.00  0.00    -0.321 N 
ATOM     13  C   UNL A   1      32.662  23.413  26.909  1.00  0.00     0.039 C 
ATOM     14  C   UNL A   1      33.350  24.494  26.088  1.00  0.00     0.122 C 
BRANCH  12  15
ATOM     15  C   UNL A   1      32.752  25.866  24.194  1.00  0.00     0.317 C 
ATOM     16  O   UNL A   1      33.254  25.427  23.153  1.00  0.00    -0.249 OA
ATOM     17  N   UNL A   1      32.647  27.203  24.253  1.00  0.00    -0.335 N 
ATOM     18  H   UNL A   1      32.843  27.617  23.380  1.00  0.00     0.165 HD
BRANCH  17  19
ATOM     19  C   UNL A   1      32.322  28.218  25.259  1.00  0.00     0.088 C 
ATOM     20  C   UNL A   1      33.577  28.476  26.097  1.00  0.00     0.031 C 
BRANCH  19  21
ATOM     21  C   UNL A   1      31.848  29.541  24.624  1.00  0.00     0.100 C 
BRANCH  21  22
ATOM     22  C   UNL A   1      30.550  29.430  23.911  1.00  0.00     0.105 A 
ATOM     23  C   UNL A   1      29.619  30.360  23.499  1.00  0.00     0.045 A 
ATOM     24  O   UNL A   1      30.120  28.172  23.612  1.00  0.00    -0.469 OA
ATOM     25  C   UNL A   1      28.565  29.633  22.900  1.00  0.00     0.042 A 
ATOM     26  C   UNL A   1      28.911  28.307  23.007  1.00  0.00     0.195 A 
ENDBRANCH  21  22
ENDBRANCH  19  21
ENDBRANCH  17  19
ENDBRANCH  12  15
ENDBRANCH   7   9
ENDBRANCH   6   7
ENDBRANCH   5   6
ENDBRANCH   4   5
ENDBRANCH   3   4
ENDBRANCH   2   3
ENDBRANCH   1   2
BRANCH   1  27
ATOM     27  O   UNL A   1      39.285  21.953  26.651  1.00  0.00    -0.377 OA
BRANCH  27  28
ATOM     28  C   UNL A   1      40.472  21.354  26.139  1.00  0.00     0.188 C 
BRANCH  28  29
ATOM     29  C   UNL A   1      40.679  19.821  26.117  1.00  0.00     0.188 C 
BRANCH  29  30
ATOM     30  O   UNL A   1      41.396  19.296  27.227  1.00  0.00    -0.376 OA
BRANCH  30  31
ATOM     31  C   UNL A   1      42.783  19.045  27.051  1.00  0.00     0.202 C 
BRANCH  31  32
ATOM     32  C   UNL A   1      43.178  18.399  25.715  1.00  0.00     0.261 C 
BRANCH  32  33
ATOM     33  O   UNL A   1      43.488  19.308  24.647  1.00  0.00    -0.460 OA
BRANCH  33  34
ATOM     34  C   UNL A   1      44.724  19.852  24.628  1.00  0.00     0.338 C 
ATOM     35  O   UNL A   1      45.734  19.364  24.150  1.00  0.00    -0.246 OA
BRANCH  34  36
ATOM     36  C   UNL A   1      44.612  21.247  25.105  1.00  0.00     0.060 A 
ATOM     37  C   UNL A   1      44.277  22.252  24.188  1.00  0.00     0.016 A 
ATOM     38  C   UNL A   1      44.823  21.557  26.451  1.00  0.00     0.016 A 
ATOM     39  C   UNL A   1      44.197  23.581  24.607  1.00  0.00     0.010 A 
ATOM     40  C   UNL A   1      44.763  22.891  26.864  1.00  0.00     0.010 A 
ATOM     41  C   UNL A   1      44.488  23.911  25.936  1.00  0.00    -0.014 A 
BRANCH  41  42
ATOM     42  C   UNL A   1      44.725  25.328  26.308  1.00  0.00     0.031 A 
ATOM     43  C   UNL A   1      46.125  25.867  26.180  1.00  0.00     0.074 A 
ATOM     44  C   UNL A   1      43.728  26.124  26.732  1.00  0.00     0.049 A 
ATOM     45  N   UNL A   1      46.590  27.051  26.482  1.00  0.00    -0.248 NA
ATOM     46  C   UNL A   1      47.137  24.943  25.639  1.00  0.00     0.031 C 
ATOM     47  C   UNL A   1      42.324  25.737  26.853  1.00  0.00     0.029 A 
ATOM     48  N   UNL A   1      43.754  27.433  27.148  1.00  0.00    -0.354 N 
ATOM     49  C   UNL A   1      47.945  27.012  26.178  1.00  0.00     0.074 A 
ATOM     50  C   UNL A   1      48.235  25.680  25.697  1.00  0.00     0.031 C 
ATOM     51  C   UNL A   1      41.623  26.786  27.321  1.00  0.00     0.029 A 
ATOM     52  C   UNL A   1      42.532  27.904  27.566  1.00  0.00     0.049 A 
ATOM     53  H   UNL A   1      44.571  27.983  27.145  1.00  0.00     0.167 HD
ATOM     54  C   UNL A   1      48.868  27.998  26.285  1.00  0.00     0.031 A 
ATOM     55  C   UNL A   1      42.194  29.093  28.106  1.00  0.00     0.031 A 
ATOM     56  C   UNL A   1      48.582  29.316  26.782  1.00  0.00     0.049 A 
ATOM     57  C   UNL A   1      43.255  30.149  28.294  1.00  0.00     0.074 A 
ATOM     58  C   UNL A   1      49.446  30.388  26.920  1.00  0.00     0.029 A 
ATOM     59  N   UNL A   1      47.341  29.741  27.231  1.00  0.00    -0.354 N 
ATOM     60  N   UNL A   1      44.529  30.106  27.979  1.00  0.00    -0.248 NA
ATOM     61  C   UNL A   1      42.831  31.418  28.904  1.00  0.00     0.031 C 
ATOM     62  C   UNL A   1      48.741  31.441  27.512  1.00  0.00     0.029 A 
ATOM     63  C   UNL A   1      47.422  31.048  27.676  1.00  0.00     0.049 A 
ATOM     64  H   UNL A   1      46.523  29.191  27.235  1.00  0.00     0.167 HD
ATOM     65  C   UNL A   1      45.047  31.351  28.323  1.00  0.00     0.074 A 
ATOM     66  C   UNL A   1      43.949  32.129  28.856  1.00  0.00     0.031 C 
ATOM     67  C   UNL A   1      46.319  31.812  28.204  1.00  0.00     0.031 A 
BRANCH  54  68
ATOM     68  C   UNL A   1      50.284  27.669  25.892  1.00  0.00    -0.014 A 
ATOM     69  C   UNL A   1      50.732  27.832  24.569  1.00  0.00     0.010 A 
ATOM     70  C   UNL A   1      51.188  27.218  26.871  1.00  0.00     0.010 A 
ATOM     71  C   UNL A   1      52.050  27.518  24.225  1.00  0.00     0.020 A 
ATOM     72  C   UNL A   1      52.515  26.930  26.537  1.00  0.00     0.020 A 
ATOM     73  C   UNL A   1      52.932  27.067  25.212  1.00  0.00     0.054 A 
BRANCH  73  74
ATOM     74  S   UNL A   1      54.642  26.688  24.740  1.00  0.00     0.124 S 
ATOM     75  O   UNL A   1      55.088  25.865  25.861  1.00  0.00    -0.237 OA
ATOM     76  O   UNL A   1      54.474  25.984  23.472  1.00  0.00    -0.237 OA
ATOM     77  O   UNL A   1      55.274  28.001  24.642  1.00  0.00    -0.744 OA
ENDBRANCH  73  74
ENDBRANCH  54  68
BRANCH  55  78
ATOM     78  C   UNL A   1      40.788  29.348  28.529  1.00  0.00    -0.014 A 
ATOM     79  C   UNL A   1      39.747  29.395  27.584  1.00  0.00     0.010 A 
ATOM     80  C   UNL A   1      40.485  29.561  29.887  1.00  0.00     0.010 A 
ATOM     81  C   UNL A   1      38.435  29.666  27.986  1.00  0.00     0.020 A 
ATOM     82  C   UNL A   1      39.171  29.802  30.296  1.00  0.00     0.020 A 
ATOM     83  C   UNL A   1      38.155  29.865  29.341  1.00  0.00     0.054 A 
BRANCH  83  84
ATOM     84  S   UNL A   1      36.437  30.165  29.844  1.00  0.00     0.124 S 
ATOM     85  O   UNL A   1      36.293  29.267  30.986  1.00  0.00    -0.237 OA
ATOM     86  O   UNL A   1      36.447  31.591  30.154  1.00  0.00    -0.237 OA
ATOM     87  O   UNL A   1      35.666  29.797  28.658  1.00  0.00    -0.744 OA
ENDBRANCH  83  84
ENDBRANCH  55  78
BRANCH  67  88
ATOM     88  C   UNL A   1      46.590  33.236  28.615  1.00  0.00    -0.014 A 
ATOM     89  C   UNL A   1      46.978  33.562  29.926  1.00  0.00     0.010 A 
ATOM     90  C   UNL A   1      46.513  34.260  27.651  1.00  0.00     0.010 A 
ATOM     91  C   UNL A   1      47.253  34.888  30.274  1.00  0.00     0.020 A 
ATOM     92  C   UNL A   1      46.818  35.582  27.986  1.00  0.00     0.020 A 
ATOM     93  C   UNL A   1      47.172  35.890  29.300  1.00  0.00     0.054 A 
BRANCH  93  94
ATOM     94  S   UNL A   1      47.576  37.595  29.768  1.00  0.00     0.124 S 
ATOM     95  O   UNL A   1      49.023  37.525  29.955  1.00  0.00    -0.237 OA
ATOM     96  O   UNL A   1      47.129  38.360  28.607  1.00  0.00    -0.237 OA
ATOM     97  O   UNL A   1      46.801  37.813  30.988  1.00  0.00    -0.744 OA
ENDBRANCH  93  94
ENDBRANCH  67  88
ENDBRANCH  41  42
ENDBRANCH  34  36
ENDBRANCH  33  34
ENDBRANCH  32  33
ENDBRANCH  31  32
ENDBRANCH  30  31
ENDBRANCH  29  30
ENDBRANCH  28  29
ENDBRANCH  27  28
ENDBRANCH   1  27
TORSDOF 27
ENDMDL
MODEL 3
REMARK VINA RESULT:      -8.5      1.243      2.014
REMARK SMILES C[C@@H]1[C@@H](C(=O)OCCOCCOCCOCCOC(=O)c2ccc(-c3c4nc(c(-c5ccc(S(=O)(=O)[O-])cc5)c5ccc([nH]5)c(-c5ccc(S(=O)(=O)[O-])cc5)c5nc(c(-c6ccc(S(=O)(=O)[O-])cc6)c6ccc3[nH]6)C=C5)C=C4)cc2)CCN1C(=O)N[C@@H](C)Cc1ccco1
REMARK SMILES IDX 11 1 10 2 9 3 8 4 7 5 6 6 4 7 5 8 3 9 1 10 2 11 83 12 81 13
REMARK SMILES IDX 82 14 84 15 85 16 86 17 87 19 88 20 89 21 90 22 91 23 94 24
REMARK SMILES IDX 92 25 93 26 12 27 13 28 14 29 15 30 16 31 17 32 18 33 19 34
REMARK SMILES IDX 20 35 21 36 22 37 80 38 23 39 79 40 24 41 25 42 26 43 73 44
REMARK SMILES IDX 27 45 78 46 72 47 74 48 28 49 77 50 71 51 70 52 29 54 59 55
REMARK SMILES IDX 40 56 58 57 41 58 44 59 57 60 75 61 42 62 43 63 56 65 76 66
REMARK SMILES IDX 45 67 30 68 31 69 39 70 32 71 38 72 33 73 34 74 35 75 36 76
REMARK SMILES IDX 37 77 60 78 61 79 69 80 62 81 68 82 63 83 64 84 65 85 66 86
REMARK SMILES IDX 67 87 46 88 47 89 55 90 48 91 54 92 49 93 50 94 51 95 52 96
REMARK SMILES IDX 53 97
REMARK H PARENT 86 18 74 53 44 64
REMARK Flexibility Score: inf
ROOT
ATOM      1  C   UNL A   1      38.473  22.424  26.147  1.00  0.00     0.188 C 
ENDROOT
BRANCH   1   2
ATOM      2  C   UNL A   1      37.864  21.368  25.212  1.00  0.00     0.188 C 
BRANCH   2   3
ATOM      3  O   UNL A   1      36.454  21.327  25.161  1.00  0.00    -0.376 OA
BRANCH   3   4
ATOM      4  C   UNL A   1      35.626  22.257  25.843  1.00  0.00     0.202 C 
BRANCH   4   5
ATOM      5  C   UNL A   1      34.936  22.068  27.208  1.00  0.00     0.261 C 
BRANCH   5   6
ATOM      6  O   UNL A   1      33.881  22.962  27.537  1.00  0.00    -0.463 OA
BRANCH   6   7
ATOM      7  C   UNL A   1      32.753  22.850  26.798  1.00  0.00     0.311 C 
ATOM      8  O   UNL A   1      32.219  21.791  26.504  1.00  0.00    -0.252 OA
BRANCH   7   9
ATOM      9  C   UNL A   1      32.215  24.233  26.470  1.00  0.00     0.123 C 
ATOM     10  C   UNL A   1      30.263  25.272  25.215  1.00  0.00     0.032 C 
ATOM     11  C   UNL A   1      31.289  24.134  25.253  1.00  0.00     0.098 C 
ATOM     12  N   UNL A   1      32.202  24.217  24.115  1.00  0.00    -0.321 N 
ATOM     13  C   UNL A   1      33.323  25.160  26.005  1.00  0.00     0.039 C 
ATOM     14  C   UNL A   1      33.491  24.765  24.545  1.00  0.00     0.122 C 
BRANCH  12  15
ATOM     15  C   UNL A   1      32.156  23.597  22.908  1.00  0.00     0.317 C 
ATOM     16  O   UNL A   1      32.034  22.369  22.821  1.00  0.00    -0.249 OA
ATOM     17  N   UNL A   1      32.219  24.244  21.733  1.00  0.00    -0.335 N 
ATOM     18  H   UNL A   1      31.997  23.646  20.982  1.00  0.00     0.165 HD
BRANCH  17  19
ATOM     19  C   UNL A   1      32.529  25.596  21.260  1.00  0.00     0.088 C 
ATOM     20  C   UNL A   1      32.518  25.578  19.729  1.00  0.00     0.031 C 
BRANCH  19  21
ATOM     21  C   UNL A   1      31.515  26.640  21.767  1.00  0.00     0.100 C 
BRANCH  21  22
ATOM     22  C   UNL A   1      32.085  27.599  22.749  1.00  0.00     0.105 A 
ATOM     23  C   UNL A   1      33.364  28.052  22.990  1.00  0.00     0.045 A 
ATOM     24  O   UNL A   1      31.218  28.143  23.649  1.00  0.00    -0.469 OA
ATOM     25  C   UNL A   1      33.276  28.935  24.089  1.00  0.00     0.042 A 
ATOM     26  C   UNL A   1      31.953  28.946  24.462  1.00  0.00     0.195 A 
ENDBRANCH  21  22
ENDBRANCH  19  21
ENDBRANCH  17  19
ENDBRANCH  12  15
ENDBRANCH   7   9
ENDBRANCH   6   7
ENDBRANCH   5   6
ENDBRANCH   4   5
ENDBRANCH   3   4
ENDBRANCH   2   3
ENDBRANCH   1   2
BRANCH   1  27
ATOM     27  O   UNL A   1      39.613  21.982  26.855  1.00  0.00    -0.377 OA
BRANCH  27  28
ATOM     28  C   UNL A   1      40.628  21.277  26.145  1.00  0.00     0.188 C 
BRANCH  28  29
ATOM     29  C   UNL A   1      40.690  19.732  26.115  1.00  0.00     0.188 C 
BRANCH  29  30
ATOM     30  O   UNL A   1      41.554  19.145  27.080  1.00  0.00    -0.376 OA
BRANCH  30  31
ATOM     31  C   UNL A   1      42.947  19.156  26.803  1.00  0.00     0.202 C 
BRANCH  31  32
ATOM     32  C   UNL A   1      43.358  18.595  25.434  1.00  0.00     0.261 C 
BRANCH  32  33
ATOM     33  O   UNL A   1      43.720  19.570  24.442  1.00  0.00    -0.460 OA
BRANCH  33  34
ATOM     34  C   UNL A   1      45.009  19.971  24.402  1.00  0.00     0.338 C 
ATOM     35  O   UNL A   1      45.947  19.380  23.896  1.00  0.00    -0.246 OA
BRANCH  34  36
ATOM     36  C   UNL A   1      45.064  21.363  24.897  1.00  0.00     0.060 A 
ATOM     37  C   UNL A   1      44.897  22.414  23.985  1.00  0.00     0.016 A 
ATOM     38  C   UNL A   1      45.266  21.628  26.254  1.00  0.00     0.016 A 
ATOM     39  C   UNL A   1      44.977  23.737  24.422  1.00  0.00     0.010 A 
ATOM     40  C   UNL A   1      45.367  22.953  26.685  1.00  0.00     0.010 A 
ATOM     41  C   UNL A   1      45.262  24.011  25.766  1.00  0.00    -0.014 A 
BRANCH  41  42
ATOM     42  C   UNL A   1      45.670  25.380  26.167  1.00  0.00     0.031 A 
ATOM     43  C   UNL A   1      44.607  26.310  26.688  1.00  0.00     0.074 A 
ATOM     44  C   UNL A   1      46.950  25.787  26.091  1.00  0.00     0.049 A 
ATOM     45  N   UNL A   1      44.706  27.560  27.058  1.00  0.00    -0.248 NA
ATOM     46  C   UNL A   1      43.248  25.754  26.803  1.00  0.00     0.031 C 
ATOM     47  C   UNL A   1      48.078  24.969  25.652  1.00  0.00     0.029 A 
ATOM     48  N   UNL A   1      47.510  27.007  26.381  1.00  0.00    -0.354 N 
ATOM     49  C   UNL A   1      43.425  27.942  27.440  1.00  0.00     0.074 A 
ATOM     50  C   UNL A   1      42.561  26.802  27.229  1.00  0.00     0.031 C 
ATOM     51  C   UNL A   1      49.197  25.714  25.693  1.00  0.00     0.029 A 
ATOM     52  C   UNL A   1      48.860  27.068  26.127  1.00  0.00     0.049 A 
ATOM     53  H   UNL A   1      46.995  27.766  26.737  1.00  0.00     0.167 HD
ATOM     54  C   UNL A   1      43.005  29.133  27.928  1.00  0.00     0.031 A 
ATOM     55  C   UNL A   1      49.717  28.106  26.212  1.00  0.00     0.031 A 
ATOM     56  C   UNL A   1      43.862  30.271  28.120  1.00  0.00     0.049 A 
ATOM     57  C   UNL A   1      49.210  29.449  26.679  1.00  0.00     0.074 A 
ATOM     58  C   UNL A   1      43.534  31.519  28.618  1.00  0.00     0.029 A 
ATOM     59  N   UNL A   1      45.214  30.304  27.814  1.00  0.00    -0.354 N 
ATOM     60  N   UNL A   1      48.001  29.788  27.060  1.00  0.00    -0.248 NA
ATOM     61  C   UNL A   1      50.187  30.546  26.735  1.00  0.00     0.031 C 
ATOM     62  C   UNL A   1      44.674  32.327  28.554  1.00  0.00     0.029 A 
ATOM     63  C   UNL A   1      45.729  31.560  28.084  1.00  0.00     0.049 A 
ATOM     64  H   UNL A   1      45.731  29.546  27.457  1.00  0.00     0.167 HD
ATOM     65  C   UNL A   1      48.081  31.128  27.431  1.00  0.00     0.074 A 
ATOM     66  C   UNL A   1      49.458  31.532  27.241  1.00  0.00     0.031 C 
ATOM     67  C   UNL A   1      47.103  31.949  27.891  1.00  0.00     0.031 A 
BRANCH  54  68
ATOM     68  C   UNL A   1      41.540  29.273  28.251  1.00  0.00    -0.014 A 
ATOM     69  C   UNL A   1      41.090  29.368  29.580  1.00  0.00     0.010 A 
ATOM     70  C   UNL A   1      40.603  29.342  27.204  1.00  0.00     0.010 A 
ATOM     71  C   UNL A   1      39.726  29.494  29.857  1.00  0.00     0.020 A 
ATOM     72  C   UNL A   1      39.241  29.498  27.476  1.00  0.00     0.020 A 
ATOM     73  C   UNL A   1      38.810  29.557  28.802  1.00  0.00     0.054 A 
BRANCH  73  74
ATOM     74  S   UNL A   1      37.049  29.743  29.192  1.00  0.00     0.124 S 
ATOM     75  O   UNL A   1      36.931  31.188  29.370  1.00  0.00    -0.237 OA
ATOM     76  O   UNL A   1      36.400  29.202  28.000  1.00  0.00    -0.237 OA
ATOM     77  O   UNL A   1      36.876  28.950  30.406  1.00  0.00    -0.744 OA
ENDBRANCH  73  74
ENDBRANCH  54  68
BRANCH  55  78
ATOM     78  C   UNL A   1      51.146  27.928  25.828  1.00  0.00    -0.014 A 
ATOM     79  C   UNL A   1      52.114  27.586  26.789  1.00  0.00     0.010 A 
ATOM     80  C   UNL A   1      51.549  28.117  24.493  1.00  0.00     0.010 A 
ATOM     81  C   UNL A   1      53.458  27.451  26.426  1.00  0.00     0.020 A 
ATOM     82  C   UNL A   1      52.886  27.954  24.120  1.00  0.00     0.020 A 
ATOM     83  C   UNL A   1      53.835  27.633  25.092  1.00  0.00     0.054 A 
BRANCH  83  84
ATOM     84  S   UNL A   1      55.577  27.404  24.637  1.00  0.00     0.124 S 
ATOM     85  O   UNL A   1      56.192  28.616  25.168  1.00  0.00    -0.237 OA
ATOM     86  O   UNL A   1      55.920  26.163  25.326  1.00  0.00    -0.237 OA
ATOM     87  O   UNL A   1      55.538  27.308  23.179  1.00  0.00    -0.744 OA
ENDBRANCH  83  84
ENDBRANCH  55  78
BRANCH  67  88
ATOM     88  C   UNL A   1      47.489  33.357  28.266  1.00  0.00    -0.014 A 
ATOM     89  C   UNL A   1      47.410  34.412  27.341  1.00  0.00     0.010 A 
ATOM     90  C   UNL A   1      47.879  33.637  29.590  1.00  0.00     0.010 A 
ATOM     91  C   UNL A   1      47.744  35.715  27.724  1.00  0.00     0.020 A 
ATOM     92  C   UNL A   1      48.184  34.942  29.985  1.00  0.00     0.020 A 
ATOM     93  C   UNL A   1      48.129  35.972  29.044  1.00  0.00     0.054 A 
BRANCH  93  94
ATOM     94  S   UNL A   1      48.516  37.677  29.525  1.00  0.00     0.124 S 
ATOM     95  O   UNL A   1      47.893  38.445  28.450  1.00  0.00    -0.237 OA
ATOM     96  O   UNL A   1      47.877  37.794  30.833  1.00  0.00    -0.237 OA
ATOM     97  O   UNL A   1      49.977  37.708  29.545  1.00  0.00    -0.744 OA
ENDBRANCH  93  94
ENDBRANCH  67  88
ENDBRANCH  41  42
ENDBRANCH  34  36
ENDBRANCH  33  34
ENDBRANCH  32  33
ENDBRANCH  31  32
ENDBRANCH  30  31
ENDBRANCH  29  30
ENDBRANCH  28  29
ENDBRANCH  27  28
ENDBRANCH   1  27
TORSDOF 27
ENDMDL
