MODEL 1
REMARK VINA RESULT:      -5.9      0.000      0.000
REMARK SMILES CN(CC(=O)N[C@H]1C=C[C@H](C(=O)OCCOCCOCCOCCOC(=O)c2ccc(-c3c4nc(c(-c5ccc(S(=O)(=O)[O-])cc5)c5ccc([nH]5)c(-c5ccc(S(=O)(=O)[O-])cc5)c5nc(c(-c6ccc(S(=O)(=O)[O-])cc6)c6ccc3[nH]6)C=C5)C=C4)cc2)C1)C(=O)c1cccs1
REMARK SMILES IDX 18 1 17 2 16 3 15 4 14 5 13 6 11 7 12 8 10 9 7 10 8 11 88 12
REMARK SMILES IDX 9 13 6 14 4 15 5 16 3 18 2 19 1 20 89 21 90 22 91 23 92 24
REMARK SMILES IDX 95 25 93 26 94 27 19 28 20 29 21 30 22 31 23 32 24 33 25 34
REMARK SMILES IDX 26 35 27 36 28 37 29 38 87 39 30 40 86 41 31 42 32 43 33 44
REMARK SMILES IDX 80 45 34 46 85 47 79 48 81 49 35 50 84 51 78 52 77 53 36 55
REMARK SMILES IDX 66 56 47 57 65 58 48 59 51 60 64 61 82 62 49 63 50 64 63 66
REMARK SMILES IDX 83 67 52 68 37 69 38 70 46 71 39 72 45 73 40 74 41 75 42 76
REMARK SMILES IDX 43 77 44 78 67 79 68 80 76 81 69 82 75 83 70 84 71 85 72 86
REMARK SMILES IDX 73 87 74 88 53 89 54 90 62 91 55 92 61 93 56 94 57 95 58 96
REMARK SMILES IDX 59 97 60 98
REMARK H PARENT 6 17 81 54 51 65
REMARK Flexibility Score: inf
ROOT
ATOM      1  C   UNL A   1      46.486  26.045  30.520  1.00  0.00     0.188 C 
ENDROOT
BRANCH   1   2
ATOM      2  C   UNL A   1      45.643  25.693  29.277  1.00  0.00     0.188 C 
BRANCH   2   3
ATOM      3  O   UNL A   1      44.737  26.627  28.702  1.00  0.00    -0.376 OA
BRANCH   3   4
ATOM      4  C   UNL A   1      43.556  26.255  28.001  1.00  0.00     0.202 C 
BRANCH   4   5
ATOM      5  C   UNL A   1      42.142  26.231  28.610  1.00  0.00     0.261 C 
BRANCH   5   6
ATOM      6  O   UNL A   1      41.741  27.428  29.266  1.00  0.00    -0.463 OA
BRANCH   6   7
ATOM      7  C   UNL A   1      40.960  28.258  28.539  1.00  0.00     0.312 C 
ATOM      8  O   UNL A   1      41.361  29.215  27.888  1.00  0.00    -0.252 OA
BRANCH   7   9
ATOM      9  C   UNL A   1      39.517  27.751  28.549  1.00  0.00     0.124 C 
ATOM     10  C   UNL A   1      38.275  29.720  28.735  1.00  0.00     0.106 C 
ATOM     11  C   UNL A   1      38.100  28.897  29.970  1.00  0.00    -0.006 C 
ATOM     12  C   UNL A   1      38.629  28.665  27.707  1.00  0.00     0.048 C 
ATOM     13  C   UNL A   1      38.872  27.810  29.892  1.00  0.00    -0.014 C 
BRANCH  10  14
ATOM     14  N   UNL A   1      37.133  30.503  28.421  1.00  0.00    -0.348 N 
ATOM     15  C   UNL A   1      37.003  31.830  28.729  1.00  0.00     0.240 C 
ATOM     16  O   UNL A   1      36.150  32.478  28.117  1.00  0.00    -0.273 OA
ATOM     17  H   UNL A   1      36.387  30.063  27.953  1.00  0.00     0.164 HD
BRANCH  15  18
ATOM     18  C   UNL A   1      38.005  32.525  29.694  1.00  0.00     0.219 C 
BRANCH  18  19
ATOM     19  N   UNL A   1      37.601  32.711  31.100  1.00  0.00    -0.332 N 
ATOM     20  C   UNL A   1      36.446  31.973  31.608  1.00  0.00     0.147 C 
BRANCH  19  21
ATOM     21  C   UNL A   1      38.390  33.362  32.061  1.00  0.00     0.264 C 
ATOM     22  O   UNL A   1      39.270  34.151  31.726  1.00  0.00    -0.268 OA
BRANCH  21  23
ATOM     23  C   UNL A   1      38.126  33.067  33.454  1.00  0.00     0.092 A 
ATOM     24  C   UNL A   1      38.469  31.959  34.204  1.00  0.00     0.025 A 
ATOM     25  S   UNL A   1      37.315  34.243  34.396  1.00  0.00    -0.139 S 
ATOM     26  C   UNL A   1      37.947  32.026  35.527  1.00  0.00     0.012 A 
ATOM     27  C   UNL A   1      37.309  33.221  35.767  1.00  0.00     0.065 A 
ENDBRANCH  21  23
ENDBRANCH  19  21
ENDBRANCH  18  19
ENDBRANCH  15  18
ENDBRANCH  10  14
ENDBRANCH   7   9
ENDBRANCH   6   7
ENDBRANCH   5   6
ENDBRANCH   4   5
ENDBRANCH   3   4
ENDBRANCH   2   3
ENDBRANCH   1   2
BRANCH   1  28
ATOM     28  O   UNL A   1      45.714  26.141  31.694  1.00  0.00    -0.377 OA
BRANCH  28  29
ATOM     29  C   UNL A   1      44.695  25.165  31.834  1.00  0.00     0.188 C 
BRANCH  29  30
ATOM     30  C   UNL A   1      44.845  24.100  32.948  1.00  0.00     0.188 C 
BRANCH  30  31
ATOM     31  O   UNL A   1      45.864  24.367  33.905  1.00  0.00    -0.376 OA
BRANCH  31  32
ATOM     32  C   UNL A   1      45.851  23.679  35.146  1.00  0.00     0.202 C 
BRANCH  32  33
ATOM     33  C   UNL A   1      44.491  23.290  35.751  1.00  0.00     0.261 C 
BRANCH  33  34
ATOM     34  O   UNL A   1      43.736  24.348  36.353  1.00  0.00    -0.460 OA
BRANCH  34  35
ATOM     35  C   UNL A   1      42.528  24.634  35.821  1.00  0.00     0.338 C 
ATOM     36  O   UNL A   1      41.554  23.900  35.781  1.00  0.00    -0.246 OA
BRANCH  35  37
ATOM     37  C   UNL A   1      42.524  26.072  35.483  1.00  0.00     0.060 A 
ATOM     38  C   UNL A   1      41.397  26.627  34.860  1.00  0.00     0.016 A 
ATOM     39  C   UNL A   1      43.614  26.875  35.823  1.00  0.00     0.016 A 
ATOM     40  C   UNL A   1      41.368  27.986  34.547  1.00  0.00     0.010 A 
ATOM     41  C   UNL A   1      43.597  28.227  35.481  1.00  0.00     0.010 A 
ATOM     42  C   UNL A   1      42.491  28.780  34.812  1.00  0.00    -0.014 A 
BRANCH  42  43
ATOM     43  C   UNL A   1      42.628  30.114  34.186  1.00  0.00     0.031 A 
ATOM     44  C   UNL A   1      43.260  30.179  32.823  1.00  0.00     0.074 A 
ATOM     45  C   UNL A   1      42.248  31.239  34.816  1.00  0.00     0.049 A 
ATOM     46  N   UNL A   1      43.634  31.222  32.130  1.00  0.00    -0.248 NA
ATOM     47  C   UNL A   1      43.517  28.888  32.162  1.00  0.00     0.031 C 
ATOM     48  C   UNL A   1      41.573  31.299  36.111  1.00  0.00     0.029 A 
ATOM     49  N   UNL A   1      42.404  32.553  34.452  1.00  0.00    -0.354 N 
ATOM     50  C   UNL A   1      44.198  30.712  30.967  1.00  0.00     0.074 A 
ATOM     51  C   UNL A   1      44.131  29.271  31.053  1.00  0.00     0.031 C 
ATOM     52  C   UNL A   1      41.397  32.590  36.448  1.00  0.00     0.029 A 
ATOM     53  C   UNL A   1      41.991  33.442  35.416  1.00  0.00     0.049 A 
ATOM     54  H   UNL A   1      42.775  32.832  33.584  1.00  0.00     0.167 HD
ATOM     55  C   UNL A   1      44.731  31.386  29.922  1.00  0.00     0.031 A 
ATOM     56  C   UNL A   1      42.115  34.784  35.477  1.00  0.00     0.031 A 
ATOM     57  C   UNL A   1      44.812  32.820  29.856  1.00  0.00     0.049 A 
ATOM     58  C   UNL A   1      42.784  35.515  34.339  1.00  0.00     0.074 A 
ATOM     59  C   UNL A   1      45.314  33.605  28.835  1.00  0.00     0.029 A 
ATOM     60  N   UNL A   1      44.393  33.683  30.858  1.00  0.00    -0.354 N 
ATOM     61  N   UNL A   1      43.294  35.028  33.232  1.00  0.00    -0.248 NA
ATOM     62  C   UNL A   1      42.892  36.977  34.455  1.00  0.00     0.031 C 
ATOM     63  C   UNL A   1      45.265  34.938  29.250  1.00  0.00     0.029 A 
ATOM     64  C   UNL A   1      44.655  34.990  30.493  1.00  0.00     0.049 A 
ATOM     65  H   UNL A   1      43.971  33.405  31.703  1.00  0.00     0.167 HD
ATOM     66  C   UNL A   1      43.747  36.124  32.505  1.00  0.00     0.074 A 
ATOM     67  C   UNL A   1      43.454  37.301  33.297  1.00  0.00     0.031 C 
ATOM     68  C   UNL A   1      44.342  36.154  31.287  1.00  0.00     0.031 A 
BRANCH  55  69
ATOM     69  C   UNL A   1      45.324  30.575  28.801  1.00  0.00    -0.014 A 
ATOM     70  C   UNL A   1      44.623  30.350  27.602  1.00  0.00     0.010 A 
ATOM     71  C   UNL A   1      46.618  30.042  28.946  1.00  0.00     0.010 A 
ATOM     72  C   UNL A   1      45.185  29.565  26.592  1.00  0.00     0.020 A 
ATOM     73  C   UNL A   1      47.197  29.285  27.925  1.00  0.00     0.020 A 
ATOM     74  C   UNL A   1      46.468  29.034  26.762  1.00  0.00     0.054 A 
BRANCH  74  75
ATOM     75  S   UNL A   1      47.174  28.026  25.431  1.00  0.00     0.124 S 
ATOM     76  O   UNL A   1      48.548  28.520  25.378  1.00  0.00    -0.237 OA
ATOM     77  O   UNL A   1      47.015  26.668  25.941  1.00  0.00    -0.237 OA
ATOM     78  O   UNL A   1      46.350  28.356  24.271  1.00  0.00    -0.744 OA
ENDBRANCH  74  75
ENDBRANCH  55  69
BRANCH  56  79
ATOM     79  C   UNL A   1      41.621  35.517  36.675  1.00  0.00    -0.014 A 
ATOM     80  C   UNL A   1      40.262  35.853  36.801  1.00  0.00     0.010 A 
ATOM     81  C   UNL A   1      42.507  35.863  37.712  1.00  0.00     0.010 A 
ATOM     82  C   UNL A   1      39.799  36.521  37.939  1.00  0.00     0.020 A 
ATOM     83  C   UNL A   1      42.044  36.504  38.864  1.00  0.00     0.020 A 
ATOM     84  C   UNL A   1      40.692  36.834  38.967  1.00  0.00     0.054 A 
BRANCH  84  85
ATOM     85  S   UNL A   1      40.050  37.634  40.465  1.00  0.00     0.124 S 
ATOM     86  O   UNL A   1      40.731  36.894  41.521  1.00  0.00    -0.237 OA
ATOM     87  O   UNL A   1      40.480  39.019  40.285  1.00  0.00    -0.237 OA
ATOM     88  O   UNL A   1      38.608  37.419  40.377  1.00  0.00    -0.744 OA
ENDBRANCH  84  85
ENDBRANCH  56  79
BRANCH  68  89
ATOM     89  C   UNL A   1      44.670  37.495  30.684  1.00  0.00    -0.014 A 
ATOM     90  C   UNL A   1      43.731  38.210  29.923  1.00  0.00     0.010 A 
ATOM     91  C   UNL A   1      45.902  38.101  30.999  1.00  0.00     0.010 A 
ATOM     92  C   UNL A   1      44.018  39.508  29.488  1.00  0.00     0.020 A 
ATOM     93  C   UNL A   1      46.182  39.407  30.590  1.00  0.00     0.020 A 
ATOM     94  C   UNL A   1      45.237  40.102  29.833  1.00  0.00     0.054 A 
BRANCH  94  95
ATOM     95  S   UNL A   1      45.543  41.821  29.341  1.00  0.00     0.124 S 
ATOM     96  O   UNL A   1      46.292  41.655  28.099  1.00  0.00    -0.237 OA
ATOM     97  O   UNL A   1      44.191  42.356  29.193  1.00  0.00    -0.237 OA
ATOM     98  O   UNL A   1      46.306  42.373  30.459  1.00  0.00    -0.744 OA
ENDBRANCH  94  95
ENDBRANCH  68  89
ENDBRANCH  42  43
ENDBRANCH  35  37
ENDBRANCH  34  35
ENDBRANCH  33  34
ENDBRANCH  32  33
ENDBRANCH  31  32
ENDBRANCH  30  31
ENDBRANCH  29  30
ENDBRANCH  28  29
ENDBRANCH   1  28
TORSDOF 28
ENDMDL
MODEL 2
REMARK VINA RESULT:      -5.7      5.875      9.914
REMARK SMILES CN(CC(=O)N[C@H]1C=C[C@H](C(=O)OCCOCCOCCOCCOC(=O)c2ccc(-c3c4nc(c(-c5ccc(S(=O)(=O)[O-])cc5)c5ccc([nH]5)c(-c5ccc(S(=O)(=O)[O-])cc5)c5nc(c(-c6ccc(S(=O)(=O)[O-])cc6)c6ccc3[nH]6)C=C5)C=C4)cc2)C1)C(=O)c1cccs1
REMARK SMILES IDX 18 1 17 2 16 3 15 4 14 5 13 6 11 7 12 8 10 9 7 10 8 11 88 12
REMARK SMILES IDX 9 13 6 14 4 15 5 16 3 18 2 19 1 20 89 21 90 22 91 23 92 24
REMARK SMILES IDX 95 25 93 26 94 27 19 28 20 29 21 30 22 31 23 32 24 33 25 34
REMARK SMILES IDX 26 35 27 36 28 37 29 38 87 39 30 40 86 41 31 42 32 43 33 44
REMARK SMILES IDX 80 45 34 46 85 47 79 48 81 49 35 50 84 51 78 52 77 53 36 55
REMARK SMILES IDX 66 56 47 57 65 58 48 59 51 60 64 61 82 62 49 63 50 64 63 66
REMARK SMILES IDX 83 67 52 68 37 69 38 70 46 71 39 72 45 73 40 74 41 75 42 76
REMARK SMILES IDX 43 77 44 78 67 79 68 80 76 81 69 82 75 83 70 84 71 85 72 86
REMARK SMILES IDX 73 87 74 88 53 89 54 90 62 91 55 92 61 93 56 94 57 95 58 96
REMARK SMILES IDX 59 97 60 98
REMARK H PARENT 6 17 81 54 51 65
REMARK Flexibility Score: inf
ROOT
ATOM      1  C   UNL A   1      38.165  23.733  25.637  1.00  0.00     0.188 C 
ENDROOT
BRANCH   1   2
ATOM      2  C   UNL A   1      36.666  23.517  25.933  1.00  0.00     0.188 C 
BRANCH   2   3
ATOM      3  O   UNL A   1      35.868  22.646  25.141  1.00  0.00    -0.376 OA
BRANCH   3   4
ATOM      4  C   UNL A   1      35.760  21.245  25.369  1.00  0.00     0.202 C 
BRANCH   4   5
ATOM      5  C   UNL A   1      34.570  20.372  24.929  1.00  0.00     0.261 C 
BRANCH   5   6
ATOM      6  O   UNL A   1      33.481  20.321  25.842  1.00  0.00    -0.463 OA
BRANCH   6   7
ATOM      7  C   UNL A   1      32.852  21.496  26.065  1.00  0.00     0.312 C 
ATOM      8  O   UNL A   1      33.213  22.350  26.865  1.00  0.00    -0.252 OA
BRANCH   7   9
ATOM      9  C   UNL A   1      31.692  21.657  25.080  1.00  0.00     0.124 C 
ATOM     10  C   UNL A   1      32.460  23.325  23.638  1.00  0.00     0.106 C 
ATOM     11  C   UNL A   1      31.286  23.832  24.410  1.00  0.00    -0.006 C 
ATOM     12  C   UNL A   1      32.224  21.829  23.658  1.00  0.00     0.048 C 
ATOM     13  C   UNL A   1      30.898  22.902  25.288  1.00  0.00    -0.014 C 
BRANCH  10  14
ATOM     14  N   UNL A   1      32.563  23.897  22.343  1.00  0.00    -0.348 N 
ATOM     15  C   UNL A   1      33.059  25.147  22.092  1.00  0.00     0.240 C 
ATOM     16  O   UNL A   1      33.421  25.399  20.939  1.00  0.00    -0.273 OA
ATOM     17  H   UNL A   1      32.257  23.361  21.575  1.00  0.00     0.164 HD
BRANCH  15  18
ATOM     18  C   UNL A   1      33.309  26.152  23.252  1.00  0.00     0.219 C 
BRANCH  18  19
ATOM     19  N   UNL A   1      32.673  27.481  23.171  1.00  0.00    -0.332 N 
ATOM     20  C   UNL A   1      33.116  28.416  22.139  1.00  0.00     0.147 C 
BRANCH  19  21
ATOM     21  C   UNL A   1      31.501  27.830  23.859  1.00  0.00     0.264 C 
ATOM     22  O   UNL A   1      30.414  27.850  23.286  1.00  0.00    -0.268 OA
BRANCH  21  23
ATOM     23  C   UNL A   1      31.624  28.165  25.262  1.00  0.00     0.092 A 
ATOM     24  C   UNL A   1      31.379  27.393  26.381  1.00  0.00     0.025 A 
ATOM     25  S   UNL A   1      32.204  29.719  25.680  1.00  0.00    -0.139 S 
ATOM     26  C   UNL A   1      31.547  28.130  27.587  1.00  0.00     0.012 A 
ATOM     27  C   UNL A   1      32.006  29.405  27.350  1.00  0.00     0.065 A 
ENDBRANCH  21  23
ENDBRANCH  19  21
ENDBRANCH  18  19
ENDBRANCH  15  18
ENDBRANCH  10  14
ENDBRANCH   7   9
ENDBRANCH   6   7
ENDBRANCH   5   6
ENDBRANCH   4   5
ENDBRANCH   3   4
ENDBRANCH   2   3
ENDBRANCH   1   2
BRANCH   1  28
ATOM     28  O   UNL A   1      39.003  23.084  26.564  1.00  0.00    -0.377 OA
BRANCH  28  29
ATOM     29  C   UNL A   1      39.335  21.742  26.249  1.00  0.00     0.188 C 
BRANCH  29  30
ATOM     30  C   UNL A   1      40.558  21.103  26.952  1.00  0.00     0.188 C 
BRANCH  30  31
ATOM     31  O   UNL A   1      41.323  20.214  26.146  1.00  0.00    -0.376 OA
BRANCH  31  32
ATOM     32  C   UNL A   1      42.717  20.431  26.001  1.00  0.00     0.202 C 
BRANCH  32  33
ATOM     33  C   UNL A   1      43.366  21.574  26.802  1.00  0.00     0.261 C 
BRANCH  33  34
ATOM     34  O   UNL A   1      43.867  22.679  26.041  1.00  0.00    -0.460 OA
BRANCH  34  35
ATOM     35  C   UNL A   1      43.160  23.829  26.071  1.00  0.00     0.338 C 
ATOM     36  O   UNL A   1      42.211  24.123  25.364  1.00  0.00    -0.246 OA
BRANCH  35  37
ATOM     37  C   UNL A   1      43.604  24.588  27.258  1.00  0.00     0.060 A 
ATOM     38  C   UNL A   1      42.660  24.965  28.225  1.00  0.00     0.016 A 
ATOM     39  C   UNL A   1      44.957  24.885  27.436  1.00  0.00     0.016 A 
ATOM     40  C   UNL A   1      43.062  25.668  29.360  1.00  0.00     0.010 A 
ATOM     41  C   UNL A   1      45.354  25.616  28.556  1.00  0.00     0.010 A 
ATOM     42  C   UNL A   1      44.405  26.039  29.503  1.00  0.00    -0.014 A 
BRANCH  42  43
ATOM     43  C   UNL A   1      44.795  27.067  30.495  1.00  0.00     0.031 A 
ATOM     44  C   UNL A   1      45.230  26.589  31.853  1.00  0.00     0.074 A 
ATOM     45  C   UNL A   1      44.730  28.381  30.222  1.00  0.00     0.049 A 
ATOM     46  N   UNL A   1      45.471  27.278  32.937  1.00  0.00    -0.248 NA
ATOM     47  C   UNL A   1      45.399  25.134  32.009  1.00  0.00     0.031 C 
ATOM     48  C   UNL A   1      44.380  28.962  28.928  1.00  0.00     0.029 A 
ATOM     49  N   UNL A   1      44.932  29.466  31.039  1.00  0.00    -0.354 N 
ATOM     50  C   UNL A   1      45.790  26.339  33.910  1.00  0.00     0.074 A 
ATOM     51  C   UNL A   1      45.697  25.034  33.295  1.00  0.00     0.031 C 
ATOM     52  C   UNL A   1      44.365  30.303  29.045  1.00  0.00     0.029 A 
ATOM     53  C   UNL A   1      44.655  30.668  30.432  1.00  0.00     0.049 A 
ATOM     54  H   UNL A   1      45.246  29.389  31.969  1.00  0.00     0.167 HD
ATOM     55  C   UNL A   1      46.124  26.546  35.205  1.00  0.00     0.031 A 
ATOM     56  C   UNL A   1      44.602  31.913  30.948  1.00  0.00     0.031 A 
ATOM     57  C   UNL A   1      46.192  27.847  35.813  1.00  0.00     0.049 A 
ATOM     58  C   UNL A   1      44.899  32.119  32.413  1.00  0.00     0.074 A 
ATOM     59  C   UNL A   1      46.540  28.170  37.111  1.00  0.00     0.029 A 
ATOM     60  N   UNL A   1      45.893  29.038  35.167  1.00  0.00    -0.354 N 
ATOM     61  N   UNL A   1      45.222  31.228  33.322  1.00  0.00    -0.248 NA
ATOM     62  C   UNL A   1      44.829  33.496  32.924  1.00  0.00     0.031 C 
ATOM     63  C   UNL A   1      46.381  29.549  37.271  1.00  0.00     0.029 A 
ATOM     64  C   UNL A   1      46.017  30.095  36.050  1.00  0.00     0.049 A 
ATOM     65  H   UNL A   1      45.632  29.118  34.221  1.00  0.00     0.167 HD
ATOM     66  C   UNL A   1      45.430  31.941  34.498  1.00  0.00     0.074 A 
ATOM     67  C   UNL A   1      45.195  33.337  34.189  1.00  0.00     0.031 C 
ATOM     68  C   UNL A   1      45.794  31.482  35.722  1.00  0.00     0.031 A 
BRANCH  55  69
ATOM     69  C   UNL A   1      46.374  25.333  36.061  1.00  0.00    -0.014 A 
ATOM     70  C   UNL A   1      45.322  24.646  36.693  1.00  0.00     0.010 A 
ATOM     71  C   UNL A   1      47.691  24.864  36.222  1.00  0.00     0.010 A 
ATOM     72  C   UNL A   1      45.588  23.544  37.510  1.00  0.00     0.020 A 
ATOM     73  C   UNL A   1      47.958  23.741  37.009  1.00  0.00     0.020 A 
ATOM     74  C   UNL A   1      46.906  23.101  37.665  1.00  0.00     0.054 A 
BRANCH  74  75
ATOM     75  S   UNL A   1      47.219  21.663  38.724  1.00  0.00     0.124 S 
ATOM     76  O   UNL A   1      47.665  22.296  39.963  1.00  0.00    -0.237 OA
ATOM     77  O   UNL A   1      45.911  21.019  38.784  1.00  0.00    -0.237 OA
ATOM     78  O   UNL A   1      48.247  20.918  38.002  1.00  0.00    -0.744 OA
ENDBRANCH  74  75
ENDBRANCH  55  69
BRANCH  56  79
ATOM     79  C   UNL A   1      44.222  33.058  30.075  1.00  0.00    -0.014 A 
ATOM     80  C   UNL A   1      45.189  33.721  29.300  1.00  0.00     0.010 A 
ATOM     81  C   UNL A   1      42.880  33.475  29.995  1.00  0.00     0.010 A 
ATOM     82  C   UNL A   1      44.822  34.781  28.464  1.00  0.00     0.020 A 
ATOM     83  C   UNL A   1      42.505  34.514  29.138  1.00  0.00     0.020 A 
ATOM     84  C   UNL A   1      43.480  35.164  28.381  1.00  0.00     0.054 A 
BRANCH  84  85
ATOM     85  S   UNL A   1      43.022  36.492  27.233  1.00  0.00     0.124 S 
ATOM     86  O   UNL A   1      42.774  35.755  25.998  1.00  0.00    -0.237 OA
ATOM     87  O   UNL A   1      41.843  37.065  27.875  1.00  0.00    -0.237 OA
ATOM     88  O   UNL A   1      44.200  37.356  27.221  1.00  0.00    -0.744 OA
ENDBRANCH  84  85
ENDBRANCH  56  79
BRANCH  68  89
ATOM     89  C   UNL A   1      46.028  32.486  36.821  1.00  0.00    -0.014 A 
ATOM     90  C   UNL A   1      45.015  32.837  37.727  1.00  0.00     0.010 A 
ATOM     91  C   UNL A   1      47.331  32.985  37.021  1.00  0.00     0.010 A 
ATOM     92  C   UNL A   1      45.299  33.671  38.814  1.00  0.00     0.020 A 
ATOM     93  C   UNL A   1      47.625  33.794  38.121  1.00  0.00     0.020 A 
ATOM     94  C   UNL A   1      46.605  34.134  39.010  1.00  0.00     0.054 A 
BRANCH  94  95
ATOM     95  S   UNL A   1      46.967  35.130  40.482  1.00  0.00     0.124 S 
ATOM     96  O   UNL A   1      46.111  36.296  40.280  1.00  0.00    -0.237 OA
ATOM     97  O   UNL A   1      46.573  34.242  41.574  1.00  0.00    -0.237 OA
ATOM     98  O   UNL A   1      48.402  35.388  40.384  1.00  0.00    -0.744 OA
ENDBRANCH  94  95
ENDBRANCH  68  89
ENDBRANCH  42  43
ENDBRANCH  35  37
ENDBRANCH  34  35
ENDBRANCH  33  34
ENDBRANCH  32  33
ENDBRANCH  31  32
ENDBRANCH  30  31
ENDBRANCH  29  30
ENDBRANCH  28  29
ENDBRANCH   1  28
TORSDOF 28
ENDMDL
MODEL 3
REMARK VINA RESULT:      -5.7      3.127      8.896
REMARK SMILES CN(CC(=O)N[C@H]1C=C[C@H](C(=O)OCCOCCOCCOCCOC(=O)c2ccc(-c3c4nc(c(-c5ccc(S(=O)(=O)[O-])cc5)c5ccc([nH]5)c(-c5ccc(S(=O)(=O)[O-])cc5)c5nc(c(-c6ccc(S(=O)(=O)[O-])cc6)c6ccc3[nH]6)C=C5)C=C4)cc2)C1)C(=O)c1cccs1
REMARK SMILES IDX 18 1 17 2 16 3 15 4 14 5 13 6 11 7 12 8 10 9 7 10 8 11 88 12
REMARK SMILES IDX 9 13 6 14 4 15 5 16 3 18 2 19 1 20 89 21 90 22 91 23 92 24
REMARK SMILES IDX 95 25 93 26 94 27 19 28 20 29 21 30 22 31 23 32 24 33 25 34
REMARK SMILES IDX 26 35 27 36 28 37 29 38 87 39 30 40 86 41 31 42 32 43 33 44
REMARK SMILES IDX 80 45 34 46 85 47 79 48 81 49 35 50 84 51 78 52 77 53 36 55
REMARK SMILES IDX 66 56 47 57 65 58 48 59 51 60 64 61 82 62 49 63 50 64 63 66
REMARK SMILES IDX 83 67 52 68 37 69 38 70 46 71 39 72 45 73 40 74 41 75 42 76
REMARK SMILES IDX 43 77 44 78 67 79 68 80 76 81 69 82 75 83 70 84 71 85 72 86
REMARK SMILES IDX 73 87 74 88 53 89 54 90 62 91 55 92 61 93 56 94 57 95 58 96
REMARK SMILES IDX 59 97 60 98
REMARK H PARENT 6 17 81 54 51 65
REMARK Flexibility Score: inf
ROOT
ATOM      1  C   UNL A   1      37.300  33.497  36.356  1.00  0.00     0.188 C 
ENDROOT
BRANCH   1   2
ATOM      2  C   UNL A   1      36.451  33.575  35.069  1.00  0.00     0.188 C 
BRANCH   2   3
ATOM      3  O   UNL A   1      36.587  34.653  34.151  1.00  0.00    -0.376 OA
BRANCH   3   4
ATOM      4  C   UNL A   1      35.958  34.690  32.875  1.00  0.00     0.202 C 
BRANCH   4   5
ATOM      5  C   UNL A   1      34.455  34.463  32.629  1.00  0.00     0.261 C 
BRANCH   5   6
ATOM      6  O   UNL A   1      34.139  33.413  31.721  1.00  0.00    -0.463 OA
BRANCH   6   7
ATOM      7  C   UNL A   1      34.426  33.660  30.424  1.00  0.00     0.312 C 
ATOM      8  O   UNL A   1      34.422  34.765  29.898  1.00  0.00    -0.252 OA
BRANCH   7   9
ATOM      9  C   UNL A   1      34.875  32.368  29.739  1.00  0.00     0.124 C 
ATOM     10  C   UNL A   1      37.120  32.203  30.359  1.00  0.00     0.106 C 
ATOM     11  C   UNL A   1      37.022  32.423  28.884  1.00  0.00    -0.006 C 
ATOM     12  C   UNL A   1      35.783  31.564  30.668  1.00  0.00     0.048 C 
ATOM     13  C   UNL A   1      35.740  32.593  28.546  1.00  0.00    -0.014 C 
BRANCH  10  14
ATOM     14  N   UNL A   1      38.253  31.434  30.732  1.00  0.00    -0.348 N 
ATOM     15  C   UNL A   1      39.315  31.923  31.443  1.00  0.00     0.240 C 
ATOM     16  O   UNL A   1      40.055  31.109  32.000  1.00  0.00    -0.273 OA
ATOM     17  H   UNL A   1      38.277  30.487  30.462  1.00  0.00     0.164 HD
BRANCH  15  18
ATOM     18  C   UNL A   1      39.482  33.452  31.671  1.00  0.00     0.219 C 
BRANCH  18  19
ATOM     19  N   UNL A   1      40.430  34.185  30.810  1.00  0.00    -0.332 N 
ATOM     20  C   UNL A   1      39.955  34.733  29.541  1.00  0.00     0.147 C 
BRANCH  19  21
ATOM     21  C   UNL A   1      41.702  34.605  31.228  1.00  0.00     0.264 C 
ATOM     22  O   UNL A   1      41.973  34.707  32.422  1.00  0.00    -0.268 OA
BRANCH  21  23
ATOM     23  C   UNL A   1      42.674  34.915  30.200  1.00  0.00     0.092 A 
ATOM     24  C   UNL A   1      43.238  36.127  29.853  1.00  0.00     0.025 A 
ATOM     25  S   UNL A   1      43.308  33.631  29.265  1.00  0.00    -0.139 S 
ATOM     26  C   UNL A   1      44.099  36.013  28.725  1.00  0.00     0.012 A 
ATOM     27  C   UNL A   1      44.236  34.707  28.314  1.00  0.00     0.065 A 
ENDBRANCH  21  23
ENDBRANCH  19  21
ENDBRANCH  18  19
ENDBRANCH  15  18
ENDBRANCH  10  14
ENDBRANCH   7   9
ENDBRANCH   6   7
ENDBRANCH   5   6
ENDBRANCH   4   5
ENDBRANCH   3   4
ENDBRANCH   2   3
ENDBRANCH   1   2
BRANCH   1  28
ATOM     28  O   UNL A   1      36.543  33.142  37.489  1.00  0.00    -0.377 OA
BRANCH  28  29
ATOM     29  C   UNL A   1      37.286  32.616  38.577  1.00  0.00     0.188 C 
BRANCH  29  30
ATOM     30  C   UNL A   1      36.580  32.475  39.947  1.00  0.00     0.188 C 
BRANCH  30  31
ATOM     31  O   UNL A   1      36.688  33.608  40.803  1.00  0.00    -0.376 OA
BRANCH  31  32
ATOM     32  C   UNL A   1      37.676  33.621  41.820  1.00  0.00     0.202 C 
BRANCH  32  33
ATOM     33  C   UNL A   1      38.458  34.925  42.061  1.00  0.00     0.261 C 
BRANCH  33  34
ATOM     34  O   UNL A   1      38.177  36.010  41.170  1.00  0.00    -0.460 OA
BRANCH  34  35
ATOM     35  C   UNL A   1      39.191  36.848  40.867  1.00  0.00     0.338 C 
ATOM     36  O   UNL A   1      39.544  37.829  41.499  1.00  0.00    -0.246 OA
BRANCH  35  37
ATOM     37  C   UNL A   1      39.939  36.245  39.744  1.00  0.00     0.060 A 
ATOM     38  C   UNL A   1      41.314  36.007  39.884  1.00  0.00     0.016 A 
ATOM     39  C   UNL A   1      39.272  35.874  38.575  1.00  0.00     0.016 A 
ATOM     40  C   UNL A   1      42.034  35.425  38.842  1.00  0.00     0.010 A 
ATOM     41  C   UNL A   1      39.999  35.321  37.521  1.00  0.00     0.010 A 
ATOM     42  C   UNL A   1      41.386  35.126  37.637  1.00  0.00    -0.014 A 
BRANCH  42  43
ATOM     43  C   UNL A   1      42.172  34.843  36.415  1.00  0.00     0.031 A 
ATOM     44  C   UNL A   1      42.419  33.400  36.069  1.00  0.00     0.074 A 
ATOM     45  C   UNL A   1      42.688  35.824  35.656  1.00  0.00     0.049 A 
ATOM     46  N   UNL A   1      43.196  32.888  35.152  1.00  0.00    -0.248 NA
ATOM     47  C   UNL A   1      41.701  32.403  36.881  1.00  0.00     0.031 C 
ATOM     48  C   UNL A   1      42.470  37.255  35.857  1.00  0.00     0.029 A 
ATOM     49  N   UNL A   1      43.530  35.757  34.573  1.00  0.00    -0.354 N 
ATOM     50  C   UNL A   1      43.084  31.510  35.297  1.00  0.00     0.074 A 
ATOM     51  C   UNL A   1      42.178  31.267  36.397  1.00  0.00     0.031 C 
ATOM     52  C   UNL A   1      43.184  37.935  34.941  1.00  0.00     0.029 A 
ATOM     53  C   UNL A   1      43.946  36.988  34.125  1.00  0.00     0.049 A 
ATOM     54  H   UNL A   1      43.807  34.909  34.158  1.00  0.00     0.167 HD
ATOM     55  C   UNL A   1      43.689  30.534  34.581  1.00  0.00     0.031 A 
ATOM     56  C   UNL A   1      44.866  37.312  33.194  1.00  0.00     0.031 A 
ATOM     57  C   UNL A   1      44.605  30.788  33.502  1.00  0.00     0.049 A 
ATOM     58  C   UNL A   1      45.591  36.211  32.459  1.00  0.00     0.074 A 
ATOM     59  C   UNL A   1      45.258  29.872  32.698  1.00  0.00     0.029 A 
ATOM     60  N   UNL A   1      45.009  32.049  33.088  1.00  0.00    -0.354 N 
ATOM     61  N   UNL A   1      45.462  34.911  32.585  1.00  0.00    -0.248 NA
ATOM     62  C   UNL A   1      46.582  36.619  31.451  1.00  0.00     0.031 C 
ATOM     63  C   UNL A   1      46.112  30.577  31.846  1.00  0.00     0.029 A 
ATOM     64  C   UNL A   1      45.927  31.933  32.061  1.00  0.00     0.049 A 
ATOM     65  H   UNL A   1      44.689  32.898  33.469  1.00  0.00     0.167 HD
ATOM     66  C   UNL A   1      46.326  34.349  31.651  1.00  0.00     0.074 A 
ATOM     67  C   UNL A   1      46.974  35.448  30.965  1.00  0.00     0.031 C 
ATOM     68  C   UNL A   1      46.553  33.040  31.378  1.00  0.00     0.031 A 
BRANCH  55  69
ATOM     69  C   UNL A   1      43.426  29.109  34.988  1.00  0.00    -0.014 A 
ATOM     70  C   UNL A   1      44.149  28.492  36.025  1.00  0.00     0.010 A 
ATOM     71  C   UNL A   1      42.422  28.378  34.326  1.00  0.00     0.010 A 
ATOM     72  C   UNL A   1      43.907  27.157  36.358  1.00  0.00     0.020 A 
ATOM     73  C   UNL A   1      42.152  27.054  34.679  1.00  0.00     0.020 A 
ATOM     74  C   UNL A   1      42.912  26.445  35.679  1.00  0.00     0.054 A 
BRANCH  74  75
ATOM     75  S   UNL A   1      42.614  24.717  36.139  1.00  0.00     0.124 S 
ATOM     76  O   UNL A   1      43.859  24.370  36.821  1.00  0.00    -0.237 OA
ATOM     77  O   UNL A   1      41.435  24.811  36.993  1.00  0.00    -0.237 OA
ATOM     78  O   UNL A   1      42.402  24.049  34.857  1.00  0.00    -0.744 OA
ENDBRANCH  74  75
ENDBRANCH  55  69
BRANCH  56  79
ATOM     79  C   UNL A   1      45.174  38.744  32.927  1.00  0.00    -0.014 A 
ATOM     80  C   UNL A   1      46.194  39.402  33.636  1.00  0.00     0.010 A 
ATOM     81  C   UNL A   1      44.462  39.453  31.941  1.00  0.00     0.010 A 
ATOM     82  C   UNL A   1      46.495  40.741  33.365  1.00  0.00     0.020 A 
ATOM     83  C   UNL A   1      44.780  40.781  31.647  1.00  0.00     0.020 A 
ATOM     84  C   UNL A   1      45.792  41.419  32.365  1.00  0.00     0.054 A 
BRANCH  84  85
ATOM     85  S   UNL A   1      46.253  43.132  31.983  1.00  0.00     0.124 S 
ATOM     86  O   UNL A   1      47.698  43.111  32.185  1.00  0.00    -0.237 OA
ATOM     87  O   UNL A   1      45.810  43.272  30.599  1.00  0.00    -0.237 OA
ATOM     88  O   UNL A   1      45.496  43.916  32.957  1.00  0.00    -0.744 OA
ENDBRANCH  84  85
ENDBRANCH  56  79
BRANCH  68  89
ATOM     89  C   UNL A   1      47.493  32.697  30.251  1.00  0.00    -0.014 A 
ATOM     90  C   UNL A   1      48.876  32.563  30.460  1.00  0.00     0.010 A 
ATOM     91  C   UNL A   1      46.956  32.380  28.988  1.00  0.00     0.010 A 
ATOM     92  C   UNL A   1      49.704  32.117  29.425  1.00  0.00     0.020 A 
ATOM     93  C   UNL A   1      47.776  31.907  27.961  1.00  0.00     0.020 A 
ATOM     94  C   UNL A   1      49.147  31.781  28.186  1.00  0.00     0.054 A 
BRANCH  94  95
ATOM     95  S   UNL A   1      50.230  31.110  26.894  1.00  0.00     0.124 S 
ATOM     96  O   UNL A   1      51.458  30.837  27.636  1.00  0.00    -0.237 OA
ATOM     97  O   UNL A   1      49.494  29.932  26.440  1.00  0.00    -0.237 OA
ATOM     98  O   UNL A   1      50.321  32.194  25.918  1.00  0.00    -0.744 OA
ENDBRANCH  94  95
ENDBRANCH  68  89
ENDBRANCH  42  43
ENDBRANCH  35  37
ENDBRANCH  34  35
ENDBRANCH  33  34
ENDBRANCH  32  33
ENDBRANCH  31  32
ENDBRANCH  30  31
ENDBRANCH  29  30
ENDBRANCH  28  29
ENDBRANCH   1  28
TORSDOF 28
ENDMDL
