MODEL 1
REMARK VINA RESULT:      -9.1      0.000      0.000
REMARK SMILES O=C(OCCOCCOCCOCCOC(=O)c1ccc(-c2c3nc(c(-c4ccc(S(=O)(=O)[O-])cc4)c4ccc([nH]4)c(-c4ccc(S(=O)(=O)[O-])cc4)c4nc(c(-c5ccc(S(=O)(=O)[O-])cc5)c5ccc2[nH]5)C=C4)C=C3)cc1)c1ccc(N[C@H]2OC[C@@H](O)[C@@H](O)[C@H]2O)cc1
REMARK SMILES IDX 9 1 8 2 7 3 6 4 5 5 4 6 3 7 2 8 1 9 78 10 79 11 93 12 80 13
REMARK SMILES IDX 92 14 81 15 82 16 83 18 84 19 90 20 85 21 88 22 86 23 91 24
REMARK SMILES IDX 89 26 87 28 10 30 11 31 12 32 13 33 14 34 15 35 16 36 17 37
REMARK SMILES IDX 18 38 19 39 77 40 20 41 76 42 21 43 22 44 23 45 70 46 24 47
REMARK SMILES IDX 75 48 69 49 71 50 25 51 74 52 68 53 67 54 26 56 56 57 37 58
REMARK SMILES IDX 55 59 38 60 41 61 54 62 72 63 39 64 40 65 53 67 73 68 42 69
REMARK SMILES IDX 27 70 28 71 36 72 29 73 35 74 30 75 31 76 32 77 33 78 34 79
REMARK SMILES IDX 57 80 58 81 66 82 59 83 65 84 60 85 61 86 62 87 63 88 64 89
REMARK SMILES IDX 43 90 44 91 52 92 45 93 51 94 46 95 47 96 48 97 49 98 50 99
REMARK H PARENT 82 17 91 25 89 27 87 29 71 55 41 66
REMARK Flexibility Score: inf
ROOT
ATOM      1  O   UNL A   1      43.417  19.351  24.816  1.00  0.00    -0.377 OA
ENDROOT
BRANCH   1   2
ATOM      2  C   UNL A   1      42.443  19.271  25.857  1.00  0.00     0.188 C 
BRANCH   2   3
ATOM      3  C   UNL A   1      42.101  20.604  26.523  1.00  0.00     0.188 C 
BRANCH   3   4
ATOM      4  O   UNL A   1      40.681  20.770  26.561  1.00  0.00    -0.376 OA
BRANCH   4   5
ATOM      5  C   UNL A   1      39.925  19.759  25.902  1.00  0.00     0.202 C 
BRANCH   5   6
ATOM      6  C   UNL A   1      38.726  20.284  25.116  1.00  0.00     0.261 C 
BRANCH   6   7
ATOM      7  O   UNL A   1      37.911  21.179  25.886  1.00  0.00    -0.460 OA
BRANCH   7   8
ATOM      8  C   UNL A   1      37.752  22.509  25.685  1.00  0.00     0.338 C 
ATOM      9  O   UNL A   1      38.617  23.282  26.095  1.00  0.00    -0.246 OA
BRANCH   8  10
ATOM     10  C   UNL A   1      36.618  23.097  24.916  1.00  0.00     0.060 A 
ATOM     11  C   UNL A   1      36.030  22.538  23.783  1.00  0.00     0.018 A 
ATOM     12  C   UNL A   1      35.995  24.212  25.485  1.00  0.00     0.018 A 
ATOM     13  C   UNL A   1      34.884  23.099  23.204  1.00  0.00     0.026 A 
ATOM     14  C   UNL A   1      34.837  24.757  24.919  1.00  0.00     0.026 A 
ATOM     15  C   UNL A   1      34.272  24.222  23.755  1.00  0.00     0.036 A 
BRANCH  15  16
ATOM     16  N   UNL A   1      33.129  24.798  23.231  1.00  0.00    -0.358 N 
ATOM     17  H   UNL A   1      32.917  24.646  22.281  1.00  0.00     0.163 HD
BRANCH  16  18
ATOM     18  C   UNL A   1      32.229  25.618  24.024  1.00  0.00     0.244 C 
ATOM     19  O   UNL A   1      31.421  26.417  23.158  1.00  0.00    -0.353 OA
ATOM     20  C   UNL A   1      31.293  24.671  24.808  1.00  0.00     0.195 C 
ATOM     21  C   UNL A   1      30.544  27.296  23.881  1.00  0.00     0.197 C 
ATOM     22  C   UNL A   1      30.317  25.512  25.636  1.00  0.00     0.178 C 
ATOM     23  C   UNL A   1      29.555  26.509  24.750  1.00  0.00     0.171 C 
BRANCH  20  24
ATOM     24  O   UNL A   1      30.548  23.846  23.873  1.00  0.00    -0.386 OA
ATOM     25  H   UNL A   1      29.597  23.993  23.998  1.00  0.00     0.211 HD
ENDBRANCH  20  24
BRANCH  22  26
ATOM     26  O   UNL A   1      29.402  24.651  26.319  1.00  0.00    -0.387 OA
ATOM     27  H   UNL A   1      28.502  25.002  26.234  1.00  0.00     0.211 HD
ENDBRANCH  22  26
BRANCH  23  28
ATOM     28  O   UNL A   1      28.622  25.811  23.910  1.00  0.00    -0.388 OA
ATOM     29  H   UNL A   1      28.080  25.219  24.453  1.00  0.00     0.211 HD
ENDBRANCH  23  28
ENDBRANCH  16  18
ENDBRANCH  15  16
ENDBRANCH   8  10
ENDBRANCH   7   8
ENDBRANCH   6   7
ENDBRANCH   5   6
ENDBRANCH   4   5
ENDBRANCH   3   4
ENDBRANCH   2   3
ENDBRANCH   1   2
BRANCH   1  30
ATOM     30  C   UNL A   1      44.749  19.652  25.215  1.00  0.00     0.188 C 
BRANCH  30  31
ATOM     31  C   UNL A   1      45.340  21.027  24.832  1.00  0.00     0.188 C 
BRANCH  31  32
ATOM     32  O   UNL A   1      46.162  21.634  25.823  1.00  0.00    -0.376 OA
BRANCH  32  33
ATOM     33  C   UNL A   1      45.560  22.717  26.529  1.00  0.00     0.202 C 
BRANCH  33  34
ATOM     34  C   UNL A   1      44.606  23.578  25.688  1.00  0.00     0.261 C 
BRANCH  34  35
ATOM     35  O   UNL A   1      44.100  24.746  26.354  1.00  0.00    -0.460 OA
BRANCH  35  36
ATOM     36  C   UNL A   1      42.783  25.023  26.239  1.00  0.00     0.338 C 
ATOM     37  O   UNL A   1      41.985  24.485  25.491  1.00  0.00    -0.246 OA
BRANCH  36  38
ATOM     38  C   UNL A   1      42.418  25.916  27.366  1.00  0.00     0.060 A 
ATOM     39  C   UNL A   1      43.068  27.154  27.471  1.00  0.00     0.016 A 
ATOM     40  C   UNL A   1      41.362  25.602  28.230  1.00  0.00     0.016 A 
ATOM     41  C   UNL A   1      42.678  28.068  28.455  1.00  0.00     0.010 A 
ATOM     42  C   UNL A   1      40.984  26.510  29.224  1.00  0.00     0.010 A 
ATOM     43  C   UNL A   1      41.662  27.732  29.362  1.00  0.00    -0.014 A 
BRANCH  43  44
ATOM     44  C   UNL A   1      41.508  28.521  30.610  1.00  0.00     0.031 A 
ATOM     45  C   UNL A   1      40.391  29.530  30.645  1.00  0.00     0.074 A 
ATOM     46  C   UNL A   1      42.302  28.353  31.683  1.00  0.00     0.049 A 
ATOM     47  N   UNL A   1      40.030  30.337  31.607  1.00  0.00    -0.248 NA
ATOM     48  C   UNL A   1      39.570  29.639  29.426  1.00  0.00     0.031 C 
ATOM     49  C   UNL A   1      43.400  27.396  31.793  1.00  0.00     0.029 A 
ATOM     50  N   UNL A   1      42.299  29.002  32.895  1.00  0.00    -0.354 N 
ATOM     51  C   UNL A   1      38.942  31.046  31.111  1.00  0.00     0.074 A 
ATOM     52  C   UNL A   1      38.723  30.600  29.753  1.00  0.00     0.031 C 
ATOM     53  C   UNL A   1      43.969  27.522  33.007  1.00  0.00     0.029 A 
ATOM     54  C   UNL A   1      43.291  28.583  33.752  1.00  0.00     0.049 A 
ATOM     55  H   UNL A   1      41.646  29.701  33.129  1.00  0.00     0.167 HD
ATOM     56  C   UNL A   1      38.181  31.979  31.728  1.00  0.00     0.031 A 
ATOM     57  C   UNL A   1      43.617  29.017  34.988  1.00  0.00     0.031 A 
ATOM     58  C   UNL A   1      38.413  32.451  33.063  1.00  0.00     0.049 A 
ATOM     59  C   UNL A   1      42.803  30.117  35.629  1.00  0.00     0.074 A 
ATOM     60  C   UNL A   1      37.696  33.394  33.778  1.00  0.00     0.029 A 
ATOM     61  N   UNL A   1      39.449  32.028  33.881  1.00  0.00    -0.354 N 
ATOM     62  N   UNL A   1      41.750  30.746  35.162  1.00  0.00    -0.248 NA
ATOM     63  C   UNL A   1      43.218  30.556  36.970  1.00  0.00     0.031 C 
ATOM     64  C   UNL A   1      38.332  33.580  35.009  1.00  0.00     0.029 A 
ATOM     65  C   UNL A   1      39.405  32.708  35.085  1.00  0.00     0.049 A 
ATOM     66  H   UNL A   1      40.115  31.345  33.640  1.00  0.00     0.167 HD
ATOM     67  C   UNL A   1      41.360  31.631  36.164  1.00  0.00     0.074 A 
ATOM     68  C   UNL A   1      42.282  31.448  37.266  1.00  0.00     0.031 C 
ATOM     69  C   UNL A   1      40.329  32.513  36.174  1.00  0.00     0.031 A 
BRANCH  56  70
ATOM     70  C   UNL A   1      37.050  32.571  30.935  1.00  0.00    -0.014 A 
ATOM     71  C   UNL A   1      37.269  33.639  30.046  1.00  0.00     0.010 A 
ATOM     72  C   UNL A   1      35.752  32.049  31.077  1.00  0.00     0.010 A 
ATOM     73  C   UNL A   1      36.202  34.200  29.342  1.00  0.00     0.020 A 
ATOM     74  C   UNL A   1      34.687  32.590  30.353  1.00  0.00     0.020 A 
ATOM     75  C   UNL A   1      34.916  33.674  29.503  1.00  0.00     0.054 A 
BRANCH  75  76
ATOM     76  S   UNL A   1      33.552  34.409  28.562  1.00  0.00     0.124 S 
ATOM     77  O   UNL A   1      32.645  34.830  29.627  1.00  0.00    -0.237 OA
ATOM     78  O   UNL A   1      34.211  35.491  27.834  1.00  0.00    -0.237 OA
ATOM     79  O   UNL A   1      33.070  33.307  27.733  1.00  0.00    -0.744 OA
ENDBRANCH  75  76
ENDBRANCH  56  70
BRANCH  57  80
ATOM     80  C   UNL A   1      44.775  28.421  35.713  1.00  0.00    -0.014 A 
ATOM     81  C   UNL A   1      46.085  28.869  35.465  1.00  0.00     0.010 A 
ATOM     82  C   UNL A   1      44.574  27.382  36.640  1.00  0.00     0.010 A 
ATOM     83  C   UNL A   1      47.173  28.278  36.118  1.00  0.00     0.020 A 
ATOM     84  C   UNL A   1      45.656  26.807  37.314  1.00  0.00     0.020 A 
ATOM     85  C   UNL A   1      46.951  27.252  37.042  1.00  0.00     0.054 A 
BRANCH  85  86
ATOM     86  S   UNL A   1      48.372  26.540  37.918  1.00  0.00     0.124 S 
ATOM     87  O   UNL A   1      49.375  27.588  37.775  1.00  0.00    -0.237 OA
ATOM     88  O   UNL A   1      47.844  26.346  39.266  1.00  0.00    -0.237 OA
ATOM     89  O   UNL A   1      48.643  25.307  37.181  1.00  0.00    -0.744 OA
ENDBRANCH  85  86
ENDBRANCH  57  80
BRANCH  69  90
ATOM     90  C   UNL A   1      40.106  33.320  37.427  1.00  0.00    -0.014 A 
ATOM     91  C   UNL A   1      40.722  34.570  37.613  1.00  0.00     0.010 A 
ATOM     92  C   UNL A   1      39.211  32.846  38.403  1.00  0.00     0.010 A 
ATOM     93  C   UNL A   1      40.473  35.316  38.769  1.00  0.00     0.020 A 
ATOM     94  C   UNL A   1      38.936  33.601  39.547  1.00  0.00     0.020 A 
ATOM     95  C   UNL A   1      39.582  34.826  39.729  1.00  0.00     0.054 A 
BRANCH  95  96
ATOM     96  S   UNL A   1      39.244  35.829  41.202  1.00  0.00     0.124 S 
ATOM     97  O   UNL A   1      40.155  35.246  42.182  1.00  0.00    -0.237 OA
ATOM     98  O   UNL A   1      39.579  37.178  40.756  1.00  0.00    -0.237 OA
ATOM     99  O   UNL A   1      37.822  35.600  41.459  1.00  0.00    -0.744 OA
ENDBRANCH  95  96
ENDBRANCH  69  90
ENDBRANCH  43  44
ENDBRANCH  36  38
ENDBRANCH  35  36
ENDBRANCH  34  35
ENDBRANCH  33  34
ENDBRANCH  32  33
ENDBRANCH  31  32
ENDBRANCH  30  31
ENDBRANCH   1  30
TORSDOF 28
ENDMDL
MODEL 2
REMARK VINA RESULT:      -8.9      2.609      8.685
REMARK SMILES O=C(OCCOCCOCCOCCOC(=O)c1ccc(-c2c3nc(c(-c4ccc(S(=O)(=O)[O-])cc4)c4ccc([nH]4)c(-c4ccc(S(=O)(=O)[O-])cc4)c4nc(c(-c5ccc(S(=O)(=O)[O-])cc5)c5ccc2[nH]5)C=C4)C=C3)cc1)c1ccc(N[C@H]2OC[C@@H](O)[C@@H](O)[C@H]2O)cc1
REMARK SMILES IDX 9 1 8 2 7 3 6 4 5 5 4 6 3 7 2 8 1 9 78 10 79 11 93 12 80 13
REMARK SMILES IDX 92 14 81 15 82 16 83 18 84 19 90 20 85 21 88 22 86 23 91 24
REMARK SMILES IDX 89 26 87 28 10 30 11 31 12 32 13 33 14 34 15 35 16 36 17 37
REMARK SMILES IDX 18 38 19 39 77 40 20 41 76 42 21 43 22 44 23 45 70 46 24 47
REMARK SMILES IDX 75 48 69 49 71 50 25 51 74 52 68 53 67 54 26 56 56 57 37 58
REMARK SMILES IDX 55 59 38 60 41 61 54 62 72 63 39 64 40 65 53 67 73 68 42 69
REMARK SMILES IDX 27 70 28 71 36 72 29 73 35 74 30 75 31 76 32 77 33 78 34 79
REMARK SMILES IDX 57 80 58 81 66 82 59 83 65 84 60 85 61 86 62 87 63 88 64 89
REMARK SMILES IDX 43 90 44 91 52 92 45 93 51 94 46 95 47 96 48 97 49 98 50 99
REMARK H PARENT 82 17 91 25 89 27 87 29 71 55 41 66
REMARK Flexibility Score: inf
ROOT
ATOM      1  O   UNL A   1      35.286  21.075  26.167  1.00  0.00    -0.377 OA
ENDROOT
BRANCH   1   2
ATOM      2  C   UNL A   1      35.395  20.473  24.877  1.00  0.00     0.188 C 
BRANCH   2   3
ATOM      3  C   UNL A   1      34.973  19.005  24.814  1.00  0.00     0.188 C 
BRANCH   3   4
ATOM      4  O   UNL A   1      33.672  18.855  25.387  1.00  0.00    -0.376 OA
BRANCH   4   5
ATOM      5  C   UNL A   1      32.705  18.212  24.561  1.00  0.00     0.202 C 
BRANCH   5   6
ATOM      6  C   UNL A   1      32.351  18.985  23.293  1.00  0.00     0.261 C 
BRANCH   6   7
ATOM      7  O   UNL A   1      32.237  20.396  23.521  1.00  0.00    -0.460 OA
BRANCH   7   8
ATOM      8  C   UNL A   1      32.090  21.361  22.582  1.00  0.00     0.338 C 
ATOM      9  O   UNL A   1      31.879  21.033  21.416  1.00  0.00    -0.246 OA
BRANCH   8  10
ATOM     10  C   UNL A   1      32.086  22.820  22.894  1.00  0.00     0.060 A 
ATOM     11  C   UNL A   1      33.130  23.707  22.637  1.00  0.00     0.018 A 
ATOM     12  C   UNL A   1      30.869  23.359  23.324  1.00  0.00     0.018 A 
ATOM     13  C   UNL A   1      32.984  25.085  22.848  1.00  0.00     0.026 A 
ATOM     14  C   UNL A   1      30.718  24.738  23.510  1.00  0.00     0.026 A 
ATOM     15  C   UNL A   1      31.781  25.624  23.296  1.00  0.00     0.036 A 
BRANCH  15  16
ATOM     16  N   UNL A   1      31.584  26.978  23.497  1.00  0.00    -0.358 N 
ATOM     17  H   UNL A   1      31.394  27.548  22.717  1.00  0.00     0.163 HD
BRANCH  16  18
ATOM     18  C   UNL A   1      31.648  27.594  24.812  1.00  0.00     0.244 C 
ATOM     19  O   UNL A   1      32.900  27.279  25.427  1.00  0.00    -0.353 OA
ATOM     20  C   UNL A   1      31.585  29.126  24.621  1.00  0.00     0.195 C 
ATOM     21  C   UNL A   1      33.006  27.811  26.757  1.00  0.00     0.197 C 
ATOM     22  C   UNL A   1      31.674  29.800  25.993  1.00  0.00     0.178 C 
ATOM     23  C   UNL A   1      32.928  29.343  26.755  1.00  0.00     0.171 C 
BRANCH  20  24
ATOM     24  O   UNL A   1      32.700  29.556  23.797  1.00  0.00    -0.386 OA
ATOM     25  H   UNL A   1      33.118  30.334  24.198  1.00  0.00     0.211 HD
ENDBRANCH  20  24
BRANCH  22  26
ATOM     26  O   UNL A   1      31.680  31.221  25.829  1.00  0.00    -0.387 OA
ATOM     27  H   UNL A   1      31.051  31.622  26.449  1.00  0.00     0.211 HD
ENDBRANCH  22  26
BRANCH  23  28
ATOM     28  O   UNL A   1      34.105  29.887  26.139  1.00  0.00    -0.388 OA
ATOM     29  H   UNL A   1      34.389  29.308  25.415  1.00  0.00     0.211 HD
ENDBRANCH  23  28
ENDBRANCH  16  18
ENDBRANCH  15  16
ENDBRANCH   8  10
ENDBRANCH   7   8
ENDBRANCH   6   7
ENDBRANCH   5   6
ENDBRANCH   4   5
ENDBRANCH   3   4
ENDBRANCH   2   3
ENDBRANCH   1   2
BRANCH   1  30
ATOM     30  C   UNL A   1      34.919  22.449  26.197  1.00  0.00     0.188 C 
BRANCH  30  31
ATOM     31  C   UNL A   1      35.593  23.414  25.197  1.00  0.00     0.188 C 
BRANCH  31  32
ATOM     32  O   UNL A   1      36.832  23.967  25.625  1.00  0.00    -0.376 OA
BRANCH  32  33
ATOM     33  C   UNL A   1      37.866  23.017  25.875  1.00  0.00     0.202 C 
BRANCH  33  34
ATOM     34  C   UNL A   1      39.243  23.632  26.165  1.00  0.00     0.261 C 
BRANCH  34  35
ATOM     35  O   UNL A   1      39.220  24.794  27.010  1.00  0.00    -0.460 OA
BRANCH  35  36
ATOM     36  C   UNL A   1      40.330  25.564  27.062  1.00  0.00     0.338 C 
ATOM     37  O   UNL A   1      41.220  25.621  26.232  1.00  0.00    -0.246 OA
BRANCH  36  38
ATOM     38  C   UNL A   1      40.148  26.525  28.177  1.00  0.00     0.060 A 
ATOM     39  C   UNL A   1      40.874  27.726  28.146  1.00  0.00     0.016 A 
ATOM     40  C   UNL A   1      39.184  26.314  29.171  1.00  0.00     0.016 A 
ATOM     41  C   UNL A   1      40.653  28.703  29.121  1.00  0.00     0.010 A 
ATOM     42  C   UNL A   1      38.975  27.286  30.154  1.00  0.00     0.010 A 
ATOM     43  C   UNL A   1      39.732  28.470  30.152  1.00  0.00    -0.014 A 
BRANCH  43  44
ATOM     44  C   UNL A   1      39.767  29.320  31.368  1.00  0.00     0.031 A 
ATOM     45  C   UNL A   1      40.893  29.079  32.338  1.00  0.00     0.074 A 
ATOM     46  C   UNL A   1      38.858  30.282  31.613  1.00  0.00     0.049 A 
ATOM     47  N   UNL A   1      41.164  29.683  33.464  1.00  0.00    -0.248 NA
ATOM     48  C   UNL A   1      41.843  28.009  31.983  1.00  0.00     0.031 C 
ATOM     49  C   UNL A   1      37.736  30.639  30.747  1.00  0.00     0.029 A 
ATOM     50  N   UNL A   1      38.743  31.140  32.682  1.00  0.00    -0.354 N 
ATOM     51  C   UNL A   1      42.313  29.070  33.949  1.00  0.00     0.074 A 
ATOM     52  C   UNL A   1      42.668  28.025  33.015  1.00  0.00     0.031 C 
ATOM     53  C   UNL A   1      37.042  31.639  31.323  1.00  0.00     0.029 A 
ATOM     54  C   UNL A   1      37.657  31.980  32.607  1.00  0.00     0.049 A 
ATOM     55  H   UNL A   1      39.381  31.151  33.432  1.00  0.00     0.167 HD
ATOM     56  C   UNL A   1      43.021  29.352  35.067  1.00  0.00     0.031 A 
ATOM     57  C   UNL A   1      37.209  32.907  33.480  1.00  0.00     0.031 A 
ATOM     58  C   UNL A   1      42.656  30.365  36.016  1.00  0.00     0.049 A 
ATOM     59  C   UNL A   1      37.970  33.151  34.761  1.00  0.00     0.074 A 
ATOM     60  C   UNL A   1      43.310  30.727  37.179  1.00  0.00     0.029 A 
ATOM     61  N   UNL A   1      41.530  31.166  35.920  1.00  0.00    -0.354 N 
ATOM     62  N   UNL A   1      39.080  32.591  35.184  1.00  0.00    -0.248 NA
ATOM     63  C   UNL A   1      37.422  34.163  35.678  1.00  0.00     0.031 C 
ATOM     64  C   UNL A   1      42.550  31.713  37.815  1.00  0.00     0.029 A 
ATOM     65  C   UNL A   1      41.457  32.008  37.016  1.00  0.00     0.049 A 
ATOM     66  H   UNL A   1      40.880  31.142  35.182  1.00  0.00     0.167 HD
ATOM     67  C   UNL A   1      39.377  33.206  36.398  1.00  0.00     0.074 A 
ATOM     68  C   UNL A   1      38.338  34.186  36.637  1.00  0.00     0.031 C 
ATOM     69  C   UNL A   1      40.418  32.981  37.238  1.00  0.00     0.031 A 
BRANCH  56  70
ATOM     70  C   UNL A   1      44.243  28.517  35.331  1.00  0.00    -0.014 A 
ATOM     71  C   UNL A   1      45.503  28.901  34.837  1.00  0.00     0.010 A 
ATOM     72  C   UNL A   1      44.131  27.338  36.087  1.00  0.00     0.010 A 
ATOM     73  C   UNL A   1      46.623  28.098  35.061  1.00  0.00     0.020 A 
ATOM     74  C   UNL A   1      45.254  26.546  36.337  1.00  0.00     0.020 A 
ATOM     75  C   UNL A   1      46.490  26.923  35.808  1.00  0.00     0.054 A 
BRANCH  75  76
ATOM     76  S   UNL A   1      47.964  25.909  36.101  1.00  0.00     0.124 S 
ATOM     77  O   UNL A   1      47.492  24.577  35.728  1.00  0.00    -0.237 OA
ATOM     78  O   UNL A   1      48.947  26.502  35.197  1.00  0.00    -0.237 OA
ATOM     79  O   UNL A   1      48.236  26.097  37.524  1.00  0.00    -0.744 OA
ENDBRANCH  75  76
ENDBRANCH  56  70
BRANCH  57  80
ATOM     80  C   UNL A   1      35.967  33.678  33.185  1.00  0.00    -0.014 A 
ATOM     81  C   UNL A   1      34.706  33.058  33.238  1.00  0.00     0.010 A 
ATOM     82  C   UNL A   1      36.044  35.036  32.826  1.00  0.00     0.010 A 
ATOM     83  C   UNL A   1      33.547  33.776  32.921  1.00  0.00     0.020 A 
ATOM     84  C   UNL A   1      34.885  35.764  32.535  1.00  0.00     0.020 A 
ATOM     85  C   UNL A   1      33.645  35.127  32.574  1.00  0.00     0.054 A 
BRANCH  85  86
ATOM     86  S   UNL A   1      32.123  36.052  32.222  1.00  0.00     0.124 S 
ATOM     87  O   UNL A   1      31.112  35.242  32.892  1.00  0.00    -0.237 OA
ATOM     88  O   UNL A   1      32.399  37.352  32.830  1.00  0.00    -0.237 OA
ATOM     89  O   UNL A   1      32.058  36.058  30.762  1.00  0.00    -0.744 OA
ENDBRANCH  85  86
ENDBRANCH  57  80
BRANCH  69  90
ATOM     90  C   UNL A   1      40.520  33.837  38.475  1.00  0.00    -0.014 A 
ATOM     91  C   UNL A   1      41.300  35.006  38.495  1.00  0.00     0.010 A 
ATOM     92  C   UNL A   1      39.768  33.496  39.614  1.00  0.00     0.010 A 
ATOM     93  C   UNL A   1      41.351  35.801  39.645  1.00  0.00     0.020 A 
ATOM     94  C   UNL A   1      39.792  34.303  40.755  1.00  0.00     0.020 A 
ATOM     95  C   UNL A   1      40.597  35.444  40.768  1.00  0.00     0.054 A 
BRANCH  95  96
ATOM     96  S   UNL A   1      40.649  36.511  42.233  1.00  0.00     0.124 S 
ATOM     97  O   UNL A   1      42.075  36.535  42.541  1.00  0.00    -0.237 OA
ATOM     98  O   UNL A   1      40.091  37.766  41.736  1.00  0.00    -0.237 OA
ATOM     99  O   UNL A   1      39.812  35.808  43.204  1.00  0.00    -0.744 OA
ENDBRANCH  95  96
ENDBRANCH  69  90
ENDBRANCH  43  44
ENDBRANCH  36  38
ENDBRANCH  35  36
ENDBRANCH  34  35
ENDBRANCH  33  34
ENDBRANCH  32  33
ENDBRANCH  31  32
ENDBRANCH  30  31
ENDBRANCH   1  30
TORSDOF 28
ENDMDL
MODEL 3
REMARK VINA RESULT:      -8.9      1.395      8.005
REMARK SMILES O=C(OCCOCCOCCOCCOC(=O)c1ccc(-c2c3nc(c(-c4ccc(S(=O)(=O)[O-])cc4)c4ccc([nH]4)c(-c4ccc(S(=O)(=O)[O-])cc4)c4nc(c(-c5ccc(S(=O)(=O)[O-])cc5)c5ccc2[nH]5)C=C4)C=C3)cc1)c1ccc(N[C@H]2OC[C@@H](O)[C@@H](O)[C@H]2O)cc1
REMARK SMILES IDX 9 1 8 2 7 3 6 4 5 5 4 6 3 7 2 8 1 9 78 10 79 11 93 12 80 13
REMARK SMILES IDX 92 14 81 15 82 16 83 18 84 19 90 20 85 21 88 22 86 23 91 24
REMARK SMILES IDX 89 26 87 28 10 30 11 31 12 32 13 33 14 34 15 35 16 36 17 37
REMARK SMILES IDX 18 38 19 39 77 40 20 41 76 42 21 43 22 44 23 45 70 46 24 47
REMARK SMILES IDX 75 48 69 49 71 50 25 51 74 52 68 53 67 54 26 56 56 57 37 58
REMARK SMILES IDX 55 59 38 60 41 61 54 62 72 63 39 64 40 65 53 67 73 68 42 69
REMARK SMILES IDX 27 70 28 71 36 72 29 73 35 74 30 75 31 76 32 77 33 78 34 79
REMARK SMILES IDX 57 80 58 81 66 82 59 83 65 84 60 85 61 86 62 87 63 88 64 89
REMARK SMILES IDX 43 90 44 91 52 92 45 93 51 94 46 95 47 96 48 97 49 98 50 99
REMARK H PARENT 82 17 91 25 89 27 87 29 71 55 41 66
REMARK Flexibility Score: inf
ROOT
ATOM      1  O   UNL A   1      44.151  19.020  24.965  1.00  0.00    -0.377 OA
ENDROOT
BRANCH   1   2
ATOM      2  C   UNL A   1      43.032  18.695  25.789  1.00  0.00     0.188 C 
BRANCH   2   3
ATOM      3  C   UNL A   1      42.686  19.742  26.849  1.00  0.00     0.188 C 
BRANCH   3   4
ATOM      4  O   UNL A   1      41.370  20.249  26.610  1.00  0.00    -0.376 OA
BRANCH   4   5
ATOM      5  C   UNL A   1      40.522  19.415  25.826  1.00  0.00     0.202 C 
BRANCH   5   6
ATOM      6  C   UNL A   1      39.131  19.993  25.576  1.00  0.00     0.261 C 
BRANCH   6   7
ATOM      7  O   UNL A   1      38.831  21.101  26.436  1.00  0.00    -0.460 OA
BRANCH   7   8
ATOM      8  C   UNL A   1      38.508  22.360  26.056  1.00  0.00     0.338 C 
ATOM      9  O   UNL A   1      39.362  23.243  26.123  1.00  0.00    -0.246 OA
BRANCH   8  10
ATOM     10  C   UNL A   1      37.185  22.731  25.475  1.00  0.00     0.060 A 
ATOM     11  C   UNL A   1      36.117  23.286  26.178  1.00  0.00     0.018 A 
ATOM     12  C   UNL A   1      37.079  22.666  24.082  1.00  0.00     0.018 A 
ATOM     13  C   UNL A   1      34.959  23.721  25.521  1.00  0.00     0.026 A 
ATOM     14  C   UNL A   1      35.930  23.123  23.425  1.00  0.00     0.026 A 
ATOM     15  C   UNL A   1      34.840  23.639  24.136  1.00  0.00     0.036 A 
BRANCH  15  16
ATOM     16  N   UNL A   1      33.725  24.075  23.442  1.00  0.00    -0.358 N 
ATOM     17  H   UNL A   1      33.331  23.482  22.762  1.00  0.00     0.163 HD
BRANCH  16  18
ATOM     18  C   UNL A   1      33.112  25.372  23.677  1.00  0.00     0.244 C 
ATOM     19  O   UNL A   1      34.132  26.357  23.859  1.00  0.00    -0.353 OA
ATOM     20  C   UNL A   1      32.307  25.750  22.413  1.00  0.00     0.195 C 
ATOM     21  C   UNL A   1      33.594  27.656  24.151  1.00  0.00     0.197 C 
ATOM     22  C   UNL A   1      31.669  27.125  22.625  1.00  0.00     0.178 C 
ATOM     23  C   UNL A   1      32.727  28.176  22.997  1.00  0.00     0.171 C 
BRANCH  20  24
ATOM     24  O   UNL A   1      33.201  25.801  21.269  1.00  0.00    -0.386 OA
ATOM     25  H   UNL A   1      33.253  24.924  20.860  1.00  0.00     0.211 HD
ENDBRANCH  20  24
BRANCH  22  26
ATOM     26  O   UNL A   1      30.972  27.518  21.439  1.00  0.00    -0.387 OA
ATOM     27  H   UNL A   1      30.959  26.779  20.811  1.00  0.00     0.211 HD
ENDBRANCH  22  26
BRANCH  23  28
ATOM     28  O   UNL A   1      33.557  28.464  21.861  1.00  0.00    -0.388 OA
ATOM     29  H   UNL A   1      33.236  27.969  21.092  1.00  0.00     0.211 HD
ENDBRANCH  23  28
ENDBRANCH  16  18
ENDBRANCH  15  16
ENDBRANCH   8  10
ENDBRANCH   7   8
ENDBRANCH   6   7
ENDBRANCH   5   6
ENDBRANCH   4   5
ENDBRANCH   3   4
ENDBRANCH   2   3
ENDBRANCH   1   2
BRANCH   1  30
ATOM     30  C   UNL A   1      45.081  19.956  25.497  1.00  0.00     0.188 C 
BRANCH  30  31
ATOM     31  C   UNL A   1      45.335  21.266  24.719  1.00  0.00     0.188 C 
BRANCH  31  32
ATOM     32  O   UNL A   1      45.677  22.392  25.518  1.00  0.00    -0.376 OA
BRANCH  32  33
ATOM     33  C   UNL A   1      44.769  22.680  26.580  1.00  0.00     0.202 C 
BRANCH  33  34
ATOM     34  C   UNL A   1      43.502  23.434  26.152  1.00  0.00     0.261 C 
BRANCH  34  35
ATOM     35  O   UNL A   1      43.406  24.782  26.641  1.00  0.00    -0.460 OA
BRANCH  35  36
ATOM     36  C   UNL A   1      42.513  25.609  26.054  1.00  0.00     0.338 C 
ATOM     37  O   UNL A   1      42.043  25.502  24.934  1.00  0.00    -0.246 OA
BRANCH  36  38
ATOM     38  C   UNL A   1      42.004  26.526  27.102  1.00  0.00     0.060 A 
ATOM     39  C   UNL A   1      42.560  27.811  27.190  1.00  0.00     0.016 A 
ATOM     40  C   UNL A   1      40.907  26.180  27.902  1.00  0.00     0.016 A 
ATOM     41  C   UNL A   1      42.036  28.740  28.094  1.00  0.00     0.010 A 
ATOM     42  C   UNL A   1      40.394  27.105  28.815  1.00  0.00     0.010 A 
ATOM     43  C   UNL A   1      40.977  28.377  28.939  1.00  0.00    -0.014 A 
BRANCH  43  44
ATOM     44  C   UNL A   1      40.674  29.211  30.129  1.00  0.00     0.031 A 
ATOM     45  C   UNL A   1      41.516  28.982  31.356  1.00  0.00     0.074 A 
ATOM     46  C   UNL A   1      39.709  30.149  30.136  1.00  0.00     0.049 A 
ATOM     47  N   UNL A   1      41.469  29.576  32.519  1.00  0.00    -0.248 NA
ATOM     48  C   UNL A   1      42.551  27.938  31.252  1.00  0.00     0.031 C 
ATOM     49  C   UNL A   1      38.841  30.492  29.012  1.00  0.00     0.029 A 
ATOM     50  N   UNL A   1      39.299  30.989  31.145  1.00  0.00    -0.354 N 
ATOM     51  C   UNL A   1      42.469  28.982  33.281  1.00  0.00     0.074 A 
ATOM     52  C   UNL A   1      43.080  27.958  32.463  1.00  0.00     0.031 C 
ATOM     53  C   UNL A   1      37.997  31.469  29.394  1.00  0.00     0.029 A 
ATOM     54  C   UNL A   1      38.249  31.806  30.797  1.00  0.00     0.049 A 
ATOM     55  H   UNL A   1      39.720  31.004  32.035  1.00  0.00     0.167 HD
ATOM     56  C   UNL A   1      42.855  29.264  34.546  1.00  0.00     0.031 A 
ATOM     57  C   UNL A   1      37.566  32.710  31.530  1.00  0.00     0.031 A 
ATOM     58  C   UNL A   1      42.230  30.256  35.375  1.00  0.00     0.049 A 
ATOM     59  C   UNL A   1      37.962  32.954  32.967  1.00  0.00     0.074 A 
ATOM     60  C   UNL A   1      42.551  30.617  36.671  1.00  0.00     0.029 A 
ATOM     61  N   UNL A   1      41.148  31.033  34.996  1.00  0.00    -0.354 N 
ATOM     62  N   UNL A   1      38.938  32.413  33.659  1.00  0.00    -0.248 NA
ATOM     63  C   UNL A   1      37.170  33.940  33.718  1.00  0.00     0.031 C 
ATOM     64  C   UNL A   1      41.627  31.577  37.095  1.00  0.00     0.029 A 
ATOM     65  C   UNL A   1      40.773  31.858  36.042  1.00  0.00     0.049 A 
ATOM     66  H   UNL A   1      40.713  31.004  34.114  1.00  0.00     0.167 HD
ATOM     67  C   UNL A   1      38.894  33.017  34.914  1.00  0.00     0.074 A 
ATOM     68  C   UNL A   1      37.805  33.971  34.882  1.00  0.00     0.031 C 
ATOM     69  C   UNL A   1      39.687  32.804  35.994  1.00  0.00     0.031 A 
BRANCH  56  70
ATOM     70  C   UNL A   1      43.987  28.453  35.112  1.00  0.00    -0.014 A 
ATOM     71  C   UNL A   1      45.312  28.924  35.060  1.00  0.00     0.010 A 
ATOM     72  C   UNL A   1      43.722  27.209  35.708  1.00  0.00     0.010 A 
ATOM     73  C   UNL A   1      46.357  28.144  35.560  1.00  0.00     0.020 A 
ATOM     74  C   UNL A   1      44.762  26.438  36.234  1.00  0.00     0.020 A 
ATOM     75  C   UNL A   1      46.075  26.904  36.141  1.00  0.00     0.054 A 
BRANCH  75  76
ATOM     76  S   UNL A   1      47.448  25.921  36.799  1.00  0.00     0.124 S 
ATOM     77  O   UNL A   1      46.744  24.883  37.548  1.00  0.00    -0.237 OA
ATOM     78  O   UNL A   1      48.129  25.470  35.588  1.00  0.00    -0.237 OA
ATOM     79  O   UNL A   1      48.198  26.875  37.613  1.00  0.00    -0.744 OA
ENDBRANCH  75  76
ENDBRANCH  56  70
BRANCH  57  80
ATOM     80  C   UNL A   1      36.425  33.458  30.929  1.00  0.00    -0.014 A 
ATOM     81  C   UNL A   1      36.490  33.927  29.605  1.00  0.00     0.010 A 
ATOM     82  C   UNL A   1      35.272  33.725  31.691  1.00  0.00     0.010 A 
ATOM     83  C   UNL A   1      35.432  34.663  29.059  1.00  0.00     0.020 A 
ATOM     84  C   UNL A   1      34.202  34.438  31.140  1.00  0.00     0.020 A 
ATOM     85  C   UNL A   1      34.293  34.912  29.830  1.00  0.00     0.054 A 
BRANCH  85  86
ATOM     86  S   UNL A   1      32.910  35.820  29.082  1.00  0.00     0.124 S 
ATOM     87  O   UNL A   1      33.587  36.963  28.479  1.00  0.00    -0.237 OA
ATOM     88  O   UNL A   1      32.362  34.842  28.147  1.00  0.00    -0.237 OA
ATOM     89  O   UNL A   1      32.051  36.130  30.222  1.00  0.00    -0.744 OA
ENDBRANCH  85  86
ENDBRANCH  57  80
BRANCH  69  90
ATOM     90  C   UNL A   1      39.443  33.645  37.221  1.00  0.00    -0.014 A 
ATOM     91  C   UNL A   1      38.796  33.119  38.353  1.00  0.00     0.010 A 
ATOM     92  C   UNL A   1      39.932  34.963  37.263  1.00  0.00     0.010 A 
ATOM     93  C   UNL A   1      38.612  33.909  39.492  1.00  0.00     0.020 A 
ATOM     94  C   UNL A   1      39.777  35.747  38.410  1.00  0.00     0.020 A 
ATOM     95  C   UNL A   1      39.103  35.219  39.513  1.00  0.00     0.054 A 
BRANCH  95  96
ATOM     96  S   UNL A   1      38.888  36.211  41.016  1.00  0.00     0.124 S 
ATOM     97  O   UNL A   1      37.793  35.515  41.684  1.00  0.00    -0.237 OA
ATOM     98  O   UNL A   1      40.192  36.101  41.663  1.00  0.00    -0.237 OA
ATOM     99  O   UNL A   1      38.562  37.543  40.508  1.00  0.00    -0.744 OA
ENDBRANCH  95  96
ENDBRANCH  69  90
ENDBRANCH  43  44
ENDBRANCH  36  38
ENDBRANCH  35  36
ENDBRANCH  34  35
ENDBRANCH  33  34
ENDBRANCH  32  33
ENDBRANCH  31  32
ENDBRANCH  30  31
ENDBRANCH   1  30
TORSDOF 28
ENDMDL
