MODEL 1
REMARK VINA RESULT:      -8.7      0.000      0.000
REMARK SMILES O=C(OCCOCCOCCOCCOC(=O)[C@H]1CCCC[N@H+]1Cc1ccc([N+](=O)[O-])o1)c1ccc(-c2c3nc(c(-c4ccc(S(=O)(=O)[O-])cc4)c4ccc([nH]4)c(-c4ccc(S(=O)(=O)[O-])cc4)c4nc(c(-c5ccc(S(=O)(=O)[O-])cc5)c5ccc2[nH]5)C=C4)C=C3)cc1
REMARK SMILES IDX 9 1 8 2 7 3 6 4 5 5 4 6 3 7 2 8 1 9 33 10 34 11 92 12 35 13
REMARK SMILES IDX 91 14 36 15 37 16 38 17 85 18 39 19 90 20 84 21 86 22 40 23
REMARK SMILES IDX 89 24 83 25 82 26 41 28 71 29 52 30 70 31 53 32 56 33 69 34
REMARK SMILES IDX 87 35 54 36 55 37 68 39 88 40 57 41 42 42 43 43 51 44 44 45
REMARK SMILES IDX 50 46 45 47 46 48 47 49 48 50 49 51 72 52 73 53 81 54 74 55
REMARK SMILES IDX 80 56 75 57 76 58 77 59 78 60 79 61 58 62 59 63 67 64 60 65
REMARK SMILES IDX 66 66 61 67 62 68 63 69 64 70 65 71 10 72 11 73 12 74 13 75
REMARK SMILES IDX 14 76 15 77 16 78 17 79 18 80 19 81 23 82 20 83 22 84 21 86
REMARK SMILES IDX 24 87 25 88 26 89 32 90 27 91 28 92 29 93 30 94 31 95
REMARK H PARENT 86 27 56 38 23 85
REMARK Flexibility Score: inf
ROOT
ATOM      1  O   UNL A   1      32.727  36.685  30.549  1.00  0.00    -0.377 OA
ENDROOT
BRANCH   1   2
ATOM      2  C   UNL A   1      32.824  36.612  31.962  1.00  0.00     0.188 C 
BRANCH   2   3
ATOM      3  C   UNL A   1      34.234  36.537  32.521  1.00  0.00     0.188 C 
BRANCH   3   4
ATOM      4  O   UNL A   1      34.463  35.316  33.200  1.00  0.00    -0.376 OA
BRANCH   4   5
ATOM      5  C   UNL A   1      35.473  34.429  32.753  1.00  0.00     0.202 C 
BRANCH   5   6
ATOM      6  C   UNL A   1      35.917  33.333  33.723  1.00  0.00     0.261 C 
BRANCH   6   7
ATOM      7  O   UNL A   1      36.293  32.133  33.019  1.00  0.00    -0.460 OA
BRANCH   7   8
ATOM      8  C   UNL A   1      37.191  31.298  33.601  1.00  0.00     0.338 C 
ATOM      9  O   UNL A   1      37.502  31.235  34.778  1.00  0.00    -0.246 OA
BRANCH   8  10
ATOM     10  C   UNL A   1      37.794  30.557  32.479  1.00  0.00     0.060 A 
ATOM     11  C   UNL A   1      38.605  29.471  32.788  1.00  0.00     0.016 A 
ATOM     12  C   UNL A   1      37.829  31.113  31.207  1.00  0.00     0.016 A 
ATOM     13  C   UNL A   1      39.662  29.155  31.962  1.00  0.00     0.010 A 
ATOM     14  C   UNL A   1      38.750  30.618  30.279  1.00  0.00     0.010 A 
ATOM     15  C   UNL A   1      39.739  29.699  30.682  1.00  0.00    -0.014 A 
BRANCH  15  16
ATOM     16  C   UNL A   1      40.921  29.378  29.842  1.00  0.00     0.031 A 
ATOM     17  C   UNL A   1      41.989  30.424  29.651  1.00  0.00     0.074 A 
ATOM     18  C   UNL A   1      41.095  28.128  29.359  1.00  0.00     0.049 A 
ATOM     19  N   UNL A   1      42.992  30.436  28.814  1.00  0.00    -0.248 NA
ATOM     20  C   UNL A   1      41.911  31.626  30.502  1.00  0.00     0.031 C 
ATOM     21  C   UNL A   1      40.190  26.992  29.582  1.00  0.00     0.029 A 
ATOM     22  N   UNL A   1      42.113  27.582  28.620  1.00  0.00    -0.354 N 
ATOM     23  C   UNL A   1      43.613  31.668  28.987  1.00  0.00     0.074 A 
ATOM     24  C   UNL A   1      42.875  32.383  30.001  1.00  0.00     0.031 C 
ATOM     25  C   UNL A   1      40.735  25.879  29.075  1.00  0.00     0.029 A 
ATOM     26  C   UNL A   1      41.941  26.244  28.350  1.00  0.00     0.049 A 
ATOM     27  H   UNL A   1      42.892  28.099  28.311  1.00  0.00     0.167 HD
ATOM     28  C   UNL A   1      44.703  32.154  28.349  1.00  0.00     0.031 A 
ATOM     29  C   UNL A   1      42.633  25.416  27.545  1.00  0.00     0.031 A 
ATOM     30  C   UNL A   1      45.439  31.396  27.373  1.00  0.00     0.049 A 
ATOM     31  C   UNL A   1      43.786  26.003  26.781  1.00  0.00     0.074 A 
ATOM     32  C   UNL A   1      46.511  31.789  26.595  1.00  0.00     0.029 A 
ATOM     33  N   UNL A   1      45.185  30.064  27.068  1.00  0.00    -0.354 N 
ATOM     34  N   UNL A   1      44.280  27.219  26.845  1.00  0.00    -0.248 NA
ATOM     35  C   UNL A   1      44.458  25.123  25.821  1.00  0.00     0.031 C 
ATOM     36  C   UNL A   1      46.879  30.706  25.789  1.00  0.00     0.029 A 
ATOM     37  C   UNL A   1      46.077  29.621  26.110  1.00  0.00     0.049 A 
ATOM     38  H   UNL A   1      44.475  29.517  27.476  1.00  0.00     0.167 HD
ATOM     39  C   UNL A   1      45.324  27.249  25.932  1.00  0.00     0.074 A 
ATOM     40  C   UNL A   1      45.416  25.917  25.364  1.00  0.00     0.031 C 
ATOM     41  C   UNL A   1      46.128  28.282  25.578  1.00  0.00     0.031 A 
BRANCH  28  42
ATOM     42  C   UNL A   1      45.107  33.575  28.642  1.00  0.00    -0.014 A 
ATOM     43  C   UNL A   1      45.878  33.907  29.770  1.00  0.00     0.010 A 
ATOM     44  C   UNL A   1      44.695  34.601  27.771  1.00  0.00     0.010 A 
ATOM     45  C   UNL A   1      46.196  35.243  30.042  1.00  0.00     0.020 A 
ATOM     46  C   UNL A   1      45.035  35.934  28.025  1.00  0.00     0.020 A 
ATOM     47  C   UNL A   1      45.771  36.248  29.168  1.00  0.00     0.054 A 
BRANCH  47  48
ATOM     48  S   UNL A   1      46.215  37.968  29.535  1.00  0.00     0.124 S 
ATOM     49  O   UNL A   1      45.141  38.371  30.439  1.00  0.00    -0.237 OA
ATOM     50  O   UNL A   1      47.534  37.833  30.148  1.00  0.00    -0.237 OA
ATOM     51  O   UNL A   1      46.203  38.617  28.226  1.00  0.00    -0.744 OA
ENDBRANCH  47  48
ENDBRANCH  28  42
BRANCH  29  52
ATOM     52  C   UNL A   1      42.181  24.010  27.327  1.00  0.00    -0.014 A 
ATOM     53  C   UNL A   1      42.784  22.935  28.002  1.00  0.00     0.010 A 
ATOM     54  C   UNL A   1      41.140  23.736  26.417  1.00  0.00     0.010 A 
ATOM     55  C   UNL A   1      42.378  21.619  27.749  1.00  0.00     0.020 A 
ATOM     56  C   UNL A   1      40.702  22.429  26.191  1.00  0.00     0.020 A 
ATOM     57  C   UNL A   1      41.339  21.375  26.843  1.00  0.00     0.054 A 
BRANCH  57  58
ATOM     58  S   UNL A   1      40.820  19.664  26.538  1.00  0.00     0.124 S 
ATOM     59  O   UNL A   1      41.898  19.168  25.688  1.00  0.00    -0.237 OA
ATOM     60  O   UNL A   1      40.769  19.105  27.887  1.00  0.00    -0.237 OA
ATOM     61  O   UNL A   1      39.523  19.812  25.883  1.00  0.00    -0.744 OA
ENDBRANCH  57  58
ENDBRANCH  29  52
BRANCH  41  62
ATOM     62  C   UNL A   1      47.192  27.984  24.561  1.00  0.00    -0.014 A 
ATOM     63  C   UNL A   1      48.426  27.428  24.943  1.00  0.00     0.010 A 
ATOM     64  C   UNL A   1      46.938  28.243  23.204  1.00  0.00     0.010 A 
ATOM     65  C   UNL A   1      49.407  27.177  23.983  1.00  0.00     0.020 A 
ATOM     66  C   UNL A   1      47.904  27.961  22.238  1.00  0.00     0.020 A 
ATOM     67  C   UNL A   1      49.139  27.449  22.637  1.00  0.00     0.054 A 
BRANCH  67  68
ATOM     68  S   UNL A   1      50.420  27.093  21.407  1.00  0.00     0.124 S 
ATOM     69  O   UNL A   1      49.867  25.928  20.723  1.00  0.00    -0.237 OA
ATOM     70  O   UNL A   1      50.459  28.324  20.621  1.00  0.00    -0.237 OA
ATOM     71  O   UNL A   1      51.611  26.838  22.213  1.00  0.00    -0.744 OA
ENDBRANCH  67  68
ENDBRANCH  41  62
ENDBRANCH  15  16
ENDBRANCH   8  10
ENDBRANCH   7   8
ENDBRANCH   6   7
ENDBRANCH   5   6
ENDBRANCH   4   5
ENDBRANCH   3   4
ENDBRANCH   2   3
ENDBRANCH   1   2
BRANCH   1  72
ATOM     72  C   UNL A   1      32.934  35.517  29.758  1.00  0.00     0.188 C 
BRANCH  72  73
ATOM     73  C   UNL A   1      34.187  34.639  29.959  1.00  0.00     0.188 C 
BRANCH  73  74
ATOM     74  O   UNL A   1      34.077  33.296  29.504  1.00  0.00    -0.376 OA
BRANCH  74  75
ATOM     75  C   UNL A   1      34.449  33.104  28.145  1.00  0.00     0.202 C 
BRANCH  75  76
ATOM     76  C   UNL A   1      35.032  31.719  27.824  1.00  0.00     0.261 C 
BRANCH  76  77
ATOM     77  O   UNL A   1      34.278  30.789  27.016  1.00  0.00    -0.459 OA
BRANCH  77  78
ATOM     78  C   UNL A   1      34.365  29.464  27.269  1.00  0.00     0.365 C 
ATOM     79  O   UNL A   1      35.424  28.881  27.483  1.00  0.00    -0.245 OA
BRANCH  78  80
ATOM     80  C   UNL A   1      33.021  28.699  27.173  1.00  0.00     0.295 C 
ATOM     81  C   UNL A   1      31.735  29.529  27.055  1.00  0.00     0.078 C 
ATOM     82  N   UNL A   1      32.996  27.677  26.103  1.00  0.00    -0.317 N 
ATOM     83  C   UNL A   1      31.577  30.192  25.693  1.00  0.00     0.013 C 
ATOM     84  C   UNL A   1      32.930  28.239  24.757  1.00  0.00     0.263 C 
ATOM     85  H   UNL A   1      32.093  27.218  26.215  1.00  0.00     0.349 HD
ATOM     86  C   UNL A   1      31.698  29.145  24.592  1.00  0.00     0.062 C 
BRANCH  82  87
ATOM     87  C   UNL A   1      33.897  26.532  26.290  1.00  0.00     0.339 C 
BRANCH  87  88
ATOM     88  C   UNL A   1      34.077  25.602  25.138  1.00  0.00     0.165 A 
ATOM     89  C   UNL A   1      34.848  24.463  24.963  1.00  0.00     0.059 A 
ATOM     90  O   UNL A   1      33.396  25.884  23.986  1.00  0.00    -0.400 OA
ATOM     91  C   UNL A   1      34.720  24.084  23.602  1.00  0.00     0.134 A 
ATOM     92  C   UNL A   1      33.809  24.965  23.073  1.00  0.00     0.433 A 
BRANCH  92  93
ATOM     93  N   UNL A   1      33.321  25.148  21.748  1.00  0.00     0.102 N 
ATOM     94  O   UNL A   1      33.192  26.312  21.345  1.00  0.00    -0.256 OA
ATOM     95  O   UNL A   1      33.090  24.122  21.098  1.00  0.00    -0.256 OA
ENDBRANCH  92  93
ENDBRANCH  87  88
ENDBRANCH  82  87
ENDBRANCH  78  80
ENDBRANCH  77  78
ENDBRANCH  76  77
ENDBRANCH  75  76
ENDBRANCH  74  75
ENDBRANCH  73  74
ENDBRANCH  72  73
ENDBRANCH   1  72
TORSDOF 26
ENDMDL
MODEL 2
REMARK VINA RESULT:      -8.6      3.456      4.071
REMARK SMILES O=C(OCCOCCOCCOCCOC(=O)[C@H]1CCCC[N@H+]1Cc1ccc([N+](=O)[O-])o1)c1ccc(-c2c3nc(c(-c4ccc(S(=O)(=O)[O-])cc4)c4ccc([nH]4)c(-c4ccc(S(=O)(=O)[O-])cc4)c4nc(c(-c5ccc(S(=O)(=O)[O-])cc5)c5ccc2[nH]5)C=C4)C=C3)cc1
REMARK SMILES IDX 9 1 8 2 7 3 6 4 5 5 4 6 3 7 2 8 1 9 33 10 34 11 92 12 35 13
REMARK SMILES IDX 91 14 36 15 37 16 38 17 85 18 39 19 90 20 84 21 86 22 40 23
REMARK SMILES IDX 89 24 83 25 82 26 41 28 71 29 52 30 70 31 53 32 56 33 69 34
REMARK SMILES IDX 87 35 54 36 55 37 68 39 88 40 57 41 42 42 43 43 51 44 44 45
REMARK SMILES IDX 50 46 45 47 46 48 47 49 48 50 49 51 72 52 73 53 81 54 74 55
REMARK SMILES IDX 80 56 75 57 76 58 77 59 78 60 79 61 58 62 59 63 67 64 60 65
REMARK SMILES IDX 66 66 61 67 62 68 63 69 64 70 65 71 10 72 11 73 12 74 13 75
REMARK SMILES IDX 14 76 15 77 16 78 17 79 18 80 19 81 23 82 20 83 22 84 21 86
REMARK SMILES IDX 24 87 25 88 26 89 32 90 27 91 28 92 29 93 30 94 31 95
REMARK H PARENT 86 27 56 38 23 85
REMARK Flexibility Score: inf
ROOT
ATOM      1  O   UNL A   1      32.917  36.785  30.116  1.00  0.00    -0.377 OA
ENDROOT
BRANCH   1   2
ATOM      2  C   UNL A   1      32.674  36.443  31.471  1.00  0.00     0.188 C 
BRANCH   2   3
ATOM      3  C   UNL A   1      33.882  36.500  32.390  1.00  0.00     0.188 C 
BRANCH   3   4
ATOM      4  O   UNL A   1      33.995  35.328  33.177  1.00  0.00    -0.376 OA
BRANCH   4   5
ATOM      5  C   UNL A   1      35.254  34.698  33.342  1.00  0.00     0.202 C 
BRANCH   5   6
ATOM      6  C   UNL A   1      35.507  33.985  34.670  1.00  0.00     0.261 C 
BRANCH   6   7
ATOM      7  O   UNL A   1      36.529  32.978  34.537  1.00  0.00    -0.460 OA
BRANCH   7   8
ATOM      8  C   UNL A   1      37.207  32.595  35.649  1.00  0.00     0.338 C 
ATOM      9  O   UNL A   1      37.053  32.988  36.793  1.00  0.00    -0.246 OA
BRANCH   8  10
ATOM     10  C   UNL A   1      38.252  31.682  35.154  1.00  0.00     0.060 A 
ATOM     11  C   UNL A   1      39.524  31.802  35.703  1.00  0.00     0.016 A 
ATOM     12  C   UNL A   1      38.066  30.974  33.973  1.00  0.00     0.016 A 
ATOM     13  C   UNL A   1      40.627  31.514  34.930  1.00  0.00     0.010 A 
ATOM     14  C   UNL A   1      39.186  30.466  33.309  1.00  0.00     0.010 A 
ATOM     15  C   UNL A   1      40.483  30.816  33.733  1.00  0.00    -0.014 A 
BRANCH  15  16
ATOM     16  C   UNL A   1      41.689  30.573  32.900  1.00  0.00     0.031 A 
ATOM     17  C   UNL A   1      42.183  31.668  31.992  1.00  0.00     0.074 A 
ATOM     18  C   UNL A   1      42.401  29.434  33.048  1.00  0.00     0.049 A 
ATOM     19  N   UNL A   1      43.081  31.612  31.044  1.00  0.00    -0.248 NA
ATOM     20  C   UNL A   1      41.577  33.002  32.157  1.00  0.00     0.031 C 
ATOM     21  C   UNL A   1      42.092  28.348  33.989  1.00  0.00     0.029 A 
ATOM     22  N   UNL A   1      43.559  29.012  32.446  1.00  0.00    -0.354 N 
ATOM     23  C   UNL A   1      43.091  32.873  30.458  1.00  0.00     0.074 A 
ATOM     24  C   UNL A   1      42.108  33.674  31.147  1.00  0.00     0.031 C 
ATOM     25  C   UNL A   1      43.077  27.441  33.965  1.00  0.00     0.029 A 
ATOM     26  C   UNL A   1      43.999  27.789  32.897  1.00  0.00     0.049 A 
ATOM     27  H   UNL A   1      44.030  29.535  31.757  1.00  0.00     0.167 HD
ATOM     28  C   UNL A   1      43.856  33.314  29.433  1.00  0.00     0.031 A 
ATOM     29  C   UNL A   1      44.990  26.994  32.450  1.00  0.00     0.031 A 
ATOM     30  C   UNL A   1      44.856  32.499  28.797  1.00  0.00     0.049 A 
ATOM     31  C   UNL A   1      45.767  27.470  31.255  1.00  0.00     0.074 A 
ATOM     32  C   UNL A   1      45.646  32.790  27.702  1.00  0.00     0.029 A 
ATOM     33  N   UNL A   1      45.220  31.231  29.234  1.00  0.00    -0.354 N 
ATOM     34  N   UNL A   1      45.671  28.612  30.614  1.00  0.00    -0.248 NA
ATOM     35  C   UNL A   1      46.764  26.546  30.706  1.00  0.00     0.031 C 
ATOM     36  C   UNL A   1      46.460  31.679  27.451  1.00  0.00     0.029 A 
ATOM     37  C   UNL A   1      46.220  30.723  28.427  1.00  0.00     0.049 A 
ATOM     38  H   UNL A   1      44.824  30.764  30.005  1.00  0.00     0.167 HD
ATOM     39  C   UNL A   1      46.597  28.545  29.584  1.00  0.00     0.074 A 
ATOM     40  C   UNL A   1      47.273  27.268  29.718  1.00  0.00     0.031 C 
ATOM     41  C   UNL A   1      46.862  29.445  28.603  1.00  0.00     0.031 A 
BRANCH  28  42
ATOM     42  C   UNL A   1      43.587  34.701  28.909  1.00  0.00    -0.014 A 
ATOM     43  C   UNL A   1      44.277  35.823  29.398  1.00  0.00     0.010 A 
ATOM     44  C   UNL A   1      42.612  34.881  27.910  1.00  0.00     0.010 A 
ATOM     45  C   UNL A   1      43.970  37.105  28.926  1.00  0.00     0.020 A 
ATOM     46  C   UNL A   1      42.322  36.157  27.415  1.00  0.00     0.020 A 
ATOM     47  C   UNL A   1      42.993  37.264  27.939  1.00  0.00     0.054 A 
BRANCH  47  48
ATOM     48  S   UNL A   1      42.630  38.934  27.331  1.00  0.00     0.124 S 
ATOM     49  O   UNL A   1      42.384  39.661  28.574  1.00  0.00    -0.237 OA
ATOM     50  O   UNL A   1      43.860  39.291  26.628  1.00  0.00    -0.237 OA
ATOM     51  O   UNL A   1      41.460  38.747  26.477  1.00  0.00    -0.744 OA
ENDBRANCH  47  48
ENDBRANCH  28  42
BRANCH  29  52
ATOM     52  C   UNL A   1      45.209  25.642  33.041  1.00  0.00    -0.014 A 
ATOM     53  C   UNL A   1      44.499  24.518  32.585  1.00  0.00     0.010 A 
ATOM     54  C   UNL A   1      46.134  25.473  34.092  1.00  0.00     0.010 A 
ATOM     55  C   UNL A   1      44.684  23.267  33.185  1.00  0.00     0.020 A 
ATOM     56  C   UNL A   1      46.354  24.219  34.667  1.00  0.00     0.020 A 
ATOM     57  C   UNL A   1      45.611  23.126  34.224  1.00  0.00     0.054 A 
BRANCH  57  58
ATOM     58  S   UNL A   1      45.846  21.495  34.980  1.00  0.00     0.124 S 
ATOM     59  O   UNL A   1      46.787  20.866  34.059  1.00  0.00    -0.237 OA
ATOM     60  O   UNL A   1      46.379  21.832  36.299  1.00  0.00    -0.237 OA
ATOM     61  O   UNL A   1      44.501  20.925  34.988  1.00  0.00    -0.744 OA
ENDBRANCH  57  58
ENDBRANCH  29  52
BRANCH  41  62
ATOM     62  C   UNL A   1      47.953  29.081  27.638  1.00  0.00    -0.014 A 
ATOM     63  C   UNL A   1      49.287  29.459  27.873  1.00  0.00     0.010 A 
ATOM     64  C   UNL A   1      47.636  28.328  26.495  1.00  0.00     0.010 A 
ATOM     65  C   UNL A   1      50.280  29.126  26.952  1.00  0.00     0.020 A 
ATOM     66  C   UNL A   1      48.632  27.964  25.590  1.00  0.00     0.020 A 
ATOM     67  C   UNL A   1      49.945  28.383  25.814  1.00  0.00     0.054 A 
BRANCH  67  68
ATOM     68  S   UNL A   1      51.256  27.943  24.645  1.00  0.00     0.124 S 
ATOM     69  O   UNL A   1      51.113  26.493  24.561  1.00  0.00    -0.237 OA
ATOM     70  O   UNL A   1      50.876  28.684  23.445  1.00  0.00    -0.237 OA
ATOM     71  O   UNL A   1      52.474  28.414  25.300  1.00  0.00    -0.744 OA
ENDBRANCH  67  68
ENDBRANCH  41  62
ENDBRANCH  15  16
ENDBRANCH   8  10
ENDBRANCH   7   8
ENDBRANCH   6   7
ENDBRANCH   5   6
ENDBRANCH   4   5
ENDBRANCH   3   4
ENDBRANCH   2   3
ENDBRANCH   1   2
BRANCH   1  72
ATOM     72  C   UNL A   1      33.248  35.769  29.172  1.00  0.00     0.188 C 
BRANCH  72  73
ATOM     73  C   UNL A   1      34.218  34.628  29.547  1.00  0.00     0.188 C 
BRANCH  73  74
ATOM     74  O   UNL A   1      33.899  33.350  29.012  1.00  0.00    -0.376 OA
BRANCH  74  75
ATOM     75  C   UNL A   1      34.845  32.854  28.072  1.00  0.00     0.202 C 
BRANCH  75  76
ATOM     76  C   UNL A   1      34.933  31.322  27.991  1.00  0.00     0.261 C 
BRANCH  76  77
ATOM     77  O   UNL A   1      33.915  30.579  27.286  1.00  0.00    -0.459 OA
BRANCH  77  78
ATOM     78  C   UNL A   1      34.160  29.302  26.913  1.00  0.00     0.365 C 
ATOM     79  O   UNL A   1      35.283  28.871  26.667  1.00  0.00    -0.245 OA
BRANCH  78  80
ATOM     80  C   UNL A   1      32.894  28.432  26.716  1.00  0.00     0.295 C 
ATOM     81  C   UNL A   1      31.571  29.154  26.426  1.00  0.00     0.078 C 
ATOM     82  N   UNL A   1      33.057  27.368  25.700  1.00  0.00    -0.317 N 
ATOM     83  C   UNL A   1      31.510  29.747  25.024  1.00  0.00     0.013 C 
ATOM     84  C   UNL A   1      33.094  27.868  24.329  1.00  0.00     0.263 C 
ATOM     85  H   UNL A   1      32.183  26.845  25.741  1.00  0.00     0.349 HD
ATOM     86  C   UNL A   1      31.823  28.668  23.994  1.00  0.00     0.062 C 
BRANCH  82  87
ATOM     87  C   UNL A   1      34.015  26.306  26.034  1.00  0.00     0.339 C 
BRANCH  87  88
ATOM     88  C   UNL A   1      34.045  25.104  25.152  1.00  0.00     0.165 A 
ATOM     89  C   UNL A   1      35.084  24.390  24.575  1.00  0.00     0.059 A 
ATOM     90  O   UNL A   1      32.845  24.564  24.778  1.00  0.00    -0.400 OA
ATOM     91  C   UNL A   1      34.494  23.427  23.715  1.00  0.00     0.134 A 
ATOM     92  C   UNL A   1      33.141  23.565  23.904  1.00  0.00     0.433 A 
BRANCH  92  93
ATOM     93  N   UNL A   1      32.024  22.940  23.280  1.00  0.00     0.102 N 
ATOM     94  O   UNL A   1      32.259  22.029  22.474  1.00  0.00    -0.256 OA
ATOM     95  O   UNL A   1      30.906  23.346  23.616  1.00  0.00    -0.256 OA
ENDBRANCH  92  93
ENDBRANCH  87  88
ENDBRANCH  82  87
ENDBRANCH  78  80
ENDBRANCH  77  78
ENDBRANCH  76  77
ENDBRANCH  75  76
ENDBRANCH  74  75
ENDBRANCH  73  74
ENDBRANCH  72  73
ENDBRANCH   1  72
TORSDOF 26
ENDMDL
MODEL 3
REMARK VINA RESULT:      -8.4      3.321      4.734
REMARK SMILES O=C(OCCOCCOCCOCCOC(=O)[C@H]1CCCC[N@H+]1Cc1ccc([N+](=O)[O-])o1)c1ccc(-c2c3nc(c(-c4ccc(S(=O)(=O)[O-])cc4)c4ccc([nH]4)c(-c4ccc(S(=O)(=O)[O-])cc4)c4nc(c(-c5ccc(S(=O)(=O)[O-])cc5)c5ccc2[nH]5)C=C4)C=C3)cc1
REMARK SMILES IDX 9 1 8 2 7 3 6 4 5 5 4 6 3 7 2 8 1 9 33 10 34 11 92 12 35 13
REMARK SMILES IDX 91 14 36 15 37 16 38 17 85 18 39 19 90 20 84 21 86 22 40 23
REMARK SMILES IDX 89 24 83 25 82 26 41 28 71 29 52 30 70 31 53 32 56 33 69 34
REMARK SMILES IDX 87 35 54 36 55 37 68 39 88 40 57 41 42 42 43 43 51 44 44 45
REMARK SMILES IDX 50 46 45 47 46 48 47 49 48 50 49 51 72 52 73 53 81 54 74 55
REMARK SMILES IDX 80 56 75 57 76 58 77 59 78 60 79 61 58 62 59 63 67 64 60 65
REMARK SMILES IDX 66 66 61 67 62 68 63 69 64 70 65 71 10 72 11 73 12 74 13 75
REMARK SMILES IDX 14 76 15 77 16 78 17 79 18 80 19 81 23 82 20 83 22 84 21 86
REMARK SMILES IDX 24 87 25 88 26 89 32 90 27 91 28 92 29 93 30 94 31 95
REMARK H PARENT 86 27 56 38 23 85
REMARK Flexibility Score: inf
ROOT
ATOM      1  O   UNL A   1      32.639  36.610  30.516  1.00  0.00    -0.377 OA
ENDROOT
BRANCH   1   2
ATOM      2  C   UNL A   1      32.567  36.521  31.930  1.00  0.00     0.188 C 
BRANCH   2   3
ATOM      3  C   UNL A   1      33.884  36.690  32.668  1.00  0.00     0.188 C 
BRANCH   3   4
ATOM      4  O   UNL A   1      34.199  35.549  33.443  1.00  0.00    -0.376 OA
BRANCH   4   5
ATOM      5  C   UNL A   1      35.515  35.023  33.439  1.00  0.00     0.202 C 
BRANCH   5   6
ATOM      6  C   UNL A   1      35.887  34.068  34.573  1.00  0.00     0.261 C 
BRANCH   6   7
ATOM      7  O   UNL A   1      36.344  32.802  34.062  1.00  0.00    -0.460 OA
BRANCH   7   8
ATOM      8  C   UNL A   1      37.334  32.155  34.728  1.00  0.00     0.338 C 
ATOM      9  O   UNL A   1      37.430  31.967  35.929  1.00  0.00    -0.246 OA
BRANCH   8  10
ATOM     10  C   UNL A   1      38.330  31.826  33.693  1.00  0.00     0.060 A 
ATOM     11  C   UNL A   1      39.498  31.192  34.102  1.00  0.00     0.016 A 
ATOM     12  C   UNL A   1      38.261  32.417  32.437  1.00  0.00     0.016 A 
ATOM     13  C   UNL A   1      40.672  31.426  33.421  1.00  0.00     0.010 A 
ATOM     14  C   UNL A   1      39.407  32.437  31.637  1.00  0.00     0.010 A 
ATOM     15  C   UNL A   1      40.647  32.026  32.163  1.00  0.00    -0.014 A 
BRANCH  15  16
ATOM     16  C   UNL A   1      41.937  32.311  31.484  1.00  0.00     0.031 A 
ATOM     17  C   UNL A   1      42.555  33.677  31.632  1.00  0.00     0.074 A 
ATOM     18  C   UNL A   1      42.605  31.324  30.849  1.00  0.00     0.049 A 
ATOM     19  N   UNL A   1      43.556  34.204  30.979  1.00  0.00    -0.248 NA
ATOM     20  C   UNL A   1      41.958  34.579  32.635  1.00  0.00     0.031 C 
ATOM     21  C   UNL A   1      42.168  29.924  30.744  1.00  0.00     0.029 A 
ATOM     22  N   UNL A   1      43.818  31.326  30.207  1.00  0.00    -0.354 N 
ATOM     23  C   UNL A   1      43.658  35.513  31.438  1.00  0.00     0.074 A 
ATOM     24  C   UNL A   1      42.617  35.707  32.418  1.00  0.00     0.031 C 
ATOM     25  C   UNL A   1      43.131  29.196  30.165  1.00  0.00     0.029 A 
ATOM     26  C   UNL A   1      44.179  30.095  29.709  1.00  0.00     0.049 A 
ATOM     27  H   UNL A   1      44.375  32.131  30.111  1.00  0.00     0.167 HD
ATOM     28  C   UNL A   1      44.545  36.465  31.066  1.00  0.00     0.031 A 
ATOM     29  C   UNL A   1      45.200  29.739  28.907  1.00  0.00     0.031 A 
ATOM     30  C   UNL A   1      45.597  36.223  30.115  1.00  0.00     0.049 A 
ATOM     31  C   UNL A   1      46.120  30.830  28.439  1.00  0.00     0.074 A 
ATOM     32  C   UNL A   1      46.516  37.111  29.590  1.00  0.00     0.029 A 
ATOM     33  N   UNL A   1      45.884  34.976  29.572  1.00  0.00    -0.354 N 
ATOM     34  N   UNL A   1      46.121  32.102  28.768  1.00  0.00    -0.248 NA
ATOM     35  C   UNL A   1      47.157  30.451  27.474  1.00  0.00     0.031 C 
ATOM     36  C   UNL A   1      47.332  36.409  28.696  1.00  0.00     0.029 A 
ATOM     37  C   UNL A   1      46.962  35.073  28.712  1.00  0.00     0.049 A 
ATOM     38  H   UNL A   1      45.392  34.147  29.770  1.00  0.00     0.167 HD
ATOM     39  C   UNL A   1      47.160  32.676  28.051  1.00  0.00     0.074 A 
ATOM     40  C   UNL A   1      47.791  31.602  27.306  1.00  0.00     0.031 C 
ATOM     41  C   UNL A   1      47.554  33.972  27.994  1.00  0.00     0.031 A 
BRANCH  28  42
ATOM     42  C   UNL A   1      44.366  37.847  31.636  1.00  0.00    -0.014 A 
ATOM     43  C   UNL A   1      44.783  38.170  32.940  1.00  0.00     0.010 A 
ATOM     44  C   UNL A   1      43.754  38.842  30.850  1.00  0.00     0.010 A 
ATOM     45  C   UNL A   1      44.559  39.449  33.459  1.00  0.00     0.020 A 
ATOM     46  C   UNL A   1      43.553  40.130  31.356  1.00  0.00     0.020 A 
ATOM     47  C   UNL A   1      43.943  40.421  32.664  1.00  0.00     0.054 A 
BRANCH  47  48
ATOM     48  S   UNL A   1      43.682  42.078  33.357  1.00  0.00     0.124 S 
ATOM     49  O   UNL A   1      42.406  41.919  34.048  1.00  0.00    -0.237 OA
ATOM     50  O   UNL A   1      44.848  42.248  34.222  1.00  0.00    -0.237 OA
ATOM     51  O   UNL A   1      43.650  42.945  32.182  1.00  0.00    -0.744 OA
ENDBRANCH  47  48
ENDBRANCH  28  42
BRANCH  29  52
ATOM     52  C   UNL A   1      45.323  28.339  28.405  1.00  0.00    -0.014 A 
ATOM     53  C   UNL A   1      46.012  27.356  29.137  1.00  0.00     0.010 A 
ATOM     54  C   UNL A   1      44.756  27.981  27.165  1.00  0.00     0.010 A 
ATOM     55  C   UNL A   1      46.157  26.060  28.626  1.00  0.00     0.020 A 
ATOM     56  C   UNL A   1      44.861  26.679  26.670  1.00  0.00     0.020 A 
ATOM     57  C   UNL A   1      45.581  25.731  27.394  1.00  0.00     0.054 A 
BRANCH  57  58
ATOM     58  S   UNL A   1      45.770  24.044  26.756  1.00  0.00     0.124 S 
ATOM     59  O   UNL A   1      47.215  23.948  26.576  1.00  0.00    -0.237 OA
ATOM     60  O   UNL A   1      45.211  23.233  27.836  1.00  0.00    -0.237 OA
ATOM     61  O   UNL A   1      44.984  24.054  25.524  1.00  0.00    -0.744 OA
ENDBRANCH  57  58
ENDBRANCH  29  52
BRANCH  41  62
ATOM     62  C   UNL A   1      48.743  34.273  27.128  1.00  0.00    -0.014 A 
ATOM     63  C   UNL A   1      50.054  34.098  27.607  1.00  0.00     0.010 A 
ATOM     64  C   UNL A   1      48.539  34.712  25.809  1.00  0.00     0.010 A 
ATOM     65  C   UNL A   1      51.143  34.403  26.790  1.00  0.00     0.020 A 
ATOM     66  C   UNL A   1      49.626  34.985  24.979  1.00  0.00     0.020 A 
ATOM     67  C   UNL A   1      50.921  34.847  25.482  1.00  0.00     0.054 A 
BRANCH  67  68
ATOM     68  S   UNL A   1      52.351  35.214  24.434  1.00  0.00     0.124 S 
ATOM     69  O   UNL A   1      52.386  34.050  23.552  1.00  0.00    -0.237 OA
ATOM     70  O   UNL A   1      51.969  36.473  23.799  1.00  0.00    -0.237 OA
ATOM     71  O   UNL A   1      53.458  35.312  25.382  1.00  0.00    -0.744 OA
ENDBRANCH  67  68
ENDBRANCH  41  62
ENDBRANCH  15  16
ENDBRANCH   8  10
ENDBRANCH   7   8
ENDBRANCH   6   7
ENDBRANCH   5   6
ENDBRANCH   4   5
ENDBRANCH   3   4
ENDBRANCH   2   3
ENDBRANCH   1   2
BRANCH   1  72
ATOM     72  C   UNL A   1      32.935  35.450  29.742  1.00  0.00     0.188 C 
BRANCH  72  73
ATOM     73  C   UNL A   1      34.176  34.587  30.054  1.00  0.00     0.188 C 
BRANCH  73  74
ATOM     74  O   UNL A   1      34.135  33.252  29.565  1.00  0.00    -0.376 OA
BRANCH  74  75
ATOM     75  C   UNL A   1      34.523  33.112  28.204  1.00  0.00     0.202 C 
BRANCH  75  76
ATOM     76  C   UNL A   1      35.097  31.736  27.834  1.00  0.00     0.261 C 
BRANCH  76  77
ATOM     77  O   UNL A   1      34.321  30.827  27.023  1.00  0.00    -0.459 OA
BRANCH  77  78
ATOM     78  C   UNL A   1      34.394  29.497  27.258  1.00  0.00     0.365 C 
ATOM     79  O   UNL A   1      35.449  28.899  27.453  1.00  0.00    -0.245 OA
BRANCH  78  80
ATOM     80  C   UNL A   1      33.040  28.750  27.166  1.00  0.00     0.295 C 
ATOM     81  C   UNL A   1      31.763  29.597  27.076  1.00  0.00     0.078 C 
ATOM     82  N   UNL A   1      32.990  27.745  26.080  1.00  0.00    -0.317 N 
ATOM     83  C   UNL A   1      31.598  30.284  25.726  1.00  0.00     0.013 C 
ATOM     84  C   UNL A   1      32.916  28.330  24.744  1.00  0.00     0.263 C 
ATOM     85  H   UNL A   1      32.083  27.296  26.195  1.00  0.00     0.349 HD
ATOM     86  C   UNL A   1      31.693  29.253  24.608  1.00  0.00     0.062 C 
BRANCH  82  87
ATOM     87  C   UNL A   1      33.880  26.588  26.237  1.00  0.00     0.339 C 
BRANCH  87  88
ATOM     88  C   UNL A   1      34.052  25.687  25.062  1.00  0.00     0.165 A 
ATOM     89  C   UNL A   1      34.788  24.528  24.868  1.00  0.00     0.059 A 
ATOM     90  O   UNL A   1      33.406  26.026  23.905  1.00  0.00    -0.400 OA
ATOM     91  C   UNL A   1      34.677  24.194  23.493  1.00  0.00     0.134 A 
ATOM     92  C   UNL A   1      33.808  25.121  22.973  1.00  0.00     0.433 A 
BRANCH  92  93
ATOM     93  N   UNL A   1      33.354  25.360  21.644  1.00  0.00     0.102 N 
ATOM     94  O   UNL A   1      33.290  26.539  21.269  1.00  0.00    -0.256 OA
ATOM     95  O   UNL A   1      33.086  24.362  20.965  1.00  0.00    -0.256 OA
ENDBRANCH  92  93
ENDBRANCH  87  88
ENDBRANCH  82  87
ENDBRANCH  78  80
ENDBRANCH  77  78
ENDBRANCH  76  77
ENDBRANCH  75  76
ENDBRANCH  74  75
ENDBRANCH  73  74
ENDBRANCH  72  73
ENDBRANCH   1  72
TORSDOF 26
ENDMDL
