MODEL 1
REMARK VINA RESULT:      -9.4      0.000      0.000
REMARK SMILES CCc1nc2sc(C(=O)NCC(=O)OCCOCCOCCOCCOC(=O)c3ccc(-c4c5nc(c(-c6ccc(S(=O)(=O)[O-])cc6)c6ccc([nH]6)c(-c6ccc(S(=O)(=O)[O-])cc6)c6nc(c(-c7ccc(S(=O)(=O)[O-])cc7)c7ccc4[nH]7)C=C6)C=C5)cc3)c(N)c2c(C(F)(F)F)c1C
REMARK SMILES IDX 20 1 19 2 18 3 17 4 16 5 15 6 14 7 12 8 13 9 11 10 10 11
REMARK SMILES IDX 8 12 9 13 7 15 3 16 4 17 97 18 5 19 92 20 98 21 6 22 91 23
REMARK SMILES IDX 89 24 2 25 1 26 93 27 94 28 95 29 96 30 90 31 21 34 22 35
REMARK SMILES IDX 23 36 24 37 25 38 26 39 27 40 28 41 29 42 30 43 88 44 31 45
REMARK SMILES IDX 87 46 32 47 33 48 34 49 81 50 35 51 86 52 80 53 82 54 36 55
REMARK SMILES IDX 85 56 79 57 78 58 37 60 67 61 48 62 66 63 49 64 52 65 65 66
REMARK SMILES IDX 83 67 50 68 51 69 64 71 84 72 53 73 38 74 39 75 47 76 40 77
REMARK SMILES IDX 46 78 41 79 42 80 43 81 44 82 45 83 68 84 69 85 77 86 70 87
REMARK SMILES IDX 76 88 71 89 72 90 73 91 74 92 75 93 54 94 55 95 63 96 56 97
REMARK SMILES IDX 62 98 57 99 58 100 59 101 60 102 61 103
REMARK H PARENT 10 14 90 32 90 33 82 59 52 70
REMARK Flexibility Score: inf
ROOT
ATOM      1  O   UNL A   1      42.229  20.541  27.342  1.00  0.00    -0.377 OA
ENDROOT
BRANCH   1   2
ATOM      2  C   UNL A   1      40.965  21.162  27.383  1.00  0.00     0.188 C 
BRANCH   2   3
ATOM      3  C   UNL A   1      40.122  21.066  26.089  1.00  0.00     0.188 C 
BRANCH   3   4
ATOM      4  O   UNL A   1      39.314  19.930  25.802  1.00  0.00    -0.376 OA
BRANCH   4   5
ATOM      5  C   UNL A   1      38.276  19.994  24.837  1.00  0.00     0.202 C 
BRANCH   5   6
ATOM      6  C   UNL A   1      37.163  21.048  24.977  1.00  0.00     0.261 C 
BRANCH   6   7
ATOM      7  O   UNL A   1      36.619  21.225  26.300  1.00  0.00    -0.462 OA
BRANCH   7   8
ATOM      8  C   UNL A   1      35.517  22.016  26.390  1.00  0.00     0.325 C 
ATOM      9  O   UNL A   1      35.365  23.050  25.740  1.00  0.00    -0.250 OA
BRANCH   8  10
ATOM     10  C   UNL A   1      34.397  21.433  27.294  1.00  0.00     0.239 C 
BRANCH  10  11
ATOM     11  N   UNL A   1      33.445  20.492  26.726  1.00  0.00    -0.340 N 
ATOM     12  C   UNL A   1      32.599  20.600  25.650  1.00  0.00     0.264 C 
ATOM     13  O   UNL A   1      32.097  19.527  25.296  1.00  0.00    -0.268 OA
ATOM     14  H   UNL A   1      33.400  19.627  27.195  1.00  0.00     0.164 HD
BRANCH  12  15
ATOM     15  C   UNL A   1      32.301  21.873  24.999  1.00  0.00     0.118 A 
ATOM     16  C   UNL A   1      31.578  25.522  22.079  1.00  0.00     0.045 A 
ATOM     17  N   UNL A   1      32.201  24.315  22.084  1.00  0.00    -0.242 NA
ATOM     18  C   UNL A   1      30.845  26.022  23.175  1.00  0.00    -0.017 A 
ATOM     19  C   UNL A   1      32.120  23.603  23.213  1.00  0.00     0.127 A 
ATOM     20  C   UNL A   1      30.744  25.220  24.342  1.00  0.00     0.073 A 
ATOM     21  C   UNL A   1      30.131  27.342  23.233  1.00  0.00     0.047 C 
ATOM     22  S   UNL A   1      32.852  22.076  23.364  1.00  0.00    -0.108 S 
ATOM     23  C   UNL A   1      31.450  23.989  24.347  1.00  0.00     0.048 A 
ATOM     24  C   UNL A   1      31.632  23.021  25.370  1.00  0.00     0.066 A 
BRANCH  16  25
ATOM     25  C   UNL A   1      31.756  26.154  20.717  1.00  0.00     0.053 C 
ATOM     26  C   UNL A   1      32.758  25.635  19.710  1.00  0.00     0.011 C 
ENDBRANCH  16  25
BRANCH  20  27
ATOM     27  C   UNL A   1      29.931  25.608  25.569  1.00  0.00     0.417 C 
ATOM     28  F   UNL A   1      30.585  26.515  26.360  1.00  0.00    -0.166 F 
ATOM     29  F   UNL A   1      28.742  26.197  25.236  1.00  0.00    -0.166 F 
ATOM     30  F   UNL A   1      29.592  24.611  26.429  1.00  0.00    -0.166 F 
ENDBRANCH  20  27
BRANCH  24  31
ATOM     31  N   UNL A   1      31.129  23.307  26.577  1.00  0.00    -0.397 N 
ATOM     32  H   UNL A   1      31.490  22.861  27.378  1.00  0.00     0.156 HD
ATOM     33  H   UNL A   1      30.399  23.962  26.665  1.00  0.00     0.156 HD
ENDBRANCH  24  31
ENDBRANCH  12  15
ENDBRANCH  10  11
ENDBRANCH   8  10
ENDBRANCH   7   8
ENDBRANCH   6   7
ENDBRANCH   5   6
ENDBRANCH   4   5
ENDBRANCH   3   4
ENDBRANCH   2   3
ENDBRANCH   1   2
BRANCH   1  34
ATOM     34  C   UNL A   1      42.222  19.123  27.420  1.00  0.00     0.188 C 
BRANCH  34  35
ATOM     35  C   UNL A   1      42.680  18.334  26.169  1.00  0.00     0.188 C 
BRANCH  35  36
ATOM     36  O   UNL A   1      44.052  17.954  26.134  1.00  0.00    -0.376 OA
BRANCH  36  37
ATOM     37  C   UNL A   1      45.047  18.646  25.392  1.00  0.00     0.202 C 
BRANCH  37  38
ATOM     38  C   UNL A   1      44.644  19.653  24.308  1.00  0.00     0.261 C 
BRANCH  38  39
ATOM     39  O   UNL A   1      45.591  20.673  24.073  1.00  0.00    -0.460 OA
BRANCH  39  40
ATOM     40  C   UNL A   1      45.051  21.905  24.003  1.00  0.00     0.338 C 
ATOM     41  O   UNL A   1      44.227  22.302  23.207  1.00  0.00    -0.246 OA
BRANCH  40  42
ATOM     42  C   UNL A   1      45.705  22.746  25.003  1.00  0.00     0.060 A 
ATOM     43  C   UNL A   1      45.655  22.268  26.310  1.00  0.00     0.016 A 
ATOM     44  C   UNL A   1      45.994  24.082  24.687  1.00  0.00     0.016 A 
ATOM     45  C   UNL A   1      45.589  23.201  27.310  1.00  0.00     0.010 A 
ATOM     46  C   UNL A   1      45.928  25.011  25.690  1.00  0.00     0.010 A 
ATOM     47  C   UNL A   1      45.610  24.558  26.964  1.00  0.00    -0.014 A 
BRANCH  47  48
ATOM     48  C   UNL A   1      45.335  25.506  28.011  1.00  0.00     0.031 A 
ATOM     49  C   UNL A   1      43.921  25.906  28.031  1.00  0.00     0.074 A 
ATOM     50  C   UNL A   1      46.277  25.949  28.861  1.00  0.00     0.049 A 
ATOM     51  N   UNL A   1      43.433  27.002  27.562  1.00  0.00    -0.248 NA
ATOM     52  C   UNL A   1      42.917  24.888  28.376  1.00  0.00     0.031 C 
ATOM     53  C   UNL A   1      47.637  25.451  29.076  1.00  0.00     0.029 A 
ATOM     54  N   UNL A   1      46.157  26.913  29.808  1.00  0.00    -0.354 N 
ATOM     55  C   UNL A   1      42.070  26.922  27.794  1.00  0.00     0.074 A 
ATOM     56  C   UNL A   1      41.791  25.537  28.079  1.00  0.00     0.031 C 
ATOM     57  C   UNL A   1      48.100  25.933  30.254  1.00  0.00     0.029 A 
ATOM     58  C   UNL A   1      47.130  26.873  30.795  1.00  0.00     0.049 A 
ATOM     59  H   UNL A   1      45.438  27.585  29.795  1.00  0.00     0.167 HD
ATOM     60  C   UNL A   1      41.345  28.047  28.027  1.00  0.00     0.031 A 
ATOM     61  C   UNL A   1      47.071  27.498  32.001  1.00  0.00     0.031 A 
ATOM     62  C   UNL A   1      42.072  29.236  27.655  1.00  0.00     0.049 A 
ATOM     63  C   UNL A   1      46.101  28.620  31.854  1.00  0.00     0.074 A 
ATOM     64  C   UNL A   1      42.638  29.702  26.485  1.00  0.00     0.029 A 
ATOM     65  N   UNL A   1      42.658  29.952  28.676  1.00  0.00    -0.354 N 
ATOM     66  N   UNL A   1      46.319  29.648  31.076  1.00  0.00    -0.248 NA
ATOM     67  C   UNL A   1      44.699  28.355  32.152  1.00  0.00     0.031 C 
ATOM     68  C   UNL A   1      43.854  30.327  26.888  1.00  0.00     0.029 A 
ATOM     69  C   UNL A   1      43.929  30.277  28.281  1.00  0.00     0.049 A 
ATOM     70  H   UNL A   1      42.239  30.188  29.536  1.00  0.00     0.167 HD
ATOM     71  C   UNL A   1      45.105  29.878  30.440  1.00  0.00     0.074 A 
ATOM     72  C   UNL A   1      44.125  29.103  31.202  1.00  0.00     0.031 C 
ATOM     73  C   UNL A   1      45.045  30.433  29.192  1.00  0.00     0.031 A 
BRANCH  60  74
ATOM     74  C   UNL A   1      40.210  28.090  29.016  1.00  0.00    -0.014 A 
ATOM     75  C   UNL A   1      39.055  28.815  28.663  1.00  0.00     0.010 A 
ATOM     76  C   UNL A   1      40.355  27.725  30.370  1.00  0.00     0.010 A 
ATOM     77  C   UNL A   1      38.152  29.247  29.637  1.00  0.00     0.020 A 
ATOM     78  C   UNL A   1      39.434  28.111  31.342  1.00  0.00     0.020 A 
ATOM     79  C   UNL A   1      38.360  28.907  30.973  1.00  0.00     0.054 A 
BRANCH  79  80
ATOM     80  S   UNL A   1      37.257  29.581  32.235  1.00  0.00     0.124 S 
ATOM     81  O   UNL A   1      37.244  28.507  33.223  1.00  0.00    -0.237 OA
ATOM     82  O   UNL A   1      37.955  30.801  32.629  1.00  0.00    -0.237 OA
ATOM     83  O   UNL A   1      36.002  29.787  31.515  1.00  0.00    -0.744 OA
ENDBRANCH  79  80
ENDBRANCH  60  74
BRANCH  61  84
ATOM     84  C   UNL A   1      47.476  26.920  33.315  1.00  0.00    -0.014 A 
ATOM     85  C   UNL A   1      47.575  27.714  34.474  1.00  0.00     0.010 A 
ATOM     86  C   UNL A   1      47.520  25.520  33.489  1.00  0.00     0.010 A 
ATOM     87  C   UNL A   1      47.665  27.127  35.754  1.00  0.00     0.020 A 
ATOM     88  C   UNL A   1      47.617  24.929  34.755  1.00  0.00     0.020 A 
ATOM     89  C   UNL A   1      47.667  25.736  35.886  1.00  0.00     0.054 A 
BRANCH  89  90
ATOM     90  S   UNL A   1      47.632  24.979  37.540  1.00  0.00     0.124 S 
ATOM     91  O   UNL A   1      47.934  26.112  38.409  1.00  0.00    -0.237 OA
ATOM     92  O   UNL A   1      46.269  24.463  37.624  1.00  0.00    -0.237 OA
ATOM     93  O   UNL A   1      48.675  23.957  37.475  1.00  0.00    -0.744 OA
ENDBRANCH  89  90
ENDBRANCH  61  84
BRANCH  73  94
ATOM     94  C   UNL A   1      46.284  31.065  28.602  1.00  0.00    -0.014 A 
ATOM     95  C   UNL A   1      47.239  30.367  27.837  1.00  0.00     0.010 A 
ATOM     96  C   UNL A   1      46.372  32.469  28.663  1.00  0.00     0.010 A 
ATOM     97  C   UNL A   1      48.259  31.060  27.162  1.00  0.00     0.020 A 
ATOM     98  C   UNL A   1      47.369  33.164  27.979  1.00  0.00     0.020 A 
ATOM     99  C   UNL A   1      48.313  32.456  27.234  1.00  0.00     0.054 A 
BRANCH  99 100
ATOM    100  S   UNL A   1      49.595  33.355  26.316  1.00  0.00     0.124 S 
ATOM    101  O   UNL A   1      50.452  32.278  25.828  1.00  0.00    -0.237 OA
ATOM    102  O   UNL A   1      48.828  34.061  25.292  1.00  0.00    -0.237 OA
ATOM    103  O   UNL A   1      50.206  34.221  27.324  1.00  0.00    -0.744 OA
ENDBRANCH  99 100
ENDBRANCH  73  94
ENDBRANCH  47  48
ENDBRANCH  40  42
ENDBRANCH  39  40
ENDBRANCH  38  39
ENDBRANCH  37  38
ENDBRANCH  36  37
ENDBRANCH  35  36
ENDBRANCH  34  35
ENDBRANCH   1  34
TORSDOF 28
ENDMDL
MODEL 2
REMARK VINA RESULT:      -9.4      3.033      8.428
REMARK SMILES CCc1nc2sc(C(=O)NCC(=O)OCCOCCOCCOCCOC(=O)c3ccc(-c4c5nc(c(-c6ccc(S(=O)(=O)[O-])cc6)c6ccc([nH]6)c(-c6ccc(S(=O)(=O)[O-])cc6)c6nc(c(-c7ccc(S(=O)(=O)[O-])cc7)c7ccc4[nH]7)C=C6)C=C5)cc3)c(N)c2c(C(F)(F)F)c1C
REMARK SMILES IDX 20 1 19 2 18 3 17 4 16 5 15 6 14 7 12 8 13 9 11 10 10 11
REMARK SMILES IDX 8 12 9 13 7 15 3 16 4 17 97 18 5 19 92 20 98 21 6 22 91 23
REMARK SMILES IDX 89 24 2 25 1 26 93 27 94 28 95 29 96 30 90 31 21 34 22 35
REMARK SMILES IDX 23 36 24 37 25 38 26 39 27 40 28 41 29 42 30 43 88 44 31 45
REMARK SMILES IDX 87 46 32 47 33 48 34 49 81 50 35 51 86 52 80 53 82 54 36 55
REMARK SMILES IDX 85 56 79 57 78 58 37 60 67 61 48 62 66 63 49 64 52 65 65 66
REMARK SMILES IDX 83 67 50 68 51 69 64 71 84 72 53 73 38 74 39 75 47 76 40 77
REMARK SMILES IDX 46 78 41 79 42 80 43 81 44 82 45 83 68 84 69 85 77 86 70 87
REMARK SMILES IDX 76 88 71 89 72 90 73 91 74 92 75 93 54 94 55 95 63 96 56 97
REMARK SMILES IDX 62 98 57 99 58 100 59 101 60 102 61 103
REMARK H PARENT 10 14 90 32 90 33 82 59 52 70
REMARK Flexibility Score: inf
ROOT
ATOM      1  O   UNL A   1      39.479  23.719  26.354  1.00  0.00    -0.377 OA
ENDROOT
BRANCH   1   2
ATOM      2  C   UNL A   1      38.191  24.205  26.650  1.00  0.00     0.188 C 
BRANCH   2   3
ATOM      3  C   UNL A   1      37.021  23.527  25.897  1.00  0.00     0.188 C 
BRANCH   3   4
ATOM      4  O   UNL A   1      35.679  23.981  26.033  1.00  0.00    -0.376 OA
BRANCH   4   5
ATOM      5  C   UNL A   1      35.165  25.009  25.201  1.00  0.00     0.202 C 
BRANCH   5   6
ATOM      6  C   UNL A   1      34.398  26.188  25.827  1.00  0.00     0.261 C 
BRANCH   6   7
ATOM      7  O   UNL A   1      33.148  26.538  25.199  1.00  0.00    -0.462 OA
BRANCH   7   8
ATOM      8  C   UNL A   1      33.196  27.562  24.307  1.00  0.00     0.325 C 
ATOM      9  O   UNL A   1      34.211  28.220  24.078  1.00  0.00    -0.250 OA
BRANCH   8  10
ATOM     10  C   UNL A   1      31.885  27.752  23.497  1.00  0.00     0.239 C 
BRANCH  10  11
ATOM     11  N   UNL A   1      31.803  27.218  22.146  1.00  0.00    -0.340 N 
ATOM     12  C   UNL A   1      31.793  25.925  21.684  1.00  0.00     0.264 C 
ATOM     13  O   UNL A   1      31.472  25.821  20.494  1.00  0.00    -0.268 OA
ATOM     14  H   UNL A   1      31.744  27.904  21.442  1.00  0.00     0.164 HD
BRANCH  12  15
ATOM     15  C   UNL A   1      32.152  24.781  22.517  1.00  0.00     0.118 A 
ATOM     16  C   UNL A   1      34.138  21.087  24.703  1.00  0.00     0.045 A 
ATOM     17  N   UNL A   1      34.290  21.815  23.566  1.00  0.00    -0.242 NA
ATOM     18  C   UNL A   1      33.157  21.366  25.677  1.00  0.00    -0.017 A 
ATOM     19  C   UNL A   1      33.432  22.823  23.379  1.00  0.00     0.127 A 
ATOM     20  C   UNL A   1      32.291  22.471  25.466  1.00  0.00     0.073 A 
ATOM     21  C   UNL A   1      32.939  20.607  26.954  1.00  0.00     0.047 C 
ATOM     22  S   UNL A   1      33.503  23.817  22.001  1.00  0.00    -0.108 S 
ATOM     23  C   UNL A   1      32.430  23.181  24.246  1.00  0.00     0.048 A 
ATOM     24  C   UNL A   1      31.672  24.249  23.696  1.00  0.00     0.066 A 
BRANCH  16  25
ATOM     25  C   UNL A   1      35.212  20.025  24.746  1.00  0.00     0.053 C 
ATOM     26  C   UNL A   1      34.905  18.555  24.561  1.00  0.00     0.011 C 
ENDBRANCH  16  25
BRANCH  20  27
ATOM     27  C   UNL A   1      31.235  22.921  26.466  1.00  0.00     0.417 C 
ATOM     28  F   UNL A   1      31.520  22.516  27.743  1.00  0.00    -0.166 F 
ATOM     29  F   UNL A   1      31.129  24.284  26.525  1.00  0.00    -0.166 F 
ATOM     30  F   UNL A   1      29.963  22.486  26.262  1.00  0.00    -0.166 F 
ENDBRANCH  20  27
BRANCH  24  31
ATOM     31  N   UNL A   1      30.588  24.641  24.375  1.00  0.00    -0.397 N 
ATOM     32  H   UNL A   1      30.688  25.074  25.254  1.00  0.00     0.156 HD
ATOM     33  H   UNL A   1      29.690  24.496  23.997  1.00  0.00     0.156 HD
ENDBRANCH  24  31
ENDBRANCH  12  15
ENDBRANCH  10  11
ENDBRANCH   8  10
ENDBRANCH   7   8
ENDBRANCH   6   7
ENDBRANCH   5   6
ENDBRANCH   4   5
ENDBRANCH   3   4
ENDBRANCH   2   3
ENDBRANCH   1   2
BRANCH   1  34
ATOM     34  C   UNL A   1      39.665  22.322  26.525  1.00  0.00     0.188 C 
BRANCH  34  35
ATOM     35  C   UNL A   1      40.579  21.857  27.686  1.00  0.00     0.188 C 
BRANCH  35  36
ATOM     36  O   UNL A   1      41.841  21.312  27.311  1.00  0.00    -0.376 OA
BRANCH  36  37
ATOM     37  C   UNL A   1      42.205  21.006  25.972  1.00  0.00     0.202 C 
BRANCH  37  38
ATOM     38  C   UNL A   1      43.427  21.673  25.330  1.00  0.00     0.261 C 
BRANCH  38  39
ATOM     39  O   UNL A   1      43.129  22.795  24.527  1.00  0.00    -0.460 OA
BRANCH  39  40
ATOM     40  C   UNL A   1      43.737  23.926  24.934  1.00  0.00     0.338 C 
ATOM     41  O   UNL A   1      44.840  24.322  24.619  1.00  0.00    -0.246 OA
BRANCH  40  42
ATOM     42  C   UNL A   1      42.878  24.574  25.923  1.00  0.00     0.060 A 
ATOM     43  C   UNL A   1      41.982  25.509  25.413  1.00  0.00     0.016 A 
ATOM     44  C   UNL A   1      43.235  24.514  27.279  1.00  0.00     0.016 A 
ATOM     45  C   UNL A   1      41.681  26.581  26.211  1.00  0.00     0.010 A 
ATOM     46  C   UNL A   1      42.931  25.586  28.074  1.00  0.00     0.010 A 
ATOM     47  C   UNL A   1      42.260  26.651  27.485  1.00  0.00    -0.014 A 
BRANCH  47  48
ATOM     48  C   UNL A   1      42.089  27.878  28.216  1.00  0.00     0.031 A 
ATOM     49  C   UNL A   1      43.189  28.822  27.967  1.00  0.00     0.074 A 
ATOM     50  C   UNL A   1      41.035  28.112  29.017  1.00  0.00     0.049 A 
ATOM     51  N   UNL A   1      44.186  29.051  28.748  1.00  0.00    -0.248 NA
ATOM     52  C   UNL A   1      43.331  29.379  26.614  1.00  0.00     0.031 C 
ATOM     53  C   UNL A   1      39.790  27.353  29.152  1.00  0.00     0.029 A 
ATOM     54  N   UNL A   1      40.827  29.178  29.829  1.00  0.00    -0.354 N 
ATOM     55  C   UNL A   1      44.957  29.992  28.087  1.00  0.00     0.074 A 
ATOM     56  C   UNL A   1      44.515  29.983  26.715  1.00  0.00     0.031 C 
ATOM     57  C   UNL A   1      38.871  28.125  29.780  1.00  0.00     0.029 A 
ATOM     58  C   UNL A   1      39.506  29.363  30.206  1.00  0.00     0.049 A 
ATOM     59  H   UNL A   1      41.554  29.772  30.125  1.00  0.00     0.167 HD
ATOM     60  C   UNL A   1      45.680  30.905  28.789  1.00  0.00     0.031 A 
ATOM     61  C   UNL A   1      38.978  30.498  30.737  1.00  0.00     0.031 A 
ATOM     62  C   UNL A   1      45.803  30.534  30.177  1.00  0.00     0.049 A 
ATOM     63  C   UNL A   1      40.112  31.259  31.333  1.00  0.00     0.074 A 
ATOM     64  C   UNL A   1      46.312  29.441  30.849  1.00  0.00     0.029 A 
ATOM     65  N   UNL A   1      44.976  31.181  31.069  1.00  0.00    -0.354 N 
ATOM     66  N   UNL A   1      40.796  30.825  32.358  1.00  0.00    -0.248 NA
ATOM     67  C   UNL A   1      40.807  32.222  30.488  1.00  0.00     0.031 C 
ATOM     68  C   UNL A   1      45.415  29.224  31.934  1.00  0.00     0.029 A 
ATOM     69  C   UNL A   1      44.453  30.236  31.913  1.00  0.00     0.049 A 
ATOM     70  H   UNL A   1      44.793  32.148  31.097  1.00  0.00     0.167 HD
ATOM     71  C   UNL A   1      42.121  31.102  32.047  1.00  0.00     0.074 A 
ATOM     72  C   UNL A   1      42.059  32.035  30.920  1.00  0.00     0.031 C 
ATOM     73  C   UNL A   1      43.145  30.335  32.529  1.00  0.00     0.031 A 
BRANCH  60  74
ATOM     74  C   UNL A   1      45.848  32.330  28.332  1.00  0.00    -0.014 A 
ATOM     75  C   UNL A   1      47.157  32.830  28.198  1.00  0.00     0.010 A 
ATOM     76  C   UNL A   1      44.795  33.269  28.338  1.00  0.00     0.010 A 
ATOM     77  C   UNL A   1      47.405  34.205  28.185  1.00  0.00     0.020 A 
ATOM     78  C   UNL A   1      45.029  34.641  28.277  1.00  0.00     0.020 A 
ATOM     79  C   UNL A   1      46.337  35.100  28.244  1.00  0.00     0.054 A 
BRANCH  79  80
ATOM     80  S   UNL A   1      46.679  36.870  28.357  1.00  0.00     0.124 S 
ATOM     81  O   UNL A   1      45.338  37.439  28.266  1.00  0.00    -0.237 OA
ATOM     82  O   UNL A   1      47.327  36.972  29.662  1.00  0.00    -0.237 OA
ATOM     83  O   UNL A   1      47.549  37.123  27.211  1.00  0.00    -0.744 OA
ENDBRANCH  79  80
ENDBRANCH  60  74
BRANCH  61  84
ATOM     84  C   UNL A   1      37.664  31.111  30.382  1.00  0.00    -0.014 A 
ATOM     85  C   UNL A   1      36.778  31.586  31.368  1.00  0.00     0.010 A 
ATOM     86  C   UNL A   1      37.388  31.466  29.045  1.00  0.00     0.010 A 
ATOM     87  C   UNL A   1      35.692  32.420  31.031  1.00  0.00     0.020 A 
ATOM     88  C   UNL A   1      36.307  32.286  28.700  1.00  0.00     0.020 A 
ATOM     89  C   UNL A   1      35.475  32.779  29.698  1.00  0.00     0.054 A 
BRANCH  89  90
ATOM     90  S   UNL A   1      34.167  33.972  29.279  1.00  0.00     0.124 S 
ATOM     91  O   UNL A   1      33.625  34.317  30.590  1.00  0.00    -0.237 OA
ATOM     92  O   UNL A   1      34.909  35.032  28.603  1.00  0.00    -0.237 OA
ATOM     93  O   UNL A   1      33.264  33.208  28.420  1.00  0.00    -0.744 OA
ENDBRANCH  89  90
ENDBRANCH  61  84
BRANCH  73  94
ATOM     94  C   UNL A   1      42.871  29.345  33.638  1.00  0.00    -0.014 A 
ATOM     95  C   UNL A   1      42.614  29.708  34.975  1.00  0.00     0.010 A 
ATOM     96  C   UNL A   1      42.670  28.005  33.258  1.00  0.00     0.010 A 
ATOM     97  C   UNL A   1      42.178  28.749  35.904  1.00  0.00     0.020 A 
ATOM     98  C   UNL A   1      42.219  27.052  34.172  1.00  0.00     0.020 A 
ATOM     99  C   UNL A   1      41.980  27.426  35.493  1.00  0.00     0.054 A 
BRANCH  99 100
ATOM    100  S   UNL A   1      41.363  26.199  36.680  1.00  0.00     0.124 S 
ATOM    101  O   UNL A   1      40.656  25.252  35.822  1.00  0.00    -0.237 OA
ATOM    102  O   UNL A   1      42.589  25.695  37.294  1.00  0.00    -0.237 OA
ATOM    103  O   UNL A   1      40.508  26.977  37.576  1.00  0.00    -0.744 OA
ENDBRANCH  99 100
ENDBRANCH  73  94
ENDBRANCH  47  48
ENDBRANCH  40  42
ENDBRANCH  39  40
ENDBRANCH  38  39
ENDBRANCH  37  38
ENDBRANCH  36  37
ENDBRANCH  35  36
ENDBRANCH  34  35
ENDBRANCH   1  34
TORSDOF 28
ENDMDL
MODEL 3
REMARK VINA RESULT:      -8.4      4.056      6.569
REMARK SMILES CCc1nc2sc(C(=O)NCC(=O)OCCOCCOCCOCCOC(=O)c3ccc(-c4c5nc(c(-c6ccc(S(=O)(=O)[O-])cc6)c6ccc([nH]6)c(-c6ccc(S(=O)(=O)[O-])cc6)c6nc(c(-c7ccc(S(=O)(=O)[O-])cc7)c7ccc4[nH]7)C=C6)C=C5)cc3)c(N)c2c(C(F)(F)F)c1C
REMARK SMILES IDX 20 1 19 2 18 3 17 4 16 5 15 6 14 7 12 8 13 9 11 10 10 11
REMARK SMILES IDX 8 12 9 13 7 15 3 16 4 17 97 18 5 19 92 20 98 21 6 22 91 23
REMARK SMILES IDX 89 24 2 25 1 26 93 27 94 28 95 29 96 30 90 31 21 34 22 35
REMARK SMILES IDX 23 36 24 37 25 38 26 39 27 40 28 41 29 42 30 43 88 44 31 45
REMARK SMILES IDX 87 46 32 47 33 48 34 49 81 50 35 51 86 52 80 53 82 54 36 55
REMARK SMILES IDX 85 56 79 57 78 58 37 60 67 61 48 62 66 63 49 64 52 65 65 66
REMARK SMILES IDX 83 67 50 68 51 69 64 71 84 72 53 73 38 74 39 75 47 76 40 77
REMARK SMILES IDX 46 78 41 79 42 80 43 81 44 82 45 83 68 84 69 85 77 86 70 87
REMARK SMILES IDX 76 88 71 89 72 90 73 91 74 92 75 93 54 94 55 95 63 96 56 97
REMARK SMILES IDX 62 98 57 99 58 100 59 101 60 102 61 103
REMARK H PARENT 10 14 90 32 90 33 82 59 52 70
REMARK Flexibility Score: inf
ROOT
ATOM      1  O   UNL A   1      33.719  23.262  25.677  1.00  0.00    -0.377 OA
ENDROOT
BRANCH   1   2
ATOM      2  C   UNL A   1      33.897  24.111  24.568  1.00  0.00     0.188 C 
BRANCH   2   3
ATOM      3  C   UNL A   1      33.612  23.486  23.182  1.00  0.00     0.188 C 
BRANCH   3   4
ATOM      4  O   UNL A   1      33.869  24.191  21.973  1.00  0.00    -0.376 OA
BRANCH   4   5
ATOM      5  C   UNL A   1      32.849  24.940  21.331  1.00  0.00     0.202 C 
BRANCH   5   6
ATOM      6  C   UNL A   1      32.368  26.266  21.948  1.00  0.00     0.261 C 
BRANCH   6   7
ATOM      7  O   UNL A   1      33.315  27.352  21.939  1.00  0.00    -0.462 OA
BRANCH   7   8
ATOM      8  C   UNL A   1      33.380  28.095  23.075  1.00  0.00     0.325 C 
ATOM      9  O   UNL A   1      34.410  28.636  23.478  1.00  0.00    -0.250 OA
BRANCH   8  10
ATOM     10  C   UNL A   1      32.005  28.315  23.761  1.00  0.00     0.239 C 
BRANCH  10  11
ATOM     11  N   UNL A   1      31.721  27.635  25.015  1.00  0.00    -0.340 N 
ATOM     12  C   UNL A   1      31.878  28.040  26.319  1.00  0.00     0.264 C 
ATOM     13  O   UNL A   1      31.315  27.309  27.142  1.00  0.00    -0.268 OA
ATOM     14  H   UNL A   1      31.353  26.728  24.912  1.00  0.00     0.164 HD
BRANCH  12  15
ATOM     15  C   UNL A   1      32.659  29.214  26.698  1.00  0.00     0.118 A 
ATOM     16  C   UNL A   1      34.320  33.424  28.070  1.00  0.00     0.045 A 
ATOM     17  N   UNL A   1      33.161  32.866  27.634  1.00  0.00    -0.242 NA
ATOM     18  C   UNL A   1      35.509  32.691  28.263  1.00  0.00    -0.017 A 
ATOM     19  C   UNL A   1      33.191  31.559  27.355  1.00  0.00     0.127 A 
ATOM     20  C   UNL A   1      35.493  31.296  27.998  1.00  0.00     0.073 A 
ATOM     21  C   UNL A   1      36.820  33.242  28.745  1.00  0.00     0.047 C 
ATOM     22  S   UNL A   1      31.815  30.730  26.799  1.00  0.00    -0.108 S 
ATOM     23  C   UNL A   1      34.288  30.746  27.488  1.00  0.00     0.048 A 
ATOM     24  C   UNL A   1      33.977  29.436  27.037  1.00  0.00     0.066 A 
BRANCH  16  25
ATOM     25  C   UNL A   1      34.076  34.887  28.360  1.00  0.00     0.053 C 
ATOM     26  C   UNL A   1      33.733  35.392  29.744  1.00  0.00     0.011 C 
ENDBRANCH  16  25
BRANCH  20  27
ATOM     27  C   UNL A   1      36.685  30.377  28.225  1.00  0.00     0.417 C 
ATOM     28  F   UNL A   1      36.375  29.314  29.033  1.00  0.00    -0.166 F 
ATOM     29  F   UNL A   1      37.148  29.833  27.059  1.00  0.00    -0.166 F 
ATOM     30  F   UNL A   1      37.784  30.922  28.811  1.00  0.00    -0.166 F 
ENDBRANCH  20  27
BRANCH  24  31
ATOM     31  N   UNL A   1      34.979  28.549  27.001  1.00  0.00    -0.397 N 
ATOM     32  H   UNL A   1      34.783  27.584  27.027  1.00  0.00     0.156 HD
ATOM     33  H   UNL A   1      35.912  28.861  26.948  1.00  0.00     0.156 HD
ENDBRANCH  24  31
ENDBRANCH  12  15
ENDBRANCH  10  11
ENDBRANCH   8  10
ENDBRANCH   7   8
ENDBRANCH   6   7
ENDBRANCH   5   6
ENDBRANCH   4   5
ENDBRANCH   3   4
ENDBRANCH   2   3
ENDBRANCH   1   2
BRANCH   1  34
ATOM     34  C   UNL A   1      34.850  23.105  26.521  1.00  0.00     0.188 C 
BRANCH  34  35
ATOM     35  C   UNL A   1      36.251  23.262  25.880  1.00  0.00     0.188 C 
BRANCH  35  36
ATOM     36  O   UNL A   1      37.165  22.192  26.098  1.00  0.00    -0.376 OA
BRANCH  36  37
ATOM     37  C   UNL A   1      38.536  22.233  25.727  1.00  0.00     0.202 C 
BRANCH  37  38
ATOM     38  C   UNL A   1      39.570  22.883  26.654  1.00  0.00     0.261 C 
BRANCH  38  39
ATOM     39  O   UNL A   1      39.648  24.289  26.552  1.00  0.00    -0.460 OA
BRANCH  39  40
ATOM     40  C   UNL A   1      39.229  24.933  27.658  1.00  0.00     0.338 C 
ATOM     41  O   UNL A   1      38.332  24.606  28.405  1.00  0.00    -0.246 OA
BRANCH  40  42
ATOM     42  C   UNL A   1      39.982  26.182  27.769  1.00  0.00     0.060 A 
ATOM     43  C   UNL A   1      41.348  26.037  27.990  1.00  0.00     0.016 A 
ATOM     44  C   UNL A   1      39.288  27.377  28.016  1.00  0.00     0.016 A 
ATOM     45  C   UNL A   1      41.959  26.997  28.752  1.00  0.00     0.010 A 
ATOM     46  C   UNL A   1      39.903  28.334  28.776  1.00  0.00     0.010 A 
ATOM     47  C   UNL A   1      41.189  28.067  29.226  1.00  0.00    -0.014 A 
BRANCH  47  48
ATOM     48  C   UNL A   1      41.806  28.944  30.185  1.00  0.00     0.031 A 
ATOM     49  C   UNL A   1      40.813  29.760  30.900  1.00  0.00     0.074 A 
ATOM     50  C   UNL A   1      43.134  28.987  30.390  1.00  0.00     0.049 A 
ATOM     51  N   UNL A   1      40.530  30.994  30.664  1.00  0.00    -0.248 NA
ATOM     52  C   UNL A   1      39.866  29.075  31.792  1.00  0.00     0.031 C 
ATOM     53  C   UNL A   1      44.173  28.072  29.912  1.00  0.00     0.029 A 
ATOM     54  N   UNL A   1      43.828  29.841  31.183  1.00  0.00    -0.354 N 
ATOM     55  C   UNL A   1      39.535  31.319  31.570  1.00  0.00     0.074 A 
ATOM     56  C   UNL A   1      39.020  30.068  32.068  1.00  0.00     0.031 C 
ATOM     57  C   UNL A   1      45.298  28.267  30.639  1.00  0.00     0.029 A 
ATOM     58  C   UNL A   1      45.097  29.403  31.526  1.00  0.00     0.049 A 
ATOM     59  H   UNL A   1      43.459  30.701  31.489  1.00  0.00     0.167 HD
ATOM     60  C   UNL A   1      39.431  32.585  32.054  1.00  0.00     0.031 A 
ATOM     61  C   UNL A   1      45.865  29.892  32.536  1.00  0.00     0.031 A 
ATOM     62  C   UNL A   1      40.197  33.520  31.267  1.00  0.00     0.049 A 
ATOM     63  C   UNL A   1      45.371  31.269  32.821  1.00  0.00     0.074 A 
ATOM     64  C   UNL A   1      40.198  33.900  29.940  1.00  0.00     0.029 A 
ATOM     65  N   UNL A   1      41.414  33.913  31.779  1.00  0.00    -0.354 N 
ATOM     66  N   UNL A   1      45.471  32.250  31.963  1.00  0.00    -0.248 NA
ATOM     67  C   UNL A   1      44.320  31.424  33.819  1.00  0.00     0.031 C 
ATOM     68  C   UNL A   1      41.572  34.073  29.606  1.00  0.00     0.029 A 
ATOM     69  C   UNL A   1      42.330  33.864  30.761  1.00  0.00     0.049 A 
ATOM     70  H   UNL A   1      41.595  34.181  32.709  1.00  0.00     0.167 HD
ATOM     71  C   UNL A   1      44.249  32.908  32.028  1.00  0.00     0.074 A 
ATOM     72  C   UNL A   1      43.611  32.404  33.245  1.00  0.00     0.031 C 
ATOM     73  C   UNL A   1      43.738  33.575  30.950  1.00  0.00     0.031 A 
BRANCH  60  74
ATOM     74  C   UNL A   1      39.045  32.880  33.479  1.00  0.00    -0.014 A 
ATOM     75  C   UNL A   1      39.919  32.461  34.500  1.00  0.00     0.010 A 
ATOM     76  C   UNL A   1      37.740  33.256  33.860  1.00  0.00     0.010 A 
ATOM     77  C   UNL A   1      39.473  32.320  35.816  1.00  0.00     0.020 A 
ATOM     78  C   UNL A   1      37.299  33.165  35.178  1.00  0.00     0.020 A 
ATOM     79  C   UNL A   1      38.159  32.655  36.140  1.00  0.00     0.054 A 
BRANCH  79  80
ATOM     80  S   UNL A   1      37.560  32.345  37.816  1.00  0.00     0.124 S 
ATOM     81  O   UNL A   1      37.484  30.887  37.839  1.00  0.00    -0.237 OA
ATOM     82  O   UNL A   1      38.615  32.941  38.631  1.00  0.00    -0.237 OA
ATOM     83  O   UNL A   1      36.277  33.042  37.855  1.00  0.00    -0.744 OA
ENDBRANCH  79  80
ENDBRANCH  60  74
BRANCH  61  84
ATOM     84  C   UNL A   1      46.679  29.089  33.495  1.00  0.00    -0.014 A 
ATOM     85  C   UNL A   1      46.858  29.492  34.832  1.00  0.00     0.010 A 
ATOM     86  C   UNL A   1      47.076  27.777  33.160  1.00  0.00     0.010 A 
ATOM     87  C   UNL A   1      47.367  28.601  35.800  1.00  0.00     0.020 A 
ATOM     88  C   UNL A   1      47.590  26.889  34.112  1.00  0.00     0.020 A 
ATOM     89  C   UNL A   1      47.714  27.298  35.435  1.00  0.00     0.054 A 
BRANCH  89  90
ATOM     90  S   UNL A   1      48.229  26.103  36.708  1.00  0.00     0.124 S 
ATOM     91  O   UNL A   1      48.123  26.887  37.934  1.00  0.00    -0.237 OA
ATOM     92  O   UNL A   1      47.248  25.033  36.554  1.00  0.00    -0.237 OA
ATOM     93  O   UNL A   1      49.593  25.749  36.317  1.00  0.00    -0.744 OA
ENDBRANCH  89  90
ENDBRANCH  61  84
BRANCH  73  94
ATOM     94  C   UNL A   1      44.625  33.847  29.757  1.00  0.00    -0.014 A 
ATOM     95  C   UNL A   1      44.956  32.884  28.783  1.00  0.00     0.010 A 
ATOM     96  C   UNL A   1      44.970  35.189  29.515  1.00  0.00     0.010 A 
ATOM     97  C   UNL A   1      45.624  33.259  27.606  1.00  0.00     0.020 A 
ATOM     98  C   UNL A   1      45.615  35.572  28.339  1.00  0.00     0.020 A 
ATOM     99  C   UNL A   1      45.945  34.604  27.390  1.00  0.00     0.054 A 
BRANCH  99 100
ATOM    100  S   UNL A   1      46.757  35.098  25.843  1.00  0.00     0.124 S 
ATOM    101  O   UNL A   1      48.093  34.528  25.989  1.00  0.00    -0.237 OA
ATOM    102  O   UNL A   1      45.916  34.476  24.822  1.00  0.00    -0.237 OA
ATOM    103  O   UNL A   1      46.702  36.559  25.870  1.00  0.00    -0.744 OA
ENDBRANCH  99 100
ENDBRANCH  73  94
ENDBRANCH  47  48
ENDBRANCH  40  42
ENDBRANCH  39  40
ENDBRANCH  38  39
ENDBRANCH  37  38
ENDBRANCH  36  37
ENDBRANCH  35  36
ENDBRANCH  34  35
ENDBRANCH   1  34
TORSDOF 28
ENDMDL
