MODEL 1
REMARK VINA RESULT:      -6.3      0.000      0.000
REMARK SMILES O=C(/C=C/c1ccccc1Oc1cccc(Cl)c1)OCCOCCOCCOCCOC(=O)c1ccc(-c2c3nc(c(-c4ccc(S(=O)(=O)[O-])cc4)c4ccc([nH]4)c(-c4ccc(S(=O)(=O)[O-])cc4)c4nc(c(-c5ccc(S(=O)(=O)[O-])cc5)c5ccc2[nH]5)C=C4)C=C3)cc1
REMARK SMILES IDX 25 1 24 2 23 3 22 4 21 5 20 6 19 7 2 8 1 9 3 10 4 11 5 12
REMARK SMILES IDX 6 13 10 14 7 15 9 16 8 17 11 18 12 19 13 20 18 21 14 22
REMARK SMILES IDX 16 23 15 24 17 25 26 26 27 27 28 28 29 29 30 30 31 31 32 32
REMARK SMILES IDX 33 33 34 34 35 35 93 36 36 37 92 38 37 39 38 40 39 41 86 42
REMARK SMILES IDX 40 43 91 44 85 45 87 46 41 47 90 48 84 49 83 50 42 52 72 53
REMARK SMILES IDX 53 54 71 55 54 56 57 57 70 58 88 59 55 60 56 61 69 63 89 64
REMARK SMILES IDX 58 65 43 66 44 67 52 68 45 69 51 70 46 71 47 72 48 73 49 74
REMARK SMILES IDX 50 75 73 76 74 77 82 78 75 79 81 80 76 81 77 82 78 83 79 84
REMARK SMILES IDX 80 85 59 86 60 87 68 88 61 89 67 90 62 91 63 92 64 93 65 94
REMARK SMILES IDX 66 95
REMARK H PARENT 87 51 57 62
REMARK Flexibility Score: inf
ROOT
ATOM      1  O   UNL A   1      37.419  29.285  28.775  1.00  0.00    -0.377 OA
ENDROOT
BRANCH   1   2
ATOM      2  C   UNL A   1      38.709  29.729  28.393  1.00  0.00     0.188 C 
BRANCH   2   3
ATOM      3  C   UNL A   1      39.893  29.192  29.199  1.00  0.00     0.188 C 
BRANCH   3   4
ATOM      4  O   UNL A   1      39.815  28.561  30.478  1.00  0.00    -0.376 OA
BRANCH   4   5
ATOM      5  C   UNL A   1      39.524  29.109  31.750  1.00  0.00     0.202 C 
BRANCH   5   6
ATOM      6  C   UNL A   1      40.189  28.669  33.052  1.00  0.00     0.261 C 
BRANCH   6   7
ATOM      7  O   UNL A   1      40.078  29.548  34.158  1.00  0.00    -0.460 OA
BRANCH   7   8
ATOM      8  C   UNL A   1      40.902  29.533  35.220  1.00  0.00     0.330 C 
ATOM      9  O   UNL A   1      40.545  30.076  36.261  1.00  0.00    -0.247 OA
BRANCH   8  10
ATOM     10  C   UNL A   1      42.315  29.130  35.058  1.00  0.00     0.094 C 
ATOM     11  C   UNL A   1      43.162  28.417  35.811  1.00  0.00     0.019 C 
BRANCH  11  12
ATOM     12  C   UNL A   1      44.476  28.024  35.261  1.00  0.00     0.017 A 
ATOM     13  C   UNL A   1      45.030  28.931  34.328  1.00  0.00     0.012 A 
ATOM     14  C   UNL A   1      45.199  26.852  35.554  1.00  0.00     0.134 A 
ATOM     15  C   UNL A   1      46.228  28.667  33.662  1.00  0.00     0.001 A 
ATOM     16  C   UNL A   1      46.395  26.590  34.859  1.00  0.00     0.048 A 
ATOM     17  C   UNL A   1      46.903  27.483  33.916  1.00  0.00     0.004 A 
BRANCH  14  18
ATOM     18  O   UNL A   1      44.825  25.806  36.379  1.00  0.00    -0.457 OA
BRANCH  18  19
ATOM     19  C   UNL A   1      44.556  24.580  35.831  1.00  0.00     0.128 A 
ATOM     20  C   UNL A   1      43.497  24.384  34.938  1.00  0.00     0.047 A 
ATOM     21  C   UNL A   1      45.363  23.510  36.223  1.00  0.00     0.067 A 
ATOM     22  C   UNL A   1      43.302  23.121  34.369  1.00  0.00     0.005 A 
ATOM     23  C   UNL A   1      45.173  22.261  35.640  1.00  0.00     0.044 A 
ATOM     24  C   UNL A   1      44.148  22.062  34.714  1.00  0.00     0.021 A 
ATOM     25  Cl  UNL A   1      46.278  20.990  35.993  1.00  0.00    -0.084 Cl
ENDBRANCH  18  19
ENDBRANCH  14  18
ENDBRANCH  11  12
ENDBRANCH   8  10
ENDBRANCH   7   8
ENDBRANCH   6   7
ENDBRANCH   5   6
ENDBRANCH   4   5
ENDBRANCH   3   4
ENDBRANCH   2   3
ENDBRANCH   1   2
BRANCH   1  26
ATOM     26  C   UNL A   1      36.592  30.342  29.225  1.00  0.00     0.188 C 
BRANCH  26  27
ATOM     27  C   UNL A   1      37.121  31.726  28.797  1.00  0.00     0.188 C 
BRANCH  27  28
ATOM     28  O   UNL A   1      36.255  32.380  27.886  1.00  0.00    -0.376 OA
BRANCH  28  29
ATOM     29  C   UNL A   1      34.886  32.526  28.226  1.00  0.00     0.202 C 
BRANCH  29  30
ATOM     30  C   UNL A   1      34.266  33.855  28.708  1.00  0.00     0.261 C 
BRANCH  30  31
ATOM     31  O   UNL A   1      33.225  33.818  29.691  1.00  0.00    -0.460 OA
BRANCH  31  32
ATOM     32  C   UNL A   1      33.269  34.651  30.753  1.00  0.00     0.338 C 
ATOM     33  O   UNL A   1      32.382  35.392  31.138  1.00  0.00    -0.246 OA
BRANCH  32  34
ATOM     34  C   UNL A   1      34.485  34.267  31.524  1.00  0.00     0.060 A 
ATOM     35  C   UNL A   1      35.364  35.277  31.954  1.00  0.00     0.016 A 
ATOM     36  C   UNL A   1      34.654  32.953  31.977  1.00  0.00     0.016 A 
ATOM     37  C   UNL A   1      36.421  34.971  32.818  1.00  0.00     0.010 A 
ATOM     38  C   UNL A   1      35.733  32.640  32.806  1.00  0.00     0.010 A 
ATOM     39  C   UNL A   1      36.641  33.641  33.199  1.00  0.00    -0.014 A 
BRANCH  39  40
ATOM     40  C   UNL A   1      37.979  33.218  33.679  1.00  0.00     0.031 A 
ATOM     41  C   UNL A   1      38.190  33.256  35.169  1.00  0.00     0.074 A 
ATOM     42  C   UNL A   1      38.988  32.891  32.853  1.00  0.00     0.049 A 
ATOM     43  N   UNL A   1      39.287  33.105  35.860  1.00  0.00    -0.248 NA
ATOM     44  C   UNL A   1      36.992  33.521  35.985  1.00  0.00     0.031 C 
ATOM     45  C   UNL A   1      38.900  32.780  31.400  1.00  0.00     0.029 A 
ATOM     46  N   UNL A   1      40.305  32.623  33.135  1.00  0.00    -0.354 N 
ATOM     47  C   UNL A   1      38.915  33.287  37.187  1.00  0.00     0.074 A 
ATOM     48  C   UNL A   1      37.499  33.567  37.204  1.00  0.00     0.031 C 
ATOM     49  C   UNL A   1      40.123  32.504  30.912  1.00  0.00     0.029 A 
ATOM     50  C   UNL A   1      41.085  32.463  32.013  1.00  0.00     0.049 A 
ATOM     51  H   UNL A   1      40.658  32.552  34.052  1.00  0.00     0.167 HD
ATOM     52  C   UNL A   1      39.686  33.243  38.296  1.00  0.00     0.031 A 
ATOM     53  C   UNL A   1      42.425  32.345  31.892  1.00  0.00     0.031 A 
ATOM     54  C   UNL A   1      41.101  33.012  38.270  1.00  0.00     0.049 A 
ATOM     55  C   UNL A   1      43.284  32.360  33.133  1.00  0.00     0.074 A 
ATOM     56  C   UNL A   1      41.978  32.935  39.335  1.00  0.00     0.029 A 
ATOM     57  N   UNL A   1      41.848  32.845  37.114  1.00  0.00    -0.354 N 
ATOM     58  N   UNL A   1      42.918  32.495  34.387  1.00  0.00    -0.248 NA
ATOM     59  C   UNL A   1      44.734  32.205  32.946  1.00  0.00     0.031 C 
ATOM     60  C   UNL A   1      43.268  32.782  38.817  1.00  0.00     0.029 A 
ATOM     61  C   UNL A   1      43.184  32.692  37.435  1.00  0.00     0.049 A 
ATOM     62  H   UNL A   1      41.482  32.837  36.200  1.00  0.00     0.167 HD
ATOM     63  C   UNL A   1      44.088  32.414  35.138  1.00  0.00     0.074 A 
ATOM     64  C   UNL A   1      45.173  32.216  34.199  1.00  0.00     0.031 C 
ATOM     65  C   UNL A   1      44.248  32.490  36.483  1.00  0.00     0.031 A 
BRANCH  52  66
ATOM     66  C   UNL A   1      39.007  33.532  39.607  1.00  0.00    -0.014 A 
ATOM     67  C   UNL A   1      38.907  34.843  40.109  1.00  0.00     0.010 A 
ATOM     68  C   UNL A   1      38.498  32.465  40.369  1.00  0.00     0.010 A 
ATOM     69  C   UNL A   1      38.367  35.074  41.377  1.00  0.00     0.020 A 
ATOM     70  C   UNL A   1      37.928  32.696  41.623  1.00  0.00     0.020 A 
ATOM     71  C   UNL A   1      37.890  33.997  42.129  1.00  0.00     0.054 A 
BRANCH  71  72
ATOM     72  S   UNL A   1      37.212  34.320  43.780  1.00  0.00     0.124 S 
ATOM     73  O   UNL A   1      35.775  34.327  43.518  1.00  0.00    -0.237 OA
ATOM     74  O   UNL A   1      37.703  33.183  44.555  1.00  0.00    -0.237 OA
ATOM     75  O   UNL A   1      37.786  35.612  44.144  1.00  0.00    -0.744 OA
ENDBRANCH  71  72
ENDBRANCH  52  66
BRANCH  53  76
ATOM     76  C   UNL A   1      43.034  32.242  30.536  1.00  0.00    -0.014 A 
ATOM     77  C   UNL A   1      43.552  33.376  29.889  1.00  0.00     0.010 A 
ATOM     78  C   UNL A   1      43.135  30.989  29.901  1.00  0.00     0.010 A 
ATOM     79  C   UNL A   1      44.170  33.259  28.640  1.00  0.00     0.020 A 
ATOM     80  C   UNL A   1      43.774  30.863  28.664  1.00  0.00     0.020 A 
ATOM     81  C   UNL A   1      44.288  32.001  28.040  1.00  0.00     0.054 A 
BRANCH  81  82
ATOM     82  S   UNL A   1      45.185  31.863  26.468  1.00  0.00     0.124 S 
ATOM     83  O   UNL A   1      46.384  32.654  26.729  1.00  0.00    -0.237 OA
ATOM     84  O   UNL A   1      45.392  30.421  26.352  1.00  0.00    -0.237 OA
ATOM     85  O   UNL A   1      44.257  32.432  25.493  1.00  0.00    -0.744 OA
ENDBRANCH  81  82
ENDBRANCH  53  76
BRANCH  65  86
ATOM     86  C   UNL A   1      45.634  32.310  37.045  1.00  0.00    -0.014 A 
ATOM     87  C   UNL A   1      46.452  33.412  37.346  1.00  0.00     0.010 A 
ATOM     88  C   UNL A   1      46.070  31.016  37.390  1.00  0.00     0.010 A 
ATOM     89  C   UNL A   1      47.687  33.221  37.974  1.00  0.00     0.020 A 
ATOM     90  C   UNL A   1      47.290  30.824  38.042  1.00  0.00     0.020 A 
ATOM     91  C   UNL A   1      48.094  31.929  38.325  1.00  0.00     0.054 A 
BRANCH  91  92
ATOM     92  S   UNL A   1      49.659  31.716  39.215  1.00  0.00     0.124 S 
ATOM     93  O   UNL A   1      50.631  31.709  38.126  1.00  0.00    -0.237 OA
ATOM     94  O   UNL A   1      49.697  32.890  40.084  1.00  0.00    -0.237 OA
ATOM     95  O   UNL A   1      49.494  30.441  39.910  1.00  0.00    -0.744 OA
ENDBRANCH  91  92
ENDBRANCH  65  86
ENDBRANCH  39  40
ENDBRANCH  32  34
ENDBRANCH  31  32
ENDBRANCH  30  31
ENDBRANCH  29  30
ENDBRANCH  28  29
ENDBRANCH  27  28
ENDBRANCH  26  27
ENDBRANCH   1  26
TORSDOF 26
ENDMDL
MODEL 2
REMARK VINA RESULT:      -6.2      2.091      2.840
REMARK SMILES O=C(/C=C/c1ccccc1Oc1cccc(Cl)c1)OCCOCCOCCOCCOC(=O)c1ccc(-c2c3nc(c(-c4ccc(S(=O)(=O)[O-])cc4)c4ccc([nH]4)c(-c4ccc(S(=O)(=O)[O-])cc4)c4nc(c(-c5ccc(S(=O)(=O)[O-])cc5)c5ccc2[nH]5)C=C4)C=C3)cc1
REMARK SMILES IDX 25 1 24 2 23 3 22 4 21 5 20 6 19 7 2 8 1 9 3 10 4 11 5 12
REMARK SMILES IDX 6 13 10 14 7 15 9 16 8 17 11 18 12 19 13 20 18 21 14 22
REMARK SMILES IDX 16 23 15 24 17 25 26 26 27 27 28 28 29 29 30 30 31 31 32 32
REMARK SMILES IDX 33 33 34 34 35 35 93 36 36 37 92 38 37 39 38 40 39 41 86 42
REMARK SMILES IDX 40 43 91 44 85 45 87 46 41 47 90 48 84 49 83 50 42 52 72 53
REMARK SMILES IDX 53 54 71 55 54 56 57 57 70 58 88 59 55 60 56 61 69 63 89 64
REMARK SMILES IDX 58 65 43 66 44 67 52 68 45 69 51 70 46 71 47 72 48 73 49 74
REMARK SMILES IDX 50 75 73 76 74 77 82 78 75 79 81 80 76 81 77 82 78 83 79 84
REMARK SMILES IDX 80 85 59 86 60 87 68 88 61 89 67 90 62 91 63 92 64 93 65 94
REMARK SMILES IDX 66 95
REMARK H PARENT 87 51 57 62
REMARK Flexibility Score: inf
ROOT
ATOM      1  O   UNL A   1      36.663  30.323  29.117  1.00  0.00    -0.377 OA
ENDROOT
BRANCH   1   2
ATOM      2  C   UNL A   1      37.855  30.531  28.379  1.00  0.00     0.188 C 
BRANCH   2   3
ATOM      3  C   UNL A   1      39.155  30.028  29.010  1.00  0.00     0.188 C 
BRANCH   3   4
ATOM      4  O   UNL A   1      39.291  29.484  30.323  1.00  0.00    -0.376 OA
BRANCH   4   5
ATOM      5  C   UNL A   1      39.306  30.129  31.582  1.00  0.00     0.202 C 
BRANCH   5   6
ATOM      6  C   UNL A   1      39.875  29.518  32.859  1.00  0.00     0.261 C 
BRANCH   6   7
ATOM      7  O   UNL A   1      39.917  30.349  34.006  1.00  0.00    -0.460 OA
BRANCH   7   8
ATOM      8  C   UNL A   1      40.653  30.090  35.101  1.00  0.00     0.330 C 
ATOM      9  O   UNL A   1      40.294  30.541  36.184  1.00  0.00    -0.247 OA
BRANCH   8  10
ATOM     10  C   UNL A   1      42.012  29.524  34.964  1.00  0.00     0.094 C 
ATOM     11  C   UNL A   1      42.950  29.156  35.846  1.00  0.00     0.019 C 
BRANCH  11  12
ATOM     12  C   UNL A   1      44.150  28.431  35.377  1.00  0.00     0.017 A 
ATOM     13  C   UNL A   1      45.082  28.101  36.388  1.00  0.00     0.012 A 
ATOM     14  C   UNL A   1      44.454  28.065  34.052  1.00  0.00     0.134 A 
ATOM     15  C   UNL A   1      46.300  27.485  36.097  1.00  0.00     0.001 A 
ATOM     16  C   UNL A   1      45.695  27.464  33.772  1.00  0.00     0.048 A 
ATOM     17  C   UNL A   1      46.615  27.181  34.782  1.00  0.00     0.004 A 
BRANCH  14  18
ATOM     18  O   UNL A   1      43.726  28.337  32.907  1.00  0.00    -0.457 OA
BRANCH  18  19
ATOM     19  C   UNL A   1      44.371  28.810  31.795  1.00  0.00     0.128 A 
ATOM     20  C   UNL A   1      44.350  28.121  30.578  1.00  0.00     0.047 A 
ATOM     21  C   UNL A   1      45.089  30.000  31.927  1.00  0.00     0.067 A 
ATOM     22  C   UNL A   1      44.984  28.678  29.461  1.00  0.00     0.005 A 
ATOM     23  C   UNL A   1      45.702  30.556  30.808  1.00  0.00     0.044 A 
ATOM     24  C   UNL A   1      45.652  29.902  29.576  1.00  0.00     0.021 A 
ATOM     25  Cl  UNL A   1      46.436  32.107  30.934  1.00  0.00    -0.084 Cl
ENDBRANCH  18  19
ENDBRANCH  14  18
ENDBRANCH  11  12
ENDBRANCH   8  10
ENDBRANCH   7   8
ENDBRANCH   6   7
ENDBRANCH   5   6
ENDBRANCH   4   5
ENDBRANCH   3   4
ENDBRANCH   2   3
ENDBRANCH   1   2
BRANCH   1  26
ATOM     26  C   UNL A   1      35.968  31.528  29.378  1.00  0.00     0.188 C 
BRANCH  26  27
ATOM     27  C   UNL A   1      36.439  32.686  28.474  1.00  0.00     0.188 C 
BRANCH  27  28
ATOM     28  O   UNL A   1      35.393  33.215  27.680  1.00  0.00    -0.376 OA
BRANCH  28  29
ATOM     29  C   UNL A   1      34.118  33.416  28.270  1.00  0.00     0.202 C 
BRANCH  29  30
ATOM     30  C   UNL A   1      33.677  34.752  28.904  1.00  0.00     0.261 C 
BRANCH  30  31
ATOM     31  O   UNL A   1      32.678  34.737  29.930  1.00  0.00    -0.460 OA
BRANCH  31  32
ATOM     32  C   UNL A   1      32.792  35.556  30.996  1.00  0.00     0.338 C 
ATOM     33  O   UNL A   1      31.963  36.353  31.398  1.00  0.00    -0.246 OA
BRANCH  32  34
ATOM     34  C   UNL A   1      33.987  35.085  31.750  1.00  0.00     0.060 A 
ATOM     35  C   UNL A   1      34.752  36.021  32.468  1.00  0.00     0.016 A 
ATOM     36  C   UNL A   1      34.240  33.715  31.897  1.00  0.00     0.016 A 
ATOM     37  C   UNL A   1      35.777  35.592  33.317  1.00  0.00     0.010 A 
ATOM     38  C   UNL A   1      35.290  33.289  32.713  1.00  0.00     0.010 A 
ATOM     39  C   UNL A   1      36.085  34.227  33.395  1.00  0.00    -0.014 A 
BRANCH  39  40
ATOM     40  C   UNL A   1      37.424  33.796  33.866  1.00  0.00     0.031 A 
ATOM     41  C   UNL A   1      37.561  33.564  35.347  1.00  0.00     0.074 A 
ATOM     42  C   UNL A   1      38.489  33.684  33.055  1.00  0.00     0.049 A 
ATOM     43  N   UNL A   1      38.632  33.346  36.062  1.00  0.00    -0.248 NA
ATOM     44  C   UNL A   1      36.311  33.606  36.128  1.00  0.00     0.031 C 
ATOM     45  C   UNL A   1      38.478  33.844  31.604  1.00  0.00     0.029 A 
ATOM     46  N   UNL A   1      39.807  33.439  33.359  1.00  0.00    -0.354 N 
ATOM     47  C   UNL A   1      38.186  33.255  37.375  1.00  0.00     0.074 A 
ATOM     48  C   UNL A   1      36.756  33.450  37.361  1.00  0.00     0.031 C 
ATOM     49  C   UNL A   1      39.738  33.730  31.145  1.00  0.00     0.029 A 
ATOM     50  C   UNL A   1      40.648  33.535  32.275  1.00  0.00     0.049 A 
ATOM     51  H   UNL A   1      40.120  33.217  34.266  1.00  0.00     0.167 HD
ATOM     52  C   UNL A   1      38.905  33.045  38.501  1.00  0.00     0.031 A 
ATOM     53  C   UNL A   1      41.996  33.515  32.213  1.00  0.00     0.031 A 
ATOM     54  C   UNL A   1      40.332  32.900  38.515  1.00  0.00     0.049 A 
ATOM     55  C   UNL A   1      42.793  33.343  33.483  1.00  0.00     0.074 A 
ATOM     56  C   UNL A   1      41.160  32.673  39.597  1.00  0.00     0.029 A 
ATOM     57  N   UNL A   1      41.142  32.994  37.394  1.00  0.00    -0.354 N 
ATOM     58  N   UNL A   1      42.360  33.220  34.717  1.00  0.00    -0.248 NA
ATOM     59  C   UNL A   1      44.257  33.305  33.356  1.00  0.00     0.031 C 
ATOM     60  C   UNL A   1      42.481  32.689  39.137  1.00  0.00     0.029 A 
ATOM     61  C   UNL A   1      42.468  32.856  37.759  1.00  0.00     0.049 A 
ATOM     62  H   UNL A   1      40.821  33.138  36.475  1.00  0.00     0.167 HD
ATOM     63  C   UNL A   1      43.496  33.063  35.507  1.00  0.00     0.074 A 
ATOM     64  C   UNL A   1      44.635  33.104  34.612  1.00  0.00     0.031 C 
ATOM     65  C   UNL A   1      43.586  32.894  36.850  1.00  0.00     0.031 A 
BRANCH  52  66
ATOM     66  C   UNL A   1      38.148  33.046  39.800  1.00  0.00    -0.014 A 
ATOM     67  C   UNL A   1      37.435  31.912  40.235  1.00  0.00     0.010 A 
ATOM     68  C   UNL A   1      38.115  34.216  40.578  1.00  0.00     0.010 A 
ATOM     69  C   UNL A   1      36.653  31.971  41.392  1.00  0.00     0.020 A 
ATOM     70  C   UNL A   1      37.361  34.268  41.753  1.00  0.00     0.020 A 
ATOM     71  C   UNL A   1      36.614  33.152  42.137  1.00  0.00     0.054 A 
BRANCH  71  72
ATOM     72  S   UNL A   1      35.577  33.210  43.623  1.00  0.00     0.124 S 
ATOM     73  O   UNL A   1      35.409  34.648  43.817  1.00  0.00    -0.237 OA
ATOM     74  O   UNL A   1      34.377  32.490  43.204  1.00  0.00    -0.237 OA
ATOM     75  O   UNL A   1      36.383  32.534  44.636  1.00  0.00    -0.744 OA
ENDBRANCH  71  72
ENDBRANCH  52  66
BRANCH  53  76
ATOM     76  C   UNL A   1      42.674  33.701  30.899  1.00  0.00    -0.014 A 
ATOM     77  C   UNL A   1      42.871  32.616  30.029  1.00  0.00     0.010 A 
ATOM     78  C   UNL A   1      43.089  34.984  30.494  1.00  0.00     0.010 A 
ATOM     79  C   UNL A   1      43.459  32.811  28.774  1.00  0.00     0.020 A 
ATOM     80  C   UNL A   1      43.655  35.188  29.231  1.00  0.00     0.020 A 
ATOM     81  C   UNL A   1      43.836  34.099  28.378  1.00  0.00     0.054 A 
BRANCH  81  82
ATOM     82  S   UNL A   1      44.502  34.339  26.707  1.00  0.00     0.124 S 
ATOM     83  O   UNL A   1      45.227  35.598  26.844  1.00  0.00    -0.237 OA
ATOM     84  O   UNL A   1      45.329  33.149  26.525  1.00  0.00    -0.237 OA
ATOM     85  O   UNL A   1      43.306  34.392  25.867  1.00  0.00    -0.744 OA
ENDBRANCH  81  82
ENDBRANCH  53  76
BRANCH  65  86
ATOM     86  C   UNL A   1      44.953  32.687  37.449  1.00  0.00    -0.014 A 
ATOM     87  C   UNL A   1      45.660  33.745  38.046  1.00  0.00     0.010 A 
ATOM     88  C   UNL A   1      45.478  31.382  37.521  1.00  0.00     0.010 A 
ATOM     89  C   UNL A   1      46.874  33.501  38.697  1.00  0.00     0.020 A 
ATOM     90  C   UNL A   1      46.676  31.131  38.194  1.00  0.00     0.020 A 
ATOM     91  C   UNL A   1      47.370  32.194  38.773  1.00  0.00     0.054 A 
BRANCH  91  92
ATOM     92  S   UNL A   1      48.901  31.892  39.696  1.00  0.00     0.124 S 
ATOM     93  O   UNL A   1      49.923  32.208  38.703  1.00  0.00    -0.237 OA
ATOM     94  O   UNL A   1      48.795  32.832  40.810  1.00  0.00    -0.237 OA
ATOM     95  O   UNL A   1      48.810  30.483  40.069  1.00  0.00    -0.744 OA
ENDBRANCH  91  92
ENDBRANCH  65  86
ENDBRANCH  39  40
ENDBRANCH  32  34
ENDBRANCH  31  32
ENDBRANCH  30  31
ENDBRANCH  29  30
ENDBRANCH  28  29
ENDBRANCH  27  28
ENDBRANCH  26  27
ENDBRANCH   1  26
TORSDOF 26
ENDMDL
MODEL 3
REMARK VINA RESULT:      -5.7      5.815     10.648
REMARK SMILES O=C(/C=C/c1ccccc1Oc1cccc(Cl)c1)OCCOCCOCCOCCOC(=O)c1ccc(-c2c3nc(c(-c4ccc(S(=O)(=O)[O-])cc4)c4ccc([nH]4)c(-c4ccc(S(=O)(=O)[O-])cc4)c4nc(c(-c5ccc(S(=O)(=O)[O-])cc5)c5ccc2[nH]5)C=C4)C=C3)cc1
REMARK SMILES IDX 25 1 24 2 23 3 22 4 21 5 20 6 19 7 2 8 1 9 3 10 4 11 5 12
REMARK SMILES IDX 6 13 10 14 7 15 9 16 8 17 11 18 12 19 13 20 18 21 14 22
REMARK SMILES IDX 16 23 15 24 17 25 26 26 27 27 28 28 29 29 30 30 31 31 32 32
REMARK SMILES IDX 33 33 34 34 35 35 93 36 36 37 92 38 37 39 38 40 39 41 86 42
REMARK SMILES IDX 40 43 91 44 85 45 87 46 41 47 90 48 84 49 83 50 42 52 72 53
REMARK SMILES IDX 53 54 71 55 54 56 57 57 70 58 88 59 55 60 56 61 69 63 89 64
REMARK SMILES IDX 58 65 43 66 44 67 52 68 45 69 51 70 46 71 47 72 48 73 49 74
REMARK SMILES IDX 50 75 73 76 74 77 82 78 75 79 81 80 76 81 77 82 78 83 79 84
REMARK SMILES IDX 80 85 59 86 60 87 68 88 61 89 67 90 62 91 63 92 64 93 65 94
REMARK SMILES IDX 66 95
REMARK H PARENT 87 51 57 62
REMARK Flexibility Score: inf
ROOT
ATOM      1  O   UNL A   1      45.095  24.146  24.567  1.00  0.00    -0.377 OA
ENDROOT
BRANCH   1   2
ATOM      2  C   UNL A   1      45.380  25.302  25.336  1.00  0.00     0.188 C 
BRANCH   2   3
ATOM      3  C   UNL A   1      46.550  26.171  24.871  1.00  0.00     0.188 C 
BRANCH   3   4
ATOM      4  O   UNL A   1      47.027  27.348  25.523  1.00  0.00    -0.376 OA
BRANCH   4   5
ATOM      5  C   UNL A   1      46.503  28.055  26.631  1.00  0.00     0.202 C 
BRANCH   5   6
ATOM      6  C   UNL A   1      46.805  27.721  28.089  1.00  0.00     0.261 C 
BRANCH   6   7
ATOM      7  O   UNL A   1      48.152  27.427  28.415  1.00  0.00    -0.460 OA
BRANCH   7   8
ATOM      8  C   UNL A   1      48.731  26.228  28.229  1.00  0.00     0.330 C 
ATOM      9  O   UNL A   1      48.463  25.309  28.996  1.00  0.00    -0.247 OA
BRANCH   8  10
ATOM     10  C   UNL A   1      49.877  26.093  27.304  1.00  0.00     0.094 C 
ATOM     11  C   UNL A   1      49.979  25.816  25.998  1.00  0.00     0.019 C 
BRANCH  11  12
ATOM     12  C   UNL A   1      51.287  25.949  25.323  1.00  0.00     0.017 A 
ATOM     13  C   UNL A   1      52.390  25.442  26.048  1.00  0.00     0.012 A 
ATOM     14  C   UNL A   1      51.535  26.536  24.068  1.00  0.00     0.134 A 
ATOM     15  C   UNL A   1      53.700  25.561  25.582  1.00  0.00     0.001 A 
ATOM     16  C   UNL A   1      52.864  26.668  23.620  1.00  0.00     0.048 A 
ATOM     17  C   UNL A   1      53.939  26.192  24.371  1.00  0.00     0.004 A 
BRANCH  14  18
ATOM     18  O   UNL A   1      50.627  27.146  23.221  1.00  0.00    -0.457 OA
BRANCH  18  19
ATOM     19  C   UNL A   1      51.040  27.575  21.987  1.00  0.00     0.128 A 
ATOM     20  C   UNL A   1      51.545  26.691  21.027  1.00  0.00     0.047 A 
ATOM     21  C   UNL A   1      50.972  28.945  21.726  1.00  0.00     0.067 A 
ATOM     22  C   UNL A   1      51.904  27.178  19.765  1.00  0.00     0.005 A 
ATOM     23  C   UNL A   1      51.313  29.419  20.464  1.00  0.00     0.044 A 
ATOM     24  C   UNL A   1      51.778  28.542  19.481  1.00  0.00     0.021 A 
ATOM     25  Cl  UNL A   1      51.062  31.079  20.091  1.00  0.00    -0.084 Cl
ENDBRANCH  18  19
ENDBRANCH  14  18
ENDBRANCH  11  12
ENDBRANCH   8  10
ENDBRANCH   7   8
ENDBRANCH   6   7
ENDBRANCH   5   6
ENDBRANCH   4   5
ENDBRANCH   3   4
ENDBRANCH   2   3
ENDBRANCH   1   2
BRANCH   1  26
ATOM     26  C   UNL A   1      43.836  23.580  24.881  1.00  0.00     0.188 C 
BRANCH  26  27
ATOM     27  C   UNL A   1      43.938  22.481  25.958  1.00  0.00     0.188 C 
BRANCH  27  28
ATOM     28  O   UNL A   1      42.803  22.443  26.804  1.00  0.00    -0.376 OA
BRANCH  28  29
ATOM     29  C   UNL A   1      41.511  22.509  26.222  1.00  0.00     0.202 C 
BRANCH  29  30
ATOM     30  C   UNL A   1      40.282  23.102  26.944  1.00  0.00     0.261 C 
BRANCH  30  31
ATOM     31  O   UNL A   1      39.790  24.384  26.538  1.00  0.00    -0.460 OA
BRANCH  31  32
ATOM     32  C   UNL A   1      40.652  25.344  26.143  1.00  0.00     0.338 C 
ATOM     33  O   UNL A   1      41.075  25.530  25.016  1.00  0.00    -0.246 OA
BRANCH  32  34
ATOM     34  C   UNL A   1      40.748  26.301  27.281  1.00  0.00     0.060 A 
ATOM     35  C   UNL A   1      39.856  26.167  28.360  1.00  0.00     0.016 A 
ATOM     36  C   UNL A   1      41.821  27.197  27.368  1.00  0.00     0.016 A 
ATOM     37  C   UNL A   1      40.024  26.938  29.515  1.00  0.00     0.010 A 
ATOM     38  C   UNL A   1      41.965  27.997  28.503  1.00  0.00     0.010 A 
ATOM     39  C   UNL A   1      41.046  27.896  29.564  1.00  0.00    -0.014 A 
BRANCH  39  40
ATOM     40  C   UNL A   1      40.953  29.030  30.516  1.00  0.00     0.031 A 
ATOM     41  C   UNL A   1      41.891  28.985  31.692  1.00  0.00     0.074 A 
ATOM     42  C   UNL A   1      40.044  30.013  30.403  1.00  0.00     0.049 A 
ATOM     43  N   UNL A   1      41.927  29.736  32.759  1.00  0.00    -0.248 NA
ATOM     44  C   UNL A   1      42.917  27.927  31.662  1.00  0.00     0.031 C 
ATOM     45  C   UNL A   1      39.109  30.190  29.295  1.00  0.00     0.029 A 
ATOM     46  N   UNL A   1      39.741  31.038  31.268  1.00  0.00    -0.354 N 
ATOM     47  C   UNL A   1      42.958  29.222  33.537  1.00  0.00     0.074 A 
ATOM     48  C   UNL A   1      43.514  28.095  32.827  1.00  0.00     0.031 C 
ATOM     49  C   UNL A   1      38.310  31.238  29.564  1.00  0.00     0.029 A 
ATOM     50  C   UNL A   1      38.647  31.777  30.883  1.00  0.00     0.049 A 
ATOM     51  H   UNL A   1      40.258  31.225  32.085  1.00  0.00     0.167 HD
ATOM     52  C   UNL A   1      43.395  29.639  34.746  1.00  0.00     0.031 A 
ATOM     53  C   UNL A   1      37.972  32.742  31.541  1.00  0.00     0.031 A 
ATOM     54  C   UNL A   1      42.808  30.729  35.470  1.00  0.00     0.049 A 
ATOM     55  C   UNL A   1      38.429  33.158  32.918  1.00  0.00     0.074 A 
ATOM     56  C   UNL A   1      43.178  31.244  36.697  1.00  0.00     0.029 A 
ATOM     57  N   UNL A   1      41.709  31.456  35.039  1.00  0.00    -0.354 N 
ATOM     58  N   UNL A   1      39.430  32.691  33.630  1.00  0.00    -0.248 NA
ATOM     59  C   UNL A   1      37.672  34.230  33.581  1.00  0.00     0.031 C 
ATOM     60  C   UNL A   1      42.263  32.245  37.037  1.00  0.00     0.029 A 
ATOM     61  C   UNL A   1      41.367  32.400  35.988  1.00  0.00     0.049 A 
ATOM     62  H   UNL A   1      41.241  31.320  34.183  1.00  0.00     0.167 HD
ATOM     63  C   UNL A   1      39.438  33.430  34.810  1.00  0.00     0.074 A 
ATOM     64  C   UNL A   1      38.344  34.376  34.716  1.00  0.00     0.031 C 
ATOM     65  C   UNL A   1      40.278  33.337  35.871  1.00  0.00     0.031 A 
BRANCH  52  66
ATOM     66  C   UNL A   1      44.509  28.848  35.376  1.00  0.00    -0.014 A 
ATOM     67  C   UNL A   1      45.820  28.892  34.865  1.00  0.00     0.010 A 
ATOM     68  C   UNL A   1      44.228  28.014  36.471  1.00  0.00     0.010 A 
ATOM     69  C   UNL A   1      46.814  28.068  35.399  1.00  0.00     0.020 A 
ATOM     70  C   UNL A   1      45.227  27.212  37.030  1.00  0.00     0.020 A 
ATOM     71  C   UNL A   1      46.507  27.227  36.473  1.00  0.00     0.054 A 
BRANCH  71  72
ATOM     72  S   UNL A   1      47.808  26.153  37.136  1.00  0.00     0.124 S 
ATOM     73  O   UNL A   1      48.812  26.206  36.077  1.00  0.00    -0.237 OA
ATOM     74  O   UNL A   1      48.174  26.825  38.381  1.00  0.00    -0.237 OA
ATOM     75  O   UNL A   1      47.143  24.863  37.301  1.00  0.00    -0.744 OA
ENDBRANCH  71  72
ENDBRANCH  52  66
BRANCH  53  76
ATOM     76  C   UNL A   1      36.765  33.352  30.915  1.00  0.00    -0.014 A 
ATOM     77  C   UNL A   1      35.540  33.398  31.602  1.00  0.00     0.010 A 
ATOM     78  C   UNL A   1      36.851  33.932  29.634  1.00  0.00     0.010 A 
ATOM     79  C   UNL A   1      34.428  34.021  31.027  1.00  0.00     0.020 A 
ATOM     80  C   UNL A   1      35.748  34.577  29.066  1.00  0.00     0.020 A 
ATOM     81  C   UNL A   1      34.542  34.619  29.767  1.00  0.00     0.054 A 
BRANCH  81  82
ATOM     82  S   UNL A   1      33.113  35.510  29.089  1.00  0.00     0.124 S 
ATOM     83  O   UNL A   1      32.386  35.885  30.297  1.00  0.00    -0.237 OA
ATOM     84  O   UNL A   1      33.746  36.609  28.364  1.00  0.00    -0.237 OA
ATOM     85  O   UNL A   1      32.457  34.513  28.245  1.00  0.00    -0.744 OA
ENDBRANCH  81  82
ENDBRANCH  53  76
BRANCH  65  86
ATOM     86  C   UNL A   1      40.096  34.310  37.007  1.00  0.00    -0.014 A 
ATOM     87  C   UNL A   1      40.426  35.669  36.870  1.00  0.00     0.010 A 
ATOM     88  C   UNL A   1      39.470  33.872  38.190  1.00  0.00     0.010 A 
ATOM     89  C   UNL A   1      40.139  36.571  37.899  1.00  0.00     0.020 A 
ATOM     90  C   UNL A   1      39.157  34.774  39.209  1.00  0.00     0.020 A 
ATOM     91  C   UNL A   1      39.500  36.118  39.059  1.00  0.00     0.054 A 
BRANCH  91  92
ATOM     92  S   UNL A   1      39.061  37.322  40.342  1.00  0.00     0.124 S 
ATOM     93  O   UNL A   1      38.259  38.287  39.594  1.00  0.00    -0.237 OA
ATOM     94  O   UNL A   1      38.326  36.509  41.308  1.00  0.00    -0.237 OA
ATOM     95  O   UNL A   1      40.353  37.818  40.810  1.00  0.00    -0.744 OA
ENDBRANCH  91  92
ENDBRANCH  65  86
ENDBRANCH  39  40
ENDBRANCH  32  34
ENDBRANCH  31  32
ENDBRANCH  30  31
ENDBRANCH  29  30
ENDBRANCH  28  29
ENDBRANCH  27  28
ENDBRANCH  26  27
ENDBRANCH   1  26
TORSDOF 26
ENDMDL
