MODEL 1
REMARK VINA RESULT:     -11.1      0.000      0.000
REMARK SMILES O=C(OCCOCCOCCOCCOC(=O)c1ccc(-c2c3nc(c(-c4ccc(S(=O)(=O)[O-])cc4)c4ccc([nH]4)c(-c4ccc(S(=O)(=O)[O-])cc4)c4nc(c(-c5ccc(S(=O)(=O)[O-])cc5)c5ccc2[nH]5)C=C4)C=C3)cc1)C1=Cc2cc(OC(F)(F)F)ccc2O[C@@H]1C(F)(F)F
REMARK SMILES IDX 10 1 9 2 8 3 7 4 6 5 5 6 4 7 3 8 2 9 1 10 78 11 79 12 92 13
REMARK SMILES IDX 80 14 91 15 81 16 90 17 82 18 89 19 88 20 93 21 94 22 95 23
REMARK SMILES IDX 96 24 83 25 84 26 85 27 86 28 87 29 11 30 12 31 13 32 14 33
REMARK SMILES IDX 15 34 16 35 17 36 18 37 19 38 77 39 20 40 76 41 21 42 22 43
REMARK SMILES IDX 23 44 70 45 24 46 75 47 69 48 71 49 25 50 74 51 68 52 67 53
REMARK SMILES IDX 26 55 56 56 37 57 55 58 38 59 41 60 54 61 72 62 39 63 40 64
REMARK SMILES IDX 53 66 73 67 42 68 27 69 28 70 36 71 29 72 35 73 30 74 31 75
REMARK SMILES IDX 32 76 33 77 34 78 57 79 58 80 66 81 59 82 65 83 60 84 61 85
REMARK SMILES IDX 62 86 63 87 64 88 43 89 44 90 52 91 45 92 51 93 46 94 47 95
REMARK SMILES IDX 48 96 49 97 50 98
REMARK H PARENT 71 54 41 65
REMARK Flexibility Score: inf
ROOT
ATOM      1  C   UNL A   1      33.931  31.007  27.763  1.00  0.00     0.188 C 
ENDROOT
BRANCH   1   2
ATOM      2  O   UNL A   1      33.257  30.755  26.553  1.00  0.00    -0.377 OA
BRANCH   2   3
ATOM      3  C   UNL A   1      32.151  29.904  26.736  1.00  0.00     0.188 C 
BRANCH   3   4
ATOM      4  C   UNL A   1      32.370  28.726  27.700  1.00  0.00     0.188 C 
BRANCH   4   5
ATOM      5  O   UNL A   1      31.781  27.387  27.544  1.00  0.00    -0.376 OA
BRANCH   5   6
ATOM      6  C   UNL A   1      30.801  26.698  26.385  1.00  0.00     0.202 C 
BRANCH   6   7
ATOM      7  C   UNL A   1      30.383  24.570  26.121  1.00  0.00     0.261 C 
BRANCH   7   8
ATOM      8  O   UNL A   1      30.660  23.747  24.878  1.00  0.00    -0.460 OA
BRANCH   8   9
ATOM      9  C   UNL A   1      31.845  23.127  24.935  1.00  0.00     0.338 C 
ATOM     10  O   UNL A   1      32.397  22.658  25.900  1.00  0.00    -0.246 OA
BRANCH   9  11
ATOM     11  C   UNL A   1      32.383  23.646  23.687  1.00  0.00     0.087 C 
ATOM     12  C   UNL A   1      31.499  24.596  23.003  1.00  0.00     0.027 C 
ATOM     13  C   UNL A   1      34.070  24.104  24.485  1.00  0.00     0.316 C 
ATOM     14  C   UNL A   1      31.739  26.378  22.989  1.00  0.00     0.021 A 
ATOM     15  O   UNL A   1      34.285  26.040  24.617  1.00  0.00    -0.475 OA
ATOM     16  C   UNL A   1      30.866  27.169  22.297  1.00  0.00     0.058 A 
ATOM     17  C   UNL A   1      33.025  27.140  23.848  1.00  0.00     0.128 A 
ATOM     18  C   UNL A   1      31.121  28.558  22.313  1.00  0.00     0.130 A 
ATOM     19  C   UNL A   1      33.188  28.502  23.850  1.00  0.00     0.051 A 
ATOM     20  C   UNL A   1      32.216  29.182  23.050  1.00  0.00     0.050 A 
BRANCH  13  21
ATOM     21  C   UNL A   1      34.897  22.941  23.612  1.00  0.00     0.430 C 
ATOM     22  F   UNL A   1      34.698  22.879  22.282  1.00  0.00    -0.167 F 
ATOM     23  F   UNL A   1      36.228  23.246  23.726  1.00  0.00    -0.167 F 
ATOM     24  F   UNL A   1      34.809  21.678  24.098  1.00  0.00    -0.167 F 
ENDBRANCH  13  21
BRANCH  18  25
ATOM     25  O   UNL A   1      30.191  29.213  21.538  1.00  0.00    -0.406 OA
BRANCH  25  26
ATOM     26  C   UNL A   1      29.126  29.922  22.140  1.00  0.00     0.573 C 
ATOM     27  F   UNL A   1      27.959  29.638  21.533  1.00  0.00    -0.132 F 
ATOM     28  F   UNL A   1      29.045  29.638  23.456  1.00  0.00    -0.132 F 
ATOM     29  F   UNL A   1      29.371  31.245  22.008  1.00  0.00    -0.132 F 
ENDBRANCH  25  26
ENDBRANCH  18  25
ENDBRANCH   9  11
ENDBRANCH   8   9
ENDBRANCH   7   8
ENDBRANCH   6   7
ENDBRANCH   5   6
ENDBRANCH   4   5
ENDBRANCH   3   4
ENDBRANCH   2   3
ENDBRANCH   1   2
BRANCH   1  30
ATOM     30  C   UNL A   1      35.160  31.920  27.683  1.00  0.00     0.188 C 
BRANCH  30  31
ATOM     31  O   UNL A   1      35.345  33.048  28.523  1.00  0.00    -0.376 OA
BRANCH  31  32
ATOM     32  C   UNL A   1      35.069  33.005  29.911  1.00  0.00     0.202 C 
BRANCH  32  33
ATOM     33  C   UNL A   1      35.656  31.928  30.834  1.00  0.00     0.261 C 
BRANCH  33  34
ATOM     34  O   UNL A   1      36.873  31.315  30.399  1.00  0.00    -0.460 OA
BRANCH  34  35
ATOM     35  C   UNL A   1      37.148  30.136  30.995  1.00  0.00     0.338 C 
ATOM     36  O   UNL A   1      36.547  29.637  31.933  1.00  0.00    -0.246 OA
BRANCH  35  37
ATOM     37  C   UNL A   1      38.185  29.407  30.236  1.00  0.00     0.060 A 
ATOM     38  C   UNL A   1      39.040  28.567  30.965  1.00  0.00     0.016 A 
ATOM     39  C   UNL A   1      38.371  29.588  28.864  1.00  0.00     0.016 A 
ATOM     40  C   UNL A   1      40.144  27.992  30.356  1.00  0.00     0.010 A 
ATOM     41  C   UNL A   1      39.507  29.044  28.258  1.00  0.00     0.010 A 
ATOM     42  C   UNL A   1      40.434  28.317  29.028  1.00  0.00    -0.014 A 
BRANCH  42  43
ATOM     43  C   UNL A   1      41.841  28.179  28.592  1.00  0.00     0.031 A 
ATOM     44  C   UNL A   1      42.279  26.837  28.057  1.00  0.00     0.074 A 
ATOM     45  C   UNL A   1      42.666  29.238  28.552  1.00  0.00     0.049 A 
ATOM     46  N   UNL A   1      43.439  26.475  27.577  1.00  0.00    -0.248 NA
ATOM     47  C   UNL A   1      41.272  25.761  28.065  1.00  0.00     0.031 C 
ATOM     48  C   UNL A   1      42.318  30.599  28.959  1.00  0.00     0.029 A 
ATOM     49  N   UNL A   1      43.966  29.331  28.129  1.00  0.00    -0.354 N 
ATOM     50  C   UNL A   1      43.307  25.128  27.252  1.00  0.00     0.074 A 
ATOM     51  C   UNL A   1      41.968  24.729  27.618  1.00  0.00     0.031 C 
ATOM     52  C   UNL A   1      43.384  31.394  28.763  1.00  0.00     0.029 A 
ATOM     53  C   UNL A   1      44.495  30.591  28.255  1.00  0.00     0.049 A 
ATOM     54  H   UNL A   1      44.473  28.567  27.770  1.00  0.00     0.167 HD
ATOM     55  C   UNL A   1      44.219  24.299  26.694  1.00  0.00     0.031 A 
ATOM     56  C   UNL A   1      45.742  31.037  28.004  1.00  0.00     0.031 A 
ATOM     57  C   UNL A   1      45.551  24.708  26.338  1.00  0.00     0.049 A 
ATOM     58  C   UNL A   1      46.766  30.074  27.462  1.00  0.00     0.074 A 
ATOM     59  C   UNL A   1      46.553  23.954  25.753  1.00  0.00     0.029 A 
ATOM     60  N   UNL A   1      46.071  25.977  26.543  1.00  0.00    -0.354 N 
ATOM     61  N   UNL A   1      46.627  28.805  27.152  1.00  0.00    -0.248 NA
ATOM     62  C   UNL A   1      48.112  30.609  27.220  1.00  0.00     0.031 C 
ATOM     63  C   UNL A   1      47.704  24.745  25.684  1.00  0.00     0.029 A 
ATOM     64  C   UNL A   1      47.391  26.019  26.130  1.00  0.00     0.049 A 
ATOM     65  H   UNL A   1      45.573  26.737  26.924  1.00  0.00     0.167 HD
ATOM     66  C   UNL A   1      47.856  28.404  26.635  1.00  0.00     0.074 A 
ATOM     67  C   UNL A   1      48.717  29.570  26.664  1.00  0.00     0.031 C 
ATOM     68  C   UNL A   1      48.236  27.188  26.169  1.00  0.00     0.031 A 
BRANCH  55  69
ATOM     69  C   UNL A   1      43.827  22.856  26.495  1.00  0.00    -0.014 A 
ATOM     70  C   UNL A   1      44.481  22.028  25.564  1.00  0.00     0.010 A 
ATOM     71  C   UNL A   1      42.800  22.310  27.287  1.00  0.00     0.010 A 
ATOM     72  C   UNL A   1      44.088  20.695  25.403  1.00  0.00     0.020 A 
ATOM     73  C   UNL A   1      42.430  20.969  27.156  1.00  0.00     0.020 A 
ATOM     74  C   UNL A   1      43.067  20.174  26.203  1.00  0.00     0.054 A 
BRANCH  74  75
ATOM     75  S   UNL A   1      42.602  18.433  25.998  1.00  0.00     0.124 S 
ATOM     76  O   UNL A   1      41.158  18.527  25.798  1.00  0.00    -0.237 OA
ATOM     77  O   UNL A   1      43.374  18.034  24.824  1.00  0.00    -0.237 OA
ATOM     78  O   UNL A   1      43.016  17.811  27.253  1.00  0.00    -0.744 OA
ENDBRANCH  74  75
ENDBRANCH  55  69
BRANCH  56  79
ATOM     79  C   UNL A   1      46.093  32.460  28.271  1.00  0.00    -0.014 A 
ATOM     80  C   UNL A   1      46.614  32.852  29.517  1.00  0.00     0.010 A 
ATOM     81  C   UNL A   1      45.895  33.435  27.276  1.00  0.00     0.010 A 
ATOM     82  C   UNL A   1      46.911  34.194  29.769  1.00  0.00     0.020 A 
ATOM     83  C   UNL A   1      46.225  34.772  27.512  1.00  0.00     0.020 A 
ATOM     84  C   UNL A   1      46.720  35.145  28.762  1.00  0.00     0.054 A 
BRANCH  84  85
ATOM     85  S   UNL A   1      47.161  36.872  29.097  1.00  0.00     0.124 S 
ATOM     86  O   UNL A   1      46.398  37.152  30.310  1.00  0.00    -0.237 OA
ATOM     87  O   UNL A   1      48.610  36.796  29.263  1.00  0.00    -0.237 OA
ATOM     88  O   UNL A   1      46.714  37.578  27.898  1.00  0.00    -0.744 OA
ENDBRANCH  84  85
ENDBRANCH  56  79
BRANCH  68  89
ATOM     89  C   UNL A   1      49.623  27.068  25.587  1.00  0.00    -0.014 A 
ATOM     90  C   UNL A   1      50.743  26.767  26.382  1.00  0.00     0.010 A 
ATOM     91  C   UNL A   1      49.798  27.237  24.199  1.00  0.00     0.010 A 
ATOM     92  C   UNL A   1      52.017  26.698  25.811  1.00  0.00     0.020 A 
ATOM     93  C   UNL A   1      51.062  27.124  23.618  1.00  0.00     0.020 A 
ATOM     94  C   UNL A   1      52.168  26.879  24.433  1.00  0.00     0.054 A 
BRANCH  94  95
ATOM     95  S   UNL A   1      53.829  26.774  23.716  1.00  0.00     0.124 S 
ATOM     96  O   UNL A   1      53.548  26.315  22.359  1.00  0.00    -0.237 OA
ATOM     97  O   UNL A   1      54.311  28.148  23.828  1.00  0.00    -0.237 OA
ATOM     98  O   UNL A   1      54.517  25.807  24.570  1.00  0.00    -0.744 OA
ENDBRANCH  94  95
ENDBRANCH  68  89
ENDBRANCH  42  43
ENDBRANCH  35  37
ENDBRANCH  34  35
ENDBRANCH  33  34
ENDBRANCH  32  33
ENDBRANCH  31  32
ENDBRANCH  30  31
ENDBRANCH   1  30
TORSDOF 26
ENDMDL
MODEL 2
REMARK VINA RESULT:     -11.1      0.828      7.815
REMARK SMILES O=C(OCCOCCOCCOCCOC(=O)c1ccc(-c2c3nc(c(-c4ccc(S(=O)(=O)[O-])cc4)c4ccc([nH]4)c(-c4ccc(S(=O)(=O)[O-])cc4)c4nc(c(-c5ccc(S(=O)(=O)[O-])cc5)c5ccc2[nH]5)C=C4)C=C3)cc1)C1=Cc2cc(OC(F)(F)F)ccc2O[C@@H]1C(F)(F)F
REMARK SMILES IDX 10 1 9 2 8 3 7 4 6 5 5 6 4 7 3 8 2 9 1 10 78 11 79 12 92 13
REMARK SMILES IDX 80 14 91 15 81 16 90 17 82 18 89 19 88 20 93 21 94 22 95 23
REMARK SMILES IDX 96 24 83 25 84 26 85 27 86 28 87 29 11 30 12 31 13 32 14 33
REMARK SMILES IDX 15 34 16 35 17 36 18 37 19 38 77 39 20 40 76 41 21 42 22 43
REMARK SMILES IDX 23 44 70 45 24 46 75 47 69 48 71 49 25 50 74 51 68 52 67 53
REMARK SMILES IDX 26 55 56 56 37 57 55 58 38 59 41 60 54 61 72 62 39 63 40 64
REMARK SMILES IDX 53 66 73 67 42 68 27 69 28 70 36 71 29 72 35 73 30 74 31 75
REMARK SMILES IDX 32 76 33 77 34 78 57 79 58 80 66 81 59 82 65 83 60 84 61 85
REMARK SMILES IDX 62 86 63 87 64 88 43 89 44 90 52 91 45 92 51 93 46 94 47 95
REMARK SMILES IDX 48 96 49 97 50 98
REMARK H PARENT 71 54 41 65
REMARK Flexibility Score: inf
ROOT
ATOM      1  C   UNL A   1      34.012  31.085  27.883  1.00  0.00     0.188 C 
ENDROOT
BRANCH   1   2
ATOM      2  O   UNL A   1      33.400  30.719  26.670  1.00  0.00    -0.377 OA
BRANCH   2   3
ATOM      3  C   UNL A   1      32.248  29.938  26.880  1.00  0.00     0.188 C 
BRANCH   3   4
ATOM      4  C   UNL A   1      32.426  28.721  27.803  1.00  0.00     0.188 C 
BRANCH   4   5
ATOM      5  O   UNL A   1      31.667  27.465  27.702  1.00  0.00    -0.376 OA
BRANCH   5   6
ATOM      6  C   UNL A   1      30.761  26.774  26.485  1.00  0.00     0.202 C 
BRANCH   6   7
ATOM      7  C   UNL A   1      30.414  24.641  26.164  1.00  0.00     0.261 C 
BRANCH   7   8
ATOM      8  O   UNL A   1      30.638  23.878  24.873  1.00  0.00    -0.460 OA
BRANCH   8   9
ATOM      9  C   UNL A   1      31.802  23.217  24.871  1.00  0.00     0.338 C 
ATOM     10  O   UNL A   1      32.377  22.715  25.806  1.00  0.00    -0.246 OA
BRANCH   9  11
ATOM     11  C   UNL A   1      32.304  23.735  23.609  1.00  0.00     0.087 C 
ATOM     12  C   UNL A   1      31.406  24.693  22.954  1.00  0.00     0.027 C 
ATOM     13  C   UNL A   1      34.018  24.179  24.355  1.00  0.00     0.316 C 
ATOM     14  C   UNL A   1      31.659  26.473  22.937  1.00  0.00     0.021 A 
ATOM     15  O   UNL A   1      34.252  26.112  24.485  1.00  0.00    -0.475 OA
ATOM     16  C   UNL A   1      30.771  27.273  22.274  1.00  0.00     0.058 A 
ATOM     17  C   UNL A   1      32.976  27.224  23.758  1.00  0.00     0.128 A 
ATOM     18  C   UNL A   1      31.036  28.659  22.286  1.00  0.00     0.130 A 
ATOM     19  C   UNL A   1      33.150  28.585  23.758  1.00  0.00     0.051 A 
ATOM     20  C   UNL A   1      32.158  29.274  22.990  1.00  0.00     0.050 A 
BRANCH  13  21
ATOM     21  C   UNL A   1      34.810  23.012  23.454  1.00  0.00     0.430 C 
ATOM     22  F   UNL A   1      34.514  22.906  22.145  1.00  0.00    -0.167 F 
ATOM     23  F   UNL A   1      36.137  23.354  23.460  1.00  0.00    -0.167 F 
ATOM     24  F   UNL A   1      34.793  21.761  23.979  1.00  0.00    -0.167 F 
ENDBRANCH  13  21
BRANCH  18  25
ATOM     25  O   UNL A   1      30.088  29.323  21.541  1.00  0.00    -0.406 OA
BRANCH  25  26
ATOM     26  C   UNL A   1      29.096  30.107  22.176  1.00  0.00     0.573 C 
ATOM     27  F   UNL A   1      29.228  31.404  21.845  1.00  0.00    -0.132 F 
ATOM     28  F   UNL A   1      27.862  29.670  21.855  1.00  0.00    -0.132 F 
ATOM     29  F   UNL A   1      29.254  29.984  23.513  1.00  0.00    -0.132 F 
ENDBRANCH  25  26
ENDBRANCH  18  25
ENDBRANCH   9  11
ENDBRANCH   8   9
ENDBRANCH   7   8
ENDBRANCH   6   7
ENDBRANCH   5   6
ENDBRANCH   4   5
ENDBRANCH   3   4
ENDBRANCH   2   3
ENDBRANCH   1   2
BRANCH   1  30
ATOM     30  C   UNL A   1      34.997  32.259  27.824  1.00  0.00     0.188 C 
BRANCH  30  31
ATOM     31  O   UNL A   1      34.905  33.393  28.670  1.00  0.00    -0.376 OA
BRANCH  31  32
ATOM     32  C   UNL A   1      34.475  33.294  30.015  1.00  0.00     0.202 C 
BRANCH  32  33
ATOM     33  C   UNL A   1      35.045  32.250  30.987  1.00  0.00     0.261 C 
BRANCH  33  34
ATOM     34  O   UNL A   1      36.408  31.869  30.780  1.00  0.00    -0.460 OA
BRANCH  34  35
ATOM     35  C   UNL A   1      36.832  30.862  31.572  1.00  0.00     0.338 C 
ATOM     36  O   UNL A   1      36.420  30.590  32.689  1.00  0.00    -0.246 OA
BRANCH  35  37
ATOM     37  C   UNL A   1      37.759  29.982  30.830  1.00  0.00     0.060 A 
ATOM     38  C   UNL A   1      38.632  29.187  31.588  1.00  0.00     0.016 A 
ATOM     39  C   UNL A   1      37.830  29.981  29.435  1.00  0.00     0.016 A 
ATOM     40  C   UNL A   1      39.647  28.475  30.969  1.00  0.00     0.010 A 
ATOM     41  C   UNL A   1      38.879  29.297  28.813  1.00  0.00     0.010 A 
ATOM     42  C   UNL A   1      39.832  28.615  29.592  1.00  0.00    -0.014 A 
BRANCH  42  43
ATOM     43  C   UNL A   1      41.186  28.337  29.062  1.00  0.00     0.031 A 
ATOM     44  C   UNL A   1      42.203  29.451  29.118  1.00  0.00     0.074 A 
ATOM     45  C   UNL A   1      41.539  27.104  28.663  1.00  0.00     0.049 A 
ATOM     46  N   UNL A   1      43.459  29.445  28.759  1.00  0.00    -0.248 NA
ATOM     47  C   UNL A   1      41.739  30.743  29.654  1.00  0.00     0.031 C 
ATOM     48  C   UNL A   1      40.662  25.934  28.652  1.00  0.00     0.029 A 
ATOM     49  N   UNL A   1      42.741  26.632  28.204  1.00  0.00    -0.354 N 
ATOM     50  C   UNL A   1      43.924  30.735  29.000  1.00  0.00     0.074 A 
ATOM     51  C   UNL A   1      42.811  31.503  29.506  1.00  0.00     0.031 C 
ATOM     52  C   UNL A   1      41.360  24.874  28.209  1.00  0.00     0.029 A 
ATOM     53  C   UNL A   1      42.717  25.301  27.870  1.00  0.00     0.049 A 
ATOM     54  H   UNL A   1      43.545  27.194  28.122  1.00  0.00     0.167 HD
ATOM     55  C   UNL A   1      45.169  31.233  28.822  1.00  0.00     0.031 A 
ATOM     56  C   UNL A   1      43.678  24.524  27.334  1.00  0.00     0.031 A 
ATOM     57  C   UNL A   1      46.269  30.457  28.313  1.00  0.00     0.049 A 
ATOM     58  C   UNL A   1      45.034  25.124  27.064  1.00  0.00     0.074 A 
ATOM     59  C   UNL A   1      47.577  30.856  28.106  1.00  0.00     0.029 A 
ATOM     60  N   UNL A   1      46.187  29.129  27.924  1.00  0.00    -0.354 N 
ATOM     61  N   UNL A   1      45.464  26.342  27.304  1.00  0.00    -0.248 NA
ATOM     62  C   UNL A   1      46.040  24.236  26.467  1.00  0.00     0.031 C 
ATOM     63  C   UNL A   1      48.264  29.794  27.510  1.00  0.00     0.029 A 
ATOM     64  C   UNL A   1      47.413  28.702  27.442  1.00  0.00     0.049 A 
ATOM     65  H   UNL A   1      45.378  28.571  27.982  1.00  0.00     0.167 HD
ATOM     66  C   UNL A   1      46.804  26.351  26.928  1.00  0.00     0.074 A 
ATOM     67  C   UNL A   1      47.113  25.015  26.460  1.00  0.00     0.031 C 
ATOM     68  C   UNL A   1      47.702  27.368  26.975  1.00  0.00     0.031 A 
BRANCH  55  69
ATOM     69  C   UNL A   1      45.390  32.696  29.116  1.00  0.00    -0.014 A 
ATOM     70  C   UNL A   1      45.851  33.143  30.368  1.00  0.00     0.010 A 
ATOM     71  C   UNL A   1      45.161  33.641  28.098  1.00  0.00     0.010 A 
ATOM     72  C   UNL A   1      46.040  34.508  30.607  1.00  0.00     0.020 A 
ATOM     73  C   UNL A   1      45.385  35.001  28.321  1.00  0.00     0.020 A 
ATOM     74  C   UNL A   1      45.809  35.428  29.580  1.00  0.00     0.054 A 
BRANCH  74  75
ATOM     75  S   UNL A   1      46.096  37.189  29.906  1.00  0.00     0.124 S 
ATOM     76  O   UNL A   1      46.336  37.710  28.563  1.00  0.00    -0.237 OA
ATOM     77  O   UNL A   1      44.841  37.605  30.526  1.00  0.00    -0.237 OA
ATOM     78  O   UNL A   1      47.258  37.195  30.791  1.00  0.00    -0.744 OA
ENDBRANCH  74  75
ENDBRANCH  55  69
BRANCH  56  79
ATOM     79  C   UNL A   1      43.391  23.099  27.010  1.00  0.00    -0.014 A 
ATOM     80  C   UNL A   1      42.778  22.254  27.951  1.00  0.00     0.010 A 
ATOM     81  C   UNL A   1      43.744  22.576  25.751  1.00  0.00     0.010 A 
ATOM     82  C   UNL A   1      42.541  20.910  27.649  1.00  0.00     0.020 A 
ATOM     83  C   UNL A   1      43.476  21.243  25.433  1.00  0.00     0.020 A 
ATOM     84  C   UNL A   1      42.887  20.415  26.388  1.00  0.00     0.054 A 
BRANCH  84  85
ATOM     85  S   UNL A   1      42.523  18.680  26.002  1.00  0.00     0.124 S 
ATOM     86  O   UNL A   1      43.383  18.438  24.848  1.00  0.00    -0.237 OA
ATOM     87  O   UNL A   1      42.909  18.001  27.237  1.00  0.00    -0.237 OA
ATOM     88  O   UNL A   1      41.088  18.685  25.725  1.00  0.00    -0.744 OA
ENDBRANCH  84  85
ENDBRANCH  56  79
BRANCH  68  89
ATOM     89  C   UNL A   1      49.124  27.060  26.574  1.00  0.00    -0.014 A 
ATOM     90  C   UNL A   1      50.091  26.652  27.510  1.00  0.00     0.010 A 
ATOM     91  C   UNL A   1      49.487  27.157  25.217  1.00  0.00     0.010 A 
ATOM     92  C   UNL A   1      51.406  26.409  27.104  1.00  0.00     0.020 A 
ATOM     93  C   UNL A   1      50.788  26.871  24.801  1.00  0.00     0.020 A 
ATOM     94  C   UNL A   1      51.746  26.521  25.753  1.00  0.00     0.054 A 
BRANCH  94  95
ATOM     95  S   UNL A   1      53.457  26.190  25.253  1.00  0.00     0.124 S 
ATOM     96  O   UNL A   1      54.154  26.185  26.535  1.00  0.00    -0.237 OA
ATOM     97  O   UNL A   1      53.349  24.894  24.589  1.00  0.00    -0.237 OA
ATOM     98  O   UNL A   1      53.785  27.310  24.372  1.00  0.00    -0.744 OA
ENDBRANCH  94  95
ENDBRANCH  68  89
ENDBRANCH  42  43
ENDBRANCH  35  37
ENDBRANCH  34  35
ENDBRANCH  33  34
ENDBRANCH  32  33
ENDBRANCH  31  32
ENDBRANCH  30  31
ENDBRANCH   1  30
TORSDOF 26
ENDMDL
MODEL 3
REMARK VINA RESULT:     -10.6      5.468      9.830
REMARK SMILES O=C(OCCOCCOCCOCCOC(=O)c1ccc(-c2c3nc(c(-c4ccc(S(=O)(=O)[O-])cc4)c4ccc([nH]4)c(-c4ccc(S(=O)(=O)[O-])cc4)c4nc(c(-c5ccc(S(=O)(=O)[O-])cc5)c5ccc2[nH]5)C=C4)C=C3)cc1)C1=Cc2cc(OC(F)(F)F)ccc2O[C@@H]1C(F)(F)F
REMARK SMILES IDX 10 1 9 2 8 3 7 4 6 5 5 6 4 7 3 8 2 9 1 10 78 11 79 12 92 13
REMARK SMILES IDX 80 14 91 15 81 16 90 17 82 18 89 19 88 20 93 21 94 22 95 23
REMARK SMILES IDX 96 24 83 25 84 26 85 27 86 28 87 29 11 30 12 31 13 32 14 33
REMARK SMILES IDX 15 34 16 35 17 36 18 37 19 38 77 39 20 40 76 41 21 42 22 43
REMARK SMILES IDX 23 44 70 45 24 46 75 47 69 48 71 49 25 50 74 51 68 52 67 53
REMARK SMILES IDX 26 55 56 56 37 57 55 58 38 59 41 60 54 61 72 62 39 63 40 64
REMARK SMILES IDX 53 66 73 67 42 68 27 69 28 70 36 71 29 72 35 73 30 74 31 75
REMARK SMILES IDX 32 76 33 77 34 78 57 79 58 80 66 81 59 82 65 83 60 84 61 85
REMARK SMILES IDX 62 86 63 87 64 88 43 89 44 90 52 91 45 92 51 93 46 94 47 95
REMARK SMILES IDX 48 96 49 97 50 98
REMARK H PARENT 71 54 41 65
REMARK Flexibility Score: inf
ROOT
ATOM      1  C   UNL A   1      35.247  29.279  27.134  1.00  0.00     0.188 C 
ENDROOT
BRANCH   1   2
ATOM      2  O   UNL A   1      34.274  28.568  26.407  1.00  0.00    -0.377 OA
BRANCH   2   3
ATOM      3  C   UNL A   1      32.968  28.948  26.770  1.00  0.00     0.188 C 
BRANCH   3   4
ATOM      4  C   UNL A   1      32.217  29.815  25.745  1.00  0.00     0.188 C 
BRANCH   4   5
ATOM      5  O   UNL A   1      31.802  29.370  24.406  1.00  0.00    -0.376 OA
BRANCH   5   6
ATOM      6  C   UNL A   1      30.560  28.402  23.857  1.00  0.00     0.202 C 
BRANCH   6   7
ATOM      7  C   UNL A   1      30.211  26.307  24.371  1.00  0.00     0.261 C 
BRANCH   7   8
ATOM      8  O   UNL A   1      30.347  25.119  23.440  1.00  0.00    -0.460 OA
BRANCH   8   9
ATOM      9  C   UNL A   1      31.252  24.234  23.877  1.00  0.00     0.338 C 
ATOM     10  O   UNL A   1      31.072  23.258  24.564  1.00  0.00    -0.246 OA
BRANCH   9  11
ATOM     11  C   UNL A   1      32.427  25.074  23.702  1.00  0.00     0.087 C 
ATOM     12  C   UNL A   1      33.364  25.035  24.829  1.00  0.00     0.027 C 
ATOM     13  C   UNL A   1      32.794  24.371  21.951  1.00  0.00     0.316 C 
ATOM     14  C   UNL A   1      34.920  24.134  24.826  1.00  0.00     0.021 A 
ATOM     15  O   UNL A   1      34.401  23.263  21.959  1.00  0.00    -0.475 OA
ATOM     16  C   UNL A   1      35.731  24.188  25.924  1.00  0.00     0.058 A 
ATOM     17  C   UNL A   1      35.422  23.169  23.488  1.00  0.00     0.128 A 
ATOM     18  C   UNL A   1      36.945  23.471  25.851  1.00  0.00     0.130 A 
ATOM     19  C   UNL A   1      36.600  22.467  23.503  1.00  0.00     0.051 A 
ATOM     20  C   UNL A   1      37.349  22.658  24.708  1.00  0.00     0.050 A 
BRANCH  13  21
ATOM     21  C   UNL A   1      32.437  25.823  21.199  1.00  0.00     0.430 C 
ATOM     22  F   UNL A   1      33.050  26.937  21.637  1.00  0.00    -0.167 F 
ATOM     23  F   UNL A   1      32.869  25.703  19.904  1.00  0.00    -0.167 F 
ATOM     24  F   UNL A   1      31.116  26.104  21.077  1.00  0.00    -0.167 F 
ENDBRANCH  13  21
BRANCH  18  25
ATOM     25  O   UNL A   1      37.671  23.660  27.006  1.00  0.00    -0.406 OA
BRANCH  25  26
ATOM     26  C   UNL A   1      38.921  24.320  26.967  1.00  0.00     0.573 C 
ATOM     27  F   UNL A   1      39.133  24.871  25.759  1.00  0.00    -0.132 F 
ATOM     28  F   UNL A   1      38.994  25.264  27.927  1.00  0.00    -0.132 F 
ATOM     29  F   UNL A   1      39.888  23.404  27.201  1.00  0.00    -0.132 F 
ENDBRANCH  25  26
ENDBRANCH  18  25
ENDBRANCH   9  11
ENDBRANCH   8   9
ENDBRANCH   7   8
ENDBRANCH   6   7
ENDBRANCH   5   6
ENDBRANCH   4   5
ENDBRANCH   3   4
ENDBRANCH   2   3
ENDBRANCH   1   2
BRANCH   1  30
ATOM     30  C   UNL A   1      34.741  30.437  28.002  1.00  0.00     0.188 C 
BRANCH  30  31
ATOM     31  O   UNL A   1      34.680  31.779  27.548  1.00  0.00    -0.376 OA
BRANCH  31  32
ATOM     32  C   UNL A   1      34.104  32.810  28.328  1.00  0.00     0.202 C 
BRANCH  32  33
ATOM     33  C   UNL A   1      34.859  34.103  28.670  1.00  0.00     0.261 C 
BRANCH  33  34
ATOM     34  O   UNL A   1      35.414  34.185  29.985  1.00  0.00    -0.460 OA
BRANCH  34  35
ATOM     35  C   UNL A   1      35.317  33.047  30.703  1.00  0.00     0.338 C 
ATOM     36  O   UNL A   1      34.340  32.658  31.324  1.00  0.00    -0.246 OA
BRANCH  35  37
ATOM     37  C   UNL A   1      36.514  32.205  30.495  1.00  0.00     0.060 A 
ATOM     38  C   UNL A   1      36.518  30.938  31.096  1.00  0.00     0.016 A 
ATOM     39  C   UNL A   1      37.633  32.661  29.795  1.00  0.00     0.016 A 
ATOM     40  C   UNL A   1      37.670  30.167  31.097  1.00  0.00     0.010 A 
ATOM     41  C   UNL A   1      38.808  31.904  29.831  1.00  0.00     0.010 A 
ATOM     42  C   UNL A   1      38.843  30.697  30.555  1.00  0.00    -0.014 A 
BRANCH  42  43
ATOM     43  C   UNL A   1      40.124  30.147  31.051  1.00  0.00     0.031 A 
ATOM     44  C   UNL A   1      40.662  30.690  32.353  1.00  0.00     0.074 A 
ATOM     45  C   UNL A   1      40.724  29.115  30.436  1.00  0.00     0.049 A 
ATOM     46  N   UNL A   1      41.735  30.345  33.014  1.00  0.00    -0.248 NA
ATOM     47  C   UNL A   1      39.883  31.764  32.994  1.00  0.00     0.031 C 
ATOM     48  C   UNL A   1      40.242  28.454  29.224  1.00  0.00     0.029 A 
ATOM     49  N   UNL A   1      41.865  28.431  30.765  1.00  0.00    -0.354 N 
ATOM     50  C   UNL A   1      41.771  31.176  34.130  1.00  0.00     0.074 A 
ATOM     51  C   UNL A   1      40.633  32.061  34.041  1.00  0.00     0.031 C 
ATOM     52  C   UNL A   1      41.085  27.455  28.911  1.00  0.00     0.029 A 
ATOM     53  C   UNL A   1      42.182  27.433  29.879  1.00  0.00     0.049 A 
ATOM     54  H   UNL A   1      42.406  28.636  31.562  1.00  0.00     0.167 HD
ATOM     55  C   UNL A   1      42.669  31.196  35.142  1.00  0.00     0.031 A 
ATOM     56  C   UNL A   1      43.247  26.608  29.845  1.00  0.00     0.031 A 
ATOM     57  C   UNL A   1      43.801  30.312  35.216  1.00  0.00     0.049 A 
ATOM     58  C   UNL A   1      44.280  26.707  30.937  1.00  0.00     0.074 A 
ATOM     59  C   UNL A   1      44.766  30.235  36.203  1.00  0.00     0.029 A 
ATOM     60  N   UNL A   1      44.124  29.358  34.263  1.00  0.00    -0.354 N 
ATOM     61  N   UNL A   1      44.300  27.491  31.991  1.00  0.00    -0.248 NA
ATOM     62  C   UNL A   1      45.428  25.795  30.844  1.00  0.00     0.031 C 
ATOM     63  C   UNL A   1      45.720  29.294  35.803  1.00  0.00     0.029 A 
ATOM     64  C   UNL A   1      45.295  28.712  34.619  1.00  0.00     0.049 A 
ATOM     65  H   UNL A   1      43.597  29.167  33.453  1.00  0.00     0.167 HD
ATOM     66  C   UNL A   1      45.438  27.134  32.709  1.00  0.00     0.074 A 
ATOM     67  C   UNL A   1      46.068  26.055  31.975  1.00  0.00     0.031 C 
ATOM     68  C   UNL A   1      45.913  27.642  33.874  1.00  0.00     0.031 A 
BRANCH  55  69
ATOM     69  C   UNL A   1      42.500  32.247  36.211  1.00  0.00    -0.014 A 
ATOM     70  C   UNL A   1      41.769  32.002  37.388  1.00  0.00     0.010 A 
ATOM     71  C   UNL A   1      43.119  33.500  36.043  1.00  0.00     0.010 A 
ATOM     72  C   UNL A   1      41.629  33.002  38.355  1.00  0.00     0.020 A 
ATOM     73  C   UNL A   1      43.014  34.488  37.024  1.00  0.00     0.020 A 
ATOM     74  C   UNL A   1      42.256  34.238  38.169  1.00  0.00     0.054 A 
BRANCH  74  75
ATOM     75  S   UNL A   1      42.088  35.504  39.456  1.00  0.00     0.124 S 
ATOM     76  O   UNL A   1      40.987  36.315  38.941  1.00  0.00    -0.237 OA
ATOM     77  O   UNL A   1      41.781  34.711  40.643  1.00  0.00    -0.237 OA
ATOM     78  O   UNL A   1      43.391  36.164  39.470  1.00  0.00    -0.744 OA
ENDBRANCH  74  75
ENDBRANCH  55  69
BRANCH  56  79
ATOM     79  C   UNL A   1      43.396  25.626  28.735  1.00  0.00    -0.014 A 
ATOM     80  C   UNL A   1      43.966  26.006  27.507  1.00  0.00     0.010 A 
ATOM     81  C   UNL A   1      42.953  24.300  28.901  1.00  0.00     0.010 A 
ATOM     82  C   UNL A   1      44.072  25.085  26.461  1.00  0.00     0.020 A 
ATOM     83  C   UNL A   1      43.091  23.368  27.870  1.00  0.00     0.020 A 
ATOM     84  C   UNL A   1      43.640  23.769  26.652  1.00  0.00     0.054 A 
BRANCH  84  85
ATOM     85  S   UNL A   1      43.835  22.581  25.296  1.00  0.00     0.124 S 
ATOM     86  O   UNL A   1      44.820  21.653  25.843  1.00  0.00    -0.237 OA
ATOM     87  O   UNL A   1      42.480  22.054  25.148  1.00  0.00    -0.237 OA
ATOM     88  O   UNL A   1      44.300  23.405  24.183  1.00  0.00    -0.744 OA
ENDBRANCH  84  85
ENDBRANCH  56  79
BRANCH  68  89
ATOM     89  C   UNL A   1      47.139  26.993  34.467  1.00  0.00    -0.014 A 
ATOM     90  C   UNL A   1      48.438  27.449  34.179  1.00  0.00     0.010 A 
ATOM     91  C   UNL A   1      46.978  25.915  35.358  1.00  0.00     0.010 A 
ATOM     92  C   UNL A   1      49.550  26.801  34.721  1.00  0.00     0.020 A 
ATOM     93  C   UNL A   1      48.085  25.293  35.938  1.00  0.00     0.020 A 
ATOM     94  C   UNL A   1      49.366  25.726  35.596  1.00  0.00     0.054 A 
BRANCH  94  95
ATOM     95  S   UNL A   1      50.826  24.908  36.294  1.00  0.00     0.124 S 
ATOM     96  O   UNL A   1      50.655  25.147  37.724  1.00  0.00    -0.237 OA
ATOM     97  O   UNL A   1      50.653  23.524  35.861  1.00  0.00    -0.237 OA
ATOM     98  O   UNL A   1      51.948  25.613  35.676  1.00  0.00    -0.744 OA
ENDBRANCH  94  95
ENDBRANCH  68  89
ENDBRANCH  42  43
ENDBRANCH  35  37
ENDBRANCH  34  35
ENDBRANCH  33  34
ENDBRANCH  32  33
ENDBRANCH  31  32
ENDBRANCH  30  31
ENDBRANCH   1  30
TORSDOF 26
ENDMDL
