MODEL 1
REMARK VINA RESULT:      -8.9      0.000      0.000
REMARK SMILES CC(=O)Nc1cccc(-c2cc(F)ccc2C(=O)OCCOCCOCCOCCOC(=O)c2ccc(-c3c4nc(c(-c5ccc(S(=O)(=O)[O-])cc5)c5ccc([nH]5)c(-c5ccc(S(=O)(=O)[O-])cc5)c5nc(c(-c6ccc(S(=O)(=O)[O-])cc6)c6ccc3[nH]6)C=C5)C=C4)cc2)c1
REMARK SMILES IDX 26 1 25 2 24 3 23 4 22 5 21 6 20 7 19 8 17 9 18 10 16 11
REMARK SMILES IDX 10 12 11 13 12 14 15 15 13 16 14 17 9 18 5 19 6 20 94 21
REMARK SMILES IDX 7 22 8 23 4 24 1 25 2 26 3 27 27 29 28 30 29 31 30 32 31 33
REMARK SMILES IDX 32 34 33 35 34 36 35 37 93 38 36 39 92 40 37 41 38 42 39 43
REMARK SMILES IDX 86 44 40 45 91 46 85 47 87 48 41 49 90 50 84 51 83 52 42 54
REMARK SMILES IDX 72 55 53 56 71 57 54 58 57 59 70 60 88 61 55 62 56 63 69 65
REMARK SMILES IDX 89 66 58 67 43 68 44 69 52 70 45 71 51 72 46 73 47 74 48 75
REMARK SMILES IDX 49 76 50 77 73 78 74 79 82 80 75 81 81 82 76 83 77 84 78 85
REMARK SMILES IDX 79 86 80 87 59 88 60 89 68 90 61 91 67 92 62 93 63 94 64 95
REMARK SMILES IDX 65 96 66 97
REMARK H PARENT 4 28 87 53 57 64
REMARK Flexibility Score: inf
ROOT
ATOM      1  C   UNL A   1      34.692  34.666  29.425  1.00  0.00     0.188 C 
ENDROOT
BRANCH   1   2
ATOM      2  O   UNL A   1      34.730  33.636  28.449  1.00  0.00    -0.377 OA
BRANCH   2   3
ATOM      3  C   UNL A   1      35.825  32.728  28.406  1.00  0.00     0.188 C 
BRANCH   3   4
ATOM      4  C   UNL A   1      35.876  31.483  27.478  1.00  0.00     0.188 C 
BRANCH   4   5
ATOM      5  O   UNL A   1      34.693  30.715  27.409  1.00  0.00    -0.376 OA
BRANCH   5   6
ATOM      6  C   UNL A   1      34.669  29.362  27.815  1.00  0.00     0.202 C 
BRANCH   6   7
ATOM      7  C   UNL A   1      34.262  28.258  26.836  1.00  0.00     0.261 C 
BRANCH   7   8
ATOM      8  O   UNL A   1      33.039  28.503  26.140  1.00  0.00    -0.460 OA
BRANCH   8   9
ATOM      9  C   UNL A   1      32.432  27.453  25.555  1.00  0.00     0.338 C 
ATOM     10  O   UNL A   1      32.535  26.282  25.882  1.00  0.00    -0.246 OA
BRANCH   9  11
ATOM     11  C   UNL A   1      31.454  27.931  24.535  1.00  0.00     0.068 A 
ATOM     12  C   UNL A   1      31.000  27.182  23.413  1.00  0.00    -0.001 A 
ATOM     13  C   UNL A   1      30.055  27.804  22.570  1.00  0.00     0.048 A 
ATOM     14  C   UNL A   1      29.645  29.119  22.786  1.00  0.00     0.123 A 
ATOM     15  C   UNL A   1      31.035  29.264  24.727  1.00  0.00     0.019 A 
ATOM     16  F   UNL A   1      28.766  29.682  21.946  1.00  0.00    -0.207 F 
ATOM     17  C   UNL A   1      30.146  29.863  23.842  1.00  0.00     0.040 A 
BRANCH  12  18
ATOM     18  C   UNL A   1      31.517  25.839  23.043  1.00  0.00    -0.015 A 
ATOM     19  C   UNL A   1      31.770  23.463  23.589  1.00  0.00     0.041 A 
ATOM     20  C   UNL A   1      32.787  23.356  22.638  1.00  0.00     0.026 A 
ATOM     21  C   UNL A   1      31.103  24.684  23.727  1.00  0.00     0.034 A 
ATOM     22  C   UNL A   1      33.147  24.459  21.864  1.00  0.00     0.003 A 
ATOM     23  C   UNL A   1      32.532  25.693  22.081  1.00  0.00     0.009 A 
BRANCH  19  24
ATOM     24  N   UNL A   1      31.602  22.384  24.476  1.00  0.00    -0.326 N 
ATOM     25  C   UNL A   1      33.849  21.304  24.483  1.00  0.00     0.114 C 
ATOM     26  C   UNL A   1      32.364  21.277  24.715  1.00  0.00     0.221 C 
ATOM     27  O   UNL A   1      31.817  20.253  25.128  1.00  0.00    -0.275 OA
ATOM     28  H   UNL A   1      30.786  22.437  25.025  1.00  0.00     0.169 HD
ENDBRANCH  19  24
ENDBRANCH  12  18
ENDBRANCH   9  11
ENDBRANCH   8   9
ENDBRANCH   7   8
ENDBRANCH   6   7
ENDBRANCH   5   6
ENDBRANCH   4   5
ENDBRANCH   3   4
ENDBRANCH   2   3
ENDBRANCH   1   2
BRANCH   1  29
ATOM     29  C   UNL A   1      33.952  34.384  30.749  1.00  0.00     0.188 C 
BRANCH  29  30
ATOM     30  O   UNL A   1      34.131  33.060  31.229  1.00  0.00    -0.376 OA
BRANCH  30  31
ATOM     31  C   UNL A   1      34.459  32.892  32.596  1.00  0.00     0.202 C 
BRANCH  31  32
ATOM     32  C   UNL A   1      35.752  32.151  32.973  1.00  0.00     0.261 C 
BRANCH  32  33
ATOM     33  O   UNL A   1      36.831  32.199  32.030  1.00  0.00    -0.460 OA
BRANCH  33  34
ATOM     34  C   UNL A   1      38.014  32.686  32.456  1.00  0.00     0.338 C 
ATOM     35  O   UNL A   1      38.197  33.519  33.329  1.00  0.00    -0.246 OA
BRANCH  34  36
ATOM     36  C   UNL A   1      39.074  31.889  31.808  1.00  0.00     0.060 A 
ATOM     37  C   UNL A   1      40.024  31.232  32.602  1.00  0.00     0.016 A 
ATOM     38  C   UNL A   1      39.115  31.777  30.416  1.00  0.00     0.016 A 
ATOM     39  C   UNL A   1      41.040  30.488  32.003  1.00  0.00     0.010 A 
ATOM     40  C   UNL A   1      40.145  31.050  29.817  1.00  0.00     0.010 A 
ATOM     41  C   UNL A   1      41.131  30.433  30.607  1.00  0.00    -0.014 A 
BRANCH  41  42
ATOM     42  C   UNL A   1      42.362  29.906  29.971  1.00  0.00     0.031 A 
ATOM     43  C   UNL A   1      43.544  30.826  29.838  1.00  0.00     0.074 A 
ATOM     44  C   UNL A   1      42.435  28.640  29.527  1.00  0.00     0.049 A 
ATOM     45  N   UNL A   1      44.708  30.610  29.284  1.00  0.00    -0.248 NA
ATOM     46  C   UNL A   1      43.384  32.177  30.401  1.00  0.00     0.031 C 
ATOM     47  C   UNL A   1      41.373  27.642  29.636  1.00  0.00     0.029 A 
ATOM     48  N   UNL A   1      43.454  27.984  28.884  1.00  0.00    -0.354 N 
ATOM     49  C   UNL A   1      45.413  31.799  29.416  1.00  0.00     0.074 A 
ATOM     50  C   UNL A   1      44.535  32.742  30.074  1.00  0.00     0.031 C 
ATOM     51  C   UNL A   1      41.793  26.500  29.063  1.00  0.00     0.029 A 
ATOM     52  C   UNL A   1      43.135  26.699  28.516  1.00  0.00     0.049 A 
ATOM     53  H   UNL A   1      44.330  28.395  28.702  1.00  0.00     0.167 HD
ATOM     54  C   UNL A   1      46.678  32.084  29.024  1.00  0.00     0.031 A 
ATOM     55  C   UNL A   1      43.835  25.798  27.800  1.00  0.00     0.031 A 
ATOM     56  C   UNL A   1      47.536  31.149  28.347  1.00  0.00     0.049 A 
ATOM     57  C   UNL A   1      45.217  26.150  27.313  1.00  0.00     0.074 A 
ATOM     58  C   UNL A   1      48.844  31.326  27.930  1.00  0.00     0.029 A 
ATOM     59  N   UNL A   1      47.167  29.866  27.967  1.00  0.00    -0.354 N 
ATOM     60  N   UNL A   1      45.888  27.265  27.476  1.00  0.00    -0.248 NA
ATOM     61  C   UNL A   1      45.937  25.119  26.555  1.00  0.00     0.031 C 
ATOM     62  C   UNL A   1      49.238  30.180  27.233  1.00  0.00     0.029 A 
ATOM     63  C   UNL A   1      48.206  29.254  27.286  1.00  0.00     0.049 A 
ATOM     64  H   UNL A   1      46.294  29.451  28.156  1.00  0.00     0.167 HD
ATOM     65  C   UNL A   1      47.121  27.063  26.863  1.00  0.00     0.074 A 
ATOM     66  C   UNL A   1      47.105  25.711  26.337  1.00  0.00     0.031 C 
ATOM     67  C   UNL A   1      48.172  27.914  26.753  1.00  0.00     0.031 A 
BRANCH  54  68
ATOM     68  C   UNL A   1      47.176  33.486  29.266  1.00  0.00    -0.014 A 
ATOM     69  C   UNL A   1      47.013  34.505  28.308  1.00  0.00     0.010 A 
ATOM     70  C   UNL A   1      47.833  33.786  30.473  1.00  0.00     0.010 A 
ATOM     71  C   UNL A   1      47.554  35.775  28.526  1.00  0.00     0.020 A 
ATOM     72  C   UNL A   1      48.344  35.064  30.710  1.00  0.00     0.020 A 
ATOM     73  C   UNL A   1      48.223  36.044  29.724  1.00  0.00     0.054 A 
BRANCH  73  74
ATOM     74  S   UNL A   1      48.934  37.694  29.973  1.00  0.00     0.124 S 
ATOM     75  O   UNL A   1      49.539  37.564  31.297  1.00  0.00    -0.237 OA
ATOM     76  O   UNL A   1      49.875  37.807  28.862  1.00  0.00    -0.237 OA
ATOM     77  O   UNL A   1      47.778  38.584  29.902  1.00  0.00    -0.744 OA
ENDBRANCH  73  74
ENDBRANCH  54  68
BRANCH  55  78
ATOM     78  C   UNL A   1      43.218  24.480  27.486  1.00  0.00    -0.014 A 
ATOM     79  C   UNL A   1      43.307  23.407  28.390  1.00  0.00     0.010 A 
ATOM     80  C   UNL A   1      42.489  24.311  26.294  1.00  0.00     0.010 A 
ATOM     81  C   UNL A   1      42.670  22.193  28.110  1.00  0.00     0.020 A 
ATOM     82  C   UNL A   1      41.829  23.110  26.024  1.00  0.00     0.020 A 
ATOM     83  C   UNL A   1      41.926  22.057  26.934  1.00  0.00     0.054 A 
BRANCH  83  84
ATOM     84  S   UNL A   1      41.029  20.507  26.639  1.00  0.00     0.124 S 
ATOM     85  O   UNL A   1      41.926  19.806  25.726  1.00  0.00    -0.237 OA
ATOM     86  O   UNL A   1      40.924  19.944  27.982  1.00  0.00    -0.237 OA
ATOM     87  O   UNL A   1      39.764  20.952  26.057  1.00  0.00    -0.744 OA
ENDBRANCH  83  84
ENDBRANCH  55  78
BRANCH  67  88
ATOM     88  C   UNL A   1      49.411  27.408  26.058  1.00  0.00    -0.014 A 
ATOM     89  C   UNL A   1      49.546  27.462  24.659  1.00  0.00     0.010 A 
ATOM     90  C   UNL A   1      50.488  26.927  26.828  1.00  0.00     0.010 A 
ATOM     91  C   UNL A   1      50.719  27.015  24.043  1.00  0.00     0.020 A 
ATOM     92  C   UNL A   1      51.674  26.510  26.218  1.00  0.00     0.020 A 
ATOM     93  C   UNL A   1      51.776  26.543  24.827  1.00  0.00     0.054 A 
BRANCH  93  94
ATOM     94  S   UNL A   1      53.302  26.008  24.004  1.00  0.00     0.124 S 
ATOM     95  O   UNL A   1      53.025  26.330  22.608  1.00  0.00    -0.237 OA
ATOM     96  O   UNL A   1      54.320  26.833  24.651  1.00  0.00    -0.237 OA
ATOM     97  O   UNL A   1      53.380  24.581  24.310  1.00  0.00    -0.744 OA
ENDBRANCH  93  94
ENDBRANCH  67  88
ENDBRANCH  41  42
ENDBRANCH  34  36
ENDBRANCH  33  34
ENDBRANCH  32  33
ENDBRANCH  31  32
ENDBRANCH  30  31
ENDBRANCH  29  30
ENDBRANCH   1  29
TORSDOF 25
ENDMDL
MODEL 2
REMARK VINA RESULT:      -8.3      3.380      9.000
REMARK SMILES CC(=O)Nc1cccc(-c2cc(F)ccc2C(=O)OCCOCCOCCOCCOC(=O)c2ccc(-c3c4nc(c(-c5ccc(S(=O)(=O)[O-])cc5)c5ccc([nH]5)c(-c5ccc(S(=O)(=O)[O-])cc5)c5nc(c(-c6ccc(S(=O)(=O)[O-])cc6)c6ccc3[nH]6)C=C5)C=C4)cc2)c1
REMARK SMILES IDX 26 1 25 2 24 3 23 4 22 5 21 6 20 7 19 8 17 9 18 10 16 11
REMARK SMILES IDX 10 12 11 13 12 14 15 15 13 16 14 17 9 18 5 19 6 20 94 21
REMARK SMILES IDX 7 22 8 23 4 24 1 25 2 26 3 27 27 29 28 30 29 31 30 32 31 33
REMARK SMILES IDX 32 34 33 35 34 36 35 37 93 38 36 39 92 40 37 41 38 42 39 43
REMARK SMILES IDX 86 44 40 45 91 46 85 47 87 48 41 49 90 50 84 51 83 52 42 54
REMARK SMILES IDX 72 55 53 56 71 57 54 58 57 59 70 60 88 61 55 62 56 63 69 65
REMARK SMILES IDX 89 66 58 67 43 68 44 69 52 70 45 71 51 72 46 73 47 74 48 75
REMARK SMILES IDX 49 76 50 77 73 78 74 79 82 80 75 81 81 82 76 83 77 84 78 85
REMARK SMILES IDX 79 86 80 87 59 88 60 89 68 90 61 91 67 92 62 93 63 94 64 95
REMARK SMILES IDX 65 96 66 97
REMARK H PARENT 4 28 87 53 57 64
REMARK Flexibility Score: inf
ROOT
ATOM      1  C   UNL A   1      34.147  35.148  30.223  1.00  0.00     0.188 C 
ENDROOT
BRANCH   1   2
ATOM      2  O   UNL A   1      34.173  33.761  29.923  1.00  0.00    -0.377 OA
BRANCH   2   3
ATOM      3  C   UNL A   1      34.068  33.315  28.576  1.00  0.00     0.188 C 
BRANCH   3   4
ATOM      4  C   UNL A   1      35.233  32.643  27.798  1.00  0.00     0.188 C 
BRANCH   4   5
ATOM      5  O   UNL A   1      35.299  31.235  27.880  1.00  0.00    -0.376 OA
BRANCH   5   6
ATOM      6  C   UNL A   1      34.217  30.423  27.473  1.00  0.00     0.202 C 
BRANCH   6   7
ATOM      7  C   UNL A   1      34.409  28.921  27.241  1.00  0.00     0.261 C 
BRANCH   7   8
ATOM      8  O   UNL A   1      33.308  28.274  26.601  1.00  0.00    -0.460 OA
BRANCH   8   9
ATOM      9  C   UNL A   1      33.248  28.327  25.257  1.00  0.00     0.338 C 
ATOM     10  O   UNL A   1      34.176  28.561  24.499  1.00  0.00    -0.246 OA
BRANCH   9  11
ATOM     11  C   UNL A   1      31.904  27.883  24.787  1.00  0.00     0.068 A 
ATOM     12  C   UNL A   1      31.414  26.547  24.832  1.00  0.00    -0.001 A 
ATOM     13  C   UNL A   1      30.104  26.331  24.354  1.00  0.00     0.048 A 
ATOM     14  C   UNL A   1      29.356  27.366  23.796  1.00  0.00     0.123 A 
ATOM     15  C   UNL A   1      31.134  28.913  24.206  1.00  0.00     0.019 A 
ATOM     16  F   UNL A   1      28.126  27.114  23.330  1.00  0.00    -0.207 F 
ATOM     17  C   UNL A   1      29.869  28.649  23.694  1.00  0.00     0.040 A 
BRANCH  12  18
ATOM     18  C   UNL A   1      32.220  25.378  25.270  1.00  0.00    -0.015 A 
ATOM     19  C   UNL A   1      33.886  23.660  24.742  1.00  0.00     0.041 A 
ATOM     20  C   UNL A   1      33.486  22.932  25.866  1.00  0.00     0.026 A 
ATOM     21  C   UNL A   1      33.297  24.905  24.502  1.00  0.00     0.034 A 
ATOM     22  C   UNL A   1      32.495  23.429  26.711  1.00  0.00     0.003 A 
ATOM     23  C   UNL A   1      31.854  24.629  26.402  1.00  0.00     0.009 A 
BRANCH  19  24
ATOM     24  N   UNL A   1      34.731  23.013  23.822  1.00  0.00    -0.326 N 
ATOM     25  C   UNL A   1      36.995  23.329  24.819  1.00  0.00     0.114 C 
ATOM     26  C   UNL A   1      36.086  23.045  23.656  1.00  0.00     0.221 C 
ATOM     27  O   UNL A   1      36.555  22.833  22.536  1.00  0.00    -0.275 OA
ATOM     28  H   UNL A   1      34.261  22.431  23.183  1.00  0.00     0.169 HD
ENDBRANCH  19  24
ENDBRANCH  12  18
ENDBRANCH   9  11
ENDBRANCH   8   9
ENDBRANCH   7   8
ENDBRANCH   6   7
ENDBRANCH   5   6
ENDBRANCH   4   5
ENDBRANCH   3   4
ENDBRANCH   2   3
ENDBRANCH   1   2
BRANCH   1  29
ATOM     29  C   UNL A   1      33.316  35.613  31.436  1.00  0.00     0.188 C 
BRANCH  29  30
ATOM     30  O   UNL A   1      33.134  34.607  32.420  1.00  0.00    -0.376 OA
BRANCH  30  31
ATOM     31  C   UNL A   1      34.047  34.568  33.502  1.00  0.00     0.202 C 
BRANCH  31  32
ATOM     32  C   UNL A   1      35.270  33.640  33.420  1.00  0.00     0.261 C 
BRANCH  32  33
ATOM     33  O   UNL A   1      36.512  34.150  33.924  1.00  0.00    -0.460 OA
BRANCH  33  34
ATOM     34  C   UNL A   1      37.422  33.260  34.365  1.00  0.00     0.338 C 
ATOM     35  O   UNL A   1      37.217  32.280  35.064  1.00  0.00    -0.246 OA
BRANCH  34  36
ATOM     36  C   UNL A   1      38.699  33.570  33.691  1.00  0.00     0.060 A 
ATOM     37  C   UNL A   1      38.679  34.146  32.414  1.00  0.00     0.016 A 
ATOM     38  C   UNL A   1      39.912  33.308  34.332  1.00  0.00     0.016 A 
ATOM     39  C   UNL A   1      39.877  34.432  31.759  1.00  0.00     0.010 A 
ATOM     40  C   UNL A   1      41.110  33.572  33.667  1.00  0.00     0.010 A 
ATOM     41  C   UNL A   1      41.096  34.102  32.364  1.00  0.00    -0.014 A 
BRANCH  41  42
ATOM     42  C   UNL A   1      42.343  34.121  31.562  1.00  0.00     0.031 A 
ATOM     43  C   UNL A   1      42.582  32.996  30.594  1.00  0.00     0.074 A 
ATOM     44  C   UNL A   1      43.240  35.113  31.685  1.00  0.00     0.049 A 
ATOM     45  N   UNL A   1      43.611  32.771  29.819  1.00  0.00    -0.248 NA
ATOM     46  C   UNL A   1      41.518  31.984  30.494  1.00  0.00     0.031 C 
ATOM     47  C   UNL A   1      43.102  36.277  32.557  1.00  0.00     0.029 A 
ATOM     48  N   UNL A   1      44.455  35.290  31.072  1.00  0.00    -0.354 N 
ATOM     49  C   UNL A   1      43.326  31.586  29.152  1.00  0.00     0.074 A 
ATOM     50  C   UNL A   1      42.045  31.123  29.638  1.00  0.00     0.031 C 
ATOM     51  C   UNL A   1      44.201  37.043  32.434  1.00  0.00     0.029 A 
ATOM     52  C   UNL A   1      45.132  36.404  31.504  1.00  0.00     0.049 A 
ATOM     53  H   UNL A   1      44.808  34.676  30.388  1.00  0.00     0.167 HD
ATOM     54  C   UNL A   1      44.065  30.938  28.220  1.00  0.00     0.031 A 
ATOM     55  C   UNL A   1      46.370  36.844  31.204  1.00  0.00     0.031 A 
ATOM     56  C   UNL A   1      45.351  31.391  27.761  1.00  0.00     0.049 A 
ATOM     57  C   UNL A   1      47.208  36.078  30.214  1.00  0.00     0.074 A 
ATOM     58  C   UNL A   1      46.171  30.823  26.801  1.00  0.00     0.029 A 
ATOM     59  N   UNL A   1      46.016  32.509  28.244  1.00  0.00    -0.354 N 
ATOM     60  N   UNL A   1      46.914  34.978  29.562  1.00  0.00    -0.248 NA
ATOM     61  C   UNL A   1      48.541  36.617  29.913  1.00  0.00     0.031 C 
ATOM     62  C   UNL A   1      47.362  31.556  26.759  1.00  0.00     0.029 A 
ATOM     63  C   UNL A   1      47.253  32.627  27.632  1.00  0.00     0.049 A 
ATOM     64  H   UNL A   1      45.660  33.129  28.922  1.00  0.00     0.167 HD
ATOM     65  C   UNL A   1      48.014  34.707  28.754  1.00  0.00     0.074 A 
ATOM     66  C   UNL A   1      48.974  35.767  28.991  1.00  0.00     0.031 C 
ATOM     67  C   UNL A   1      48.207  33.679  27.889  1.00  0.00     0.031 A 
BRANCH  54  68
ATOM     68  C   UNL A   1      43.519  29.636  27.690  1.00  0.00    -0.014 A 
ATOM     69  C   UNL A   1      42.606  29.598  26.619  1.00  0.00     0.010 A 
ATOM     70  C   UNL A   1      43.920  28.427  28.286  1.00  0.00     0.010 A 
ATOM     71  C   UNL A   1      42.056  28.384  26.200  1.00  0.00     0.020 A 
ATOM     72  C   UNL A   1      43.400  27.207  27.846  1.00  0.00     0.020 A 
ATOM     73  C   UNL A   1      42.452  27.195  26.823  1.00  0.00     0.054 A 
BRANCH  73  74
ATOM     74  S   UNL A   1      41.708  25.635  26.274  1.00  0.00     0.124 S 
ATOM     75  O   UNL A   1      42.143  24.711  27.319  1.00  0.00    -0.237 OA
ATOM     76  O   UNL A   1      40.281  25.947  26.267  1.00  0.00    -0.237 OA
ATOM     77  O   UNL A   1      42.301  25.411  24.959  1.00  0.00    -0.744 OA
ENDBRANCH  73  74
ENDBRANCH  54  68
BRANCH  55  78
ATOM     78  C   UNL A   1      46.891  38.067  31.875  1.00  0.00    -0.014 A 
ATOM     79  C   UNL A   1      47.668  37.975  33.042  1.00  0.00     0.010 A 
ATOM     80  C   UNL A   1      46.650  39.333  31.311  1.00  0.00     0.010 A 
ATOM     81  C   UNL A   1      48.201  39.129  33.628  1.00  0.00     0.020 A 
ATOM     82  C   UNL A   1      47.204  40.484  31.876  1.00  0.00     0.020 A 
ATOM     83  C   UNL A   1      47.975  40.374  33.034  1.00  0.00     0.054 A 
BRANCH  83  84
ATOM     84  S   UNL A   1      48.758  41.844  33.755  1.00  0.00     0.124 S 
ATOM     85  O   UNL A   1      50.172  41.482  33.722  1.00  0.00    -0.237 OA
ATOM     86  O   UNL A   1      48.353  42.900  32.831  1.00  0.00    -0.237 OA
ATOM     87  O   UNL A   1      48.163  41.929  35.086  1.00  0.00    -0.744 OA
ENDBRANCH  83  84
ENDBRANCH  55  78
BRANCH  67  88
ATOM     88  C   UNL A   1      49.498  33.656  27.108  1.00  0.00    -0.014 A 
ATOM     89  C   UNL A   1      50.619  32.938  27.559  1.00  0.00     0.010 A 
ATOM     90  C   UNL A   1      49.565  34.316  25.866  1.00  0.00     0.010 A 
ATOM     91  C   UNL A   1      51.793  32.908  26.799  1.00  0.00     0.020 A 
ATOM     92  C   UNL A   1      50.726  34.261  25.088  1.00  0.00     0.020 A 
ATOM     93  C   UNL A   1      51.838  33.568  25.567  1.00  0.00     0.054 A 
BRANCH  93  94
ATOM     94  S   UNL A   1      53.359  33.479  24.583  1.00  0.00     0.124 S 
ATOM     95  O   UNL A   1      52.836  33.370  23.224  1.00  0.00    -0.237 OA
ATOM     96  O   UNL A   1      54.021  34.741  24.903  1.00  0.00    -0.237 OA
ATOM     97  O   UNL A   1      54.031  32.284  25.090  1.00  0.00    -0.744 OA
ENDBRANCH  93  94
ENDBRANCH  67  88
ENDBRANCH  41  42
ENDBRANCH  34  36
ENDBRANCH  33  34
ENDBRANCH  32  33
ENDBRANCH  31  32
ENDBRANCH  30  31
ENDBRANCH  29  30
ENDBRANCH   1  29
TORSDOF 25
ENDMDL
MODEL 3
REMARK VINA RESULT:      -8.2      6.332     13.789
REMARK SMILES CC(=O)Nc1cccc(-c2cc(F)ccc2C(=O)OCCOCCOCCOCCOC(=O)c2ccc(-c3c4nc(c(-c5ccc(S(=O)(=O)[O-])cc5)c5ccc([nH]5)c(-c5ccc(S(=O)(=O)[O-])cc5)c5nc(c(-c6ccc(S(=O)(=O)[O-])cc6)c6ccc3[nH]6)C=C5)C=C4)cc2)c1
REMARK SMILES IDX 26 1 25 2 24 3 23 4 22 5 21 6 20 7 19 8 17 9 18 10 16 11
REMARK SMILES IDX 10 12 11 13 12 14 15 15 13 16 14 17 9 18 5 19 6 20 94 21
REMARK SMILES IDX 7 22 8 23 4 24 1 25 2 26 3 27 27 29 28 30 29 31 30 32 31 33
REMARK SMILES IDX 32 34 33 35 34 36 35 37 93 38 36 39 92 40 37 41 38 42 39 43
REMARK SMILES IDX 86 44 40 45 91 46 85 47 87 48 41 49 90 50 84 51 83 52 42 54
REMARK SMILES IDX 72 55 53 56 71 57 54 58 57 59 70 60 88 61 55 62 56 63 69 65
REMARK SMILES IDX 89 66 58 67 43 68 44 69 52 70 45 71 51 72 46 73 47 74 48 75
REMARK SMILES IDX 49 76 50 77 73 78 74 79 82 80 75 81 81 82 76 83 77 84 78 85
REMARK SMILES IDX 79 86 80 87 59 88 60 89 68 90 61 91 67 92 62 93 63 94 64 95
REMARK SMILES IDX 65 96 66 97
REMARK H PARENT 4 28 87 53 57 64
REMARK Flexibility Score: inf
ROOT
ATOM      1  C   UNL A   1      46.852  27.469  24.392  1.00  0.00     0.188 C 
ENDROOT
BRANCH   1   2
ATOM      2  O   UNL A   1      47.213  28.648  25.095  1.00  0.00    -0.377 OA
BRANCH   2   3
ATOM      3  C   UNL A   1      48.159  28.589  26.157  1.00  0.00     0.188 C 
BRANCH   3   4
ATOM      4  C   UNL A   1      48.090  29.487  27.422  1.00  0.00     0.188 C 
BRANCH   4   5
ATOM      5  O   UNL A   1      46.809  29.973  27.766  1.00  0.00    -0.376 OA
BRANCH   5   6
ATOM      6  C   UNL A   1      46.575  31.352  27.965  1.00  0.00     0.202 C 
BRANCH   6   7
ATOM      7  C   UNL A   1      46.418  31.924  29.377  1.00  0.00     0.261 C 
BRANCH   7   8
ATOM      8  O   UNL A   1      45.239  31.497  30.062  1.00  0.00    -0.460 OA
BRANCH   8   9
ATOM      9  C   UNL A   1      44.076  32.091  29.734  1.00  0.00     0.338 C 
ATOM     10  O   UNL A   1      43.339  31.781  28.812  1.00  0.00    -0.246 OA
BRANCH   9  11
ATOM     11  C   UNL A   1      43.705  33.096  30.771  1.00  0.00     0.068 A 
ATOM     12  C   UNL A   1      43.143  34.379  30.513  1.00  0.00    -0.001 A 
ATOM     13  C   UNL A   1      42.842  35.181  31.635  1.00  0.00     0.048 A 
ATOM     14  C   UNL A   1      43.152  34.765  32.928  1.00  0.00     0.123 A 
ATOM     15  C   UNL A   1      44.021  32.701  32.088  1.00  0.00     0.019 A 
ATOM     16  F   UNL A   1      42.875  35.568  33.964  1.00  0.00    -0.207 F 
ATOM     17  C   UNL A   1      43.762  33.544  33.163  1.00  0.00     0.040 A 
BRANCH  12  18
ATOM     18  C   UNL A   1      42.935  34.940  29.153  1.00  0.00    -0.015 A 
ATOM     19  C   UNL A   1      43.867  36.036  27.169  1.00  0.00     0.041 A 
ATOM     20  C   UNL A   1      42.577  36.379  26.757  1.00  0.00     0.026 A 
ATOM     21  C   UNL A   1      44.021  35.260  28.322  1.00  0.00     0.034 A 
ATOM     22  C   UNL A   1      41.469  35.979  27.504  1.00  0.00     0.003 A 
ATOM     23  C   UNL A   1      41.650  35.286  28.701  1.00  0.00     0.009 A 
BRANCH  19  24
ATOM     24  N   UNL A   1      44.942  36.643  26.495  1.00  0.00    -0.326 N 
ATOM     25  C   UNL A   1      46.731  34.910  26.610  1.00  0.00     0.114 C 
ATOM     26  C   UNL A   1      46.270  36.329  26.434  1.00  0.00     0.221 C 
ATOM     27  O   UNL A   1      47.087  37.229  26.228  1.00  0.00    -0.275 OA
ATOM     28  H   UNL A   1      44.692  37.439  25.972  1.00  0.00     0.169 HD
ENDBRANCH  19  24
ENDBRANCH  12  18
ENDBRANCH   9  11
ENDBRANCH   8   9
ENDBRANCH   7   8
ENDBRANCH   6   7
ENDBRANCH   5   6
ENDBRANCH   4   5
ENDBRANCH   3   4
ENDBRANCH   2   3
ENDBRANCH   1   2
BRANCH   1  29
ATOM     29  C   UNL A   1      45.783  26.550  25.018  1.00  0.00     0.188 C 
BRANCH  29  30
ATOM     30  O   UNL A   1      45.912  25.188  24.639  1.00  0.00    -0.376 OA
BRANCH  30  31
ATOM     31  C   UNL A   1      44.867  24.302  24.994  1.00  0.00     0.202 C 
BRANCH  31  32
ATOM     32  C   UNL A   1      45.080  23.311  26.150  1.00  0.00     0.261 C 
BRANCH  32  33
ATOM     33  O   UNL A   1      44.774  23.774  27.472  1.00  0.00    -0.460 OA
BRANCH  33  34
ATOM     34  C   UNL A   1      45.695  24.533  28.099  1.00  0.00     0.338 C 
ATOM     35  O   UNL A   1      46.908  24.485  27.962  1.00  0.00    -0.246 OA
BRANCH  34  36
ATOM     36  C   UNL A   1      44.965  25.574  28.849  1.00  0.00     0.060 A 
ATOM     37  C   UNL A   1      45.209  26.925  28.564  1.00  0.00     0.016 A 
ATOM     38  C   UNL A   1      44.029  25.213  29.820  1.00  0.00     0.016 A 
ATOM     39  C   UNL A   1      44.538  27.920  29.275  1.00  0.00     0.010 A 
ATOM     40  C   UNL A   1      43.375  26.209  30.547  1.00  0.00     0.010 A 
ATOM     41  C   UNL A   1      43.653  27.565  30.301  1.00  0.00    -0.014 A 
BRANCH  41  42
ATOM     42  C   UNL A   1      43.175  28.600  31.249  1.00  0.00     0.031 A 
ATOM     43  C   UNL A   1      43.932  28.791  32.534  1.00  0.00     0.074 A 
ATOM     44  C   UNL A   1      42.099  29.357  30.976  1.00  0.00     0.049 A 
ATOM     45  N   UNL A   1      43.684  29.597  33.532  1.00  0.00    -0.248 NA
ATOM     46  C   UNL A   1      45.126  27.950  32.718  1.00  0.00     0.031 C 
ATOM     47  C   UNL A   1      41.309  29.294  29.748  1.00  0.00     0.029 A 
ATOM     48  N   UNL A   1      41.483  30.325  31.728  1.00  0.00    -0.354 N 
ATOM     49  C   UNL A   1      44.679  29.351  34.470  1.00  0.00     0.074 A 
ATOM     50  C   UNL A   1      45.515  28.298  33.934  1.00  0.00     0.031 C 
ATOM     51  C   UNL A   1      40.299  30.178  29.839  1.00  0.00     0.029 A 
ATOM     52  C   UNL A   1      40.353  30.840  31.142  1.00  0.00     0.049 A 
ATOM     53  H   UNL A   1      41.819  30.621  32.605  1.00  0.00     0.167 HD
ATOM     54  C   UNL A   1      44.881  29.945  35.670  1.00  0.00     0.031 A 
ATOM     55  C   UNL A   1      39.451  31.724  31.614  1.00  0.00     0.031 A 
ATOM     56  C   UNL A   1      44.030  30.973  36.207  1.00  0.00     0.049 A 
ATOM     57  C   UNL A   1      39.652  32.330  32.978  1.00  0.00     0.074 A 
ATOM     58  C   UNL A   1      44.159  31.660  37.402  1.00  0.00     0.029 A 
ATOM     59  N   UNL A   1      42.878  31.448  35.596  1.00  0.00    -0.354 N 
ATOM     60  N   UNL A   1      40.617  32.116  33.840  1.00  0.00    -0.248 NA
ATOM     61  C   UNL A   1      38.647  33.301  33.429  1.00  0.00     0.031 C 
ATOM     62  C   UNL A   1      43.047  32.495  37.546  1.00  0.00     0.029 A 
ATOM     63  C   UNL A   1      42.265  32.390  36.405  1.00  0.00     0.049 A 
ATOM     64  H   UNL A   1      42.546  31.158  34.715  1.00  0.00     0.167 HD
ATOM     65  C   UNL A   1      40.351  32.946  34.926  1.00  0.00     0.074 A 
ATOM     66  C   UNL A   1      39.139  33.674  34.603  1.00  0.00     0.031 C 
ATOM     67  C   UNL A   1      41.049  33.097  36.080  1.00  0.00     0.031 A 
BRANCH  54  68
ATOM     68  C   UNL A   1      46.033  29.443  36.503  1.00  0.00    -0.014 A 
ATOM     69  C   UNL A   1      45.901  28.330  37.355  1.00  0.00     0.010 A 
ATOM     70  C   UNL A   1      47.270  30.110  36.442  1.00  0.00     0.010 A 
ATOM     71  C   UNL A   1      46.962  27.936  38.174  1.00  0.00     0.020 A 
ATOM     72  C   UNL A   1      48.345  29.697  37.232  1.00  0.00     0.020 A 
ATOM     73  C   UNL A   1      48.176  28.628  38.113  1.00  0.00     0.054 A 
BRANCH  73  74
ATOM     74  S   UNL A   1      49.531  28.109  39.201  1.00  0.00     0.124 S 
ATOM     75  O   UNL A   1      49.482  26.654  39.070  1.00  0.00    -0.237 OA
ATOM     76  O   UNL A   1      50.692  28.755  38.595  1.00  0.00    -0.237 OA
ATOM     77  O   UNL A   1      49.143  28.629  40.510  1.00  0.00    -0.744 OA
ENDBRANCH  73  74
ENDBRANCH  54  68
BRANCH  55  78
ATOM     78  C   UNL A   1      38.264  32.066  30.783  1.00  0.00    -0.014 A 
ATOM     79  C   UNL A   1      37.076  31.323  30.880  1.00  0.00     0.010 A 
ATOM     80  C   UNL A   1      38.307  33.180  29.923  1.00  0.00     0.010 A 
ATOM     81  C   UNL A   1      35.949  31.694  30.138  1.00  0.00     0.020 A 
ATOM     82  C   UNL A   1      37.176  33.569  29.202  1.00  0.00     0.020 A 
ATOM     83  C   UNL A   1      36.003  32.821  29.313  1.00  0.00     0.054 A 
BRANCH  83  84
ATOM     84  S   UNL A   1      34.501  33.339  28.436  1.00  0.00     0.124 S 
ATOM     85  O   UNL A   1      34.067  32.092  27.813  1.00  0.00    -0.237 OA
ATOM     86  O   UNL A   1      33.658  33.831  29.522  1.00  0.00    -0.237 OA
ATOM     87  O   UNL A   1      34.982  34.367  27.515  1.00  0.00    -0.744 OA
ENDBRANCH  83  84
ENDBRANCH  55  78
BRANCH  67  88
ATOM     88  C   UNL A   1      40.541  34.107  37.078  1.00  0.00    -0.014 A 
ATOM     89  C   UNL A   1      39.776  33.721  38.193  1.00  0.00     0.010 A 
ATOM     90  C   UNL A   1      40.891  35.462  36.929  1.00  0.00     0.010 A 
ATOM     91  C   UNL A   1      39.344  34.674  39.119  1.00  0.00     0.020 A 
ATOM     92  C   UNL A   1      40.489  36.414  37.870  1.00  0.00     0.020 A 
ATOM     93  C   UNL A   1      39.705  36.015  38.954  1.00  0.00     0.054 A 
BRANCH  93  94
ATOM     94  S   UNL A   1      39.166  37.225  40.193  1.00  0.00     0.124 S 
ATOM     95  O   UNL A   1      40.438  37.692  40.735  1.00  0.00    -0.237 OA
ATOM     96  O   UNL A   1      38.429  38.197  39.390  1.00  0.00    -0.237 OA
ATOM     97  O   UNL A   1      38.348  36.438  41.114  1.00  0.00    -0.744 OA
ENDBRANCH  93  94
ENDBRANCH  67  88
ENDBRANCH  41  42
ENDBRANCH  34  36
ENDBRANCH  33  34
ENDBRANCH  32  33
ENDBRANCH  31  32
ENDBRANCH  30  31
ENDBRANCH  29  30
ENDBRANCH   1  29
TORSDOF 25
ENDMDL
