MODEL 1
REMARK VINA RESULT:      -8.8      0.000      0.000
REMARK SMILES C[C@H](NC(=O)CCN1C(=O)/C(=C/c2ccc([N+](=O)[O-])cc2)SC1=S)C(=O)OCCOCCOCCOCCOC(=O)c1ccc(-c2c3nc(c(-c4ccc(S(=O)(=O)[O-])cc4)c4ccc([nH]4)c(-c4ccc(S(=O)(=O)[O-])cc4)c4nc(c(-c5ccc(S(=O)(=O)[O-])cc5)c5ccc2[nH]5)C=C4)C=C3)cc1
REMARK SMILES IDX 31 1 30 2 29 3 28 4 27 5 25 6 26 7 2 8 1 9 3 10 4 11 5 13
REMARK SMILES IDX 6 14 7 15 8 16 9 17 23 18 10 19 11 20 22 21 24 22 12 23
REMARK SMILES IDX 13 24 14 25 21 26 15 27 20 28 16 29 17 30 18 31 19 32 32 33
REMARK SMILES IDX 33 34 34 35 35 36 36 37 37 38 38 39 39 40 40 41 41 42 42 43
REMARK SMILES IDX 43 44 101 45 44 46 100 47 45 48 46 49 47 50 94 51 48 52
REMARK SMILES IDX 99 53 93 54 95 55 49 56 98 57 92 58 91 59 50 61 80 62 61 63
REMARK SMILES IDX 79 64 62 65 65 66 78 67 96 68 63 69 64 70 77 72 97 73 66 74
REMARK SMILES IDX 51 75 52 76 60 77 53 78 59 79 54 80 55 81 56 82 57 83 58 84
REMARK SMILES IDX 81 85 82 86 90 87 83 88 89 89 84 90 85 91 86 92 87 93 88 94
REMARK SMILES IDX 67 95 68 96 76 97 69 98 75 99 70 100 71 101 72 102 73 103
REMARK SMILES IDX 74 104
REMARK H PARENT 3 12 95 60 65 71
REMARK Flexibility Score: inf
ROOT
ATOM      1  C   UNL A   1      38.660  23.058  25.913  1.00  0.00     0.188 C 
ENDROOT
BRANCH   1   2
ATOM      2  O   UNL A   1      37.852  21.897  25.787  1.00  0.00    -0.376 OA
BRANCH   2   3
ATOM      3  C   UNL A   1      36.441  21.909  25.955  1.00  0.00     0.202 C 
BRANCH   3   4
ATOM      4  C   UNL A   1      35.511  20.820  25.391  1.00  0.00     0.261 C 
BRANCH   4   5
ATOM      5  O   UNL A   1      34.195  20.743  25.950  1.00  0.00    -0.462 OA
BRANCH   5   6
ATOM      6  C   UNL A   1      33.266  20.057  25.232  1.00  0.00     0.328 C 
ATOM      7  O   UNL A   1      33.222  18.839  25.134  1.00  0.00    -0.250 OA
BRANCH   6   8
ATOM      8  C   UNL A   1      32.113  20.977  24.794  1.00  0.00     0.189 C 
ATOM      9  C   UNL A   1      32.170  21.484  23.364  1.00  0.00     0.043 C 
BRANCH   8  10
ATOM     10  N   UNL A   1      31.473  21.770  25.854  1.00  0.00    -0.343 N 
ATOM     11  C   UNL A   1      31.039  23.003  26.150  1.00  0.00     0.222 C 
ATOM     12  H   UNL A   1      31.301  21.183  26.626  1.00  0.00     0.164 HD
ATOM     13  O   UNL A   1      30.651  23.155  27.315  1.00  0.00    -0.275 OA
BRANCH  11  14
ATOM     14  C   UNL A   1      30.907  24.143  25.185  1.00  0.00     0.122 C 
BRANCH  14  15
ATOM     15  C   UNL A   1      32.159  24.998  24.998  1.00  0.00     0.137 C 
BRANCH  15  16
ATOM     16  N   UNL A   1      31.936  26.446  24.959  1.00  0.00    -0.292 N 
ATOM     17  C   UNL A   1      31.773  27.117  26.159  1.00  0.00     0.266 C 
ATOM     18  C   UNL A   1      31.664  27.197  23.837  1.00  0.00     0.148 C 
ATOM     19  O   UNL A   1      31.618  26.605  27.258  1.00  0.00    -0.268 OA
ATOM     20  C   UNL A   1      31.827  28.590  25.933  1.00  0.00     0.081 C 
ATOM     21  S   UNL A   1      31.699  28.911  24.258  1.00  0.00    -0.054 SA
ATOM     22  S   UNL A   1      31.348  26.675  22.282  1.00  0.00    -0.052 S 
ATOM     23  C   UNL A   1      32.128  29.375  26.977  1.00  0.00     0.029 C 
BRANCH  23  24
ATOM     24  C   UNL A   1      32.651  30.756  27.089  1.00  0.00    -0.024 A 
ATOM     25  C   UNL A   1      31.747  31.801  26.820  1.00  0.00     0.015 A 
ATOM     26  C   UNL A   1      33.873  31.087  27.692  1.00  0.00     0.015 A 
ATOM     27  C   UNL A   1      32.023  33.122  27.197  1.00  0.00     0.086 A 
ATOM     28  C   UNL A   1      34.159  32.402  28.082  1.00  0.00     0.086 A 
ATOM     29  C   UNL A   1      33.224  33.412  27.849  1.00  0.00     0.269 A 
BRANCH  29  30
ATOM     30  N   UNL A   1      33.487  34.774  28.325  1.00  0.00     0.062 N 
ATOM     31  O   UNL A   1      34.489  35.358  27.884  1.00  0.00    -0.258 OA
ATOM     32  O   UNL A   1      32.698  35.264  29.147  1.00  0.00    -0.258 OA
ENDBRANCH  29  30
ENDBRANCH  23  24
ENDBRANCH  15  16
ENDBRANCH  14  15
ENDBRANCH  11  14
ENDBRANCH   8  10
ENDBRANCH   6   8
ENDBRANCH   5   6
ENDBRANCH   4   5
ENDBRANCH   3   4
ENDBRANCH   2   3
ENDBRANCH   1   2
BRANCH   1  33
ATOM     33  C   UNL A   1      39.379  23.414  27.224  1.00  0.00     0.188 C 
BRANCH  33  34
ATOM     34  O   UNL A   1      40.721  22.995  27.282  1.00  0.00    -0.377 OA
BRANCH  34  35
ATOM     35  C   UNL A   1      41.591  23.604  26.327  1.00  0.00     0.188 C 
BRANCH  35  36
ATOM     36  C   UNL A   1      42.580  22.693  25.556  1.00  0.00     0.188 C 
BRANCH  36  37
ATOM     37  O   UNL A   1      43.647  22.149  26.326  1.00  0.00    -0.376 OA
BRANCH  37  38
ATOM     38  C   UNL A   1      44.952  22.710  26.246  1.00  0.00     0.202 C 
BRANCH  38  39
ATOM     39  C   UNL A   1      45.236  24.078  26.893  1.00  0.00     0.261 C 
BRANCH  39  40
ATOM     40  O   UNL A   1      46.614  24.449  27.026  1.00  0.00    -0.460 OA
BRANCH  40  41
ATOM     41  C   UNL A   1      47.185  25.098  25.994  1.00  0.00     0.338 C 
ATOM     42  O   UNL A   1      47.492  24.626  24.909  1.00  0.00    -0.246 OA
BRANCH  41  43
ATOM     43  C   UNL A   1      47.173  26.541  26.304  1.00  0.00     0.060 A 
ATOM     44  C   UNL A   1      47.891  26.993  27.419  1.00  0.00     0.016 A 
ATOM     45  C   UNL A   1      46.458  27.439  25.507  1.00  0.00     0.016 A 
ATOM     46  C   UNL A   1      47.853  28.338  27.774  1.00  0.00     0.010 A 
ATOM     47  C   UNL A   1      46.394  28.782  25.882  1.00  0.00     0.010 A 
ATOM     48  C   UNL A   1      47.053  29.224  27.044  1.00  0.00    -0.014 A 
BRANCH  48  49
ATOM     49  C   UNL A   1      46.704  30.532  27.645  1.00  0.00     0.031 A 
ATOM     50  C   UNL A   1      45.432  30.619  28.447  1.00  0.00     0.074 A 
ATOM     51  C   UNL A   1      47.514  31.597  27.531  1.00  0.00     0.049 A 
ATOM     52  N   UNL A   1      44.900  31.649  29.048  1.00  0.00    -0.248 NA
ATOM     53  C   UNL A   1      44.658  29.372  28.587  1.00  0.00     0.031 C 
ATOM     54  C   UNL A   1      48.800  31.616  26.836  1.00  0.00     0.029 A 
ATOM     55  N   UNL A   1      47.366  32.877  28.002  1.00  0.00    -0.354 N 
ATOM     56  C   UNL A   1      43.725  31.179  29.626  1.00  0.00     0.074 A 
ATOM     57  C   UNL A   1      43.607  29.781  29.279  1.00  0.00     0.031 C 
ATOM     58  C   UNL A   1      49.320  32.853  26.919  1.00  0.00     0.029 A 
ATOM     59  C   UNL A   1      48.388  33.720  27.639  1.00  0.00     0.049 A 
ATOM     60  H   UNL A   1      46.600  33.164  28.550  1.00  0.00     0.167 HD
ATOM     61  C   UNL A   1      42.825  31.852  30.380  1.00  0.00     0.031 A 
ATOM     62  C   UNL A   1      48.539  35.043  27.844  1.00  0.00     0.031 A 
ATOM     63  C   UNL A   1      42.940  33.248  30.707  1.00  0.00     0.049 A 
ATOM     64  C   UNL A   1      47.479  35.793  28.614  1.00  0.00     0.074 A 
ATOM     65  C   UNL A   1      42.088  34.025  31.470  1.00  0.00     0.029 A 
ATOM     66  N   UNL A   1      43.967  34.079  30.280  1.00  0.00    -0.354 N 
ATOM     67  N   UNL A   1      46.381  35.336  29.169  1.00  0.00    -0.248 NA
ATOM     68  C   UNL A   1      47.687  37.236  28.795  1.00  0.00     0.031 C 
ATOM     69  C   UNL A   1      42.563  35.339  31.449  1.00  0.00     0.029 A 
ATOM     70  C   UNL A   1      43.753  35.366  30.739  1.00  0.00     0.049 A 
ATOM     71  H   UNL A   1      44.734  33.793  29.733  1.00  0.00     0.167 HD
ATOM     72  C   UNL A   1      45.785  36.428  29.791  1.00  0.00     0.074 A 
ATOM     73  C   UNL A   1      46.653  37.564  29.557  1.00  0.00     0.031 C 
ATOM     74  C   UNL A   1      44.628  36.487  30.497  1.00  0.00     0.031 A 
BRANCH  61  75
ATOM     75  C   UNL A   1      41.616  31.096  30.863  1.00  0.00    -0.014 A 
ATOM     76  C   UNL A   1      40.336  31.341  30.336  1.00  0.00     0.010 A 
ATOM     77  C   UNL A   1      41.772  30.096  31.841  1.00  0.00     0.010 A 
ATOM     78  C   UNL A   1      39.229  30.627  30.804  1.00  0.00     0.020 A 
ATOM     79  C   UNL A   1      40.673  29.357  32.288  1.00  0.00     0.020 A 
ATOM     80  C   UNL A   1      39.406  29.638  31.777  1.00  0.00     0.054 A 
BRANCH  80  81
ATOM     81  S   UNL A   1      37.957  28.706  32.342  1.00  0.00     0.124 S 
ATOM     82  O   UNL A   1      38.354  27.329  32.059  1.00  0.00    -0.237 OA
ATOM     83  O   UNL A   1      37.883  29.060  33.757  1.00  0.00    -0.237 OA
ATOM     84  O   UNL A   1      36.868  29.220  31.516  1.00  0.00    -0.744 OA
ENDBRANCH  80  81
ENDBRANCH  61  75
BRANCH  62  85
ATOM     85  C   UNL A   1      49.727  35.754  27.293  1.00  0.00    -0.014 A 
ATOM     86  C   UNL A   1      50.938  35.791  28.003  1.00  0.00     0.010 A 
ATOM     87  C   UNL A   1      49.647  36.404  26.047  1.00  0.00     0.010 A 
ATOM     88  C   UNL A   1      52.042  36.479  27.488  1.00  0.00     0.020 A 
ATOM     89  C   UNL A   1      50.756  37.066  25.514  1.00  0.00     0.020 A 
ATOM     90  C   UNL A   1      51.945  37.108  26.244  1.00  0.00     0.054 A 
BRANCH  90  91
ATOM     91  S   UNL A   1      53.406  37.949  25.574  1.00  0.00     0.124 S 
ATOM     92  O   UNL A   1      54.497  37.150  26.121  1.00  0.00    -0.237 OA
ATOM     93  O   UNL A   1      53.199  37.834  24.132  1.00  0.00    -0.237 OA
ATOM     94  O   UNL A   1      53.294  39.307  26.105  1.00  0.00    -0.744 OA
ENDBRANCH  90  91
ENDBRANCH  62  85
BRANCH  74  95
ATOM     95  C   UNL A   1      44.250  37.811  31.110  1.00  0.00    -0.014 A 
ATOM     96  C   UNL A   1      44.630  38.152  32.421  1.00  0.00     0.010 A 
ATOM     97  C   UNL A   1      43.547  38.754  30.336  1.00  0.00     0.010 A 
ATOM     98  C   UNL A   1      44.280  39.394  32.958  1.00  0.00     0.020 A 
ATOM     99  C   UNL A   1      43.226  40.010  30.857  1.00  0.00     0.020 A 
ATOM    100  C   UNL A   1      43.580  40.316  32.172  1.00  0.00     0.054 A 
BRANCH 100 101
ATOM    101  S   UNL A   1      43.168  41.932  32.882  1.00  0.00     0.124 S 
ATOM    102  O   UNL A   1      41.861  41.678  33.483  1.00  0.00    -0.237 OA
ATOM    103  O   UNL A   1      44.262  42.155  33.824  1.00  0.00    -0.237 OA
ATOM    104  O   UNL A   1      43.158  42.827  31.726  1.00  0.00    -0.744 OA
ENDBRANCH 100 101
ENDBRANCH  74  95
ENDBRANCH  48  49
ENDBRANCH  41  43
ENDBRANCH  40  41
ENDBRANCH  39  40
ENDBRANCH  38  39
ENDBRANCH  37  38
ENDBRANCH  36  37
ENDBRANCH  35  36
ENDBRANCH  34  35
ENDBRANCH  33  34
ENDBRANCH   1  33
TORSDOF 29
ENDMDL
MODEL 2
REMARK VINA RESULT:      -7.9      4.120      5.596
REMARK SMILES C[C@H](NC(=O)CCN1C(=O)/C(=C/c2ccc([N+](=O)[O-])cc2)SC1=S)C(=O)OCCOCCOCCOCCOC(=O)c1ccc(-c2c3nc(c(-c4ccc(S(=O)(=O)[O-])cc4)c4ccc([nH]4)c(-c4ccc(S(=O)(=O)[O-])cc4)c4nc(c(-c5ccc(S(=O)(=O)[O-])cc5)c5ccc2[nH]5)C=C4)C=C3)cc1
REMARK SMILES IDX 31 1 30 2 29 3 28 4 27 5 25 6 26 7 2 8 1 9 3 10 4 11 5 13
REMARK SMILES IDX 6 14 7 15 8 16 9 17 23 18 10 19 11 20 22 21 24 22 12 23
REMARK SMILES IDX 13 24 14 25 21 26 15 27 20 28 16 29 17 30 18 31 19 32 32 33
REMARK SMILES IDX 33 34 34 35 35 36 36 37 37 38 38 39 39 40 40 41 41 42 42 43
REMARK SMILES IDX 43 44 101 45 44 46 100 47 45 48 46 49 47 50 94 51 48 52
REMARK SMILES IDX 99 53 93 54 95 55 49 56 98 57 92 58 91 59 50 61 80 62 61 63
REMARK SMILES IDX 79 64 62 65 65 66 78 67 96 68 63 69 64 70 77 72 97 73 66 74
REMARK SMILES IDX 51 75 52 76 60 77 53 78 59 79 54 80 55 81 56 82 57 83 58 84
REMARK SMILES IDX 81 85 82 86 90 87 83 88 89 89 84 90 85 91 86 92 87 93 88 94
REMARK SMILES IDX 67 95 68 96 76 97 69 98 75 99 70 100 71 101 72 102 73 103
REMARK SMILES IDX 74 104
REMARK H PARENT 3 12 95 60 65 71
REMARK Flexibility Score: inf
ROOT
ATOM      1  C   UNL A   1      38.756  23.074  25.889  1.00  0.00     0.188 C 
ENDROOT
BRANCH   1   2
ATOM      2  O   UNL A   1      37.950  21.917  25.733  1.00  0.00    -0.376 OA
BRANCH   2   3
ATOM      3  C   UNL A   1      36.537  21.927  25.883  1.00  0.00     0.202 C 
BRANCH   3   4
ATOM      4  C   UNL A   1      35.616  20.831  25.317  1.00  0.00     0.261 C 
BRANCH   4   5
ATOM      5  O   UNL A   1      34.292  20.758  25.857  1.00  0.00    -0.462 OA
BRANCH   5   6
ATOM      6  C   UNL A   1      33.395  19.998  25.174  1.00  0.00     0.328 C 
ATOM      7  O   UNL A   1      33.407  18.777  25.133  1.00  0.00    -0.250 OA
BRANCH   6   8
ATOM      8  C   UNL A   1      32.201  20.843  24.696  1.00  0.00     0.189 C 
ATOM      9  C   UNL A   1      32.183  21.199  23.221  1.00  0.00     0.043 C 
BRANCH   8  10
ATOM     10  N   UNL A   1      31.587  21.729  25.697  1.00  0.00    -0.343 N 
ATOM     11  C   UNL A   1      31.050  22.946  25.858  1.00  0.00     0.222 C 
ATOM     12  H   UNL A   1      31.561  21.256  26.561  1.00  0.00     0.164 HD
ATOM     13  O   UNL A   1      30.767  23.242  27.027  1.00  0.00    -0.275 OA
BRANCH  11  14
ATOM     14  C   UNL A   1      30.694  23.902  24.759  1.00  0.00     0.122 C 
BRANCH  14  15
ATOM     15  C   UNL A   1      31.830  24.798  24.270  1.00  0.00     0.137 C 
BRANCH  15  16
ATOM     16  N   UNL A   1      31.863  26.147  24.842  1.00  0.00    -0.292 N 
ATOM     17  C   UNL A   1      32.639  26.364  25.967  1.00  0.00     0.266 C 
ATOM     18  C   UNL A   1      31.036  27.194  24.501  1.00  0.00     0.148 C 
ATOM     19  O   UNL A   1      33.173  25.505  26.653  1.00  0.00    -0.268 OA
ATOM     20  C   UNL A   1      32.755  27.826  26.234  1.00  0.00     0.081 C 
ATOM     21  S   UNL A   1      31.603  28.667  25.291  1.00  0.00    -0.054 SA
ATOM     22  S   UNL A   1      29.696  27.186  23.504  1.00  0.00    -0.052 S 
ATOM     23  C   UNL A   1      33.787  28.249  26.978  1.00  0.00     0.029 C 
BRANCH  23  24
ATOM     24  C   UNL A   1      34.457  29.561  27.130  1.00  0.00    -0.024 A 
ATOM     25  C   UNL A   1      33.627  30.675  27.359  1.00  0.00     0.015 A 
ATOM     26  C   UNL A   1      35.836  29.721  27.328  1.00  0.00     0.015 A 
ATOM     27  C   UNL A   1      34.145  31.888  27.830  1.00  0.00     0.086 A 
ATOM     28  C   UNL A   1      36.367  30.926  27.807  1.00  0.00     0.086 A 
ATOM     29  C   UNL A   1      35.516  32.000  28.074  1.00  0.00     0.269 A 
BRANCH  29  30
ATOM     30  N   UNL A   1      36.059  33.236  28.648  1.00  0.00     0.062 N 
ATOM     31  O   UNL A   1      37.215  33.206  29.095  1.00  0.00    -0.258 OA
ATOM     32  O   UNL A   1      35.330  34.239  28.661  1.00  0.00    -0.258 OA
ENDBRANCH  29  30
ENDBRANCH  23  24
ENDBRANCH  15  16
ENDBRANCH  14  15
ENDBRANCH  11  14
ENDBRANCH   8  10
ENDBRANCH   6   8
ENDBRANCH   5   6
ENDBRANCH   4   5
ENDBRANCH   3   4
ENDBRANCH   2   3
ENDBRANCH   1   2
BRANCH   1  33
ATOM     33  C   UNL A   1      39.461  23.404  27.215  1.00  0.00     0.188 C 
BRANCH  33  34
ATOM     34  O   UNL A   1      40.793  22.958  27.291  1.00  0.00    -0.377 OA
BRANCH  34  35
ATOM     35  C   UNL A   1      41.707  23.620  26.416  1.00  0.00     0.188 C 
BRANCH  35  36
ATOM     36  C   UNL A   1      42.720  22.752  25.626  1.00  0.00     0.188 C 
BRANCH  36  37
ATOM     37  O   UNL A   1      43.647  22.013  26.414  1.00  0.00    -0.376 OA
BRANCH  37  38
ATOM     38  C   UNL A   1      45.001  22.434  26.518  1.00  0.00     0.202 C 
BRANCH  38  39
ATOM     39  C   UNL A   1      45.351  23.681  27.353  1.00  0.00     0.261 C 
BRANCH  39  40
ATOM     40  O   UNL A   1      46.144  24.683  26.704  1.00  0.00    -0.460 OA
BRANCH  40  41
ATOM     41  C   UNL A   1      45.503  25.571  25.920  1.00  0.00     0.338 C 
ATOM     42  O   UNL A   1      45.075  25.380  24.791  1.00  0.00    -0.246 OA
BRANCH  41  43
ATOM     43  C   UNL A   1      45.194  26.759  26.740  1.00  0.00     0.060 A 
ATOM     44  C   UNL A   1      46.230  27.654  27.042  1.00  0.00     0.016 A 
ATOM     45  C   UNL A   1      43.899  26.986  27.212  1.00  0.00     0.016 A 
ATOM     46  C   UNL A   1      45.986  28.752  27.860  1.00  0.00     0.010 A 
ATOM     47  C   UNL A   1      43.662  28.070  28.061  1.00  0.00     0.010 A 
ATOM     48  C   UNL A   1      44.717  28.927  28.425  1.00  0.00    -0.014 A 
BRANCH  48  49
ATOM     49  C   UNL A   1      44.570  29.838  29.582  1.00  0.00     0.031 A 
ATOM     50  C   UNL A   1      44.728  29.252  30.960  1.00  0.00     0.074 A 
ATOM     51  C   UNL A   1      44.356  31.154  29.419  1.00  0.00     0.049 A 
ATOM     52  N   UNL A   1      44.623  29.833  32.126  1.00  0.00    -0.248 NA
ATOM     53  C   UNL A   1      45.050  27.815  31.031  1.00  0.00     0.031 C 
ATOM     54  C   UNL A   1      44.251  31.845  28.135  1.00  0.00     0.029 A 
ATOM     55  N   UNL A   1      44.187  32.146  30.352  1.00  0.00    -0.354 N 
ATOM     56  C   UNL A   1      44.851  28.834  33.065  1.00  0.00     0.074 A 
ATOM     57  C   UNL A   1      45.072  27.605  32.337  1.00  0.00     0.031 C 
ATOM     58  C   UNL A   1      44.025  33.151  28.362  1.00  0.00     0.029 A 
ATOM     59  C   UNL A   1      43.933  33.380  29.803  1.00  0.00     0.049 A 
ATOM     60  H   UNL A   1      44.244  31.989  31.322  1.00  0.00     0.167 HD
ATOM     61  C   UNL A   1      44.877  28.931  34.415  1.00  0.00     0.031 A 
ATOM     62  C   UNL A   1      43.636  34.551  30.399  1.00  0.00     0.031 A 
ATOM     63  C   UNL A   1      44.639  30.154  35.133  1.00  0.00     0.049 A 
ATOM     64  C   UNL A   1      43.584  34.618  31.906  1.00  0.00     0.074 A 
ATOM     65  C   UNL A   1      44.650  30.362  36.500  1.00  0.00     0.029 A 
ATOM     66  N   UNL A   1      44.339  31.373  34.542  1.00  0.00    -0.354 N 
ATOM     67  N   UNL A   1      43.817  33.670  32.784  1.00  0.00    -0.248 NA
ATOM     68  C   UNL A   1      43.240  35.916  32.501  1.00  0.00     0.031 C 
ATOM     69  C   UNL A   1      44.289  31.692  36.739  1.00  0.00     0.029 A 
ATOM     70  C   UNL A   1      44.131  32.331  35.519  1.00  0.00     0.049 A 
ATOM     71  H   UNL A   1      44.282  31.532  33.573  1.00  0.00     0.167 HD
ATOM     72  C   UNL A   1      43.680  34.266  34.033  1.00  0.00     0.074 A 
ATOM     73  C   UNL A   1      43.360  35.659  33.796  1.00  0.00     0.031 C 
ATOM     74  C   UNL A   1      43.812  33.714  35.266  1.00  0.00     0.031 A 
BRANCH  61  75
ATOM     75  C   UNL A   1      45.127  27.670  35.199  1.00  0.00    -0.014 A 
ATOM     76  C   UNL A   1      44.068  26.914  35.733  1.00  0.00     0.010 A 
ATOM     77  C   UNL A   1      46.447  27.216  35.376  1.00  0.00     0.010 A 
ATOM     78  C   UNL A   1      44.327  25.749  36.460  1.00  0.00     0.020 A 
ATOM     79  C   UNL A   1      46.708  26.035  36.075  1.00  0.00     0.020 A 
ATOM     80  C   UNL A   1      45.647  25.316  36.625  1.00  0.00     0.054 A 
BRANCH  80  81
ATOM     81  S   UNL A   1      45.951  23.784  37.547  1.00  0.00     0.124 S 
ATOM     82  O   UNL A   1      45.661  22.765  36.541  1.00  0.00    -0.237 OA
ATOM     83  O   UNL A   1      47.355  23.913  37.924  1.00  0.00    -0.237 OA
ATOM     84  O   UNL A   1      45.002  23.850  38.655  1.00  0.00    -0.744 OA
ENDBRANCH  80  81
ENDBRANCH  61  75
BRANCH  62  85
ATOM     85  C   UNL A   1      43.339  35.755  29.572  1.00  0.00    -0.014 A 
ATOM     86  C   UNL A   1      44.276  36.795  29.451  1.00  0.00     0.010 A 
ATOM     87  C   UNL A   1      42.106  35.866  28.903  1.00  0.00     0.010 A 
ATOM     88  C   UNL A   1      43.980  37.931  28.690  1.00  0.00     0.020 A 
ATOM     89  C   UNL A   1      41.819  36.985  28.117  1.00  0.00     0.020 A 
ATOM     90  C   UNL A   1      42.755  38.016  28.024  1.00  0.00     0.054 A 
BRANCH  90  91
ATOM     91  S   UNL A   1      42.416  39.476  27.001  1.00  0.00     0.124 S 
ATOM     92  O   UNL A   1      41.239  39.056  26.249  1.00  0.00    -0.237 OA
ATOM     93  O   UNL A   1      42.190  40.514  28.003  1.00  0.00    -0.237 OA
ATOM     94  O   UNL A   1      43.638  39.635  26.214  1.00  0.00    -0.744 OA
ENDBRANCH  90  91
ENDBRANCH  62  85
BRANCH  74  95
ATOM     95  C   UNL A   1      43.658  34.623  36.458  1.00  0.00    -0.014 A 
ATOM     96  C   UNL A   1      42.405  34.846  37.059  1.00  0.00     0.010 A 
ATOM     97  C   UNL A   1      44.801  35.223  37.022  1.00  0.00     0.010 A 
ATOM     98  C   UNL A   1      42.294  35.681  38.174  1.00  0.00     0.020 A 
ATOM     99  C   UNL A   1      44.699  36.030  38.158  1.00  0.00     0.020 A 
ATOM    100  C   UNL A   1      43.442  36.268  38.717  1.00  0.00     0.054 A 
BRANCH 100 101
ATOM    101  S   UNL A   1      43.275  37.319  40.184  1.00  0.00     0.124 S 
ATOM    102  O   UNL A   1      41.911  37.823  40.045  1.00  0.00    -0.237 OA
ATOM    103  O   UNL A   1      43.489  36.376  41.279  1.00  0.00    -0.237 OA
ATOM    104  O   UNL A   1      44.328  38.319  40.017  1.00  0.00    -0.744 OA
ENDBRANCH 100 101
ENDBRANCH  74  95
ENDBRANCH  48  49
ENDBRANCH  41  43
ENDBRANCH  40  41
ENDBRANCH  39  40
ENDBRANCH  38  39
ENDBRANCH  37  38
ENDBRANCH  36  37
ENDBRANCH  35  36
ENDBRANCH  34  35
ENDBRANCH  33  34
ENDBRANCH   1  33
TORSDOF 29
ENDMDL
MODEL 3
REMARK VINA RESULT:      -7.6      6.794      9.648
REMARK SMILES C[C@H](NC(=O)CCN1C(=O)/C(=C/c2ccc([N+](=O)[O-])cc2)SC1=S)C(=O)OCCOCCOCCOCCOC(=O)c1ccc(-c2c3nc(c(-c4ccc(S(=O)(=O)[O-])cc4)c4ccc([nH]4)c(-c4ccc(S(=O)(=O)[O-])cc4)c4nc(c(-c5ccc(S(=O)(=O)[O-])cc5)c5ccc2[nH]5)C=C4)C=C3)cc1
REMARK SMILES IDX 31 1 30 2 29 3 28 4 27 5 25 6 26 7 2 8 1 9 3 10 4 11 5 13
REMARK SMILES IDX 6 14 7 15 8 16 9 17 23 18 10 19 11 20 22 21 24 22 12 23
REMARK SMILES IDX 13 24 14 25 21 26 15 27 20 28 16 29 17 30 18 31 19 32 32 33
REMARK SMILES IDX 33 34 34 35 35 36 36 37 37 38 38 39 39 40 40 41 41 42 42 43
REMARK SMILES IDX 43 44 101 45 44 46 100 47 45 48 46 49 47 50 94 51 48 52
REMARK SMILES IDX 99 53 93 54 95 55 49 56 98 57 92 58 91 59 50 61 80 62 61 63
REMARK SMILES IDX 79 64 62 65 65 66 78 67 96 68 63 69 64 70 77 72 97 73 66 74
REMARK SMILES IDX 51 75 52 76 60 77 53 78 59 79 54 80 55 81 56 82 57 83 58 84
REMARK SMILES IDX 81 85 82 86 90 87 83 88 89 89 84 90 85 91 86 92 87 93 88 94
REMARK SMILES IDX 67 95 68 96 76 97 69 98 75 99 70 100 71 101 72 102 73 103
REMARK SMILES IDX 74 104
REMARK H PARENT 3 12 95 60 65 71
REMARK Flexibility Score: inf
ROOT
ATOM      1  C   UNL A   1      38.436  23.799  25.968  1.00  0.00     0.188 C 
ENDROOT
BRANCH   1   2
ATOM      2  O   UNL A   1      37.781  22.572  25.685  1.00  0.00    -0.376 OA
BRANCH   2   3
ATOM      3  C   UNL A   1      36.395  22.359  25.914  1.00  0.00     0.202 C 
BRANCH   3   4
ATOM      4  C   UNL A   1      35.588  21.232  25.245  1.00  0.00     0.261 C 
BRANCH   4   5
ATOM      5  O   UNL A   1      34.259  21.015  25.730  1.00  0.00    -0.462 OA
BRANCH   5   6
ATOM      6  C   UNL A   1      33.438  20.267  24.946  1.00  0.00     0.328 C 
ATOM      7  O   UNL A   1      33.480  19.048  24.858  1.00  0.00    -0.250 OA
BRANCH   6   8
ATOM      8  C   UNL A   1      32.269  21.107  24.405  1.00  0.00     0.189 C 
ATOM      9  C   UNL A   1      32.335  21.475  22.934  1.00  0.00     0.043 C 
BRANCH   8  10
ATOM     10  N   UNL A   1      31.590  21.981  25.375  1.00  0.00    -0.343 N 
ATOM     11  C   UNL A   1      31.044  23.197  25.516  1.00  0.00     0.222 C 
ATOM     12  H   UNL A   1      31.507  21.498  26.229  1.00  0.00     0.164 HD
ATOM     13  O   UNL A   1      30.686  23.479  26.667  1.00  0.00    -0.275 OA
BRANCH  11  14
ATOM     14  C   UNL A   1      30.763  24.168  24.408  1.00  0.00     0.122 C 
BRANCH  14  15
ATOM     15  C   UNL A   1      31.932  25.061  23.999  1.00  0.00     0.137 C 
BRANCH  15  16
ATOM     16  N   UNL A   1      31.975  26.379  24.638  1.00  0.00    -0.292 N 
ATOM     17  C   UNL A   1      32.729  26.527  25.788  1.00  0.00     0.266 C 
ATOM     18  C   UNL A   1      31.173  27.456  24.332  1.00  0.00     0.148 C 
ATOM     19  O   UNL A   1      33.234  25.626  26.442  1.00  0.00    -0.268 OA
ATOM     20  C   UNL A   1      32.863  27.972  26.130  1.00  0.00     0.081 C 
ATOM     21  S   UNL A   1      31.746  28.879  25.206  1.00  0.00    -0.054 SA
ATOM     22  S   UNL A   1      29.855  27.520  23.307  1.00  0.00    -0.052 S 
ATOM     23  C   UNL A   1      33.885  28.340  26.916  1.00  0.00     0.029 C 
BRANCH  23  24
ATOM     24  C   UNL A   1      34.573  29.631  27.147  1.00  0.00    -0.024 A 
ATOM     25  C   UNL A   1      33.755  30.765  27.311  1.00  0.00     0.015 A 
ATOM     26  C   UNL A   1      35.931  29.750  27.475  1.00  0.00     0.015 A 
ATOM     27  C   UNL A   1      34.259  31.959  27.845  1.00  0.00     0.086 A 
ATOM     28  C   UNL A   1      36.447  30.935  28.017  1.00  0.00     0.086 A 
ATOM     29  C   UNL A   1      35.604  32.030  28.217  1.00  0.00     0.269 A 
BRANCH  29  30
ATOM     30  N   UNL A   1      36.124  33.244  28.855  1.00  0.00     0.062 N 
ATOM     31  O   UNL A   1      35.324  34.161  29.092  1.00  0.00    -0.258 OA
ATOM     32  O   UNL A   1      37.335  33.288  29.118  1.00  0.00    -0.258 OA
ENDBRANCH  29  30
ENDBRANCH  23  24
ENDBRANCH  15  16
ENDBRANCH  14  15
ENDBRANCH  11  14
ENDBRANCH   8  10
ENDBRANCH   6   8
ENDBRANCH   5   6
ENDBRANCH   4   5
ENDBRANCH   3   4
ENDBRANCH   2   3
ENDBRANCH   1   2
BRANCH   1  33
ATOM     33  C   UNL A   1      38.926  24.155  27.381  1.00  0.00     0.188 C 
BRANCH  33  34
ATOM     34  O   UNL A   1      40.278  23.846  27.622  1.00  0.00    -0.377 OA
BRANCH  34  35
ATOM     35  C   UNL A   1      41.214  24.509  26.771  1.00  0.00     0.188 C 
BRANCH  35  36
ATOM     36  C   UNL A   1      42.082  23.639  25.824  1.00  0.00     0.188 C 
BRANCH  36  37
ATOM     37  O   UNL A   1      42.724  22.523  26.427  1.00  0.00    -0.376 OA
BRANCH  37  38
ATOM     38  C   UNL A   1      44.125  22.541  26.669  1.00  0.00     0.202 C 
BRANCH  38  39
ATOM     39  C   UNL A   1      44.682  23.330  27.870  1.00  0.00     0.261 C 
BRANCH  39  40
ATOM     40  O   UNL A   1      45.573  24.411  27.567  1.00  0.00    -0.460 OA
BRANCH  40  41
ATOM     41  C   UNL A   1      45.032  25.633  27.395  1.00  0.00     0.338 C 
ATOM     42  O   UNL A   1      44.536  26.078  26.370  1.00  0.00    -0.246 OA
BRANCH  41  43
ATOM     43  C   UNL A   1      44.928  26.272  28.721  1.00  0.00     0.060 A 
ATOM     44  C   UNL A   1      45.894  27.219  29.086  1.00  0.00     0.016 A 
ATOM     45  C   UNL A   1      43.892  25.939  29.597  1.00  0.00     0.016 A 
ATOM     46  C   UNL A   1      45.859  27.798  30.351  1.00  0.00     0.010 A 
ATOM     47  C   UNL A   1      43.877  26.496  30.878  1.00  0.00     0.010 A 
ATOM     48  C   UNL A   1      44.889  27.390  31.272  1.00  0.00    -0.014 A 
BRANCH  48  49
ATOM     49  C   UNL A   1      45.092  27.698  32.707  1.00  0.00     0.031 A 
ATOM     50  C   UNL A   1      45.934  26.747  33.515  1.00  0.00     0.074 A 
ATOM     51  C   UNL A   1      44.591  28.813  33.265  1.00  0.00     0.049 A 
ATOM     52  N   UNL A   1      46.237  26.783  34.786  1.00  0.00    -0.248 NA
ATOM     53  C   UNL A   1      46.511  25.601  32.790  1.00  0.00     0.031 C 
ATOM     54  C   UNL A   1      43.817  29.838  32.568  1.00  0.00     0.029 A 
ATOM     55  N   UNL A   1      44.662  29.263  34.558  1.00  0.00    -0.354 N 
ATOM     56  C   UNL A   1      47.028  25.662  35.014  1.00  0.00     0.074 A 
ATOM     57  C   UNL A   1      47.134  24.951  33.760  1.00  0.00     0.031 C 
ATOM     58  C   UNL A   1      43.475  30.796  33.446  1.00  0.00     0.029 A 
ATOM     59  C   UNL A   1      43.974  30.434  34.772  1.00  0.00     0.049 A 
ATOM     60  H   UNL A   1      45.160  28.794  35.266  1.00  0.00     0.167 HD
ATOM     61  C   UNL A   1      47.616  25.262  36.165  1.00  0.00     0.031 A 
ATOM     62  C   UNL A   1      43.754  31.117  35.913  1.00  0.00     0.031 A 
ATOM     63  C   UNL A   1      47.492  25.965  37.413  1.00  0.00     0.049 A 
ATOM     64  C   UNL A   1      44.347  30.605  37.202  1.00  0.00     0.074 A 
ATOM     65  C   UNL A   1      48.053  25.649  38.637  1.00  0.00     0.029 A 
ATOM     66  N   UNL A   1      46.748  27.122  37.599  1.00  0.00    -0.354 N 
ATOM     67  N   UNL A   1      45.106  29.553  37.403  1.00  0.00    -0.248 NA
ATOM     68  C   UNL A   1      44.063  31.381  38.418  1.00  0.00     0.031 C 
ATOM     69  C   UNL A   1      47.594  26.576  39.578  1.00  0.00     0.029 A 
ATOM     70  C   UNL A   1      46.811  27.515  38.925  1.00  0.00     0.049 A 
ATOM     71  H   UNL A   1      46.250  27.593  36.893  1.00  0.00     0.167 HD
ATOM     72  C   UNL A   1      45.416  29.560  38.760  1.00  0.00     0.074 A 
ATOM     73  C   UNL A   1      44.775  30.729  39.326  1.00  0.00     0.031 C 
ATOM     74  C   UNL A   1      46.166  28.682  39.473  1.00  0.00     0.031 A 
BRANCH  61  75
ATOM     75  C   UNL A   1      48.406  23.981  36.135  1.00  0.00    -0.014 A 
ATOM     76  C   UNL A   1      49.780  23.971  35.836  1.00  0.00     0.010 A 
ATOM     77  C   UNL A   1      47.766  22.766  36.443  1.00  0.00     0.010 A 
ATOM     78  C   UNL A   1      50.491  22.767  35.811  1.00  0.00     0.020 A 
ATOM     79  C   UNL A   1      48.479  21.564  36.450  1.00  0.00     0.020 A 
ATOM     80  C   UNL A   1      49.835  21.572  36.119  1.00  0.00     0.054 A 
BRANCH  80  81
ATOM     81  S   UNL A   1      50.789  20.030  36.109  1.00  0.00     0.124 S 
ATOM     82  O   UNL A   1      50.559  19.542  34.751  1.00  0.00    -0.237 OA
ATOM     83  O   UNL A   1      52.145  20.492  36.389  1.00  0.00    -0.237 OA
ATOM     84  O   UNL A   1      50.174  19.232  37.167  1.00  0.00    -0.744 OA
ENDBRANCH  80  81
ENDBRANCH  61  75
BRANCH  62  85
ATOM     85  C   UNL A   1      42.915  32.348  35.895  1.00  0.00    -0.014 A 
ATOM     86  C   UNL A   1      41.547  32.292  36.210  1.00  0.00     0.010 A 
ATOM     87  C   UNL A   1      43.487  33.588  35.556  1.00  0.00     0.010 A 
ATOM     88  C   UNL A   1      40.763  33.450  36.169  1.00  0.00     0.020 A 
ATOM     89  C   UNL A   1      42.713  34.752  35.544  1.00  0.00     0.020 A 
ATOM     90  C   UNL A   1      41.352  34.673  35.842  1.00  0.00     0.054 A 
BRANCH  90  91
ATOM     91  S   UNL A   1      40.324  36.169  35.847  1.00  0.00     0.124 S 
ATOM     92  O   UNL A   1      41.191  37.137  35.185  1.00  0.00    -0.237 OA
ATOM     93  O   UNL A   1      39.151  35.744  35.087  1.00  0.00    -0.237 OA
ATOM     94  O   UNL A   1      40.082  36.413  37.268  1.00  0.00    -0.744 OA
ENDBRANCH  90  91
ENDBRANCH  62  85
BRANCH  74  95
ATOM     95  C   UNL A   1      46.378  28.973  40.937  1.00  0.00    -0.014 A 
ATOM     96  C   UNL A   1      45.634  28.317  41.934  1.00  0.00     0.010 A 
ATOM     97  C   UNL A   1      47.382  29.882  41.321  1.00  0.00     0.010 A 
ATOM     98  C   UNL A   1      45.863  28.594  43.284  1.00  0.00     0.020 A 
ATOM     99  C   UNL A   1      47.638  30.135  42.671  1.00  0.00     0.020 A 
ATOM    100  C   UNL A   1      46.865  29.501  43.645  1.00  0.00     0.054 A 
BRANCH 100 101
ATOM    101  S   UNL A   1      47.165  29.817  45.405  1.00  0.00     0.124 S 
ATOM    102  O   UNL A   1      46.097  30.758  45.732  1.00  0.00    -0.237 OA
ATOM    103  O   UNL A   1      47.034  28.487  45.994  1.00  0.00    -0.237 OA
ATOM    104  O   UNL A   1      48.516  30.374  45.433  1.00  0.00    -0.744 OA
ENDBRANCH 100 101
ENDBRANCH  74  95
ENDBRANCH  48  49
ENDBRANCH  41  43
ENDBRANCH  40  41
ENDBRANCH  39  40
ENDBRANCH  38  39
ENDBRANCH  37  38
ENDBRANCH  36  37
ENDBRANCH  35  36
ENDBRANCH  34  35
ENDBRANCH  33  34
ENDBRANCH   1  33
TORSDOF 29
ENDMDL
