MODEL 1
REMARK VINA RESULT:      -9.0      0.000      0.000
REMARK SMILES O=C(CCCC(=O)N1CCN(c2ncccn2)CC1)OCCOCCOCCOCCOC(=O)c1ccc(-c2c3nc(c(-c4ccc(S(=O)(=O)[O-])cc4)c4ccc([nH]4)c(-c4ccc(S(=O)(=O)[O-])cc4)c4nc(c(-c5ccc(S(=O)(=O)[O-])cc5)c5ccc2[nH]5)C=C4)C=C3)cc1
REMARK SMILES IDX 25 1 24 2 23 3 22 4 21 5 20 6 2 7 1 8 3 9 4 10 5 11 6 12
REMARK SMILES IDX 7 13 8 14 9 15 19 16 10 17 18 18 11 19 12 20 13 21 17 22
REMARK SMILES IDX 14 23 16 24 15 25 26 26 27 27 28 28 29 29 30 30 31 31 32 32
REMARK SMILES IDX 33 33 34 34 35 35 36 36 94 37 37 38 93 39 38 40 39 41 40 42
REMARK SMILES IDX 87 43 41 44 92 45 86 46 88 47 42 48 91 49 85 50 84 51 43 53
REMARK SMILES IDX 73 54 54 55 72 56 55 57 58 58 71 59 89 60 56 61 57 62 70 64
REMARK SMILES IDX 90 65 59 66 44 67 45 68 53 69 46 70 52 71 47 72 48 73 49 74
REMARK SMILES IDX 50 75 51 76 74 77 75 78 83 79 76 80 82 81 77 82 78 83 79 84
REMARK SMILES IDX 80 85 81 86 60 87 61 88 69 89 62 90 68 91 63 92 64 93 65 94
REMARK SMILES IDX 66 95 67 96
REMARK H PARENT 88 52 58 63
REMARK Flexibility Score: inf
ROOT
ATOM      1  C   UNL A   1      37.730  23.149  25.961  1.00  0.00     0.188 C 
ENDROOT
BRANCH   1   2
ATOM      2  C   UNL A   1      37.396  23.400  24.478  1.00  0.00     0.188 C 
BRANCH   2   3
ATOM      3  O   UNL A   1      36.787  22.326  23.786  1.00  0.00    -0.376 OA
BRANCH   3   4
ATOM      4  C   UNL A   1      35.442  22.578  23.374  1.00  0.00     0.202 C 
BRANCH   4   5
ATOM      5  C   UNL A   1      35.166  24.073  23.564  1.00  0.00     0.261 C 
BRANCH   5   6
ATOM      6  O   UNL A   1      33.798  24.340  23.184  1.00  0.00    -0.463 OA
BRANCH   6   7
ATOM      7  C   UNL A   1      33.510  25.654  22.995  1.00  0.00     0.305 C 
ATOM      8  O   UNL A   1      33.280  26.171  21.907  1.00  0.00    -0.252 OA
BRANCH   7   9
ATOM      9  C   UNL A   1      33.722  26.485  24.246  1.00  0.00     0.123 C 
BRANCH   9  10
ATOM     10  C   UNL A   1      32.558  26.743  25.212  1.00  0.00     0.022 C 
BRANCH  10  11
ATOM     11  C   UNL A   1      32.489  25.830  26.428  1.00  0.00     0.101 C 
BRANCH  11  12
ATOM     12  C   UNL A   1      31.391  24.777  26.482  1.00  0.00     0.222 C 
ATOM     13  O   UNL A   1      30.218  25.090  26.266  1.00  0.00    -0.275 OA
ATOM     14  N   UNL A   1      31.794  23.445  26.406  1.00  0.00    -0.339 N 
ATOM     15  C   UNL A   1      31.103  22.636  24.915  1.00  0.00     0.141 C 
ATOM     16  C   UNL A   1      33.138  22.686  27.428  1.00  0.00     0.141 C 
ATOM     17  C   UNL A   1      32.156  21.294  24.034  1.00  0.00     0.141 C 
ATOM     18  C   UNL A   1      34.246  21.293  26.576  1.00  0.00     0.141 C 
ATOM     19  N   UNL A   1      33.576  20.577  24.972  1.00  0.00    -0.337 N 
BRANCH  19  20
ATOM     20  C   UNL A   1      33.563  19.223  24.815  1.00  0.00     0.225 A 
ATOM     21  N   UNL A   1      35.047  18.427  24.413  1.00  0.00    -0.221 NA
ATOM     22  N   UNL A   1      32.159  18.353  25.481  1.00  0.00    -0.221 NA
ATOM     23  C   UNL A   1      35.140  16.712  24.692  1.00  0.00     0.117 A 
ATOM     24  C   UNL A   1      32.337  16.620  25.799  1.00  0.00     0.117 A 
ATOM     25  C   UNL A   1      33.827  15.760  25.371  1.00  0.00     0.040 A 
ENDBRANCH  19  20
ENDBRANCH  11  12
ENDBRANCH  10  11
ENDBRANCH   9  10
ENDBRANCH   7   9
ENDBRANCH   6   7
ENDBRANCH   5   6
ENDBRANCH   4   5
ENDBRANCH   3   4
ENDBRANCH   2   3
ENDBRANCH   1   2
BRANCH   1  26
ATOM     26  O   UNL A   1      38.370  24.186  26.717  1.00  0.00    -0.377 OA
BRANCH  26  27
ATOM     27  C   UNL A   1      39.605  23.965  27.610  1.00  0.00     0.188 C 
BRANCH  27  28
ATOM     28  C   UNL A   1      41.468  24.994  27.770  1.00  0.00     0.188 C 
BRANCH  28  29
ATOM     29  O   UNL A   1      41.674  26.503  28.136  1.00  0.00    -0.376 OA
BRANCH  29  30
ATOM     30  C   UNL A   1      40.626  27.502  28.016  1.00  0.00     0.202 C 
BRANCH  30  31
ATOM     31  C   UNL A   1      39.199  27.495  29.022  1.00  0.00     0.261 C 
BRANCH  31  32
ATOM     32  O   UNL A   1      37.678  28.834  28.882  1.00  0.00    -0.460 OA
BRANCH  32  33
ATOM     33  C   UNL A   1      36.741  29.823  29.252  1.00  0.00     0.338 C 
ATOM     34  O   UNL A   1      35.619  29.997  28.783  1.00  0.00    -0.246 OA
BRANCH  33  35
ATOM     35  C   UNL A   1      37.091  30.515  30.516  1.00  0.00     0.060 A 
ATOM     36  C   UNL A   1      36.690  31.853  30.684  1.00  0.00     0.016 A 
ATOM     37  C   UNL A   1      38.003  29.947  31.399  1.00  0.00     0.016 A 
ATOM     38  C   UNL A   1      37.233  32.635  31.711  1.00  0.00     0.010 A 
ATOM     39  C   UNL A   1      38.575  30.739  32.404  1.00  0.00     0.010 A 
ATOM     40  C   UNL A   1      38.231  32.099  32.536  1.00  0.00    -0.014 A 
BRANCH  40  41
ATOM     41  C   UNL A   1      39.100  33.000  33.343  1.00  0.00     0.031 A 
ATOM     42  C   UNL A   1      40.288  33.640  32.666  1.00  0.00     0.074 A 
ATOM     43  C   UNL A   1      38.872  33.229  34.650  1.00  0.00     0.049 A 
ATOM     44  N   UNL A   1      41.230  34.392  33.176  1.00  0.00    -0.248 NA
ATOM     45  C   UNL A   1      40.428  33.404  31.219  1.00  0.00     0.031 C 
ATOM     46  C   UNL A   1      37.733  32.727  35.414  1.00  0.00     0.029 A 
ATOM     47  N   UNL A   1      39.606  33.940  35.570  1.00  0.00    -0.354 N 
ATOM     48  C   UNL A   1      42.068  34.720  32.115  1.00  0.00     0.074 A 
ATOM     49  C   UNL A   1      41.529  34.083  30.934  1.00  0.00     0.031 C 
ATOM     50  C   UNL A   1      37.859  33.122  36.695  1.00  0.00     0.029 A 
ATOM     51  C   UNL A   1      39.103  33.877  36.848  1.00  0.00     0.049 A 
ATOM     52  H   UNL A   1      40.418  34.447  35.335  1.00  0.00     0.167 HD
ATOM     53  C   UNL A   1      43.193  35.475  32.119  1.00  0.00     0.031 A 
ATOM     54  C   UNL A   1      39.605  34.346  38.010  1.00  0.00     0.031 A 
ATOM     55  C   UNL A   1      43.770  36.061  33.297  1.00  0.00     0.049 A 
ATOM     56  C   UNL A   1      40.919  35.089  38.008  1.00  0.00     0.074 A 
ATOM     57  C   UNL A   1      44.923  36.818  33.406  1.00  0.00     0.029 A 
ATOM     58  N   UNL A   1      43.249  35.938  34.575  1.00  0.00    -0.354 N 
ATOM     59  N   UNL A   1      41.687  35.407  36.992  1.00  0.00    -0.248 NA
ATOM     60  C   UNL A   1      41.435  35.534  39.312  1.00  0.00     0.031 C 
ATOM     61  C   UNL A   1      45.128  37.108  34.759  1.00  0.00     0.029 A 
ATOM     62  C   UNL A   1      44.071  36.580  35.483  1.00  0.00     0.049 A 
ATOM     63  H   UNL A   1      42.416  35.464  34.803  1.00  0.00     0.167 HD
ATOM     64  C   UNL A   1      42.761  36.108  37.533  1.00  0.00     0.074 A 
ATOM     65  C   UNL A   1      42.539  36.181  38.962  1.00  0.00     0.031 C 
ATOM     66  C   UNL A   1      43.835  36.647  36.903  1.00  0.00     0.031 A 
BRANCH  53  67
ATOM     67  C   UNL A   1      43.904  35.662  30.806  1.00  0.00    -0.014 A 
ATOM     68  C   UNL A   1      44.937  34.793  30.410  1.00  0.00     0.010 A 
ATOM     69  C   UNL A   1      43.516  36.704  29.945  1.00  0.00     0.010 A 
ATOM     70  C   UNL A   1      45.587  34.981  29.187  1.00  0.00     0.020 A 
ATOM     71  C   UNL A   1      44.150  36.883  28.712  1.00  0.00     0.020 A 
ATOM     72  C   UNL A   1      45.192  36.027  28.348  1.00  0.00     0.054 A 
BRANCH  72  73
ATOM     73  S   UNL A   1      46.039  36.236  26.756  1.00  0.00     0.124 S 
ATOM     74  O   UNL A   1      45.355  35.253  25.920  1.00  0.00    -0.237 OA
ATOM     75  O   UNL A   1      45.770  37.634  26.430  1.00  0.00    -0.237 OA
ATOM     76  O   UNL A   1      47.434  35.929  27.064  1.00  0.00    -0.744 OA
ENDBRANCH  72  73
ENDBRANCH  53  67
BRANCH  54  77
ATOM     77  C   UNL A   1      38.892  34.090  39.295  1.00  0.00    -0.014 A 
ATOM     78  C   UNL A   1      38.617  32.778  39.719  1.00  0.00     0.010 A 
ATOM     79  C   UNL A   1      38.452  35.168  40.085  1.00  0.00     0.010 A 
ATOM     80  C   UNL A   1      37.897  32.549  40.896  1.00  0.00     0.020 A 
ATOM     81  C   UNL A   1      37.755  34.943  41.276  1.00  0.00     0.020 A 
ATOM     82  C   UNL A   1      37.469  33.634  41.668  1.00  0.00     0.054 A 
BRANCH  82  83
ATOM     83  S   UNL A   1      36.571  33.318  43.213  1.00  0.00     0.124 S 
ATOM     84  O   UNL A   1      35.374  34.133  43.040  1.00  0.00    -0.237 OA
ATOM     85  O   UNL A   1      36.366  31.873  43.171  1.00  0.00    -0.237 OA
ATOM     86  O   UNL A   1      37.500  33.776  44.244  1.00  0.00    -0.744 OA
ENDBRANCH  82  83
ENDBRANCH  54  77
BRANCH  66  87
ATOM     87  C   UNL A   1      44.838  37.392  37.741  1.00  0.00    -0.014 A 
ATOM     88  C   UNL A   1      44.683  38.760  38.021  1.00  0.00     0.010 A 
ATOM     89  C   UNL A   1      45.916  36.692  38.316  1.00  0.00     0.010 A 
ATOM     90  C   UNL A   1      45.603  39.423  38.840  1.00  0.00     0.020 A 
ATOM     91  C   UNL A   1      46.824  37.345  39.154  1.00  0.00     0.020 A 
ATOM     92  C   UNL A   1      46.668  38.711  39.401  1.00  0.00     0.054 A 
BRANCH  92  93
ATOM     93  S   UNL A   1      47.820  39.579  40.502  1.00  0.00     0.124 S 
ATOM     94  O   UNL A   1      47.112  39.533  41.778  1.00  0.00    -0.237 OA
ATOM     95  O   UNL A   1      49.024  38.756  40.423  1.00  0.00    -0.237 OA
ATOM     96  O   UNL A   1      47.939  40.906  39.902  1.00  0.00    -0.744 OA
ENDBRANCH  92  93
ENDBRANCH  66  87
ENDBRANCH  40  41
ENDBRANCH  33  35
ENDBRANCH  32  33
ENDBRANCH  31  32
ENDBRANCH  30  31
ENDBRANCH  29  30
ENDBRANCH  28  29
ENDBRANCH  27  28
ENDBRANCH  26  27
ENDBRANCH   1  26
TORSDOF 27
ENDMDL
MODEL 2
REMARK VINA RESULT:      -8.7      8.177     14.487
REMARK SMILES O=C(CCCC(=O)N1CCN(c2ncccn2)CC1)OCCOCCOCCOCCOC(=O)c1ccc(-c2c3nc(c(-c4ccc(S(=O)(=O)[O-])cc4)c4ccc([nH]4)c(-c4ccc(S(=O)(=O)[O-])cc4)c4nc(c(-c5ccc(S(=O)(=O)[O-])cc5)c5ccc2[nH]5)C=C4)C=C3)cc1
REMARK SMILES IDX 25 1 24 2 23 3 22 4 21 5 20 6 2 7 1 8 3 9 4 10 5 11 6 12
REMARK SMILES IDX 7 13 8 14 9 15 19 16 10 17 18 18 11 19 12 20 13 21 17 22
REMARK SMILES IDX 14 23 16 24 15 25 26 26 27 27 28 28 29 29 30 30 31 31 32 32
REMARK SMILES IDX 33 33 34 34 35 35 36 36 94 37 37 38 93 39 38 40 39 41 40 42
REMARK SMILES IDX 87 43 41 44 92 45 86 46 88 47 42 48 91 49 85 50 84 51 43 53
REMARK SMILES IDX 73 54 54 55 72 56 55 57 58 58 71 59 89 60 56 61 57 62 70 64
REMARK SMILES IDX 90 65 59 66 44 67 45 68 53 69 46 70 52 71 47 72 48 73 49 74
REMARK SMILES IDX 50 75 51 76 74 77 75 78 83 79 76 80 82 81 77 82 78 83 79 84
REMARK SMILES IDX 80 85 81 86 60 87 61 88 69 89 62 90 68 91 63 92 64 93 65 94
REMARK SMILES IDX 66 95 67 96
REMARK H PARENT 88 52 58 63
REMARK Flexibility Score: inf
ROOT
ATOM      1  C   UNL A   1      35.272  32.907  28.266  1.00  0.00     0.188 C 
ENDROOT
BRANCH   1   2
ATOM      2  C   UNL A   1      34.250  31.756  28.331  1.00  0.00     0.188 C 
BRANCH   2   3
ATOM      3  O   UNL A   1      34.181  30.920  27.191  1.00  0.00    -0.376 OA
BRANCH   3   4
ATOM      4  C   UNL A   1      32.970  30.168  27.085  1.00  0.00     0.202 C 
BRANCH   4   5
ATOM      5  C   UNL A   1      32.585  30.107  25.604  1.00  0.00     0.261 C 
BRANCH   5   6
ATOM      6  O   UNL A   1      31.275  29.509  25.494  1.00  0.00    -0.463 OA
BRANCH   6   7
ATOM      7  C   UNL A   1      31.042  28.870  24.318  1.00  0.00     0.305 C 
ATOM      8  O   UNL A   1      30.117  29.125  23.554  1.00  0.00    -0.252 OA
BRANCH   7   9
ATOM      9  C   UNL A   1      31.911  27.640  24.138  1.00  0.00     0.123 C 
BRANCH   9  10
ATOM     10  C   UNL A   1      31.720  26.416  25.043  1.00  0.00     0.022 C 
BRANCH  10  11
ATOM     11  C   UNL A   1      30.531  25.525  24.712  1.00  0.00     0.101 C 
BRANCH  11  12
ATOM     12  C   UNL A   1      30.798  24.174  24.063  1.00  0.00     0.222 C 
ATOM     13  O   UNL A   1      30.330  23.914  22.952  1.00  0.00    -0.275 OA
ATOM     14  N   UNL A   1      31.859  23.428  24.577  1.00  0.00    -0.339 N 
ATOM     15  C   UNL A   1      33.148  23.162  23.303  1.00  0.00     0.141 C 
ATOM     16  C   UNL A   1      32.134  23.080  26.373  1.00  0.00     0.141 C 
ATOM     17  C   UNL A   1      34.984  23.101  23.863  1.00  0.00     0.141 C 
ATOM     18  C   UNL A   1      34.002  22.995  27.003  1.00  0.00     0.141 C 
ATOM     19  N   UNL A   1      35.315  22.859  25.664  1.00  0.00    -0.337 N 
BRANCH  19  20
ATOM     20  C   UNL A   1      36.299  21.926  25.805  1.00  0.00     0.225 A 
ATOM     21  N   UNL A   1      36.017  20.332  25.193  1.00  0.00    -0.221 NA
ATOM     22  N   UNL A   1      37.932  22.536  26.174  1.00  0.00    -0.221 NA
ATOM     23  C   UNL A   1      37.404  19.314  24.930  1.00  0.00     0.117 A 
ATOM     24  C   UNL A   1      39.307  21.474  25.828  1.00  0.00     0.117 A 
ATOM     25  C   UNL A   1      39.060  19.822  25.233  1.00  0.00     0.040 A 
ENDBRANCH  19  20
ENDBRANCH  11  12
ENDBRANCH  10  11
ENDBRANCH   9  10
ENDBRANCH   7   9
ENDBRANCH   6   7
ENDBRANCH   5   6
ENDBRANCH   4   5
ENDBRANCH   3   4
ENDBRANCH   2   3
ENDBRANCH   1   2
BRANCH   1  26
ATOM     26  O   UNL A   1      36.672  32.601  28.317  1.00  0.00    -0.377 OA
BRANCH  26  27
ATOM     27  C   UNL A   1      37.685  33.347  29.205  1.00  0.00     0.188 C 
BRANCH  27  28
ATOM     28  C   UNL A   1      39.387  32.690  30.311  1.00  0.00     0.188 C 
BRANCH  28  29
ATOM     29  O   UNL A   1      40.559  33.583  30.844  1.00  0.00    -0.376 OA
BRANCH  29  30
ATOM     30  C   UNL A   1      41.952  33.355  30.504  1.00  0.00     0.202 C 
BRANCH  30  31
ATOM     31  C   UNL A   1      43.265  34.168  31.318  1.00  0.00     0.261 C 
BRANCH  31  32
ATOM     32  O   UNL A   1      45.028  33.296  31.827  1.00  0.00    -0.460 OA
BRANCH  32  33
ATOM     33  C   UNL A   1      46.361  33.156  32.269  1.00  0.00     0.338 C 
ATOM     34  O   UNL A   1      46.749  32.983  33.422  1.00  0.00    -0.246 OA
BRANCH  33  35
ATOM     35  C   UNL A   1      47.323  32.929  31.163  1.00  0.00     0.060 A 
ATOM     36  C   UNL A   1      46.999  33.409  29.880  1.00  0.00     0.016 A 
ATOM     37  C   UNL A   1      48.389  32.051  31.327  1.00  0.00     0.016 A 
ATOM     38  C   UNL A   1      47.716  32.979  28.757  1.00  0.00     0.010 A 
ATOM     39  C   UNL A   1      49.083  31.591  30.199  1.00  0.00     0.010 A 
ATOM     40  C   UNL A   1      48.720  32.013  28.906  1.00  0.00    -0.014 A 
BRANCH  40  41
ATOM     41  C   UNL A   1      49.205  31.249  27.722  1.00  0.00     0.031 A 
ATOM     42  C   UNL A   1      50.274  31.874  26.858  1.00  0.00     0.074 A 
ATOM     43  C   UNL A   1      48.697  30.047  27.391  1.00  0.00     0.049 A 
ATOM     44  N   UNL A   1      50.795  31.443  25.738  1.00  0.00    -0.248 NA
ATOM     45  C   UNL A   1      50.835  33.153  27.327  1.00  0.00     0.031 C 
ATOM     46  C   UNL A   1      47.707  29.301  28.164  1.00  0.00     0.029 A 
ATOM     47  N   UNL A   1      48.942  29.247  26.300  1.00  0.00    -0.354 N 
ATOM     48  C   UNL A   1      51.743  32.393  25.371  1.00  0.00     0.074 A 
ATOM     49  C   UNL A   1      51.724  33.426  26.383  1.00  0.00     0.031 C 
ATOM     50  C   UNL A   1      47.407  28.164  27.508  1.00  0.00     0.029 A 
ATOM     51  C   UNL A   1      48.159  28.118  26.254  1.00  0.00     0.049 A 
ATOM     52  H   UNL A   1      49.615  29.464  25.614  1.00  0.00     0.167 HD
ATOM     53  C   UNL A   1      52.552  32.415  24.286  1.00  0.00     0.031 A 
ATOM     54  C   UNL A   1      48.040  27.174  25.297  1.00  0.00     0.031 A 
ATOM     55  C   UNL A   1      52.536  31.425  23.244  1.00  0.00     0.049 A 
ATOM     56  C   UNL A   1      48.871  27.278  24.041  1.00  0.00     0.074 A 
ATOM     57  C   UNL A   1      53.298  31.376  22.090  1.00  0.00     0.029 A 
ATOM     58  N   UNL A   1      51.700  30.321  23.219  1.00  0.00    -0.354 N 
ATOM     59  N   UNL A   1      49.777  28.173  23.721  1.00  0.00    -0.248 NA
ATOM     60  C   UNL A   1      48.662  26.243  23.015  1.00  0.00     0.031 C 
ATOM     61  C   UNL A   1      52.885  30.270  21.341  1.00  0.00     0.029 A 
ATOM     62  C   UNL A   1      51.906  29.599  22.057  1.00  0.00     0.049 A 
ATOM     63  H   UNL A   1      51.055  30.084  23.925  1.00  0.00     0.167 HD
ATOM     64  C   UNL A   1      50.259  27.794  22.472  1.00  0.00     0.074 A 
ATOM     65  C   UNL A   1      49.558  26.584  22.098  1.00  0.00     0.031 C 
ATOM     66  C   UNL A   1      51.202  28.394  21.701  1.00  0.00     0.031 A 
BRANCH  53  67
ATOM     67  C   UNL A   1      53.490  33.584  24.146  1.00  0.00    -0.014 A 
ATOM     68  C   UNL A   1      53.074  34.777  23.529  1.00  0.00     0.010 A 
ATOM     69  C   UNL A   1      54.795  33.496  24.663  1.00  0.00     0.010 A 
ATOM     70  C   UNL A   1      53.958  35.854  23.407  1.00  0.00     0.020 A 
ATOM     71  C   UNL A   1      55.675  34.578  24.562  1.00  0.00     0.020 A 
ATOM     72  C   UNL A   1      55.254  35.745  23.921  1.00  0.00     0.054 A 
BRANCH  72  73
ATOM     73  S   UNL A   1      56.374  37.165  23.769  1.00  0.00     0.124 S 
ATOM     74  O   UNL A   1      57.662  36.511  23.548  1.00  0.00    -0.237 OA
ATOM     75  O   UNL A   1      55.829  37.882  22.619  1.00  0.00    -0.237 OA
ATOM     76  O   UNL A   1      56.237  37.854  25.051  1.00  0.00    -0.744 OA
ENDBRANCH  72  73
ENDBRANCH  53  67
BRANCH  54  77
ATOM     77  C   UNL A   1      47.058  26.062  25.454  1.00  0.00    -0.014 A 
ATOM     78  C   UNL A   1      47.448  24.827  26.001  1.00  0.00     0.010 A 
ATOM     79  C   UNL A   1      45.730  26.226  25.018  1.00  0.00     0.010 A 
ATOM     80  C   UNL A   1      46.534  23.771  26.090  1.00  0.00     0.020 A 
ATOM     81  C   UNL A   1      44.808  25.182  25.130  1.00  0.00     0.020 A 
ATOM     82  C   UNL A   1      45.219  23.955  25.653  1.00  0.00     0.054 A 
BRANCH  82  83
ATOM     83  S   UNL A   1      44.037  22.587  25.813  1.00  0.00     0.124 S 
ATOM     84  O   UNL A   1      43.622  22.706  27.207  1.00  0.00    -0.237 OA
ATOM     85  O   UNL A   1      43.024  22.926  24.818  1.00  0.00    -0.237 OA
ATOM     86  O   UNL A   1      44.839  21.407  25.496  1.00  0.00    -0.744 OA
ENDBRANCH  82  83
ENDBRANCH  54  77
BRANCH  66  87
ATOM     87  C   UNL A   1      51.558  27.740  20.394  1.00  0.00    -0.014 A 
ATOM     88  C   UNL A   1      50.882  28.066  19.206  1.00  0.00     0.010 A 
ATOM     89  C   UNL A   1      52.635  26.835  20.343  1.00  0.00     0.010 A 
ATOM     90  C   UNL A   1      51.259  27.480  17.994  1.00  0.00     0.020 A 
ATOM     91  C   UNL A   1      53.031  26.265  19.130  1.00  0.00     0.020 A 
ATOM     92  C   UNL A   1      52.331  26.582  17.964  1.00  0.00     0.054 A 
BRANCH  92  93
ATOM     93  S   UNL A   1      52.837  25.873  16.372  1.00  0.00     0.124 S 
ATOM     94  O   UNL A   1      54.193  25.416  16.660  1.00  0.00    -0.237 OA
ATOM     95  O   UNL A   1      51.850  24.817  16.162  1.00  0.00    -0.237 OA
ATOM     96  O   UNL A   1      52.742  26.999  15.445  1.00  0.00    -0.744 OA
ENDBRANCH  92  93
ENDBRANCH  66  87
ENDBRANCH  40  41
ENDBRANCH  33  35
ENDBRANCH  32  33
ENDBRANCH  31  32
ENDBRANCH  30  31
ENDBRANCH  29  30
ENDBRANCH  28  29
ENDBRANCH  27  28
ENDBRANCH  26  27
ENDBRANCH   1  26
TORSDOF 27
ENDMDL
MODEL 3
REMARK VINA RESULT:      -8.3      8.182     12.461
REMARK SMILES O=C(CCCC(=O)N1CCN(c2ncccn2)CC1)OCCOCCOCCOCCOC(=O)c1ccc(-c2c3nc(c(-c4ccc(S(=O)(=O)[O-])cc4)c4ccc([nH]4)c(-c4ccc(S(=O)(=O)[O-])cc4)c4nc(c(-c5ccc(S(=O)(=O)[O-])cc5)c5ccc2[nH]5)C=C4)C=C3)cc1
REMARK SMILES IDX 25 1 24 2 23 3 22 4 21 5 20 6 2 7 1 8 3 9 4 10 5 11 6 12
REMARK SMILES IDX 7 13 8 14 9 15 19 16 10 17 18 18 11 19 12 20 13 21 17 22
REMARK SMILES IDX 14 23 16 24 15 25 26 26 27 27 28 28 29 29 30 30 31 31 32 32
REMARK SMILES IDX 33 33 34 34 35 35 36 36 94 37 37 38 93 39 38 40 39 41 40 42
REMARK SMILES IDX 87 43 41 44 92 45 86 46 88 47 42 48 91 49 85 50 84 51 43 53
REMARK SMILES IDX 73 54 54 55 72 56 55 57 58 58 71 59 89 60 56 61 57 62 70 64
REMARK SMILES IDX 90 65 59 66 44 67 45 68 53 69 46 70 52 71 47 72 48 73 49 74
REMARK SMILES IDX 50 75 51 76 74 77 75 78 83 79 76 80 82 81 77 82 78 83 79 84
REMARK SMILES IDX 80 85 81 86 60 87 61 88 69 89 62 90 68 91 63 92 64 93 65 94
REMARK SMILES IDX 66 95 67 96
REMARK H PARENT 88 52 58 63
REMARK Flexibility Score: inf
ROOT
ATOM      1  C   UNL A   1      34.471  34.565  31.151  1.00  0.00     0.188 C 
ENDROOT
BRANCH   1   2
ATOM      2  C   UNL A   1      35.421  33.938  30.112  1.00  0.00     0.188 C 
BRANCH   2   3
ATOM      3  O   UNL A   1      34.887  32.878  29.341  1.00  0.00    -0.376 OA
BRANCH   3   4
ATOM      4  C   UNL A   1      35.222  31.574  29.821  1.00  0.00     0.202 C 
BRANCH   4   5
ATOM      5  C   UNL A   1      36.231  30.960  28.846  1.00  0.00     0.261 C 
BRANCH   5   6
ATOM      6  O   UNL A   1      36.327  29.544  29.115  1.00  0.00    -0.463 OA
BRANCH   6   7
ATOM      7  C   UNL A   1      37.573  29.114  29.443  1.00  0.00     0.305 C 
ATOM      8  O   UNL A   1      38.463  28.866  28.636  1.00  0.00    -0.252 OA
BRANCH   7   9
ATOM      9  C   UNL A   1      37.699  28.747  30.909  1.00  0.00     0.123 C 
BRANCH   9  10
ATOM     10  C   UNL A   1      38.793  27.778  31.374  1.00  0.00     0.022 C 
BRANCH  10  11
ATOM     11  C   UNL A   1      40.162  28.394  31.627  1.00  0.00     0.101 C 
BRANCH  11  12
ATOM     12  C   UNL A   1      40.601  28.614  33.068  1.00  0.00     0.222 C 
ATOM     13  O   UNL A   1      39.778  28.942  33.926  1.00  0.00    -0.275 OA
ATOM     14  N   UNL A   1      41.836  28.082  33.437  1.00  0.00    -0.339 N 
ATOM     15  C   UNL A   1      41.637  26.823  34.754  1.00  0.00     0.141 C 
ATOM     16  C   UNL A   1      43.411  28.307  32.492  1.00  0.00     0.141 C 
ATOM     17  C   UNL A   1      42.832  25.320  34.765  1.00  0.00     0.141 C 
ATOM     18  C   UNL A   1      44.681  26.797  32.478  1.00  0.00     0.141 C 
ATOM     19  N   UNL A   1      44.371  25.451  33.753  1.00  0.00    -0.337 N 
BRANCH  19  20
ATOM     20  C   UNL A   1      45.421  24.998  34.496  1.00  0.00     0.225 A 
ATOM     21  N   UNL A   1      45.885  25.898  35.900  1.00  0.00    -0.221 NA
ATOM     22  N   UNL A   1      45.916  23.307  34.235  1.00  0.00    -0.221 NA
ATOM     23  C   UNL A   1      46.864  25.087  37.088  1.00  0.00     0.117 A 
ATOM     24  C   UNL A   1      46.861  22.518  35.508  1.00  0.00     0.117 A 
ATOM     25  C   UNL A   1      47.385  23.413  36.946  1.00  0.00     0.040 A 
ENDBRANCH  19  20
ENDBRANCH  11  12
ENDBRANCH  10  11
ENDBRANCH   9  10
ENDBRANCH   7   9
ENDBRANCH   6   7
ENDBRANCH   5   6
ENDBRANCH   4   5
ENDBRANCH   3   4
ENDBRANCH   2   3
ENDBRANCH   1   2
BRANCH   1  26
ATOM     26  O   UNL A   1      34.168  33.836  32.348  1.00  0.00    -0.377 OA
BRANCH  26  27
ATOM     27  C   UNL A   1      35.233  33.233  33.282  1.00  0.00     0.188 C 
BRANCH  27  28
ATOM     28  C   UNL A   1      36.522  31.543  33.095  1.00  0.00     0.188 C 
BRANCH  28  29
ATOM     29  O   UNL A   1      38.060  31.568  32.796  1.00  0.00    -0.376 OA
BRANCH  29  30
ATOM     30  C   UNL A   1      38.934  32.651  33.213  1.00  0.00     0.202 C 
BRANCH  30  31
ATOM     31  C   UNL A   1      40.199  33.286  32.190  1.00  0.00     0.261 C 
BRANCH  31  32
ATOM     32  O   UNL A   1      41.548  34.695  32.758  1.00  0.00    -0.460 OA
BRANCH  32  33
ATOM     33  C   UNL A   1      42.780  35.292  33.099  1.00  0.00     0.338 C 
ATOM     34  O   UNL A   1      43.047  36.491  33.113  1.00  0.00    -0.246 OA
BRANCH  33  35
ATOM     35  C   UNL A   1      43.722  34.354  33.757  1.00  0.00     0.060 A 
ATOM     36  C   UNL A   1      45.103  34.607  33.660  1.00  0.00     0.016 A 
ATOM     37  C   UNL A   1      43.272  33.128  34.236  1.00  0.00     0.016 A 
ATOM     38  C   UNL A   1      46.033  33.618  34.003  1.00  0.00     0.010 A 
ATOM     39  C   UNL A   1      44.202  32.126  34.545  1.00  0.00     0.010 A 
ATOM     40  C   UNL A   1      45.583  32.347  34.384  1.00  0.00    -0.014 A 
BRANCH  40  41
ATOM     41  C   UNL A   1      46.514  31.184  34.355  1.00  0.00     0.031 A 
ATOM     42  C   UNL A   1      46.672  30.428  33.058  1.00  0.00     0.074 A 
ATOM     43  C   UNL A   1      47.183  30.778  35.451  1.00  0.00     0.049 A 
ATOM     44  N   UNL A   1      47.355  29.341  32.807  1.00  0.00    -0.248 NA
ATOM     45  C   UNL A   1      45.968  30.978  31.886  1.00  0.00     0.031 C 
ATOM     46  C   UNL A   1      47.172  31.447  36.749  1.00  0.00     0.029 A 
ATOM     47  N   UNL A   1      47.998  29.687  35.642  1.00  0.00    -0.354 N 
ATOM     48  C   UNL A   1      47.168  29.080  31.453  1.00  0.00     0.074 A 
ATOM     49  C   UNL A   1      46.303  30.117  30.935  1.00  0.00     0.031 C 
ATOM     50  C   UNL A   1      47.922  30.736  37.612  1.00  0.00     0.029 A 
ATOM     51  C   UNL A   1      48.438  29.545  36.936  1.00  0.00     0.049 A 
ATOM     52  H   UNL A   1      48.243  29.065  34.919  1.00  0.00     0.167 HD
ATOM     53  C   UNL A   1      47.659  28.064  30.704  1.00  0.00     0.031 A 
ATOM     54  C   UNL A   1      49.148  28.554  37.516  1.00  0.00     0.031 A 
ATOM     55  C   UNL A   1      48.470  26.996  31.222  1.00  0.00     0.049 A 
ATOM     56  C   UNL A   1      49.591  27.373  36.687  1.00  0.00     0.074 A 
ATOM     57  C   UNL A   1      48.992  25.906  30.548  1.00  0.00     0.029 A 
ATOM     58  N   UNL A   1      48.857  26.872  32.546  1.00  0.00    -0.354 N 
ATOM     59  N   UNL A   1      49.421  27.153  35.404  1.00  0.00    -0.248 NA
ATOM     60  C   UNL A   1      50.321  26.303  37.386  1.00  0.00     0.031 C 
ATOM     61  C   UNL A   1      49.651  25.094  31.476  1.00  0.00     0.029 A 
ATOM     62  C   UNL A   1      49.588  25.709  32.716  1.00  0.00     0.049 A 
ATOM     63  H   UNL A   1      48.645  27.515  33.260  1.00  0.00     0.167 HD
ATOM     64  C   UNL A   1      50.043  25.936  35.141  1.00  0.00     0.074 A 
ATOM     65  C   UNL A   1      50.605  25.472  36.393  1.00  0.00     0.031 C 
ATOM     66  C   UNL A   1      50.143  25.262  33.968  1.00  0.00     0.031 A 
BRANCH  53  67
ATOM     67  C   UNL A   1      47.285  28.035  29.247  1.00  0.00    -0.014 A 
ATOM     68  C   UNL A   1      48.071  28.692  28.283  1.00  0.00     0.010 A 
ATOM     69  C   UNL A   1      46.149  27.317  28.833  1.00  0.00     0.010 A 
ATOM     70  C   UNL A   1      47.710  28.655  26.933  1.00  0.00     0.020 A 
ATOM     71  C   UNL A   1      45.797  27.260  27.482  1.00  0.00     0.020 A 
ATOM     72  C   UNL A   1      46.572  27.942  26.542  1.00  0.00     0.054 A 
BRANCH  72  73
ATOM     73  S   UNL A   1      46.138  27.891  24.781  1.00  0.00     0.124 S 
ATOM     74  O   UNL A   1      44.680  27.826  24.832  1.00  0.00    -0.237 OA
ATOM     75  O   UNL A   1      46.692  29.146  24.277  1.00  0.00    -0.237 OA
ATOM     76  O   UNL A   1      46.800  26.682  24.295  1.00  0.00    -0.744 OA
ENDBRANCH  72  73
ENDBRANCH  53  67
BRANCH  54  77
ATOM     77  C   UNL A   1      49.450  28.598  38.976  1.00  0.00    -0.014 A 
ATOM     78  C   UNL A   1      48.579  28.013  39.912  1.00  0.00     0.010 A 
ATOM     79  C   UNL A   1      50.600  29.264  39.439  1.00  0.00     0.010 A 
ATOM     80  C   UNL A   1      48.841  28.111  41.282  1.00  0.00     0.020 A 
ATOM     81  C   UNL A   1      50.879  29.341  40.807  1.00  0.00     0.020 A 
ATOM     82  C   UNL A   1      49.989  28.775  41.722  1.00  0.00     0.054 A 
BRANCH  82  83
ATOM     83  S   UNL A   1      50.335  28.858  43.502  1.00  0.00     0.124 S 
ATOM     84  O   UNL A   1      49.859  27.558  43.964  1.00  0.00    -0.237 OA
ATOM     85  O   UNL A   1      51.781  29.053  43.535  1.00  0.00    -0.237 OA
ATOM     86  O   UNL A   1      49.549  30.007  43.946  1.00  0.00    -0.744 OA
ENDBRANCH  82  83
ENDBRANCH  54  77
BRANCH  66  87
ATOM     87  C   UNL A   1      50.913  23.969  33.966  1.00  0.00    -0.014 A 
ATOM     88  C   UNL A   1      52.302  23.947  33.753  1.00  0.00     0.010 A 
ATOM     89  C   UNL A   1      50.243  22.764  34.251  1.00  0.00     0.010 A 
ATOM     90  C   UNL A   1      53.005  22.739  33.801  1.00  0.00     0.020 A 
ATOM     91  C   UNL A   1      50.946  21.558  34.324  1.00  0.00     0.020 A 
ATOM     92  C   UNL A   1      52.322  21.552  34.085  1.00  0.00     0.054 A 
BRANCH  92  93
ATOM     93  S   UNL A   1      53.262  20.003  34.193  1.00  0.00     0.124 S 
ATOM     94  O   UNL A   1      54.311  20.351  35.146  1.00  0.00    -0.237 OA
ATOM     95  O   UNL A   1      52.264  19.053  34.677  1.00  0.00    -0.237 OA
ATOM     96  O   UNL A   1      53.714  19.777  32.822  1.00  0.00    -0.744 OA
ENDBRANCH  92  93
ENDBRANCH  66  87
ENDBRANCH  40  41
ENDBRANCH  33  35
ENDBRANCH  32  33
ENDBRANCH  31  32
ENDBRANCH  30  31
ENDBRANCH  29  30
ENDBRANCH  28  29
ENDBRANCH  27  28
ENDBRANCH  26  27
ENDBRANCH   1  26
TORSDOF 27
ENDMDL
