MODEL 1
REMARK VINA RESULT:      -8.1      0.000      0.000
REMARK SMILES C[C@@H](NC(=O)NCCC(=O)NC1CC1)C(=O)OCCOCCOCCOCCOC(=O)c1ccc(-c2c3nc(c(-c4ccc(S(=O)(=O)[O-])cc4)c4ccc([nH]4)c(-c4ccc(S(=O)(=O)[O-])cc4)c4nc(c(-c5ccc(S(=O)(=O)[O-])cc5)c5ccc2[nH]5)C=C4)C=C3)cc1
REMARK SMILES IDX 22 1 21 2 20 3 19 4 18 5 17 6 15 7 16 8 2 9 1 10 3 11 4 12
REMARK SMILES IDX 5 14 6 15 7 17 8 18 9 19 10 20 11 21 12 23 13 24 14 25 23 26
REMARK SMILES IDX 24 27 25 28 26 29 27 30 28 31 29 32 30 33 31 34 32 35 33 36
REMARK SMILES IDX 91 37 34 38 90 39 35 40 36 41 37 42 84 43 38 44 89 45 83 46
REMARK SMILES IDX 85 47 39 48 88 49 82 50 81 51 40 53 70 54 51 55 69 56 52 57
REMARK SMILES IDX 55 58 68 59 86 60 53 61 54 62 67 64 87 65 56 66 41 67 42 68
REMARK SMILES IDX 50 69 43 70 49 71 44 72 45 73 46 74 47 75 48 76 71 77 72 78
REMARK SMILES IDX 80 79 73 80 79 81 74 82 75 83 76 84 77 85 78 86 57 87 58 88
REMARK SMILES IDX 66 89 59 90 65 91 60 92 61 93 62 94 63 95 64 96
REMARK H PARENT 3 13 6 16 11 22 85 52 55 63
REMARK Flexibility Score: inf
ROOT
ATOM      1  C   UNL A   1      35.500  32.932  28.039  1.00  0.00     0.188 C 
ENDROOT
BRANCH   1   2
ATOM      2  C   UNL A   1      34.047  32.538  28.356  1.00  0.00     0.188 C 
BRANCH   2   3
ATOM      3  O   UNL A   1      33.352  31.973  27.256  1.00  0.00    -0.376 OA
BRANCH   3   4
ATOM      4  C   UNL A   1      32.862  30.658  27.421  1.00  0.00     0.202 C 
BRANCH   4   5
ATOM      5  C   UNL A   1      33.210  29.601  26.360  1.00  0.00     0.261 C 
BRANCH   5   6
ATOM      6  O   UNL A   1      32.385  28.459  26.013  1.00  0.00    -0.462 OA
BRANCH   6   7
ATOM      7  C   UNL A   1      31.896  27.456  26.775  1.00  0.00     0.328 C 
ATOM      8  O   UNL A   1      31.415  27.519  27.899  1.00  0.00    -0.250 OA
BRANCH   7   9
ATOM      9  C   UNL A   1      32.187  26.118  26.138  1.00  0.00     0.190 C 
ATOM     10  C   UNL A   1      33.631  26.064  25.635  1.00  0.00     0.043 C 
BRANCH   9  11
ATOM     11  N   UNL A   1      31.776  24.963  26.947  1.00  0.00    -0.325 N 
ATOM     12  C   UNL A   1      31.147  23.823  26.612  1.00  0.00     0.315 C 
ATOM     13  H   UNL A   1      32.000  25.036  27.903  1.00  0.00     0.166 HD
ATOM     14  O   UNL A   1      30.331  23.362  27.409  1.00  0.00    -0.249 OA
ATOM     15  N   UNL A   1      31.371  23.156  25.467  1.00  0.00    -0.338 N 
ATOM     16  H   UNL A   1      30.565  22.734  25.092  1.00  0.00     0.165 HD
BRANCH  15  17
ATOM     17  C   UNL A   1      32.570  22.930  24.671  1.00  0.00     0.127 C 
BRANCH  17  18
ATOM     18  C   UNL A   1      33.794  22.288  25.323  1.00  0.00     0.121 C 
BRANCH  18  19
ATOM     19  C   UNL A   1      33.507  21.415  26.529  1.00  0.00     0.221 C 
ATOM     20  O   UNL A   1      33.710  21.804  27.679  1.00  0.00    -0.275 OA
ATOM     21  N   UNL A   1      32.988  20.167  26.317  1.00  0.00    -0.353 N 
ATOM     22  H   UNL A   1      32.693  19.674  27.117  1.00  0.00     0.163 HD
BRANCH  21  23
ATOM     23  C   UNL A   1      32.826  19.501  25.068  1.00  0.00     0.082 C 
ATOM     24  C   UNL A   1      33.992  18.683  24.571  1.00  0.00     0.027 C 
ATOM     25  C   UNL A   1      32.692  18.022  24.919  1.00  0.00     0.027 C 
ENDBRANCH  21  23
ENDBRANCH  18  19
ENDBRANCH  17  18
ENDBRANCH  15  17
ENDBRANCH   9  11
ENDBRANCH   7   9
ENDBRANCH   6   7
ENDBRANCH   5   6
ENDBRANCH   4   5
ENDBRANCH   3   4
ENDBRANCH   2   3
ENDBRANCH   1   2
BRANCH   1  26
ATOM     26  O   UNL A   1      36.528  32.058  28.488  1.00  0.00    -0.377 OA
BRANCH  26  27
ATOM     27  C   UNL A   1      36.186  30.711  28.809  1.00  0.00     0.188 C 
BRANCH  27  28
ATOM     28  C   UNL A   1      37.059  29.925  29.810  1.00  0.00     0.188 C 
BRANCH  28  29
ATOM     29  O   UNL A   1      36.580  29.917  31.144  1.00  0.00    -0.376 OA
BRANCH  29  30
ATOM     30  C   UNL A   1      35.857  31.051  31.595  1.00  0.00     0.202 C 
BRANCH  30  31
ATOM     31  C   UNL A   1      36.343  31.761  32.870  1.00  0.00     0.261 C 
BRANCH  31  32
ATOM     32  O   UNL A   1      37.651  31.418  33.361  1.00  0.00    -0.460 OA
BRANCH  32  33
ATOM     33  C   UNL A   1      38.677  32.277  33.146  1.00  0.00     0.338 C 
ATOM     34  O   UNL A   1      38.853  33.351  33.662  1.00  0.00    -0.246 OA
BRANCH  33  35
ATOM     35  C   UNL A   1      39.681  31.561  32.315  1.00  0.00     0.060 A 
ATOM     36  C   UNL A   1      40.498  30.592  32.917  1.00  0.00     0.016 A 
ATOM     37  C   UNL A   1      39.789  31.823  30.949  1.00  0.00     0.016 A 
ATOM     38  C   UNL A   1      41.457  29.916  32.163  1.00  0.00     0.010 A 
ATOM     39  C   UNL A   1      40.776  31.173  30.202  1.00  0.00     0.010 A 
ATOM     40  C   UNL A   1      41.641  30.249  30.816  1.00  0.00    -0.014 A 
BRANCH  40  41
ATOM     41  C   UNL A   1      42.901  29.864  30.137  1.00  0.00     0.031 A 
ATOM     42  C   UNL A   1      42.945  28.508  29.480  1.00  0.00     0.074 A 
ATOM     43  C   UNL A   1      43.968  30.681  30.077  1.00  0.00     0.049 A 
ATOM     44  N   UNL A   1      43.939  27.905  28.882  1.00  0.00    -0.248 NA
ATOM     45  C   UNL A   1      41.695  27.728  29.507  1.00  0.00     0.031 C 
ATOM     46  C   UNL A   1      44.031  32.040  30.610  1.00  0.00     0.029 A 
ATOM     47  N   UNL A   1      45.214  30.470  29.537  1.00  0.00    -0.354 N 
ATOM     48  C   UNL A   1      43.437  26.674  28.471  1.00  0.00     0.074 A 
ATOM     49  C   UNL A   1      42.062  26.604  28.913  1.00  0.00     0.031 C 
ATOM     50  C   UNL A   1      45.260  32.539  30.380  1.00  0.00     0.029 A 
ATOM     51  C   UNL A   1      46.080  31.522  29.719  1.00  0.00     0.049 A 
ATOM     52  H   UNL A   1      45.464  29.644  29.065  1.00  0.00     0.167 HD
ATOM     53  C   UNL A   1      44.062  25.690  27.787  1.00  0.00     0.031 A 
ATOM     54  C   UNL A   1      47.387  31.639  29.408  1.00  0.00     0.031 A 
ATOM     55  C   UNL A   1      45.435  25.751  27.368  1.00  0.00     0.049 A 
ATOM     56  C   UNL A   1      48.092  30.488  28.731  1.00  0.00     0.074 A 
ATOM     57  C   UNL A   1      46.164  24.804  26.669  1.00  0.00     0.029 A 
ATOM     58  N   UNL A   1      46.290  26.814  27.614  1.00  0.00    -0.354 N 
ATOM     59  N   UNL A   1      47.605  29.334  28.343  1.00  0.00    -0.248 NA
ATOM     60  C   UNL A   1      49.525  30.661  28.445  1.00  0.00     0.031 C 
ATOM     61  C   UNL A   1      47.476  25.269  26.547  1.00  0.00     0.029 A 
ATOM     62  C   UNL A   1      47.547  26.535  27.106  1.00  0.00     0.049 A 
ATOM     63  H   UNL A   1      46.040  27.644  28.080  1.00  0.00     0.167 HD
ATOM     64  C   UNL A   1      48.662  28.658  27.737  1.00  0.00     0.074 A 
ATOM     65  C   UNL A   1      49.811  29.538  27.802  1.00  0.00     0.031 C 
ATOM     66  C   UNL A   1      48.680  27.424  27.175  1.00  0.00     0.031 A 
BRANCH  53  67
ATOM     67  C   UNL A   1      43.272  24.443  27.488  1.00  0.00    -0.014 A 
ATOM     68  C   UNL A   1      42.778  24.183  26.197  1.00  0.00     0.010 A 
ATOM     69  C   UNL A   1      43.042  23.507  28.512  1.00  0.00     0.010 A 
ATOM     70  C   UNL A   1      42.039  23.024  25.944  1.00  0.00     0.020 A 
ATOM     71  C   UNL A   1      42.330  22.332  28.256  1.00  0.00     0.020 A 
ATOM     72  C   UNL A   1      41.820  22.106  26.976  1.00  0.00     0.054 A 
BRANCH  72  73
ATOM     73  S   UNL A   1      40.883  20.597  26.612  1.00  0.00     0.124 S 
ATOM     74  O   UNL A   1      39.583  21.136  26.220  1.00  0.00    -0.237 OA
ATOM     75  O   UNL A   1      41.661  19.990  25.536  1.00  0.00    -0.237 OA
ATOM     76  O   UNL A   1      40.896  19.866  27.877  1.00  0.00    -0.744 OA
ENDBRANCH  72  73
ENDBRANCH  53  67
BRANCH  54  77
ATOM     77  C   UNL A   1      48.131  32.884  29.751  1.00  0.00    -0.014 A 
ATOM     78  C   UNL A   1      48.749  33.028  31.007  1.00  0.00     0.010 A 
ATOM     79  C   UNL A   1      48.212  33.942  28.828  1.00  0.00     0.010 A 
ATOM     80  C   UNL A   1      49.421  34.211  31.336  1.00  0.00     0.020 A 
ATOM     81  C   UNL A   1      48.907  35.113  29.141  1.00  0.00     0.020 A 
ATOM     82  C   UNL A   1      49.500  35.245  30.399  1.00  0.00     0.054 A 
BRANCH  82  83
ATOM     83  S   UNL A   1      50.423  36.746  30.829  1.00  0.00     0.124 S 
ATOM     84  O   UNL A   1      51.315  36.266  31.879  1.00  0.00    -0.237 OA
ATOM     85  O   UNL A   1      51.062  37.095  29.563  1.00  0.00    -0.237 OA
ATOM     86  O   UNL A   1      49.382  37.674  31.268  1.00  0.00    -0.744 OA
ENDBRANCH  82  83
ENDBRANCH  54  77
BRANCH  66  87
ATOM     87  C   UNL A   1      49.966  26.960  26.538  1.00  0.00    -0.014 A 
ATOM     88  C   UNL A   1      50.838  26.077  27.200  1.00  0.00     0.010 A 
ATOM     89  C   UNL A   1      50.271  27.364  25.224  1.00  0.00     0.010 A 
ATOM     90  C   UNL A   1      52.005  25.634  26.572  1.00  0.00     0.020 A 
ATOM     91  C   UNL A   1      51.420  26.899  24.582  1.00  0.00     0.020 A 
ATOM     92  C   UNL A   1      52.289  26.047  25.266  1.00  0.00     0.054 A 
BRANCH  92  93
ATOM     93  S   UNL A   1      53.787  25.421  24.459  1.00  0.00     0.124 S 
ATOM     94  O   UNL A   1      54.821  26.281  25.027  1.00  0.00    -0.237 OA
ATOM     95  O   UNL A   1      53.824  24.025  24.889  1.00  0.00    -0.237 OA
ATOM     96  O   UNL A   1      53.524  25.620  23.035  1.00  0.00    -0.744 OA
ENDBRANCH  92  93
ENDBRANCH  66  87
ENDBRANCH  40  41
ENDBRANCH  33  35
ENDBRANCH  32  33
ENDBRANCH  31  32
ENDBRANCH  30  31
ENDBRANCH  29  30
ENDBRANCH  28  29
ENDBRANCH  27  28
ENDBRANCH  26  27
ENDBRANCH   1  26
TORSDOF 28
ENDMDL
MODEL 2
REMARK VINA RESULT:      -7.2      5.819      8.847
REMARK SMILES C[C@@H](NC(=O)NCCC(=O)NC1CC1)C(=O)OCCOCCOCCOCCOC(=O)c1ccc(-c2c3nc(c(-c4ccc(S(=O)(=O)[O-])cc4)c4ccc([nH]4)c(-c4ccc(S(=O)(=O)[O-])cc4)c4nc(c(-c5ccc(S(=O)(=O)[O-])cc5)c5ccc2[nH]5)C=C4)C=C3)cc1
REMARK SMILES IDX 22 1 21 2 20 3 19 4 18 5 17 6 15 7 16 8 2 9 1 10 3 11 4 12
REMARK SMILES IDX 5 14 6 15 7 17 8 18 9 19 10 20 11 21 12 23 13 24 14 25 23 26
REMARK SMILES IDX 24 27 25 28 26 29 27 30 28 31 29 32 30 33 31 34 32 35 33 36
REMARK SMILES IDX 91 37 34 38 90 39 35 40 36 41 37 42 84 43 38 44 89 45 83 46
REMARK SMILES IDX 85 47 39 48 88 49 82 50 81 51 40 53 70 54 51 55 69 56 52 57
REMARK SMILES IDX 55 58 68 59 86 60 53 61 54 62 67 64 87 65 56 66 41 67 42 68
REMARK SMILES IDX 50 69 43 70 49 71 44 72 45 73 46 74 47 75 48 76 71 77 72 78
REMARK SMILES IDX 80 79 73 80 79 81 74 82 75 83 76 84 77 85 78 86 57 87 58 88
REMARK SMILES IDX 66 89 59 90 65 91 60 92 61 93 62 94 63 95 64 96
REMARK H PARENT 3 13 6 16 11 22 85 52 55 63
REMARK Flexibility Score: inf
ROOT
ATOM      1  C   UNL A   1      37.287  32.048  29.113  1.00  0.00     0.188 C 
ENDROOT
BRANCH   1   2
ATOM      2  C   UNL A   1      35.750  32.083  29.048  1.00  0.00     0.188 C 
BRANCH   2   3
ATOM      3  O   UNL A   1      35.231  32.115  27.728  1.00  0.00    -0.376 OA
BRANCH   3   4
ATOM      4  C   UNL A   1      33.927  31.604  27.545  1.00  0.00     0.202 C 
BRANCH   4   5
ATOM      5  C   UNL A   1      33.724  30.080  27.536  1.00  0.00     0.261 C 
BRANCH   5   6
ATOM      6  O   UNL A   1      34.395  29.151  26.645  1.00  0.00    -0.462 OA
BRANCH   6   7
ATOM      7  C   UNL A   1      33.905  28.319  25.700  1.00  0.00     0.328 C 
ATOM      8  O   UNL A   1      33.926  27.095  25.678  1.00  0.00    -0.250 OA
BRANCH   7   9
ATOM      9  C   UNL A   1      33.459  29.101  24.488  1.00  0.00     0.190 C 
ATOM     10  C   UNL A   1      33.732  28.313  23.206  1.00  0.00     0.043 C 
BRANCH   9  11
ATOM     11  N   UNL A   1      32.100  29.651  24.592  1.00  0.00    -0.325 N 
ATOM     12  C   UNL A   1      30.903  29.123  24.287  1.00  0.00     0.315 C 
ATOM     13  H   UNL A   1      32.060  30.568  24.947  1.00  0.00     0.166 HD
ATOM     14  O   UNL A   1      30.053  29.868  23.800  1.00  0.00    -0.249 OA
ATOM     15  N   UNL A   1      30.580  27.835  24.498  1.00  0.00    -0.338 N 
ATOM     16  H   UNL A   1      29.994  27.456  23.804  1.00  0.00     0.165 HD
BRANCH  15  17
ATOM     17  C   UNL A   1      30.922  26.888  25.551  1.00  0.00     0.127 C 
BRANCH  17  18
ATOM     18  C   UNL A   1      30.456  25.437  25.437  1.00  0.00     0.121 C 
BRANCH  18  19
ATOM     19  C   UNL A   1      31.390  24.404  26.036  1.00  0.00     0.221 C 
ATOM     20  O   UNL A   1      31.372  24.127  27.236  1.00  0.00    -0.275 OA
ATOM     21  N   UNL A   1      32.258  23.754  25.203  1.00  0.00    -0.353 N 
ATOM     22  H   UNL A   1      32.761  23.002  25.593  1.00  0.00     0.163 HD
BRANCH  21  23
ATOM     23  C   UNL A   1      32.519  24.044  23.832  1.00  0.00     0.082 C 
ATOM     24  C   UNL A   1      33.935  23.855  23.349  1.00  0.00     0.027 C 
ATOM     25  C   UNL A   1      32.824  23.010  22.801  1.00  0.00     0.027 C 
ENDBRANCH  21  23
ENDBRANCH  18  19
ENDBRANCH  17  18
ENDBRANCH  15  17
ENDBRANCH   9  11
ENDBRANCH   7   9
ENDBRANCH   6   7
ENDBRANCH   5   6
ENDBRANCH   4   5
ENDBRANCH   3   4
ENDBRANCH   2   3
ENDBRANCH   1   2
BRANCH   1  26
ATOM     26  O   UNL A   1      37.887  31.001  29.865  1.00  0.00    -0.377 OA
BRANCH  26  27
ATOM     27  C   UNL A   1      37.399  30.741  31.181  1.00  0.00     0.188 C 
BRANCH  27  28
ATOM     28  C   UNL A   1      37.557  31.818  32.274  1.00  0.00     0.188 C 
BRANCH  28  29
ATOM     29  O   UNL A   1      36.554  31.806  33.276  1.00  0.00    -0.376 OA
BRANCH  29  30
ATOM     30  C   UNL A   1      35.817  32.998  33.491  1.00  0.00     0.202 C 
BRANCH  30  31
ATOM     31  C   UNL A   1      36.092  33.801  34.773  1.00  0.00     0.261 C 
BRANCH  31  32
ATOM     32  O   UNL A   1      37.346  33.573  35.440  1.00  0.00    -0.460 OA
BRANCH  32  33
ATOM     33  C   UNL A   1      38.450  34.225  35.000  1.00  0.00     0.338 C 
ATOM     34  O   UNL A   1      38.548  35.394  34.726  1.00  0.00    -0.246 OA
BRANCH  33  35
ATOM     35  C   UNL A   1      39.594  33.284  35.125  1.00  0.00     0.060 A 
ATOM     36  C   UNL A   1      40.880  33.724  34.777  1.00  0.00     0.016 A 
ATOM     37  C   UNL A   1      39.399  31.990  35.610  1.00  0.00     0.016 A 
ATOM     38  C   UNL A   1      41.968  32.857  34.872  1.00  0.00     0.010 A 
ATOM     39  C   UNL A   1      40.484  31.110  35.668  1.00  0.00     0.010 A 
ATOM     40  C   UNL A   1      41.763  31.527  35.259  1.00  0.00    -0.014 A 
BRANCH  40  41
ATOM     41  C   UNL A   1      42.802  30.513  34.957  1.00  0.00     0.031 A 
ATOM     42  C   UNL A   1      43.789  30.190  36.049  1.00  0.00     0.074 A 
ATOM     43  C   UNL A   1      42.869  29.878  33.773  1.00  0.00     0.049 A 
ATOM     44  N   UNL A   1      44.828  29.397  36.023  1.00  0.00    -0.248 NA
ATOM     45  C   UNL A   1      43.573  30.858  37.344  1.00  0.00     0.031 C 
ATOM     46  C   UNL A   1      41.936  30.048  32.662  1.00  0.00     0.029 A 
ATOM     47  N   UNL A   1      43.779  28.958  33.313  1.00  0.00    -0.354 N 
ATOM     48  C   UNL A   1      45.392  29.478  37.292  1.00  0.00     0.074 A 
ATOM     49  C   UNL A   1      44.600  30.418  38.053  1.00  0.00     0.031 C 
ATOM     50  C   UNL A   1      42.330  29.265  31.641  1.00  0.00     0.029 A 
ATOM     51  C   UNL A   1      43.562  28.569  32.013  1.00  0.00     0.049 A 
ATOM     52  H   UNL A   1      44.518  28.611  33.862  1.00  0.00     0.167 HD
ATOM     53  C   UNL A   1      46.473  28.829  37.782  1.00  0.00     0.031 A 
ATOM     54  C   UNL A   1      44.289  27.763  31.211  1.00  0.00     0.031 A 
ATOM     55  C   UNL A   1      47.272  27.912  37.018  1.00  0.00     0.049 A 
ATOM     56  C   UNL A   1      45.547  27.124  31.750  1.00  0.00     0.074 A 
ATOM     57  C   UNL A   1      48.390  27.203  37.424  1.00  0.00     0.029 A 
ATOM     58  N   UNL A   1      47.047  27.582  35.691  1.00  0.00    -0.354 N 
ATOM     59  N   UNL A   1      46.066  27.205  32.952  1.00  0.00    -0.248 NA
ATOM     60  C   UNL A   1      46.315  26.281  30.821  1.00  0.00     0.031 C 
ATOM     61  C   UNL A   1      48.876  26.492  36.322  1.00  0.00     0.029 A 
ATOM     62  C   UNL A   1      48.020  26.702  35.252  1.00  0.00     0.049 A 
ATOM     63  H   UNL A   1      46.305  27.924  35.143  1.00  0.00     0.167 HD
ATOM     64  C   UNL A   1      47.200  26.395  32.933  1.00  0.00     0.074 A 
ATOM     65  C   UNL A   1      47.284  25.827  31.602  1.00  0.00     0.031 C 
ATOM     66  C   UNL A   1      48.088  26.141  33.926  1.00  0.00     0.031 A 
BRANCH  53  67
ATOM     67  C   UNL A   1      46.874  29.126  39.203  1.00  0.00    -0.014 A 
ATOM     68  C   UNL A   1      47.744  30.187  39.511  1.00  0.00     0.010 A 
ATOM     69  C   UNL A   1      46.351  28.342  40.248  1.00  0.00     0.010 A 
ATOM     70  C   UNL A   1      48.110  30.438  40.836  1.00  0.00     0.020 A 
ATOM     71  C   UNL A   1      46.689  28.610  41.577  1.00  0.00     0.020 A 
ATOM     72  C   UNL A   1      47.579  29.648  41.861  1.00  0.00     0.054 A 
BRANCH  72  73
ATOM     73  S   UNL A   1      48.049  30.016  43.573  1.00  0.00     0.124 S 
ATOM     74  O   UNL A   1      47.659  31.418  43.699  1.00  0.00    -0.237 OA
ATOM     75  O   UNL A   1      47.242  29.069  44.336  1.00  0.00    -0.237 OA
ATOM     76  O   UNL A   1      49.489  29.767  43.599  1.00  0.00    -0.744 OA
ENDBRANCH  72  73
ENDBRANCH  53  67
BRANCH  54  77
ATOM     77  C   UNL A   1      43.864  27.525  29.803  1.00  0.00    -0.014 A 
ATOM     78  C   UNL A   1      44.279  28.387  28.772  1.00  0.00     0.010 A 
ATOM     79  C   UNL A   1      43.025  26.440  29.487  1.00  0.00     0.010 A 
ATOM     80  C   UNL A   1      43.852  28.177  27.456  1.00  0.00     0.020 A 
ATOM     81  C   UNL A   1      42.621  26.209  28.169  1.00  0.00     0.020 A 
ATOM     82  C   UNL A   1      43.029  27.086  27.162  1.00  0.00     0.054 A 
BRANCH  82  83
ATOM     83  S   UNL A   1      42.535  26.804  25.439  1.00  0.00     0.124 S 
ATOM     84  O   UNL A   1      43.574  25.895  24.968  1.00  0.00    -0.237 OA
ATOM     85  O   UNL A   1      41.203  26.222  25.587  1.00  0.00    -0.237 OA
ATOM     86  O   UNL A   1      42.559  28.142  24.852  1.00  0.00    -0.744 OA
ENDBRANCH  82  83
ENDBRANCH  54  77
BRANCH  66  87
ATOM     87  C   UNL A   1      49.207  25.172  33.637  1.00  0.00    -0.014 A 
ATOM     88  C   UNL A   1      50.458  25.611  33.169  1.00  0.00     0.010 A 
ATOM     89  C   UNL A   1      49.021  23.803  33.906  1.00  0.00     0.010 A 
ATOM     90  C   UNL A   1      51.490  24.696  32.945  1.00  0.00     0.020 A 
ATOM     91  C   UNL A   1      50.059  22.889  33.714  1.00  0.00     0.020 A 
ATOM     92  C   UNL A   1      51.284  23.339  33.221  1.00  0.00     0.054 A 
BRANCH  92  93
ATOM     93  S   UNL A   1      52.654  22.179  32.964  1.00  0.00     0.124 S 
ATOM     94  O   UNL A   1      53.689  23.047  32.411  1.00  0.00    -0.237 OA
ATOM     95  O   UNL A   1      52.908  21.679  34.313  1.00  0.00    -0.237 OA
ATOM     96  O   UNL A   1      52.105  21.194  32.034  1.00  0.00    -0.744 OA
ENDBRANCH  92  93
ENDBRANCH  66  87
ENDBRANCH  40  41
ENDBRANCH  33  35
ENDBRANCH  32  33
ENDBRANCH  31  32
ENDBRANCH  30  31
ENDBRANCH  29  30
ENDBRANCH  28  29
ENDBRANCH  27  28
ENDBRANCH  26  27
ENDBRANCH   1  26
TORSDOF 28
ENDMDL
MODEL 3
REMARK VINA RESULT:      -7.0      2.065      3.210
REMARK SMILES C[C@@H](NC(=O)NCCC(=O)NC1CC1)C(=O)OCCOCCOCCOCCOC(=O)c1ccc(-c2c3nc(c(-c4ccc(S(=O)(=O)[O-])cc4)c4ccc([nH]4)c(-c4ccc(S(=O)(=O)[O-])cc4)c4nc(c(-c5ccc(S(=O)(=O)[O-])cc5)c5ccc2[nH]5)C=C4)C=C3)cc1
REMARK SMILES IDX 22 1 21 2 20 3 19 4 18 5 17 6 15 7 16 8 2 9 1 10 3 11 4 12
REMARK SMILES IDX 5 14 6 15 7 17 8 18 9 19 10 20 11 21 12 23 13 24 14 25 23 26
REMARK SMILES IDX 24 27 25 28 26 29 27 30 28 31 29 32 30 33 31 34 32 35 33 36
REMARK SMILES IDX 91 37 34 38 90 39 35 40 36 41 37 42 84 43 38 44 89 45 83 46
REMARK SMILES IDX 85 47 39 48 88 49 82 50 81 51 40 53 70 54 51 55 69 56 52 57
REMARK SMILES IDX 55 58 68 59 86 60 53 61 54 62 67 64 87 65 56 66 41 67 42 68
REMARK SMILES IDX 50 69 43 70 49 71 44 72 45 73 46 74 47 75 48 76 71 77 72 78
REMARK SMILES IDX 80 79 73 80 79 81 74 82 75 83 76 84 77 85 78 86 57 87 58 88
REMARK SMILES IDX 66 89 59 90 65 91 60 92 61 93 62 94 63 95 64 96
REMARK H PARENT 3 13 6 16 11 22 85 52 55 63
REMARK Flexibility Score: inf
ROOT
ATOM      1  C   UNL A   1      37.873  29.436  29.225  1.00  0.00     0.188 C 
ENDROOT
BRANCH   1   2
ATOM      2  C   UNL A   1      36.541  30.201  29.311  1.00  0.00     0.188 C 
BRANCH   2   3
ATOM      3  O   UNL A   1      36.089  30.710  28.066  1.00  0.00    -0.376 OA
BRANCH   3   4
ATOM      4  C   UNL A   1      34.794  30.324  27.653  1.00  0.00     0.202 C 
BRANCH   4   5
ATOM      5  C   UNL A   1      34.619  28.978  26.930  1.00  0.00     0.261 C 
BRANCH   5   6
ATOM      6  O   UNL A   1      33.920  28.787  25.673  1.00  0.00    -0.462 OA
BRANCH   6   7
ATOM      7  C   UNL A   1      32.728  29.256  25.243  1.00  0.00     0.328 C 
ATOM      8  O   UNL A   1      31.716  29.476  25.896  1.00  0.00    -0.250 OA
BRANCH   7   9
ATOM      9  C   UNL A   1      32.697  29.316  23.734  1.00  0.00     0.190 C 
ATOM     10  C   UNL A   1      33.407  28.102  23.132  1.00  0.00     0.043 C 
BRANCH   9  11
ATOM     11  N   UNL A   1      31.370  29.593  23.169  1.00  0.00    -0.325 N 
ATOM     12  C   UNL A   1      30.484  28.795  22.549  1.00  0.00     0.315 C 
ATOM     13  H   UNL A   1      31.078  30.529  23.259  1.00  0.00     0.166 HD
ATOM     14  O   UNL A   1      29.843  29.267  21.612  1.00  0.00    -0.249 OA
ATOM     15  N   UNL A   1      30.252  27.519  22.906  1.00  0.00    -0.338 N 
ATOM     16  H   UNL A   1      30.064  26.925  22.144  1.00  0.00     0.165 HD
BRANCH  15  17
ATOM     17  C   UNL A   1      30.221  26.842  24.195  1.00  0.00     0.127 C 
BRANCH  17  18
ATOM     18  C   UNL A   1      30.832  25.447  24.324  1.00  0.00     0.121 C 
BRANCH  18  19
ATOM     19  C   UNL A   1      31.228  25.037  25.729  1.00  0.00     0.221 C 
ATOM     20  O   UNL A   1      30.400  24.919  26.632  1.00  0.00    -0.275 OA
ATOM     21  N   UNL A   1      32.547  24.776  25.981  1.00  0.00    -0.353 N 
ATOM     22  H   UNL A   1      32.757  24.391  26.863  1.00  0.00     0.163 HD
BRANCH  21  23
ATOM     23  C   UNL A   1      33.652  25.000  25.110  1.00  0.00     0.082 C 
ATOM     24  C   UNL A   1      34.990  24.457  25.547  1.00  0.00     0.027 C 
ATOM     25  C   UNL A   1      34.320  23.930  24.314  1.00  0.00     0.027 C 
ENDBRANCH  21  23
ENDBRANCH  18  19
ENDBRANCH  17  18
ENDBRANCH  15  17
ENDBRANCH   9  11
ENDBRANCH   7   9
ENDBRANCH   6   7
ENDBRANCH   5   6
ENDBRANCH   4   5
ENDBRANCH   3   4
ENDBRANCH   2   3
ENDBRANCH   1   2
BRANCH   1  26
ATOM     26  O   UNL A   1      38.245  28.641  30.343  1.00  0.00    -0.377 OA
BRANCH  26  27
ATOM     27  C   UNL A   1      38.087  29.189  31.651  1.00  0.00     0.188 C 
BRANCH  27  28
ATOM     28  C   UNL A   1      39.311  29.790  32.373  1.00  0.00     0.188 C 
BRANCH  28  29
ATOM     29  O   UNL A   1      39.057  30.272  33.682  1.00  0.00    -0.376 OA
BRANCH  29  30
ATOM     30  C   UNL A   1      37.796  30.871  33.934  1.00  0.00     0.202 C 
BRANCH  30  31
ATOM     31  C   UNL A   1      37.542  32.286  33.387  1.00  0.00     0.261 C 
BRANCH  31  32
ATOM     32  O   UNL A   1      38.693  33.091  33.075  1.00  0.00    -0.460 OA
BRANCH  32  33
ATOM     33  C   UNL A   1      38.775  33.668  31.851  1.00  0.00     0.338 C 
ATOM     34  O   UNL A   1      37.977  34.408  31.336  1.00  0.00    -0.246 OA
BRANCH  33  35
ATOM     35  C   UNL A   1      40.144  33.404  31.334  1.00  0.00     0.060 A 
ATOM     36  C   UNL A   1      40.475  33.821  30.035  1.00  0.00     0.016 A 
ATOM     37  C   UNL A   1      41.099  32.780  32.138  1.00  0.00     0.016 A 
ATOM     38  C   UNL A   1      41.747  33.574  29.522  1.00  0.00     0.010 A 
ATOM     39  C   UNL A   1      42.362  32.498  31.609  1.00  0.00     0.010 A 
ATOM     40  C   UNL A   1      42.676  32.856  30.285  1.00  0.00    -0.014 A 
BRANCH  40  41
ATOM     41  C   UNL A   1      43.840  32.229  29.614  1.00  0.00     0.031 A 
ATOM     42  C   UNL A   1      43.665  30.823  29.100  1.00  0.00     0.074 A 
ATOM     43  C   UNL A   1      45.007  32.874  29.442  1.00  0.00     0.049 A 
ATOM     44  N   UNL A   1      44.539  30.028  28.540  1.00  0.00    -0.248 NA
ATOM     45  C   UNL A   1      42.321  30.237  29.241  1.00  0.00     0.031 C 
ATOM     46  C   UNL A   1      45.282  34.255  29.830  1.00  0.00     0.029 A 
ATOM     47  N   UNL A   1      46.187  32.435  28.892  1.00  0.00    -0.354 N 
ATOM     48  C   UNL A   1      43.853  28.848  28.273  1.00  0.00     0.074 A 
ATOM     49  C   UNL A   1      42.502  29.019  28.756  1.00  0.00     0.031 C 
ATOM     50  C   UNL A   1      46.558  34.548  29.517  1.00  0.00     0.029 A 
ATOM     51  C   UNL A   1      47.199  33.364  28.941  1.00  0.00     0.049 A 
ATOM     52  H   UNL A   1      46.299  31.539  28.501  1.00  0.00     0.167 HD
ATOM     53  C   UNL A   1      44.305  27.721  27.677  1.00  0.00     0.031 A 
ATOM     54  C   UNL A   1      48.496  33.261  28.585  1.00  0.00     0.031 A 
ATOM     55  C   UNL A   1      45.654  27.543  27.216  1.00  0.00     0.049 A 
ATOM     56  C   UNL A   1      49.003  31.960  28.010  1.00  0.00     0.074 A 
ATOM     57  C   UNL A   1      46.213  26.437  26.599  1.00  0.00     0.029 A 
ATOM     58  N   UNL A   1      46.660  28.491  27.328  1.00  0.00    -0.354 N 
ATOM     59  N   UNL A   1      48.344  30.855  27.757  1.00  0.00    -0.248 NA
ATOM     60  C   UNL A   1      50.433  31.896  27.669  1.00  0.00     0.031 C 
ATOM     61  C   UNL A   1      47.572  26.694  26.394  1.00  0.00     0.029 A 
ATOM     62  C   UNL A   1      47.842  27.986  26.817  1.00  0.00     0.049 A 
ATOM     63  H   UNL A   1      46.548  29.390  27.713  1.00  0.00     0.167 HD
ATOM     64  C   UNL A   1      49.269  29.978  27.195  1.00  0.00     0.074 A 
ATOM     65  C   UNL A   1      50.532  30.686  27.137  1.00  0.00     0.031 C 
ATOM     66  C   UNL A   1      49.091  28.705  26.763  1.00  0.00     0.031 A 
BRANCH  53  67
ATOM     67  C   UNL A   1      43.336  26.578  27.530  1.00  0.00    -0.014 A 
ATOM     68  C   UNL A   1      43.180  25.616  28.544  1.00  0.00     0.010 A 
ATOM     69  C   UNL A   1      42.552  26.480  26.366  1.00  0.00     0.010 A 
ATOM     70  C   UNL A   1      42.281  24.559  28.383  1.00  0.00     0.020 A 
ATOM     71  C   UNL A   1      41.630  25.441  26.214  1.00  0.00     0.020 A 
ATOM     72  C   UNL A   1      41.511  24.478  27.218  1.00  0.00     0.054 A 
BRANCH  72  73
ATOM     73  S   UNL A   1      40.333  23.111  27.049  1.00  0.00     0.124 S 
ATOM     74  O   UNL A   1      40.568  22.355  28.277  1.00  0.00    -0.237 OA
ATOM     75  O   UNL A   1      39.049  23.803  26.975  1.00  0.00    -0.237 OA
ATOM     76  O   UNL A   1      40.750  22.443  25.819  1.00  0.00    -0.744 OA
ENDBRANCH  72  73
ENDBRANCH  53  67
BRANCH  54  77
ATOM     77  C   UNL A   1      49.420  34.414  28.777  1.00  0.00    -0.014 A 
ATOM     78  C   UNL A   1      49.615  35.357  27.752  1.00  0.00     0.010 A 
ATOM     79  C   UNL A   1      50.126  34.566  29.985  1.00  0.00     0.010 A 
ATOM     80  C   UNL A   1      50.508  36.420  27.926  1.00  0.00     0.020 A 
ATOM     81  C   UNL A   1      50.996  35.644  30.174  1.00  0.00     0.020 A 
ATOM     82  C   UNL A   1      51.190  36.560  29.138  1.00  0.00     0.054 A 
BRANCH  82  83
ATOM     83  S   UNL A   1      52.300  37.978  29.359  1.00  0.00     0.124 S 
ATOM     84  O   UNL A   1      53.611  37.338  29.382  1.00  0.00    -0.237 OA
ATOM     85  O   UNL A   1      52.011  38.789  28.179  1.00  0.00    -0.237 OA
ATOM     86  O   UNL A   1      51.863  38.559  30.627  1.00  0.00    -0.744 OA
ENDBRANCH  82  83
ENDBRANCH  54  77
BRANCH  66  87
ATOM     87  C   UNL A   1      50.271  28.001  26.142  1.00  0.00    -0.014 A 
ATOM     88  C   UNL A   1      51.098  27.149  26.895  1.00  0.00     0.010 A 
ATOM     89  C   UNL A   1      50.514  28.144  24.763  1.00  0.00     0.010 A 
ATOM     90  C   UNL A   1      52.164  26.480  26.287  1.00  0.00     0.020 A 
ATOM     91  C   UNL A   1      51.558  27.453  24.145  1.00  0.00     0.020 A 
ATOM     92  C   UNL A   1      52.387  26.635  24.915  1.00  0.00     0.054 A 
BRANCH  92  93
ATOM     93  S   UNL A   1      53.748  25.720  24.142  1.00  0.00     0.124 S 
ATOM     94  O   UNL A   1      53.516  24.362  24.626  1.00  0.00    -0.237 OA
ATOM     95  O   UNL A   1      53.508  25.930  22.717  1.00  0.00    -0.237 OA
ATOM     96  O   UNL A   1      54.947  26.372  24.668  1.00  0.00    -0.744 OA
ENDBRANCH  92  93
ENDBRANCH  66  87
ENDBRANCH  40  41
ENDBRANCH  33  35
ENDBRANCH  32  33
ENDBRANCH  31  32
ENDBRANCH  30  31
ENDBRANCH  29  30
ENDBRANCH  28  29
ENDBRANCH  27  28
ENDBRANCH  26  27
ENDBRANCH   1  26
TORSDOF 28
ENDMDL
