MODEL 1
REMARK VINA RESULT:      -5.5      0.000      0.000
REMARK SMILES CS(=O)(=O)c1ccc(/C=C(/C(=O)OCCOCCOCCOCCOC(=O)c2ccc(-c3c4nc(c(-c5ccc(S(=O)(=O)[O-])cc5)c5ccc([nH]5)c(-c5ccc(S(=O)(=O)[O-])cc5)c5nc(c(-c6ccc(S(=O)(=O)[O-])cc6)c6ccc3[nH]6)C=C5)C=C4)cc2)c2cccc(-c3ccc(S(C)(=O)=O)cc3)c2)cc1
REMARK SMILES IDX 19 1 18 2 17 3 16 4 15 5 14 6 13 7 11 8 12 9 10 10 9 11 8 12
REMARK SMILES IDX 5 13 6 14 105 15 7 16 104 17 2 18 1 19 3 20 4 21 88 22 89 23
REMARK SMILES IDX 103 24 90 25 92 26 91 27 93 28 94 29 102 30 95 31 101 32
REMARK SMILES IDX 96 33 97 34 98 35 99 36 100 37 20 38 21 39 22 40 23 41 24 42
REMARK SMILES IDX 25 43 26 44 27 45 28 46 29 47 87 48 30 49 86 50 31 51 32 52
REMARK SMILES IDX 33 53 80 54 34 55 85 56 79 57 81 58 35 59 84 60 78 61 77 62
REMARK SMILES IDX 36 64 66 65 47 66 65 67 48 68 51 69 64 70 82 71 49 72 50 73
REMARK SMILES IDX 63 75 83 76 52 77 37 78 38 79 46 80 39 81 45 82 40 83 41 84
REMARK SMILES IDX 42 85 43 86 44 87 67 88 68 89 76 90 69 91 75 92 70 93 71 94
REMARK SMILES IDX 72 95 73 96 74 97 53 98 54 99 62 100 55 101 61 102 56 103
REMARK SMILES IDX 57 104 58 105 59 106 60 107
REMARK H PARENT 81 63 51 74
REMARK Flexibility Score: inf
ROOT
ATOM      1  O   UNL A   1      48.657  25.946  33.017  1.00  0.00    -0.377 OA
ENDROOT
BRANCH   1   2
ATOM      2  C   UNL A   1      47.348  25.444  33.194  1.00  0.00     0.188 C 
BRANCH   2   3
ATOM      3  C   UNL A   1      46.207  25.917  32.266  1.00  0.00     0.188 C 
BRANCH   3   4
ATOM      4  O   UNL A   1      45.141  26.596  32.915  1.00  0.00    -0.376 OA
BRANCH   4   5
ATOM      5  C   UNL A   1      43.962  26.775  32.139  1.00  0.00     0.202 C 
BRANCH   5   6
ATOM      6  C   UNL A   1      43.361  28.183  32.232  1.00  0.00     0.261 C 
BRANCH   6   7
ATOM      7  O   UNL A   1      41.929  28.207  32.352  1.00  0.00    -0.460 OA
BRANCH   7   8
ATOM      8  C   UNL A   1      41.228  28.504  31.234  1.00  0.00     0.338 C 
ATOM      9  O   UNL A   1      41.197  27.831  30.214  1.00  0.00    -0.246 OA
BRANCH   8  10
ATOM     10  C   UNL A   1      40.357  29.703  31.460  1.00  0.00     0.067 C 
ATOM     11  C   UNL A   1      39.035  29.517  31.700  1.00  0.00     0.024 C 
BRANCH  11  12
ATOM     12  C   UNL A   1      38.020  30.496  32.160  1.00  0.00    -0.025 A 
ATOM     13  C   UNL A   1      36.450  32.604  33.161  1.00  0.00     0.067 A 
ATOM     14  C   UNL A   1      36.433  32.316  31.798  1.00  0.00     0.021 A 
ATOM     15  C   UNL A   1      37.154  31.783  34.042  1.00  0.00     0.021 A 
ATOM     16  C   UNL A   1      37.192  31.245  31.311  1.00  0.00     0.009 A 
ATOM     17  C   UNL A   1      37.929  30.733  33.540  1.00  0.00     0.009 A 
BRANCH  13  18
ATOM     18  S   UNL A   1      35.654  34.060  33.796  1.00  0.00     0.175 S 
ATOM     19  C   UNL A   1      33.946  33.923  33.336  1.00  0.00     0.163 C 
ATOM     20  O   UNL A   1      36.189  35.194  33.064  1.00  0.00    -0.224 OA
ATOM     21  O   UNL A   1      35.735  33.991  35.242  1.00  0.00    -0.224 OA
ENDBRANCH  13  18
ENDBRANCH  11  12
BRANCH  10  22
ATOM     22  C   UNL A   1      41.017  31.022  31.494  1.00  0.00    -0.010 A 
ATOM     23  C   UNL A   1      41.201  31.726  32.692  1.00  0.00     0.009 A 
ATOM     24  C   UNL A   1      41.576  31.530  30.325  1.00  0.00     0.017 A 
ATOM     25  C   UNL A   1      41.918  32.920  32.720  1.00  0.00     0.001 A 
ATOM     26  C   UNL A   1      42.364  32.692  30.345  1.00  0.00    -0.018 A 
ATOM     27  C   UNL A   1      42.501  33.397  31.551  1.00  0.00     0.009 A 
BRANCH  26  28
ATOM     28  C   UNL A   1      43.120  33.052  29.143  1.00  0.00    -0.018 A 
ATOM     29  C   UNL A   1      43.069  34.366  28.648  1.00  0.00     0.010 A 
ATOM     30  C   UNL A   1      44.008  32.138  28.550  1.00  0.00     0.010 A 
ATOM     31  C   UNL A   1      43.897  34.765  27.605  1.00  0.00     0.021 A 
ATOM     32  C   UNL A   1      44.844  32.529  27.508  1.00  0.00     0.021 A 
ATOM     33  C   UNL A   1      44.778  33.840  27.042  1.00  0.00     0.067 A 
BRANCH  33  34
ATOM     34  S   UNL A   1      45.833  34.369  25.722  1.00  0.00     0.175 S 
ATOM     35  C   UNL A   1      46.225  36.034  26.189  1.00  0.00     0.163 C 
ATOM     36  O   UNL A   1      47.042  33.573  25.800  1.00  0.00    -0.224 OA
ATOM     37  O   UNL A   1      45.043  34.424  24.507  1.00  0.00    -0.224 OA
ENDBRANCH  33  34
ENDBRANCH  26  28
ENDBRANCH  10  22
ENDBRANCH   8  10
ENDBRANCH   7   8
ENDBRANCH   6   7
ENDBRANCH   5   6
ENDBRANCH   4   5
ENDBRANCH   3   4
ENDBRANCH   2   3
ENDBRANCH   1   2
BRANCH   1  38
ATOM     38  C   UNL A   1      48.908  26.850  31.954  1.00  0.00     0.188 C 
BRANCH  38  39
ATOM     39  C   UNL A   1      49.726  26.368  30.738  1.00  0.00     0.188 C 
BRANCH  39  40
ATOM     40  O   UNL A   1      48.992  25.588  29.798  1.00  0.00    -0.376 OA
BRANCH  40  41
ATOM     41  C   UNL A   1      49.582  25.427  28.516  1.00  0.00     0.202 C 
BRANCH  41  42
ATOM     42  C   UNL A   1      48.758  25.981  27.348  1.00  0.00     0.261 C 
BRANCH  42  43
ATOM     43  O   UNL A   1      48.289  27.328  27.502  1.00  0.00    -0.460 OA
BRANCH  43  44
ATOM     44  C   UNL A   1      49.195  28.301  27.740  1.00  0.00     0.338 C 
ATOM     45  O   UNL A   1      50.255  28.484  27.168  1.00  0.00    -0.246 OA
BRANCH  44  46
ATOM     46  C   UNL A   1      48.570  29.237  28.695  1.00  0.00     0.060 A 
ATOM     47  C   UNL A   1      49.383  30.024  29.523  1.00  0.00     0.016 A 
ATOM     48  C   UNL A   1      47.182  29.390  28.707  1.00  0.00     0.016 A 
ATOM     49  C   UNL A   1      48.805  30.979  30.361  1.00  0.00     0.010 A 
ATOM     50  C   UNL A   1      46.605  30.321  29.568  1.00  0.00     0.010 A 
ATOM     51  C   UNL A   1      47.411  31.110  30.408  1.00  0.00    -0.014 A 
BRANCH  51  52
ATOM     52  C   UNL A   1      46.762  31.937  31.449  1.00  0.00     0.031 A 
ATOM     53  C   UNL A   1      46.377  31.273  32.739  1.00  0.00     0.074 A 
ATOM     54  C   UNL A   1      46.481  33.236  31.241  1.00  0.00     0.049 A 
ATOM     55  N   UNL A   1      45.699  31.753  33.748  1.00  0.00    -0.248 NA
ATOM     56  C   UNL A   1      46.813  29.877  32.910  1.00  0.00     0.031 C 
ATOM     57  C   UNL A   1      46.851  34.006  30.054  1.00  0.00     0.029 A 
ATOM     58  N   UNL A   1      45.799  34.132  32.026  1.00  0.00    -0.354 N 
ATOM     59  C   UNL A   1      45.623  30.717  34.671  1.00  0.00     0.074 A 
ATOM     60  C   UNL A   1      46.302  29.579  34.094  1.00  0.00     0.031 C 
ATOM     61  C   UNL A   1      46.376  35.259  30.184  1.00  0.00     0.029 A 
ATOM     62  C   UNL A   1      45.633  35.364  31.439  1.00  0.00     0.049 A 
ATOM     63  H   UNL A   1      45.463  33.914  32.925  1.00  0.00     0.167 HD
ATOM     64  C   UNL A   1      45.034  30.713  35.890  1.00  0.00     0.031 A 
ATOM     65  C   UNL A   1      44.931  36.438  31.853  1.00  0.00     0.031 A 
ATOM     66  C   UNL A   1      44.325  31.834  36.443  1.00  0.00     0.049 A 
ATOM     67  C   UNL A   1      44.179  36.372  33.160  1.00  0.00     0.074 A 
ATOM     68  C   UNL A   1      43.697  31.933  37.672  1.00  0.00     0.029 A 
ATOM     69  N   UNL A   1      44.130  33.043  35.793  1.00  0.00    -0.354 N 
ATOM     70  N   UNL A   1      44.136  35.397  34.037  1.00  0.00    -0.248 NA
ATOM     71  C   UNL A   1      43.374  37.546  33.525  1.00  0.00     0.031 C 
ATOM     72  C   UNL A   1      43.069  33.181  37.739  1.00  0.00     0.029 A 
ATOM     73  C   UNL A   1      43.357  33.882  36.577  1.00  0.00     0.049 A 
ATOM     74  H   UNL A   1      44.487  33.271  34.904  1.00  0.00     0.167 HD
ATOM     75  C   UNL A   1      43.314  35.848  35.066  1.00  0.00     0.074 A 
ATOM     76  C   UNL A   1      42.893  37.187  34.709  1.00  0.00     0.031 C 
ATOM     77  C   UNL A   1      42.942  35.211  36.204  1.00  0.00     0.031 A 
BRANCH  64  78
ATOM     78  C   UNL A   1      45.100  29.436  36.679  1.00  0.00    -0.014 A 
ATOM     79  C   UNL A   1      46.168  29.179  37.560  1.00  0.00     0.010 A 
ATOM     80  C   UNL A   1      44.079  28.480  36.544  1.00  0.00     0.010 A 
ATOM     81  C   UNL A   1      46.234  27.969  38.255  1.00  0.00     0.020 A 
ATOM     82  C   UNL A   1      44.128  27.279  37.257  1.00  0.00     0.020 A 
ATOM     83  C   UNL A   1      45.217  27.024  38.093  1.00  0.00     0.054 A 
BRANCH  83  84
ATOM     84  S   UNL A   1      45.329  25.461  39.008  1.00  0.00     0.124 S 
ATOM     85  O   UNL A   1      44.640  24.537  38.109  1.00  0.00    -0.237 OA
ATOM     86  O   UNL A   1      46.771  25.263  39.126  1.00  0.00    -0.237 OA
ATOM     87  O   UNL A   1      44.636  25.743  40.262  1.00  0.00    -0.744 OA
ENDBRANCH  83  84
ENDBRANCH  64  78
BRANCH  65  88
ATOM     88  C   UNL A   1      44.872  37.663  31.007  1.00  0.00    -0.014 A 
ATOM     89  C   UNL A   1      45.542  38.834  31.401  1.00  0.00     0.010 A 
ATOM     90  C   UNL A   1      44.150  37.662  29.800  1.00  0.00     0.010 A 
ATOM     91  C   UNL A   1      45.485  39.983  30.606  1.00  0.00     0.020 A 
ATOM     92  C   UNL A   1      44.111  38.800  28.990  1.00  0.00     0.020 A 
ATOM     93  C   UNL A   1      44.776  39.957  29.401  1.00  0.00     0.054 A 
BRANCH  93  94
ATOM     94  S   UNL A   1      44.777  41.439  28.354  1.00  0.00     0.124 S 
ATOM     95  O   UNL A   1      44.812  42.511  29.343  1.00  0.00    -0.237 OA
ATOM     96  O   UNL A   1      45.994  41.264  27.565  1.00  0.00    -0.237 OA
ATOM     97  O   UNL A   1      43.533  41.322  27.597  1.00  0.00    -0.744 OA
ENDBRANCH  93  94
ENDBRANCH  65  88
BRANCH  77  98
ATOM     98  C   UNL A   1      42.044  35.950  37.161  1.00  0.00    -0.014 A 
ATOM     99  C   UNL A   1      40.645  35.854  37.062  1.00  0.00     0.010 A 
ATOM    100  C   UNL A   1      42.608  36.670  38.230  1.00  0.00     0.010 A 
ATOM    101  C   UNL A   1      39.826  36.475  38.009  1.00  0.00     0.020 A 
ATOM    102  C   UNL A   1      41.793  37.270  39.194  1.00  0.00     0.020 A 
ATOM    103  C   UNL A   1      40.406  37.174  39.074  1.00  0.00     0.054 A 
BRANCH 103 104
ATOM    104  S   UNL A   1      39.322  37.903  40.331  1.00  0.00     0.124 S 
ATOM    105  O   UNL A   1      38.173  38.327  39.536  1.00  0.00    -0.237 OA
ATOM    106  O   UNL A   1      39.081  36.782  41.236  1.00  0.00    -0.237 OA
ATOM    107  O   UNL A   1      40.123  38.989  40.894  1.00  0.00    -0.744 OA
ENDBRANCH 103 104
ENDBRANCH  77  98
ENDBRANCH  51  52
ENDBRANCH  44  46
ENDBRANCH  43  44
ENDBRANCH  42  43
ENDBRANCH  41  42
ENDBRANCH  40  41
ENDBRANCH  39  40
ENDBRANCH  38  39
ENDBRANCH   1  38
TORSDOF 28
ENDMDL
MODEL 2
REMARK VINA RESULT:      -4.9      4.078     11.113
REMARK SMILES CS(=O)(=O)c1ccc(/C=C(/C(=O)OCCOCCOCCOCCOC(=O)c2ccc(-c3c4nc(c(-c5ccc(S(=O)(=O)[O-])cc5)c5ccc([nH]5)c(-c5ccc(S(=O)(=O)[O-])cc5)c5nc(c(-c6ccc(S(=O)(=O)[O-])cc6)c6ccc3[nH]6)C=C5)C=C4)cc2)c2cccc(-c3ccc(S(C)(=O)=O)cc3)c2)cc1
REMARK SMILES IDX 19 1 18 2 17 3 16 4 15 5 14 6 13 7 11 8 12 9 10 10 9 11 8 12
REMARK SMILES IDX 5 13 6 14 105 15 7 16 104 17 2 18 1 19 3 20 4 21 88 22 89 23
REMARK SMILES IDX 103 24 90 25 92 26 91 27 93 28 94 29 102 30 95 31 101 32
REMARK SMILES IDX 96 33 97 34 98 35 99 36 100 37 20 38 21 39 22 40 23 41 24 42
REMARK SMILES IDX 25 43 26 44 27 45 28 46 29 47 87 48 30 49 86 50 31 51 32 52
REMARK SMILES IDX 33 53 80 54 34 55 85 56 79 57 81 58 35 59 84 60 78 61 77 62
REMARK SMILES IDX 36 64 66 65 47 66 65 67 48 68 51 69 64 70 82 71 49 72 50 73
REMARK SMILES IDX 63 75 83 76 52 77 37 78 38 79 46 80 39 81 45 82 40 83 41 84
REMARK SMILES IDX 42 85 43 86 44 87 67 88 68 89 76 90 69 91 75 92 70 93 71 94
REMARK SMILES IDX 72 95 73 96 74 97 53 98 54 99 62 100 55 101 61 102 56 103
REMARK SMILES IDX 57 104 58 105 59 106 60 107
REMARK H PARENT 81 63 51 74
REMARK Flexibility Score: inf
ROOT
ATOM      1  O   UNL A   1      43.270  38.408  29.421  1.00  0.00    -0.377 OA
ENDROOT
BRANCH   1   2
ATOM      2  C   UNL A   1      42.710  37.243  28.848  1.00  0.00     0.188 C 
BRANCH   2   3
ATOM      3  C   UNL A   1      43.309  35.857  29.173  1.00  0.00     0.188 C 
BRANCH   3   4
ATOM      4  O   UNL A   1      42.398  34.770  29.093  1.00  0.00    -0.376 OA
BRANCH   4   5
ATOM      5  C   UNL A   1      41.256  34.859  29.936  1.00  0.00     0.202 C 
BRANCH   5   6
ATOM      6  C   UNL A   1      40.093  33.954  29.511  1.00  0.00     0.261 C 
BRANCH   6   7
ATOM      7  O   UNL A   1      39.621  33.075  30.545  1.00  0.00    -0.460 OA
BRANCH   7   8
ATOM      8  C   UNL A   1      40.518  32.205  31.063  1.00  0.00     0.338 C 
ATOM      9  O   UNL A   1      40.803  32.097  32.247  1.00  0.00    -0.246 OA
BRANCH   8  10
ATOM     10  C   UNL A   1      41.016  31.267  30.004  1.00  0.00     0.067 C 
ATOM     11  C   UNL A   1      42.311  31.350  29.611  1.00  0.00     0.024 C 
BRANCH  11  12
ATOM     12  C   UNL A   1      43.092  30.420  28.760  1.00  0.00    -0.025 A 
ATOM     13  C   UNL A   1      44.896  28.977  27.155  1.00  0.00     0.067 A 
ATOM     14  C   UNL A   1      44.547  28.490  28.413  1.00  0.00     0.021 A 
ATOM     15  C   UNL A   1      44.271  30.115  26.646  1.00  0.00     0.021 A 
ATOM     16  C   UNL A   1      43.624  29.197  29.193  1.00  0.00     0.009 A 
ATOM     17  C   UNL A   1      43.371  30.827  27.446  1.00  0.00     0.009 A 
BRANCH  13  18
ATOM     18  S   UNL A   1      46.196  28.218  26.211  1.00  0.00     0.175 S 
ATOM     19  C   UNL A   1      45.458  26.826  25.394  1.00  0.00     0.163 C 
ATOM     20  O   UNL A   1      47.154  27.679  27.159  1.00  0.00    -0.224 OA
ATOM     21  O   UNL A   1      46.596  29.173  25.196  1.00  0.00    -0.224 OA
ENDBRANCH  13  18
ENDBRANCH  11  12
BRANCH  10  22
ATOM     22  C   UNL A   1      40.075  30.243  29.512  1.00  0.00    -0.010 A 
ATOM     23  C   UNL A   1      38.727  30.536  29.259  1.00  0.00     0.009 A 
ATOM     24  C   UNL A   1      40.560  28.982  29.177  1.00  0.00     0.017 A 
ATOM     25  C   UNL A   1      37.879  29.586  28.697  1.00  0.00     0.001 A 
ATOM     26  C   UNL A   1      39.741  28.036  28.542  1.00  0.00    -0.018 A 
ATOM     27  C   UNL A   1      38.387  28.343  28.335  1.00  0.00     0.009 A 
BRANCH  26  28
ATOM     28  C   UNL A   1      40.355  26.822  27.999  1.00  0.00    -0.018 A 
ATOM     29  C   UNL A   1      40.343  26.589  26.612  1.00  0.00     0.010 A 
ATOM     30  C   UNL A   1      41.077  25.947  28.828  1.00  0.00     0.010 A 
ATOM     31  C   UNL A   1      41.051  25.524  26.065  1.00  0.00     0.021 A 
ATOM     32  C   UNL A   1      41.793  24.881  28.289  1.00  0.00     0.021 A 
ATOM     33  C   UNL A   1      41.770  24.678  26.911  1.00  0.00     0.067 A 
BRANCH  33  34
ATOM     34  S   UNL A   1      42.676  23.335  26.195  1.00  0.00     0.175 S 
ATOM     35  C   UNL A   1      41.449  22.059  26.089  1.00  0.00     0.163 C 
ATOM     36  O   UNL A   1      43.039  23.736  24.850  1.00  0.00    -0.224 OA
ATOM     37  O   UNL A   1      43.679  22.907  27.151  1.00  0.00    -0.224 OA
ENDBRANCH  33  34
ENDBRANCH  26  28
ENDBRANCH  10  22
ENDBRANCH   8  10
ENDBRANCH   7   8
ENDBRANCH   6   7
ENDBRANCH   5   6
ENDBRANCH   4   5
ENDBRANCH   3   4
ENDBRANCH   2   3
ENDBRANCH   1   2
BRANCH   1  38
ATOM     38  C   UNL A   1      44.402  39.000  28.806  1.00  0.00     0.188 C 
BRANCH  38  39
ATOM     39  C   UNL A   1      45.811  38.622  29.308  1.00  0.00     0.188 C 
BRANCH  39  40
ATOM     40  O   UNL A   1      46.552  37.783  28.428  1.00  0.00    -0.376 OA
BRANCH  40  41
ATOM     41  C   UNL A   1      46.105  37.732  27.081  1.00  0.00     0.202 C 
BRANCH  41  42
ATOM     42  C   UNL A   1      45.713  36.338  26.578  1.00  0.00     0.261 C 
BRANCH  42  43
ATOM     43  O   UNL A   1      46.515  35.814  25.510  1.00  0.00    -0.460 OA
BRANCH  43  44
ATOM     44  C   UNL A   1      47.814  35.537  25.758  1.00  0.00     0.338 C 
ATOM     45  O   UNL A   1      48.784  36.221  25.486  1.00  0.00    -0.246 OA
BRANCH  44  46
ATOM     46  C   UNL A   1      47.833  34.332  26.612  1.00  0.00     0.060 A 
ATOM     47  C   UNL A   1      48.587  34.337  27.794  1.00  0.00     0.016 A 
ATOM     48  C   UNL A   1      47.038  33.234  26.279  1.00  0.00     0.016 A 
ATOM     49  C   UNL A   1      48.538  33.239  28.654  1.00  0.00     0.010 A 
ATOM     50  C   UNL A   1      47.015  32.126  27.122  1.00  0.00     0.010 A 
ATOM     51  C   UNL A   1      47.773  32.117  28.307  1.00  0.00    -0.014 A 
BRANCH  51  52
ATOM     52  C   UNL A   1      47.887  30.856  29.073  1.00  0.00     0.031 A 
ATOM     53  C   UNL A   1      46.985  30.667  30.258  1.00  0.00     0.074 A 
ATOM     54  C   UNL A   1      48.797  29.919  28.753  1.00  0.00     0.049 A 
ATOM     55  N   UNL A   1      46.975  29.710  31.147  1.00  0.00    -0.248 NA
ATOM     56  C   UNL A   1      45.958  31.701  30.469  1.00  0.00     0.031 C 
ATOM     57  C   UNL A   1      49.692  29.964  27.598  1.00  0.00     0.029 A 
ATOM     58  N   UNL A   1      49.128  28.750  29.392  1.00  0.00    -0.354 N 
ATOM     59  C   UNL A   1      45.947  30.028  32.026  1.00  0.00     0.074 A 
ATOM     60  C   UNL A   1      45.372  31.276  31.577  1.00  0.00     0.031 C 
ATOM     61  C   UNL A   1      50.483  28.875  27.619  1.00  0.00     0.029 A 
ATOM     62  C   UNL A   1      50.180  28.084  28.811  1.00  0.00     0.049 A 
ATOM     63  H   UNL A   1      48.655  28.420  30.190  1.00  0.00     0.167 HD
ATOM     64  C   UNL A   1      45.523  29.343  33.114  1.00  0.00     0.031 A 
ATOM     65  C   UNL A   1      50.845  26.982  29.217  1.00  0.00     0.031 A 
ATOM     66  C   UNL A   1      46.124  28.125  33.581  1.00  0.00     0.049 A 
ATOM     67  C   UNL A   1      50.435  26.302  30.500  1.00  0.00     0.074 A 
ATOM     68  C   UNL A   1      45.765  27.351  34.670  1.00  0.00     0.029 A 
ATOM     69  N   UNL A   1      47.224  27.513  32.998  1.00  0.00    -0.354 N 
ATOM     70  N   UNL A   1      49.444  26.596  31.308  1.00  0.00    -0.248 NA
ATOM     71  C   UNL A   1      51.240  25.150  30.929  1.00  0.00     0.031 C 
ATOM     72  C   UNL A   1      46.688  26.305  34.782  1.00  0.00     0.029 A 
ATOM     73  C   UNL A   1      47.584  26.393  33.727  1.00  0.00     0.049 A 
ATOM     74  H   UNL A   1      47.682  27.829  32.186  1.00  0.00     0.167 HD
ATOM     75  C   UNL A   1      49.496  25.654  32.331  1.00  0.00     0.074 A 
ATOM     76  C   UNL A   1      50.606  24.773  32.033  1.00  0.00     0.031 C 
ATOM     77  C   UNL A   1      48.697  25.529  33.420  1.00  0.00     0.031 A 
BRANCH  64  78
ATOM     78  C   UNL A   1      44.381  29.933  33.893  1.00  0.00    -0.014 A 
ATOM     79  C   UNL A   1      43.067  29.453  33.734  1.00  0.00     0.010 A 
ATOM     80  C   UNL A   1      44.623  30.979  34.801  1.00  0.00     0.010 A 
ATOM     81  C   UNL A   1      42.012  30.041  34.435  1.00  0.00     0.020 A 
ATOM     82  C   UNL A   1      43.574  31.551  35.524  1.00  0.00     0.020 A 
ATOM     83  C   UNL A   1      42.272  31.091  35.321  1.00  0.00     0.054 A 
BRANCH  83  84
ATOM     84  S   UNL A   1      40.882  31.835  36.219  1.00  0.00     0.124 S 
ATOM     85  O   UNL A   1      41.263  31.601  37.610  1.00  0.00    -0.237 OA
ATOM     86  O   UNL A   1      40.928  33.228  35.782  1.00  0.00    -0.237 OA
ATOM     87  O   UNL A   1      39.724  31.077  35.755  1.00  0.00    -0.744 OA
ENDBRANCH  83  84
ENDBRANCH  64  78
BRANCH  65  88
ATOM     88  C   UNL A   1      51.994  26.468  28.421  1.00  0.00    -0.014 A 
ATOM     89  C   UNL A   1      51.773  25.718  27.252  1.00  0.00     0.010 A 
ATOM     90  C   UNL A   1      53.316  26.730  28.825  1.00  0.00     0.010 A 
ATOM     91  C   UNL A   1      52.853  25.236  26.507  1.00  0.00     0.020 A 
ATOM     92  C   UNL A   1      54.398  26.271  28.068  1.00  0.00     0.020 A 
ATOM     93  C   UNL A   1      54.159  25.521  26.916  1.00  0.00     0.054 A 
BRANCH  93  94
ATOM     94  S   UNL A   1      55.542  24.944  25.892  1.00  0.00     0.124 S 
ATOM     95  O   UNL A   1      55.442  23.495  26.033  1.00  0.00    -0.237 OA
ATOM     96  O   UNL A   1      55.201  25.477  24.575  1.00  0.00    -0.237 OA
ATOM     97  O   UNL A   1      56.710  25.558  26.519  1.00  0.00    -0.744 OA
ENDBRANCH  93  94
ENDBRANCH  65  88
BRANCH  77  98
ATOM     98  C   UNL A   1      48.975  24.395  34.370  1.00  0.00    -0.014 A 
ATOM     99  C   UNL A   1      48.408  23.125  34.166  1.00  0.00     0.010 A 
ATOM    100  C   UNL A   1      49.889  24.577  35.424  1.00  0.00     0.010 A 
ATOM    101  C   UNL A   1      48.743  22.059  35.007  1.00  0.00     0.020 A 
ATOM    102  C   UNL A   1      50.246  23.508  36.250  1.00  0.00     0.020 A 
ATOM    103  C   UNL A   1      49.665  22.256  36.040  1.00  0.00     0.054 A 
BRANCH 103 104
ATOM    104  S   UNL A   1      50.142  20.838  37.066  1.00  0.00     0.124 S 
ATOM    105  O   UNL A   1      51.341  20.358  36.385  1.00  0.00    -0.237 OA
ATOM    106  O   UNL A   1      50.364  21.449  38.374  1.00  0.00    -0.237 OA
ATOM    107  O   UNL A   1      48.984  19.949  36.989  1.00  0.00    -0.744 OA
ENDBRANCH 103 104
ENDBRANCH  77  98
ENDBRANCH  51  52
ENDBRANCH  44  46
ENDBRANCH  43  44
ENDBRANCH  42  43
ENDBRANCH  41  42
ENDBRANCH  40  41
ENDBRANCH  39  40
ENDBRANCH  38  39
ENDBRANCH   1  38
TORSDOF 28
ENDMDL
MODEL 3
REMARK VINA RESULT:      -4.8      3.763      8.916
REMARK SMILES CS(=O)(=O)c1ccc(/C=C(/C(=O)OCCOCCOCCOCCOC(=O)c2ccc(-c3c4nc(c(-c5ccc(S(=O)(=O)[O-])cc5)c5ccc([nH]5)c(-c5ccc(S(=O)(=O)[O-])cc5)c5nc(c(-c6ccc(S(=O)(=O)[O-])cc6)c6ccc3[nH]6)C=C5)C=C4)cc2)c2cccc(-c3ccc(S(C)(=O)=O)cc3)c2)cc1
REMARK SMILES IDX 19 1 18 2 17 3 16 4 15 5 14 6 13 7 11 8 12 9 10 10 9 11 8 12
REMARK SMILES IDX 5 13 6 14 105 15 7 16 104 17 2 18 1 19 3 20 4 21 88 22 89 23
REMARK SMILES IDX 103 24 90 25 92 26 91 27 93 28 94 29 102 30 95 31 101 32
REMARK SMILES IDX 96 33 97 34 98 35 99 36 100 37 20 38 21 39 22 40 23 41 24 42
REMARK SMILES IDX 25 43 26 44 27 45 28 46 29 47 87 48 30 49 86 50 31 51 32 52
REMARK SMILES IDX 33 53 80 54 34 55 85 56 79 57 81 58 35 59 84 60 78 61 77 62
REMARK SMILES IDX 36 64 66 65 47 66 65 67 48 68 51 69 64 70 82 71 49 72 50 73
REMARK SMILES IDX 63 75 83 76 52 77 37 78 38 79 46 80 39 81 45 82 40 83 41 84
REMARK SMILES IDX 42 85 43 86 44 87 67 88 68 89 76 90 69 91 75 92 70 93 71 94
REMARK SMILES IDX 72 95 73 96 74 97 53 98 54 99 62 100 55 101 61 102 56 103
REMARK SMILES IDX 57 104 58 105 59 106 60 107
REMARK H PARENT 81 63 51 74
REMARK Flexibility Score: inf
ROOT
ATOM      1  O   UNL A   1      53.375  27.148  31.229  1.00  0.00    -0.377 OA
ENDROOT
BRANCH   1   2
ATOM      2  C   UNL A   1      52.845  27.904  30.158  1.00  0.00     0.188 C 
BRANCH   2   3
ATOM      3  C   UNL A   1      51.335  27.841  29.841  1.00  0.00     0.188 C 
BRANCH   3   4
ATOM      4  O   UNL A   1      50.977  26.985  28.766  1.00  0.00    -0.376 OA
BRANCH   4   5
ATOM      5  C   UNL A   1      50.581  25.669  29.131  1.00  0.00     0.202 C 
BRANCH   5   6
ATOM      6  C   UNL A   1      49.498  25.068  28.227  1.00  0.00     0.261 C 
BRANCH   6   7
ATOM      7  O   UNL A   1      49.164  25.877  27.087  1.00  0.00    -0.460 OA
BRANCH   7   8
ATOM      8  C   UNL A   1      47.849  26.072  26.841  1.00  0.00     0.338 C 
ATOM      9  O   UNL A   1      47.111  25.293  26.255  1.00  0.00    -0.246 OA
BRANCH   8  10
ATOM     10  C   UNL A   1      47.364  27.316  27.523  1.00  0.00     0.067 C 
ATOM     11  C   UNL A   1      48.104  28.448  27.425  1.00  0.00     0.024 C 
BRANCH  11  12
ATOM     12  C   UNL A   1      47.750  29.835  27.814  1.00  0.00    -0.025 A 
ATOM     13  C   UNL A   1      46.647  32.323  28.528  1.00  0.00     0.067 A 
ATOM     14  C   UNL A   1      47.426  31.621  29.447  1.00  0.00     0.021 A 
ATOM     15  C   UNL A   1      46.506  31.849  27.224  1.00  0.00     0.021 A 
ATOM     16  C   UNL A   1      47.998  30.399  29.074  1.00  0.00     0.009 A 
ATOM     17  C   UNL A   1      47.060  30.614  26.872  1.00  0.00     0.009 A 
BRANCH  13  18
ATOM     18  S   UNL A   1      45.753  33.779  29.014  1.00  0.00     0.175 S 
ATOM     19  C   UNL A   1      45.746  34.844  27.596  1.00  0.00     0.163 C 
ATOM     20  O   UNL A   1      46.544  34.449  30.030  1.00  0.00    -0.224 OA
ATOM     21  O   UNL A   1      44.387  33.370  29.274  1.00  0.00    -0.224 OA
ENDBRANCH  13  18
ENDBRANCH  11  12
BRANCH  10  22
ATOM     22  C   UNL A   1      46.052  27.252  28.194  1.00  0.00    -0.010 A 
ATOM     23  C   UNL A   1      44.860  27.549  27.517  1.00  0.00     0.009 A 
ATOM     24  C   UNL A   1      45.979  26.772  29.498  1.00  0.00     0.017 A 
ATOM     25  C   UNL A   1      43.623  27.383  28.134  1.00  0.00     0.001 A 
ATOM     26  C   UNL A   1      44.741  26.527  30.112  1.00  0.00    -0.018 A 
ATOM     27  C   UNL A   1      43.565  26.868  29.425  1.00  0.00     0.009 A 
BRANCH  26  28
ATOM     28  C   UNL A   1      44.716  25.804  31.385  1.00  0.00    -0.018 A 
ATOM     29  C   UNL A   1      44.289  26.457  32.555  1.00  0.00     0.010 A 
ATOM     30  C   UNL A   1      44.982  24.425  31.436  1.00  0.00     0.010 A 
ATOM     31  C   UNL A   1      44.112  25.749  33.739  1.00  0.00     0.021 A 
ATOM     32  C   UNL A   1      44.804  23.707  32.616  1.00  0.00     0.021 A 
ATOM     33  C   UNL A   1      44.372  24.378  33.758  1.00  0.00     0.067 A 
BRANCH  33  34
ATOM     34  S   UNL A   1      44.129  23.490  35.271  1.00  0.00     0.175 S 
ATOM     35  C   UNL A   1      44.566  21.833  34.817  1.00  0.00     0.163 C 
ATOM     36  O   UNL A   1      45.113  23.982  36.215  1.00  0.00    -0.224 OA
ATOM     37  O   UNL A   1      42.713  23.506  35.581  1.00  0.00    -0.224 OA
ENDBRANCH  33  34
ENDBRANCH  26  28
ENDBRANCH  10  22
ENDBRANCH   8  10
ENDBRANCH   7   8
ENDBRANCH   6   7
ENDBRANCH   5   6
ENDBRANCH   4   5
ENDBRANCH   3   4
ENDBRANCH   2   3
ENDBRANCH   1   2
BRANCH   1  38
ATOM     38  C   UNL A   1      52.501  26.698  32.250  1.00  0.00     0.188 C 
BRANCH  38  39
ATOM     39  C   UNL A   1      53.017  25.673  33.281  1.00  0.00     0.188 C 
BRANCH  39  40
ATOM     40  O   UNL A   1      52.016  25.132  34.137  1.00  0.00    -0.376 OA
BRANCH  40  41
ATOM     41  C   UNL A   1      51.708  23.757  33.957  1.00  0.00     0.202 C 
BRANCH  41  42
ATOM     42  C   UNL A   1      50.526  23.473  33.024  1.00  0.00     0.261 C 
BRANCH  42  43
ATOM     43  O   UNL A   1      49.686  24.598  32.724  1.00  0.00    -0.460 OA
BRANCH  43  44
ATOM     44  C   UNL A   1      48.542  24.750  33.426  1.00  0.00     0.338 C 
ATOM     45  O   UNL A   1      48.020  23.947  34.178  1.00  0.00    -0.246 OA
BRANCH  44  46
ATOM     46  C   UNL A   1      48.137  26.162  33.273  1.00  0.00     0.060 A 
ATOM     47  C   UNL A   1      47.699  26.878  34.396  1.00  0.00     0.016 A 
ATOM     48  C   UNL A   1      48.274  26.792  32.036  1.00  0.00     0.016 A 
ATOM     49  C   UNL A   1      47.404  28.238  34.282  1.00  0.00     0.010 A 
ATOM     50  C   UNL A   1      47.949  28.141  31.915  1.00  0.00     0.010 A 
ATOM     51  C   UNL A   1      47.501  28.868  33.033  1.00  0.00    -0.014 A 
BRANCH  51  52
ATOM     52  C   UNL A   1      46.973  30.235  32.832  1.00  0.00     0.031 A 
ATOM     53  C   UNL A   1      47.925  31.387  32.971  1.00  0.00     0.074 A 
ATOM     54  C   UNL A   1      45.671  30.455  32.574  1.00  0.00     0.049 A 
ATOM     55  N   UNL A   1      47.681  32.671  32.956  1.00  0.00    -0.248 NA
ATOM     56  C   UNL A   1      49.345  31.041  33.155  1.00  0.00     0.031 C 
ATOM     57  C   UNL A   1      44.660  29.419  32.365  1.00  0.00     0.029 A 
ATOM     58  N   UNL A   1      44.976  31.633  32.464  1.00  0.00    -0.354 N 
ATOM     59  C   UNL A   1      48.913  33.286  33.135  1.00  0.00     0.074 A 
ATOM     60  C   UNL A   1      49.898  32.237  33.278  1.00  0.00     0.031 C 
ATOM     61  C   UNL A   1      43.467  30.011  32.166  1.00  0.00     0.029 A 
ATOM     62  C   UNL A   1      43.625  31.461  32.279  1.00  0.00     0.049 A 
ATOM     63  H   UNL A   1      45.405  32.518  32.511  1.00  0.00     0.167 HD
ATOM     64  C   UNL A   1      49.199  34.609  33.180  1.00  0.00     0.031 A 
ATOM     65  C   UNL A   1      42.628  32.368  32.241  1.00  0.00     0.031 A 
ATOM     66  C   UNL A   1      48.211  35.647  33.079  1.00  0.00     0.049 A 
ATOM     67  C   UNL A   1      42.952  33.831  32.417  1.00  0.00     0.074 A 
ATOM     68  C   UNL A   1      48.399  37.018  33.108  1.00  0.00     0.029 A 
ATOM     69  N   UNL A   1      46.848  35.430  32.950  1.00  0.00    -0.354 N 
ATOM     70  N   UNL A   1      44.124  34.404  32.558  1.00  0.00    -0.248 NA
ATOM     71  C   UNL A   1      41.819  34.766  32.439  1.00  0.00     0.031 C 
ATOM     72  C   UNL A   1      47.141  37.628  33.060  1.00  0.00     0.029 A 
ATOM     73  C   UNL A   1      46.176  36.640  32.939  1.00  0.00     0.049 A 
ATOM     74  H   UNL A   1      46.420  34.546  32.878  1.00  0.00     0.167 HD
ATOM     75  C   UNL A   1      43.870  35.768  32.667  1.00  0.00     0.074 A 
ATOM     76  C   UNL A   1      42.435  35.936  32.562  1.00  0.00     0.031 C 
ATOM     77  C   UNL A   1      44.745  36.790  32.839  1.00  0.00     0.031 A 
BRANCH  64  78
ATOM     78  C   UNL A   1      50.636  34.993  33.395  1.00  0.00    -0.014 A 
ATOM     79  C   UNL A   1      51.499  35.220  32.306  1.00  0.00     0.010 A 
ATOM     80  C   UNL A   1      51.132  35.135  34.703  1.00  0.00     0.010 A 
ATOM     81  C   UNL A   1      52.842  35.536  32.524  1.00  0.00     0.020 A 
ATOM     82  C   UNL A   1      52.468  35.477  34.925  1.00  0.00     0.020 A 
ATOM     83  C   UNL A   1      53.319  35.656  33.833  1.00  0.00     0.054 A 
BRANCH  83  84
ATOM     84  S   UNL A   1      55.067  36.067  34.086  1.00  0.00     0.124 S 
ATOM     85  O   UNL A   1      55.665  35.626  32.828  1.00  0.00    -0.237 OA
ATOM     86  O   UNL A   1      55.029  37.514  34.289  1.00  0.00    -0.237 OA
ATOM     87  O   UNL A   1      55.441  35.286  35.261  1.00  0.00    -0.744 OA
ENDBRANCH  83  84
ENDBRANCH  64  78
BRANCH  65  88
ATOM     88  C   UNL A   1      41.218  31.921  32.064  1.00  0.00    -0.014 A 
ATOM     89  C   UNL A   1      40.646  31.857  30.781  1.00  0.00     0.010 A 
ATOM     90  C   UNL A   1      40.441  31.553  33.178  1.00  0.00     0.010 A 
ATOM     91  C   UNL A   1      39.322  31.438  30.617  1.00  0.00     0.020 A 
ATOM     92  C   UNL A   1      39.125  31.109  33.015  1.00  0.00     0.020 A 
ATOM     93  C   UNL A   1      38.572  31.060  31.735  1.00  0.00     0.054 A 
BRANCH  93  94
ATOM     94  S   UNL A   1      36.880  30.452  31.487  1.00  0.00     0.124 S 
ATOM     95  O   UNL A   1      36.882  30.113  30.068  1.00  0.00    -0.237 OA
ATOM     96  O   UNL A   1      36.815  29.321  32.409  1.00  0.00    -0.237 OA
ATOM     97  O   UNL A   1      36.050  31.596  31.859  1.00  0.00    -0.744 OA
ENDBRANCH  93  94
ENDBRANCH  65  88
BRANCH  77  98
ATOM     98  C   UNL A   1      44.189  38.186  32.912  1.00  0.00    -0.014 A 
ATOM     99  C   UNL A   1      43.978  38.819  34.150  1.00  0.00     0.010 A 
ATOM    100  C   UNL A   1      43.964  38.910  31.726  1.00  0.00     0.010 A 
ATOM    101  C   UNL A   1      43.543  40.146  34.200  1.00  0.00     0.020 A 
ATOM    102  C   UNL A   1      43.554  40.245  31.773  1.00  0.00     0.020 A 
ATOM    103  C   UNL A   1      43.340  40.854  33.011  1.00  0.00     0.054 A 
BRANCH 103 104
ATOM    104  S   UNL A   1      42.852  42.597  33.105  1.00  0.00     0.124 S 
ATOM    105  O   UNL A   1      41.918  42.593  34.228  1.00  0.00    -0.237 OA
ATOM    106  O   UNL A   1      44.124  43.274  33.349  1.00  0.00    -0.237 OA
ATOM    107  O   UNL A   1      42.252  42.862  31.799  1.00  0.00    -0.744 OA
ENDBRANCH 103 104
ENDBRANCH  77  98
ENDBRANCH  51  52
ENDBRANCH  44  46
ENDBRANCH  43  44
ENDBRANCH  42  43
ENDBRANCH  41  42
ENDBRANCH  40  41
ENDBRANCH  39  40
ENDBRANCH  38  39
ENDBRANCH   1  38
TORSDOF 28
ENDMDL
