MODEL 1
REMARK VINA RESULT:     -10.7      0.000      0.000
REMARK SMILES Cc1ccc(NC(=O)[C@H]2CC(Cl)=CC[C@@H]2C(=O)OCCOCCOCCOCCOC(=O)c2ccc(-c3c4nc(c(-c5ccc(S(=O)(=O)[O-])cc5)c5ccc([nH]5)c(-c5ccc(S(=O)(=O)[O-])cc5)c5nc(c(-c6ccc(S(=O)(=O)[O-])cc6)c6ccc3[nH]6)C=C5)C=C4)cc2)cc1[N+](=O)[O-]
REMARK SMILES IDX 24 1 23 2 22 3 21 4 20 5 19 6 18 7 16 8 17 9 15 10 9 11
REMARK SMILES IDX 10 12 11 13 14 14 12 15 13 16 7 17 6 18 8 20 5 21 1 22 2 23
REMARK SMILES IDX 3 24 94 25 4 26 93 27 95 28 96 29 97 30 25 31 26 32 27 33
REMARK SMILES IDX 28 34 29 35 30 36 31 37 32 38 33 39 34 40 92 41 35 42 91 43
REMARK SMILES IDX 36 44 37 45 38 46 85 47 39 48 90 49 84 50 86 51 40 52 89 53
REMARK SMILES IDX 83 54 82 55 41 57 71 58 52 59 70 60 53 61 56 62 69 63 87 64
REMARK SMILES IDX 54 65 55 66 68 68 88 69 57 70 42 71 43 72 51 73 44 74 50 75
REMARK SMILES IDX 45 76 46 77 47 78 48 79 49 80 72 81 73 82 81 83 74 84 80 85
REMARK SMILES IDX 75 86 76 87 77 88 78 89 79 90 58 91 59 92 67 93 60 94 66 95
REMARK SMILES IDX 61 96 62 97 63 98 64 99 65 100
REMARK H PARENT 6 19 86 56 56 67
REMARK Flexibility Score: inf
ROOT
ATOM      1  O   UNL A   1      46.131  30.207  40.595  1.00  0.00    -0.377 OA
ENDROOT
BRANCH   1   2
ATOM      2  C   UNL A   1      45.734  31.430  40.048  1.00  0.00     0.188 C 
BRANCH   2   3
ATOM      3  C   UNL A   1      44.504  31.197  39.198  1.00  0.00     0.188 C 
BRANCH   3   4
ATOM      4  O   UNL A   1      44.026  32.605  38.484  1.00  0.00    -0.376 OA
BRANCH   4   5
ATOM      5  C   UNL A   1      42.362  33.532  38.447  1.00  0.00     0.202 C 
BRANCH   5   6
ATOM      6  C   UNL A   1      40.791  34.206  36.889  1.00  0.00     0.261 C 
BRANCH   6   7
ATOM      7  O   UNL A   1      39.205  33.148  36.486  1.00  0.00    -0.463 OA
BRANCH   7   8
ATOM      8  C   UNL A   1      38.010  32.873  35.258  1.00  0.00     0.310 C 
ATOM      9  O   UNL A   1      36.820  32.811  35.565  1.00  0.00    -0.252 OA
BRANCH   8  10
ATOM     10  C   UNL A   1      38.167  32.724  33.376  1.00  0.00     0.116 C 
ATOM     11  C   UNL A   1      38.046  31.310  32.257  1.00  0.00     0.098 C 
ATOM     12  C   UNL A   1      38.578  31.601  30.857  1.00  0.00     0.062 C 
ATOM     13  C   UNL A   1      39.995  32.024  30.987  1.00  0.00     0.015 C 
ATOM     14  C   UNL A   1      39.477  33.496  32.954  1.00  0.00     0.044 C 
ATOM     15  Cl  UNL A   1      41.130  31.240  29.952  1.00  0.00    -0.089 Cl
ATOM     16  C   UNL A   1      40.399  32.853  31.953  1.00  0.00    -0.010 C 
BRANCH  11  17
ATOM     17  C   UNL A   1      36.744  30.408  31.957  1.00  0.00     0.228 C 
ATOM     18  N   UNL A   1      35.502  30.974  31.686  1.00  0.00    -0.326 N 
ATOM     19  H   UNL A   1      34.697  30.456  31.915  1.00  0.00     0.169 HD
ATOM     20  O   UNL A   1      36.844  29.179  31.874  1.00  0.00    -0.274 OA
BRANCH  18  21
ATOM     21  C   UNL A   1      35.328  32.272  31.093  1.00  0.00     0.048 A 
ATOM     22  C   UNL A   1      33.332  36.815  29.109  1.00  0.00     0.052 C 
ATOM     23  C   UNL A   1      33.595  35.421  29.740  1.00  0.00     0.027 A 
ATOM     24  C   UNL A   1      33.676  33.791  28.601  1.00  0.00     0.012 A 
ATOM     25  C   UNL A   1      33.785  35.414  31.738  1.00  0.00     0.274 A 
ATOM     26  C   UNL A   1      34.825  32.236  29.139  1.00  0.00     0.027 A 
ATOM     27  C   UNL A   1      34.622  33.695  32.359  1.00  0.00     0.112 A 
BRANCH  25  28
ATOM     28  N   UNL A   1      33.488  36.636  32.501  1.00  0.00     0.063 N 
ATOM     29  O   UNL A   1      34.387  37.128  33.168  1.00  0.00    -0.258 OA
ATOM     30  O   UNL A   1      32.333  37.075  32.485  1.00  0.00    -0.258 OA
ENDBRANCH  25  28
ENDBRANCH  18  21
ENDBRANCH  11  17
ENDBRANCH   8  10
ENDBRANCH   7   8
ENDBRANCH   6   7
ENDBRANCH   5   6
ENDBRANCH   4   5
ENDBRANCH   3   4
ENDBRANCH   2   3
ENDBRANCH   1   2
BRANCH   1  31
ATOM     31  C   UNL A   1      46.981  29.476  39.726  1.00  0.00     0.188 C 
BRANCH  31  32
ATOM     32  C   UNL A   1      48.126  28.608  40.210  1.00  0.00     0.188 C 
BRANCH  32  33
ATOM     33  O   UNL A   1      47.654  27.381  40.667  1.00  0.00    -0.376 OA
BRANCH  33  34
ATOM     34  C   UNL A   1      47.675  26.511  39.539  1.00  0.00     0.202 C 
BRANCH  34  35
ATOM     35  C   UNL A   1      48.726  25.245  39.569  1.00  0.00     0.261 C 
BRANCH  35  36
ATOM     36  O   UNL A   1      50.265  25.074  38.848  1.00  0.00    -0.460 OA
BRANCH  36  37
ATOM     37  C   UNL A   1      51.576  25.099  38.354  1.00  0.00     0.338 C 
ATOM     38  O   UNL A   1      52.509  25.129  39.164  1.00  0.00    -0.246 OA
BRANCH  37  39
ATOM     39  C   UNL A   1      52.157  25.230  36.869  1.00  0.00     0.060 A 
ATOM     40  C   UNL A   1      51.760  26.201  35.956  1.00  0.00     0.016 A 
ATOM     41  C   UNL A   1      53.014  24.394  36.200  1.00  0.00     0.016 A 
ATOM     42  C   UNL A   1      51.636  25.822  34.533  1.00  0.00     0.010 A 
ATOM     43  C   UNL A   1      52.656  23.926  34.884  1.00  0.00     0.010 A 
ATOM     44  C   UNL A   1      51.539  24.410  34.208  1.00  0.00    -0.014 A 
BRANCH  44  45
ATOM     45  C   UNL A   1      49.979  23.280  33.774  1.00  0.00     0.031 A 
ATOM     46  C   UNL A   1      49.826  24.573  32.458  1.00  0.00     0.074 A 
ATOM     47  C   UNL A   1      48.701  22.125  34.684  1.00  0.00     0.049 A 
ATOM     48  N   UNL A   1      48.962  25.566  32.611  1.00  0.00    -0.248 NA
ATOM     49  C   UNL A   1      50.721  24.871  31.340  1.00  0.00     0.031 C 
ATOM     50  C   UNL A   1      47.263  20.903  34.579  1.00  0.00     0.029 A 
ATOM     51  N   UNL A   1      48.255  20.900  35.998  1.00  0.00    -0.354 N 
ATOM     52  C   UNL A   1      48.777  26.111  31.401  1.00  0.00     0.074 A 
ATOM     53  C   UNL A   1      50.101  25.950  30.828  1.00  0.00     0.031 C 
ATOM     54  C   UNL A   1      46.263  20.652  35.496  1.00  0.00     0.029 A 
ATOM     55  C   UNL A   1      47.035  20.641  36.639  1.00  0.00     0.049 A 
ATOM     56  H   UNL A   1      49.002  20.333  36.299  1.00  0.00     0.167 HD
ATOM     57  C   UNL A   1      47.515  26.278  30.882  1.00  0.00     0.031 A 
ATOM     58  C   UNL A   1      46.844  20.960  37.942  1.00  0.00     0.031 A 
ATOM     59  C   UNL A   1      46.299  25.763  31.734  1.00  0.00     0.049 A 
ATOM     60  C   UNL A   1      45.851  22.377  37.702  1.00  0.00     0.074 A 
ATOM     61  C   UNL A   1      45.154  25.035  31.426  1.00  0.00     0.029 A 
ATOM     62  N   UNL A   1      46.186  25.816  33.168  1.00  0.00    -0.354 N 
ATOM     63  N   UNL A   1      45.413  22.794  36.493  1.00  0.00    -0.248 NA
ATOM     64  C   UNL A   1      45.424  23.386  38.668  1.00  0.00     0.031 C 
ATOM     65  C   UNL A   1      44.460  24.603  32.640  1.00  0.00     0.029 A 
ATOM     66  C   UNL A   1      45.180  24.961  33.785  1.00  0.00     0.049 A 
ATOM     67  H   UNL A   1      46.761  26.405  33.707  1.00  0.00     0.167 HD
ATOM     68  C   UNL A   1      44.964  24.124  36.420  1.00  0.00     0.074 A 
ATOM     69  C   UNL A   1      44.868  24.361  37.889  1.00  0.00     0.031 C 
ATOM     70  C   UNL A   1      44.750  25.019  35.305  1.00  0.00     0.031 A 
BRANCH  57  71
ATOM     71  C   UNL A   1      47.491  26.611  29.365  1.00  0.00    -0.014 A 
ATOM     72  C   UNL A   1      47.737  27.901  28.880  1.00  0.00     0.010 A 
ATOM     73  C   UNL A   1      47.211  25.650  28.349  1.00  0.00     0.010 A 
ATOM     74  C   UNL A   1      47.664  28.224  27.508  1.00  0.00     0.020 A 
ATOM     75  C   UNL A   1      47.074  25.961  26.985  1.00  0.00     0.020 A 
ATOM     76  C   UNL A   1      47.328  27.253  26.567  1.00  0.00     0.054 A 
BRANCH  76  77
ATOM     77  S   UNL A   1      47.350  27.672  24.806  1.00  0.00     0.124 S 
ATOM     78  O   UNL A   1      48.779  27.770  24.520  1.00  0.00    -0.237 OA
ATOM     79  O   UNL A   1      46.662  26.529  24.210  1.00  0.00    -0.237 OA
ATOM     80  O   UNL A   1      46.618  28.936  24.737  1.00  0.00    -0.744 OA
ENDBRANCH  76  77
ENDBRANCH  57  71
BRANCH  58  81
ATOM     81  C   UNL A   1      48.296  20.408  38.683  1.00  0.00    -0.014 A 
ATOM     82  C   UNL A   1      49.131  21.435  39.315  1.00  0.00     0.010 A 
ATOM     83  C   UNL A   1      48.772  19.129  39.089  1.00  0.00     0.010 A 
ATOM     84  C   UNL A   1      50.111  21.238  40.368  1.00  0.00     0.020 A 
ATOM     85  C   UNL A   1      49.788  18.902  40.165  1.00  0.00     0.020 A 
ATOM     86  C   UNL A   1      50.440  19.964  40.810  1.00  0.00     0.054 A 
BRANCH  86  87
ATOM     87  S   UNL A   1      51.652  19.783  42.223  1.00  0.00     0.124 S 
ATOM     88  O   UNL A   1      51.941  21.171  42.566  1.00  0.00    -0.237 OA
ATOM     89  O   UNL A   1      50.881  19.055  43.233  1.00  0.00    -0.237 OA
ATOM     90  O   UNL A   1      52.771  19.048  41.658  1.00  0.00    -0.744 OA
ENDBRANCH  86  87
ENDBRANCH  58  81
BRANCH  70  91
ATOM     91  C   UNL A   1      43.788  26.203  35.467  1.00  0.00    -0.014 A 
ATOM     92  C   UNL A   1      42.497  26.212  34.933  1.00  0.00     0.010 A 
ATOM     93  C   UNL A   1      44.273  27.454  35.944  1.00  0.00     0.010 A 
ATOM     94  C   UNL A   1      41.686  27.347  35.036  1.00  0.00     0.020 A 
ATOM     95  C   UNL A   1      43.507  28.610  35.987  1.00  0.00     0.020 A 
ATOM     96  C   UNL A   1      42.192  28.529  35.581  1.00  0.00     0.054 A 
BRANCH  96  97
ATOM     97  S   UNL A   1      41.122  29.966  35.730  1.00  0.00     0.124 S 
ATOM     98  O   UNL A   1      41.864  30.814  36.659  1.00  0.00    -0.237 OA
ATOM     99  O   UNL A   1      41.072  30.436  34.347  1.00  0.00    -0.237 OA
ATOM    100  O   UNL A   1      39.870  29.423  36.250  1.00  0.00    -0.744 OA
ENDBRANCH  96  97
ENDBRANCH  70  91
ENDBRANCH  44  45
ENDBRANCH  37  39
ENDBRANCH  36  37
ENDBRANCH  35  36
ENDBRANCH  34  35
ENDBRANCH  33  34
ENDBRANCH  32  33
ENDBRANCH  31  32
ENDBRANCH   1  31
TORSDOF 26
ENDMDL
MODEL 2
REMARK VINA RESULT:      -9.2      4.895     10.005
REMARK SMILES Cc1ccc(NC(=O)[C@H]2CC(Cl)=CC[C@@H]2C(=O)OCCOCCOCCOCCOC(=O)c2ccc(-c3c4nc(c(-c5ccc(S(=O)(=O)[O-])cc5)c5ccc([nH]5)c(-c5ccc(S(=O)(=O)[O-])cc5)c5nc(c(-c6ccc(S(=O)(=O)[O-])cc6)c6ccc3[nH]6)C=C5)C=C4)cc2)cc1[N+](=O)[O-]
REMARK SMILES IDX 24 1 23 2 22 3 21 4 20 5 19 6 18 7 16 8 17 9 15 10 9 11
REMARK SMILES IDX 10 12 11 13 14 14 12 15 13 16 7 17 6 18 8 20 5 21 1 22 2 23
REMARK SMILES IDX 3 24 94 25 4 26 93 27 95 28 96 29 97 30 25 31 26 32 27 33
REMARK SMILES IDX 28 34 29 35 30 36 31 37 32 38 33 39 34 40 92 41 35 42 91 43
REMARK SMILES IDX 36 44 37 45 38 46 85 47 39 48 90 49 84 50 86 51 40 52 89 53
REMARK SMILES IDX 83 54 82 55 41 57 71 58 52 59 70 60 53 61 56 62 69 63 87 64
REMARK SMILES IDX 54 65 55 66 68 68 88 69 57 70 42 71 43 72 51 73 44 74 50 75
REMARK SMILES IDX 45 76 46 77 47 78 48 79 49 80 72 81 73 82 81 83 74 84 80 85
REMARK SMILES IDX 75 86 76 87 77 88 78 89 79 90 58 91 59 92 67 93 60 94 66 95
REMARK SMILES IDX 61 96 62 97 63 98 64 99 65 100
REMARK H PARENT 6 19 86 56 56 67
REMARK Flexibility Score: inf
ROOT
ATOM      1  O   UNL A   1      48.638  25.441  38.846  1.00  0.00    -0.377 OA
ENDROOT
BRANCH   1   2
ATOM      2  C   UNL A   1      47.518  26.093  39.368  1.00  0.00     0.188 C 
BRANCH   2   3
ATOM      3  C   UNL A   1      46.355  25.124  39.366  1.00  0.00     0.188 C 
BRANCH   3   4
ATOM      4  O   UNL A   1      45.366  25.419  38.079  1.00  0.00    -0.376 OA
BRANCH   4   5
ATOM      5  C   UNL A   1      43.765  26.432  37.889  1.00  0.00     0.202 C 
BRANCH   5   6
ATOM      6  C   UNL A   1      41.845  26.411  36.597  1.00  0.00     0.261 C 
BRANCH   6   7
ATOM      7  O   UNL A   1      41.421  27.839  35.341  1.00  0.00    -0.463 OA
BRANCH   7   8
ATOM      8  C   UNL A   1      40.737  29.430  35.247  1.00  0.00     0.310 C 
ATOM      9  O   UNL A   1      39.689  29.610  34.629  1.00  0.00    -0.252 OA
BRANCH   8  10
ATOM     10  C   UNL A   1      41.271  31.066  36.040  1.00  0.00     0.116 C 
ATOM     11  C   UNL A   1      41.180  32.778  35.469  1.00  0.00     0.098 C 
ATOM     12  C   UNL A   1      42.040  33.735  36.289  1.00  0.00     0.062 C 
ATOM     13  C   UNL A   1      43.443  33.254  36.228  1.00  0.00     0.015 C 
ATOM     14  C   UNL A   1      42.743  30.868  36.573  1.00  0.00     0.044 C 
ATOM     15  Cl  UNL A   1      44.641  34.428  35.828  1.00  0.00    -0.089 Cl
ATOM     16  C   UNL A   1      43.751  31.958  36.325  1.00  0.00    -0.010 C 
BRANCH  11  17
ATOM     17  C   UNL A   1      39.853  33.648  35.192  1.00  0.00     0.228 C 
ATOM     18  N   UNL A   1      39.735  34.480  34.082  1.00  0.00    -0.326 N 
ATOM     19  H   UNL A   1      39.146  35.266  34.151  1.00  0.00     0.169 HD
ATOM     20  O   UNL A   1      38.864  33.527  35.923  1.00  0.00    -0.274 OA
BRANCH  18  21
ATOM     21  C   UNL A   1      40.426  34.257  32.840  1.00  0.00     0.048 A 
ATOM     22  C   UNL A   1      42.859  34.816  28.115  1.00  0.00     0.052 C 
ATOM     23  C   UNL A   1      42.116  34.981  29.468  1.00  0.00     0.027 A 
ATOM     24  C   UNL A   1      40.131  34.865  29.556  1.00  0.00     0.012 A 
ATOM     25  C   UNL A   1      43.296  35.359  31.046  1.00  0.00     0.274 A 
ATOM     26  C   UNL A   1      39.228  34.195  31.217  1.00  0.00     0.027 A 
ATOM     27  C   UNL A   1      42.302  35.034  32.763  1.00  0.00     0.112 A 
BRANCH  25  28
ATOM     28  N   UNL A   1      44.723  35.644  30.835  1.00  0.00     0.063 N 
ATOM     29  O   UNL A   1      45.398  34.798  30.265  1.00  0.00    -0.258 OA
ATOM     30  O   UNL A   1      45.190  36.691  31.294  1.00  0.00    -0.258 OA
ENDBRANCH  25  28
ENDBRANCH  18  21
ENDBRANCH  11  17
ENDBRANCH   8  10
ENDBRANCH   7   8
ENDBRANCH   6   7
ENDBRANCH   5   6
ENDBRANCH   4   5
ENDBRANCH   3   4
ENDBRANCH   2   3
ENDBRANCH   1   2
BRANCH   1  31
ATOM     31  C   UNL A   1      49.839  25.828  39.493  1.00  0.00     0.188 C 
BRANCH  31  32
ATOM     32  C   UNL A   1      50.553  27.137  39.218  1.00  0.00     0.188 C 
BRANCH  32  33
ATOM     33  O   UNL A   1      51.040  27.168  37.916  1.00  0.00    -0.376 OA
BRANCH  33  34
ATOM     34  C   UNL A   1      50.269  28.154  37.234  1.00  0.00     0.202 C 
BRANCH  34  35
ATOM     35  C   UNL A   1      50.230  28.094  35.591  1.00  0.00     0.261 C 
BRANCH  35  36
ATOM     36  O   UNL A   1      48.898  28.056  34.521  1.00  0.00    -0.460 OA
BRANCH  36  37
ATOM     37  C   UNL A   1      47.697  28.080  33.801  1.00  0.00     0.338 C 
ATOM     38  O   UNL A   1      47.629  27.436  32.748  1.00  0.00    -0.246 OA
BRANCH  37  39
ATOM     39  C   UNL A   1      46.347  28.915  34.000  1.00  0.00     0.060 A 
ATOM     40  C   UNL A   1      45.070  28.369  33.916  1.00  0.00     0.016 A 
ATOM     41  C   UNL A   1      46.181  30.267  34.157  1.00  0.00     0.016 A 
ATOM     42  C   UNL A   1      43.999  29.172  33.289  1.00  0.00     0.010 A 
ATOM     43  C   UNL A   1      45.242  30.965  33.315  1.00  0.00     0.010 A 
ATOM     44  C   UNL A   1      44.388  30.290  32.446  1.00  0.00    -0.014 A 
BRANCH  44  45
ATOM     45  C   UNL A   1      44.507  30.457  30.484  1.00  0.00     0.031 A 
ATOM     46  C   UNL A   1      42.668  30.416  30.699  1.00  0.00     0.074 A 
ATOM     47  C   UNL A   1      45.705  29.949  29.034  1.00  0.00     0.049 A 
ATOM     48  N   UNL A   1      42.007  29.289  30.482  1.00  0.00    -0.248 NA
ATOM     49  C   UNL A   1      41.789  31.379  31.364  1.00  0.00     0.031 C 
ATOM     50  C   UNL A   1      46.151  30.029  27.199  1.00  0.00     0.029 A 
ATOM     51  N   UNL A   1      47.396  29.649  28.342  1.00  0.00    -0.354 N 
ATOM     52  C   UNL A   1      40.717  29.618  30.331  1.00  0.00     0.074 A 
ATOM     53  C   UNL A   1      40.614  30.734  31.252  1.00  0.00     0.031 C 
ATOM     54  C   UNL A   1      46.830  29.110  26.425  1.00  0.00     0.029 A 
ATOM     55  C   UNL A   1      47.834  28.795  27.319  1.00  0.00     0.049 A 
ATOM     56  H   UNL A   1      48.110  30.179  28.764  1.00  0.00     0.167 HD
ATOM     57  C   UNL A   1      40.002  29.205  29.231  1.00  0.00     0.031 A 
ATOM     58  C   UNL A   1      48.582  27.700  27.590  1.00  0.00     0.031 A 
ATOM     59  C   UNL A   1      40.762  28.378  28.133  1.00  0.00     0.049 A 
ATOM     60  C   UNL A   1      47.334  26.496  27.385  1.00  0.00     0.074 A 
ATOM     61  C   UNL A   1      40.793  28.433  26.743  1.00  0.00     0.029 A 
ATOM     62  N   UNL A   1      41.792  27.400  28.369  1.00  0.00    -0.354 N 
ATOM     63  N   UNL A   1      46.081  26.774  26.958  1.00  0.00    -0.248 NA
ATOM     64  C   UNL A   1      47.351  25.074  27.719  1.00  0.00     0.031 C 
ATOM     65  C   UNL A   1      41.864  27.592  26.204  1.00  0.00     0.029 A 
ATOM     66  C   UNL A   1      42.626  27.028  27.233  1.00  0.00     0.049 A 
ATOM     67  H   UNL A   1      41.925  26.999  29.258  1.00  0.00     0.167 HD
ATOM     68  C   UNL A   1      45.107  25.791  27.207  1.00  0.00     0.074 A 
ATOM     69  C   UNL A   1      46.050  24.690  27.555  1.00  0.00     0.031 C 
ATOM     70  C   UNL A   1      43.663  25.836  27.222  1.00  0.00     0.031 A 
BRANCH  57  71
ATOM     71  C   UNL A   1      38.642  29.933  29.048  1.00  0.00    -0.014 A 
ATOM     72  C   UNL A   1      38.554  31.320  28.883  1.00  0.00     0.010 A 
ATOM     73  C   UNL A   1      37.383  29.264  29.041  1.00  0.00     0.010 A 
ATOM     74  C   UNL A   1      37.320  31.996  28.770  1.00  0.00     0.020 A 
ATOM     75  C   UNL A   1      36.141  29.921  28.991  1.00  0.00     0.020 A 
ATOM     76  C   UNL A   1      36.119  31.293  28.830  1.00  0.00     0.054 A 
BRANCH  76  77
ATOM     77  S   UNL A   1      34.557  32.173  28.572  1.00  0.00     0.124 S 
ATOM     78  O   UNL A   1      33.733  31.168  27.905  1.00  0.00    -0.237 OA
ATOM     79  O   UNL A   1      34.165  32.508  29.938  1.00  0.00    -0.237 OA
ATOM     80  O   UNL A   1      34.932  33.315  27.740  1.00  0.00    -0.744 OA
ENDBRANCH  76  77
ENDBRANCH  57  71
BRANCH  58  81
ATOM     81  C   UNL A   1      49.741  28.302  28.711  1.00  0.00    -0.014 A 
ATOM     82  C   UNL A   1      50.744  29.226  28.170  1.00  0.00     0.010 A 
ATOM     83  C   UNL A   1      49.810  28.346  30.132  1.00  0.00     0.010 A 
ATOM     84  C   UNL A   1      51.512  30.212  28.909  1.00  0.00     0.020 A 
ATOM     85  C   UNL A   1      50.602  29.348  30.915  1.00  0.00     0.020 A 
ATOM     86  C   UNL A   1      51.438  30.288  30.293  1.00  0.00     0.054 A 
BRANCH  86  87
ATOM     87  S   UNL A   1      52.391  31.631  31.178  1.00  0.00     0.124 S 
ATOM     88  O   UNL A   1      53.217  32.183  30.109  1.00  0.00    -0.237 OA
ATOM     89  O   UNL A   1      51.338  32.528  31.657  1.00  0.00    -0.237 OA
ATOM     90  O   UNL A   1      53.126  30.936  32.221  1.00  0.00    -0.744 OA
ENDBRANCH  86  87
ENDBRANCH  58  81
BRANCH  70  91
ATOM     91  C   UNL A   1      42.870  24.538  27.016  1.00  0.00    -0.014 A 
ATOM     92  C   UNL A   1      41.884  24.101  27.902  1.00  0.00     0.010 A 
ATOM     93  C   UNL A   1      43.300  23.588  26.045  1.00  0.00     0.010 A 
ATOM     94  C   UNL A   1      41.245  22.871  27.715  1.00  0.00     0.020 A 
ATOM     95  C   UNL A   1      42.729  22.334  25.892  1.00  0.00     0.020 A 
ATOM     96  C   UNL A   1      41.659  22.008  26.698  1.00  0.00     0.054 A 
BRANCH  96  97
ATOM     97  S   UNL A   1      40.805  20.444  26.459  1.00  0.00     0.124 S 
ATOM     98  O   UNL A   1      40.849  19.856  27.795  1.00  0.00    -0.237 OA
ATOM     99  O   UNL A   1      39.490  20.897  26.011  1.00  0.00    -0.237 OA
ATOM    100  O   UNL A   1      41.605  19.754  25.450  1.00  0.00    -0.744 OA
ENDBRANCH  96  97
ENDBRANCH  70  91
ENDBRANCH  44  45
ENDBRANCH  37  39
ENDBRANCH  36  37
ENDBRANCH  35  36
ENDBRANCH  34  35
ENDBRANCH  33  34
ENDBRANCH  32  33
ENDBRANCH  31  32
ENDBRANCH   1  31
TORSDOF 26
ENDMDL
MODEL 3
REMARK VINA RESULT:      -9.0      9.743     14.367
REMARK SMILES Cc1ccc(NC(=O)[C@H]2CC(Cl)=CC[C@@H]2C(=O)OCCOCCOCCOCCOC(=O)c2ccc(-c3c4nc(c(-c5ccc(S(=O)(=O)[O-])cc5)c5ccc([nH]5)c(-c5ccc(S(=O)(=O)[O-])cc5)c5nc(c(-c6ccc(S(=O)(=O)[O-])cc6)c6ccc3[nH]6)C=C5)C=C4)cc2)cc1[N+](=O)[O-]
REMARK SMILES IDX 24 1 23 2 22 3 21 4 20 5 19 6 18 7 16 8 17 9 15 10 9 11
REMARK SMILES IDX 10 12 11 13 14 14 12 15 13 16 7 17 6 18 8 20 5 21 1 22 2 23
REMARK SMILES IDX 3 24 94 25 4 26 93 27 95 28 96 29 97 30 25 31 26 32 27 33
REMARK SMILES IDX 28 34 29 35 30 36 31 37 32 38 33 39 34 40 92 41 35 42 91 43
REMARK SMILES IDX 36 44 37 45 38 46 85 47 39 48 90 49 84 50 86 51 40 52 89 53
REMARK SMILES IDX 83 54 82 55 41 57 71 58 52 59 70 60 53 61 56 62 69 63 87 64
REMARK SMILES IDX 54 65 55 66 68 68 88 69 57 70 42 71 43 72 51 73 44 74 50 75
REMARK SMILES IDX 45 76 46 77 47 78 48 79 49 80 72 81 73 82 81 83 74 84 80 85
REMARK SMILES IDX 75 86 76 87 77 88 78 89 79 90 58 91 59 92 67 93 60 94 66 95
REMARK SMILES IDX 61 96 62 97 63 98 64 99 65 100
REMARK H PARENT 6 19 86 56 56 67
REMARK Flexibility Score: inf
ROOT
ATOM      1  O   UNL A   1      51.360  37.039  34.559  1.00  0.00    -0.377 OA
ENDROOT
BRANCH   1   2
ATOM      2  C   UNL A   1      52.271  37.957  34.031  1.00  0.00     0.188 C 
BRANCH   2   3
ATOM      3  C   UNL A   1      51.545  39.260  33.776  1.00  0.00     0.188 C 
BRANCH   3   4
ATOM      4  O   UNL A   1      50.458  39.080  32.550  1.00  0.00    -0.376 OA
BRANCH   4   5
ATOM      5  C   UNL A   1      50.658  38.906  30.664  1.00  0.00     0.202 C 
BRANCH   5   6
ATOM      6  C   UNL A   1      50.725  40.270  28.796  1.00  0.00     0.261 C 
BRANCH   6   7
ATOM      7  O   UNL A   1      49.115  40.789  27.829  1.00  0.00    -0.463 OA
BRANCH   7   8
ATOM      8  C   UNL A   1      48.282  42.168  27.185  1.00  0.00     0.310 C 
ATOM      9  O   UNL A   1      48.763  43.292  27.321  1.00  0.00    -0.252 OA
BRANCH   8  10
ATOM     10  C   UNL A   1      46.697  42.298  26.156  1.00  0.00     0.116 C 
ATOM     11  C   UNL A   1      46.413  42.424  24.375  1.00  0.00     0.098 C 
ATOM     12  C   UNL A   1      44.992  42.850  24.019  1.00  0.00     0.062 C 
ATOM     13  C   UNL A   1      44.732  44.159  24.668  1.00  0.00     0.015 C 
ATOM     14  C   UNL A   1      45.803  43.419  26.814  1.00  0.00     0.044 C 
ATOM     15  Cl  UNL A   1      44.070  45.396  23.665  1.00  0.00    -0.089 Cl
ATOM     16  C   UNL A   1      45.128  44.421  25.916  1.00  0.00    -0.010 C 
BRANCH  11  17
ATOM     17  C   UNL A   1      46.741  41.317  23.251  1.00  0.00     0.228 C 
ATOM     18  N   UNL A   1      46.852  41.646  21.903  1.00  0.00    -0.326 N 
ATOM     19  H   UNL A   1      46.639  40.953  21.237  1.00  0.00     0.169 HD
ATOM     20  O   UNL A   1      46.989  40.151  23.578  1.00  0.00    -0.274 OA
BRANCH  18  21
ATOM     21  C   UNL A   1      47.258  42.942  21.429  1.00  0.00     0.048 A 
ATOM     22  C   UNL A   1      48.412  47.210  18.428  1.00  0.00     0.052 C 
ATOM     23  C   UNL A   1      47.991  45.834  19.011  1.00  0.00     0.027 A 
ATOM     24  C   UNL A   1      49.319  44.363  19.197  1.00  0.00     0.012 A 
ATOM     25  C   UNL A   1      46.050  45.671  19.491  1.00  0.00     0.274 A 
ATOM     26  C   UNL A   1      49.123  43.001  20.657  1.00  0.00     0.027 A 
ATOM     27  C   UNL A   1      45.751  44.084  20.686  1.00  0.00     0.112 A 
BRANCH  25  28
ATOM     28  N   UNL A   1      45.114  46.739  19.107  1.00  0.00     0.063 N 
ATOM     29  O   UNL A   1      44.177  46.446  18.379  1.00  0.00    -0.258 OA
ATOM     30  O   UNL A   1      45.350  47.893  19.484  1.00  0.00    -0.258 OA
ENDBRANCH  25  28
ENDBRANCH  18  21
ENDBRANCH  11  17
ENDBRANCH   8  10
ENDBRANCH   7   8
ENDBRANCH   6   7
ENDBRANCH   5   6
ENDBRANCH   4   5
ENDBRANCH   3   4
ENDBRANCH   2   3
ENDBRANCH   1   2
BRANCH   1  31
ATOM     31  C   UNL A   1      50.805  36.193  33.565  1.00  0.00     0.188 C 
BRANCH  31  32
ATOM     32  C   UNL A   1      50.183  34.844  33.866  1.00  0.00     0.188 C 
BRANCH  32  33
ATOM     33  O   UNL A   1      50.210  34.028  32.740  1.00  0.00    -0.376 OA
BRANCH  33  34
ATOM     34  C   UNL A   1      49.095  34.420  31.946  1.00  0.00     0.202 C 
BRANCH  34  35
ATOM     35  C   UNL A   1      49.108  34.009  30.352  1.00  0.00     0.261 C 
BRANCH  35  36
ATOM     36  O   UNL A   1      47.881  34.144  29.170  1.00  0.00    -0.460 OA
BRANCH  36  37
ATOM     37  C   UNL A   1      46.972  34.110  28.105  1.00  0.00     0.338 C 
ATOM     38  O   UNL A   1      46.381  35.152  27.803  1.00  0.00    -0.246 OA
BRANCH  37  39
ATOM     39  C   UNL A   1      46.408  32.904  27.218  1.00  0.00     0.060 A 
ATOM     40  C   UNL A   1      45.211  32.947  26.510  1.00  0.00     0.016 A 
ATOM     41  C   UNL A   1      46.892  31.628  27.085  1.00  0.00     0.016 A 
ATOM     42  C   UNL A   1      44.381  31.725  26.454  1.00  0.00     0.010 A 
ATOM     43  C   UNL A   1      45.999  30.512  27.272  1.00  0.00     0.010 A 
ATOM     44  C   UNL A   1      44.627  30.686  27.438  1.00  0.00    -0.014 A 
BRANCH  44  45
ATOM     45  C   UNL A   1      43.687  30.233  29.113  1.00  0.00     0.031 A 
ATOM     46  C   UNL A   1      43.237  28.767  28.077  1.00  0.00     0.074 A 
ATOM     47  C   UNL A   1      42.831  31.140  30.610  1.00  0.00     0.049 A 
ATOM     48  N   UNL A   1      42.050  28.716  27.492  1.00  0.00    -0.248 NA
ATOM     49  C   UNL A   1      44.097  27.716  27.531  1.00  0.00     0.031 C 
ATOM     50  C   UNL A   1      41.991  31.034  32.301  1.00  0.00     0.029 A 
ATOM     51  N   UNL A   1      42.706  32.536  31.819  1.00  0.00    -0.354 N 
ATOM     52  C   UNL A   1      41.840  27.438  27.147  1.00  0.00     0.074 A 
ATOM     53  C   UNL A   1      43.191  27.023  26.818  1.00  0.00     0.031 C 
ATOM     54  C   UNL A   1      41.045  31.869  32.858  1.00  0.00     0.029 A 
ATOM     55  C   UNL A   1      41.599  33.078  32.489  1.00  0.00     0.049 A 
ATOM     56  H   UNL A   1      43.563  32.974  32.027  1.00  0.00     0.167 HD
ATOM     57  C   UNL A   1      40.693  26.780  27.521  1.00  0.00     0.031 A 
ATOM     58  C   UNL A   1      41.125  34.308  32.180  1.00  0.00     0.031 A 
ATOM     59  C   UNL A   1      39.658  27.561  28.410  1.00  0.00     0.049 A 
ATOM     60  C   UNL A   1      39.713  33.808  31.284  1.00  0.00     0.074 A 
ATOM     61  C   UNL A   1      38.928  27.226  29.547  1.00  0.00     0.029 A 
ATOM     62  N   UNL A   1      39.337  28.960  28.307  1.00  0.00    -0.354 N 
ATOM     63  N   UNL A   1      39.319  32.520  31.155  1.00  0.00    -0.248 NA
ATOM     64  C   UNL A   1      38.807  34.602  30.458  1.00  0.00     0.031 C 
ATOM     65  C   UNL A   1      38.290  28.408  30.130  1.00  0.00     0.029 A 
ATOM     66  C   UNL A   1      38.657  29.569  29.443  1.00  0.00     0.049 A 
ATOM     67  H   UNL A   1      39.567  29.482  27.505  1.00  0.00     0.167 HD
ATOM     68  C   UNL A   1      38.415  32.249  30.114  1.00  0.00     0.074 A 
ATOM     69  C   UNL A   1      38.035  33.663  29.833  1.00  0.00     0.031 C 
ATOM     70  C   UNL A   1      38.033  31.022  29.453  1.00  0.00     0.031 A 
BRANCH  57  71
ATOM     71  C   UNL A   1      40.752  25.240  27.329  1.00  0.00    -0.014 A 
ATOM     72  C   UNL A   1      39.880  24.560  26.472  1.00  0.00     0.010 A 
ATOM     73  C   UNL A   1      41.680  24.394  28.006  1.00  0.00     0.010 A 
ATOM     74  C   UNL A   1      39.891  23.156  26.332  1.00  0.00     0.020 A 
ATOM     75  C   UNL A   1      41.670  22.991  27.929  1.00  0.00     0.020 A 
ATOM     76  C   UNL A   1      40.783  22.377  27.066  1.00  0.00     0.054 A 
BRANCH  76  77
ATOM     77  S   UNL A   1      40.848  20.590  26.784  1.00  0.00     0.124 S 
ATOM     78  O   UNL A   1      40.889  20.055  28.142  1.00  0.00    -0.237 OA
ATOM     79  O   UNL A   1      39.612  20.350  26.045  1.00  0.00    -0.237 OA
ATOM     80  O   UNL A   1      42.075  20.402  26.010  1.00  0.00    -0.744 OA
ENDBRANCH  76  77
ENDBRANCH  57  71
BRANCH  58  81
ATOM     81  C   UNL A   1      42.562  35.250  32.070  1.00  0.00    -0.014 A 
ATOM     82  C   UNL A   1      42.933  35.710  30.728  1.00  0.00     0.010 A 
ATOM     83  C   UNL A   1      43.359  35.948  33.020  1.00  0.00     0.010 A 
ATOM     84  C   UNL A   1      43.771  36.847  30.393  1.00  0.00     0.020 A 
ATOM     85  C   UNL A   1      44.238  37.118  32.698  1.00  0.00     0.020 A 
ATOM     86  C   UNL A   1      44.424  37.569  31.382  1.00  0.00     0.054 A 
BRANCH  86  87
ATOM     87  S   UNL A   1      45.426  39.071  30.892  1.00  0.00     0.124 S 
ATOM     88  O   UNL A   1      46.793  38.563  30.940  1.00  0.00    -0.237 OA
ATOM     89  O   UNL A   1      44.937  39.375  29.546  1.00  0.00    -0.237 OA
ATOM     90  O   UNL A   1      45.111  40.069  31.900  1.00  0.00    -0.744 OA
ENDBRANCH  86  87
ENDBRANCH  58  81
BRANCH  70  91
ATOM     91  C   UNL A   1      36.681  30.948  28.730  1.00  0.00    -0.014 A 
ATOM     92  C   UNL A   1      35.536  31.601  29.190  1.00  0.00     0.010 A 
ATOM     93  C   UNL A   1      36.477  29.986  27.699  1.00  0.00     0.010 A 
ATOM     94  C   UNL A   1      34.308  31.438  28.543  1.00  0.00     0.020 A 
ATOM     95  C   UNL A   1      35.250  29.756  27.095  1.00  0.00     0.020 A 
ATOM     96  C   UNL A   1      34.181  30.532  27.487  1.00  0.00     0.054 A 
BRANCH  96  97
ATOM     97  S   UNL A   1      32.599  30.360  26.652  1.00  0.00     0.124 S 
ATOM     98  O   UNL A   1      32.995  29.894  25.325  1.00  0.00    -0.237 OA
ATOM     99  O   UNL A   1      31.930  29.372  27.495  1.00  0.00    -0.237 OA
ATOM    100  O   UNL A   1      32.028  31.704  26.693  1.00  0.00    -0.744 OA
ENDBRANCH  96  97
ENDBRANCH  70  91
ENDBRANCH  44  45
ENDBRANCH  37  39
ENDBRANCH  36  37
ENDBRANCH  35  36
ENDBRANCH  34  35
ENDBRANCH  33  34
ENDBRANCH  32  33
ENDBRANCH  31  32
ENDBRANCH   1  31
TORSDOF 26
ENDMDL
