MODEL 1
REMARK VINA RESULT:      -9.2      0.000      0.000
REMARK SMILES CC[C@H](NC(=O)[C@H]1[C@@H](C(=O)OCCOCCOCCOCCOC(=O)c2ccc(-c3c4nc(c(-c5ccc(S(=O)(=O)[O-])cc5)c5ccc([nH]5)c(-c5ccc(S(=O)(=O)[O-])cc5)c5nc(c(-c6ccc(S(=O)(=O)[O-])cc6)c6ccc3[nH]6)C=C5)C=C4)cc2)[C@@H]2C=C[C@H]1C2)c1ccccc1
REMARK SMILES IDX 17 1 16 2 15 3 14 4 13 5 12 6 11 7 9 8 10 9 8 10 7 11 89 12
REMARK SMILES IDX 86 13 88 14 90 15 87 16 5 17 4 18 6 20 3 21 2 22 1 23 91 24
REMARK SMILES IDX 92 25 96 26 93 27 95 28 94 29 18 30 19 31 20 32 21 33 22 34
REMARK SMILES IDX 23 35 24 36 25 37 26 38 27 39 85 40 28 41 84 42 29 43 30 44
REMARK SMILES IDX 31 45 78 46 32 47 83 48 77 49 79 50 33 51 82 52 76 53 75 54
REMARK SMILES IDX 34 56 64 57 45 58 63 59 46 60 49 61 62 62 80 63 47 64 48 65
REMARK SMILES IDX 61 67 81 68 50 69 35 70 36 71 44 72 37 73 43 74 38 75 39 76
REMARK SMILES IDX 40 77 41 78 42 79 65 80 66 81 74 82 67 83 73 84 68 85 69 86
REMARK SMILES IDX 70 87 71 88 72 89 51 90 52 91 60 92 53 93 59 94 54 95 55 96
REMARK SMILES IDX 56 97 57 98 58 99
REMARK H PARENT 4 19 79 55 49 66
REMARK Flexibility Score: inf
ROOT
ATOM      1  O   UNL A   1      32.013  29.119  23.641  1.00  0.00    -0.377 OA
ENDROOT
BRANCH   1   2
ATOM      2  C   UNL A   1      30.625  29.354  23.624  1.00  0.00     0.188 C 
BRANCH   2   3
ATOM      3  C   UNL A   1      29.773  28.215  23.068  1.00  0.00     0.188 C 
BRANCH   3   4
ATOM      4  O   UNL A   1      29.635  27.064  23.881  1.00  0.00    -0.376 OA
BRANCH   4   5
ATOM      5  C   UNL A   1      30.662  26.078  23.767  1.00  0.00     0.202 C 
BRANCH   5   6
ATOM      6  C   UNL A   1      30.797  25.014  24.879  1.00  0.00     0.261 C 
BRANCH   6   7
ATOM      7  O   UNL A   1      30.525  23.632  24.504  1.00  0.00    -0.463 OA
BRANCH   7   8
ATOM      8  C   UNL A   1      31.524  22.872  23.991  1.00  0.00     0.310 C 
ATOM      9  O   UNL A   1      32.153  23.180  22.981  1.00  0.00    -0.252 OA
BRANCH   8  10
ATOM     10  C   UNL A   1      31.780  21.522  24.693  1.00  0.00     0.119 C 
ATOM     11  C   UNL A   1      32.645  21.379  25.967  1.00  0.00     0.100 C 
ATOM     12  C   UNL A   1      33.880  20.577  25.421  1.00  0.00     0.025 C 
ATOM     13  C   UNL A   1      32.422  20.486  23.727  1.00  0.00     0.027 C 
ATOM     14  C   UNL A   1      33.373  19.144  25.351  1.00  0.00    -0.027 C 
ATOM     15  C   UNL A   1      33.899  20.790  23.900  1.00  0.00     0.017 C 
ATOM     16  C   UNL A   1      32.444  19.111  24.379  1.00  0.00    -0.027 C 
BRANCH  11  17
ATOM     17  C   UNL A   1      32.885  22.592  26.831  1.00  0.00     0.225 C 
ATOM     18  N   UNL A   1      34.059  23.296  26.685  1.00  0.00    -0.349 N 
ATOM     19  H   UNL A   1      34.338  23.784  27.492  1.00  0.00     0.164 HD
ATOM     20  O   UNL A   1      32.013  23.014  27.590  1.00  0.00    -0.275 OA
BRANCH  18  21
ATOM     21  C   UNL A   1      34.979  23.453  25.532  1.00  0.00     0.112 C 
BRANCH  21  22
ATOM     22  C   UNL A   1      34.738  24.832  24.868  1.00  0.00     0.026 C 
ATOM     23  C   UNL A   1      34.103  25.909  25.754  1.00  0.00     0.006 C 
ENDBRANCH  21  22
BRANCH  21  24
ATOM     24  C   UNL A   1      36.458  23.167  25.845  1.00  0.00    -0.026 A 
ATOM     25  C   UNL A   1      37.113  21.967  25.539  1.00  0.00     0.006 A 
ATOM     26  C   UNL A   1      37.240  24.129  26.505  1.00  0.00     0.006 A 
ATOM     27  C   UNL A   1      38.495  21.811  25.734  1.00  0.00     0.000 A 
ATOM     28  C   UNL A   1      38.630  24.024  26.620  1.00  0.00     0.000 A 
ATOM     29  C   UNL A   1      39.265  22.863  26.215  1.00  0.00     0.000 A 
ENDBRANCH  21  24
ENDBRANCH  18  21
ENDBRANCH  11  17
ENDBRANCH   8  10
ENDBRANCH   7   8
ENDBRANCH   6   7
ENDBRANCH   5   6
ENDBRANCH   4   5
ENDBRANCH   3   4
ENDBRANCH   2   3
ENDBRANCH   1   2
BRANCH   1  30
ATOM     30  C   UNL A   1      32.799  29.616  24.710  1.00  0.00     0.188 C 
BRANCH  30  31
ATOM     31  C   UNL A   1      32.503  29.058  26.100  1.00  0.00     0.188 C 
BRANCH  31  32
ATOM     32  O   UNL A   1      33.198  29.628  27.218  1.00  0.00    -0.376 OA
BRANCH  32  33
ATOM     33  C   UNL A   1      33.311  31.049  27.324  1.00  0.00     0.202 C 
BRANCH  33  34
ATOM     34  C   UNL A   1      34.625  31.527  27.931  1.00  0.00     0.261 C 
BRANCH  34  35
ATOM     35  O   UNL A   1      35.378  30.431  28.458  1.00  0.00    -0.460 OA
BRANCH  35  36
ATOM     36  C   UNL A   1      36.211  30.737  29.480  1.00  0.00     0.338 C 
ATOM     37  O   UNL A   1      35.965  31.378  30.480  1.00  0.00    -0.246 OA
BRANCH  36  38
ATOM     38  C   UNL A   1      37.484  30.037  29.247  1.00  0.00     0.060 A 
ATOM     39  C   UNL A   1      38.281  29.682  30.345  1.00  0.00     0.016 A 
ATOM     40  C   UNL A   1      37.915  29.813  27.941  1.00  0.00     0.016 A 
ATOM     41  C   UNL A   1      39.552  29.158  30.135  1.00  0.00     0.010 A 
ATOM     42  C   UNL A   1      39.190  29.306  27.730  1.00  0.00     0.010 A 
ATOM     43  C   UNL A   1      40.027  29.033  28.825  1.00  0.00    -0.014 A 
BRANCH  43  44
ATOM     44  C   UNL A   1      41.469  28.868  28.564  1.00  0.00     0.031 A 
ATOM     45  C   UNL A   1      41.941  27.508  28.130  1.00  0.00     0.074 A 
ATOM     46  C   UNL A   1      42.329  29.874  28.779  1.00  0.00     0.049 A 
ATOM     47  N   UNL A   1      43.156  27.043  28.041  1.00  0.00    -0.248 NA
ATOM     48  C   UNL A   1      40.892  26.535  27.769  1.00  0.00     0.031 C 
ATOM     49  C   UNL A   1      41.962  31.239  29.149  1.00  0.00     0.029 A 
ATOM     50  N   UNL A   1      43.698  29.884  28.748  1.00  0.00    -0.354 N 
ATOM     51  C   UNL A   1      43.019  25.717  27.647  1.00  0.00     0.074 A 
ATOM     52  C   UNL A   1      41.604  25.445  27.532  1.00  0.00     0.031 C 
ATOM     53  C   UNL A   1      43.085  31.952  29.340  1.00  0.00     0.029 A 
ATOM     54  C   UNL A   1      44.242  31.077  29.157  1.00  0.00     0.049 A 
ATOM     55  H   UNL A   1      44.239  29.113  28.461  1.00  0.00     0.167 HD
ATOM     56  C   UNL A   1      43.992  24.808  27.408  1.00  0.00     0.031 A 
ATOM     57  C   UNL A   1      45.526  31.402  29.395  1.00  0.00     0.031 A 
ATOM     58  C   UNL A   1      45.393  25.099  27.547  1.00  0.00     0.049 A 
ATOM     59  C   UNL A   1      46.592  30.355  29.191  1.00  0.00     0.074 A 
ATOM     60  C   UNL A   1      46.471  24.265  27.320  1.00  0.00     0.029 A 
ATOM     61  N   UNL A   1      45.906  26.321  27.957  1.00  0.00    -0.354 N 
ATOM     62  N   UNL A   1      46.458  29.106  28.810  1.00  0.00    -0.248 NA
ATOM     63  C   UNL A   1      47.980  30.762  29.444  1.00  0.00     0.031 C 
ATOM     64  C   UNL A   1      47.635  24.963  27.654  1.00  0.00     0.029 A 
ATOM     65  C   UNL A   1      47.286  26.257  28.011  1.00  0.00     0.049 A 
ATOM     66  H   UNL A   1      45.367  27.114  28.178  1.00  0.00     0.167 HD
ATOM     67  C   UNL A   1      47.748  28.592  28.733  1.00  0.00     0.074 A 
ATOM     68  C   UNL A   1      48.646  29.665  29.108  1.00  0.00     0.031 C 
ATOM     69  C   UNL A   1      48.156  27.349  28.372  1.00  0.00     0.031 A 
BRANCH  56  70
ATOM     70  C   UNL A   1      43.571  23.416  27.019  1.00  0.00    -0.014 A 
ATOM     71  C   UNL A   1      43.798  22.913  25.725  1.00  0.00     0.010 A 
ATOM     72  C   UNL A   1      42.964  22.583  27.977  1.00  0.00     0.010 A 
ATOM     73  C   UNL A   1      43.393  21.620  25.386  1.00  0.00     0.020 A 
ATOM     74  C   UNL A   1      42.587  21.277  27.652  1.00  0.00     0.020 A 
ATOM     75  C   UNL A   1      42.791  20.809  26.352  1.00  0.00     0.054 A 
BRANCH  75  76
ATOM     76  S   UNL A   1      42.306  19.123  25.893  1.00  0.00     0.124 S 
ATOM     77  O   UNL A   1      42.767  18.352  27.045  1.00  0.00    -0.237 OA
ATOM     78  O   UNL A   1      40.857  19.235  25.753  1.00  0.00    -0.237 OA
ATOM     79  O   UNL A   1      43.032  18.878  24.649  1.00  0.00    -0.744 OA
ENDBRANCH  75  76
ENDBRANCH  56  70
BRANCH  57  80
ATOM     80  C   UNL A   1      45.869  32.771  29.867  1.00  0.00    -0.014 A 
ATOM     81  C   UNL A   1      45.762  33.104  31.228  1.00  0.00     0.010 A 
ATOM     82  C   UNL A   1      46.321  33.747  28.959  1.00  0.00     0.010 A 
ATOM     83  C   UNL A   1      46.083  34.391  31.671  1.00  0.00     0.020 A 
ATOM     84  C   UNL A   1      46.673  35.025  29.401  1.00  0.00     0.020 A 
ATOM     85  C   UNL A   1      46.541  35.342  30.754  1.00  0.00     0.054 A 
BRANCH  85  86
ATOM     86  S   UNL A   1      47.004  36.986  31.362  1.00  0.00     0.124 S 
ATOM     87  O   UNL A   1      45.723  37.684  31.360  1.00  0.00    -0.237 OA
ATOM     88  O   UNL A   1      47.562  36.688  32.678  1.00  0.00    -0.237 OA
ATOM     89  O   UNL A   1      47.975  37.455  30.375  1.00  0.00    -0.744 OA
ENDBRANCH  85  86
ENDBRANCH  57  80
BRANCH  69  90
ATOM     90  C   UNL A   1      49.639  27.095  28.292  1.00  0.00    -0.014 A 
ATOM     91  C   UNL A   1      50.390  27.449  27.160  1.00  0.00     0.010 A 
ATOM     92  C   UNL A   1      50.299  26.571  29.421  1.00  0.00     0.010 A 
ATOM     93  C   UNL A   1      51.776  27.266  27.151  1.00  0.00     0.020 A 
ATOM     94  C   UNL A   1      51.687  26.418  29.427  1.00  0.00     0.020 A 
ATOM     95  C   UNL A   1      52.416  26.757  28.287  1.00  0.00     0.054 A 
BRANCH  95  96
ATOM     96  S   UNL A   1      54.221  26.596  28.273  1.00  0.00     0.124 S 
ATOM     97  O   UNL A   1      54.637  27.879  27.713  1.00  0.00    -0.237 OA
ATOM     98  O   UNL A   1      54.534  26.396  29.687  1.00  0.00    -0.237 OA
ATOM     99  O   UNL A   1      54.461  25.435  27.419  1.00  0.00    -0.744 OA
ENDBRANCH  95  96
ENDBRANCH  69  90
ENDBRANCH  43  44
ENDBRANCH  36  38
ENDBRANCH  35  36
ENDBRANCH  34  35
ENDBRANCH  33  34
ENDBRANCH  32  33
ENDBRANCH  31  32
ENDBRANCH  30  31
ENDBRANCH   1  30
TORSDOF 27
ENDMDL
MODEL 2
REMARK VINA RESULT:      -9.2      1.476      7.963
REMARK SMILES CC[C@H](NC(=O)[C@H]1[C@@H](C(=O)OCCOCCOCCOCCOC(=O)c2ccc(-c3c4nc(c(-c5ccc(S(=O)(=O)[O-])cc5)c5ccc([nH]5)c(-c5ccc(S(=O)(=O)[O-])cc5)c5nc(c(-c6ccc(S(=O)(=O)[O-])cc6)c6ccc3[nH]6)C=C5)C=C4)cc2)[C@@H]2C=C[C@H]1C2)c1ccccc1
REMARK SMILES IDX 17 1 16 2 15 3 14 4 13 5 12 6 11 7 9 8 10 9 8 10 7 11 89 12
REMARK SMILES IDX 86 13 88 14 90 15 87 16 5 17 4 18 6 20 3 21 2 22 1 23 91 24
REMARK SMILES IDX 92 25 96 26 93 27 95 28 94 29 18 30 19 31 20 32 21 33 22 34
REMARK SMILES IDX 23 35 24 36 25 37 26 38 27 39 85 40 28 41 84 42 29 43 30 44
REMARK SMILES IDX 31 45 78 46 32 47 83 48 77 49 79 50 33 51 82 52 76 53 75 54
REMARK SMILES IDX 34 56 64 57 45 58 63 59 46 60 49 61 62 62 80 63 47 64 48 65
REMARK SMILES IDX 61 67 81 68 50 69 35 70 36 71 44 72 37 73 43 74 38 75 39 76
REMARK SMILES IDX 40 77 41 78 42 79 65 80 66 81 74 82 67 83 73 84 68 85 69 86
REMARK SMILES IDX 70 87 71 88 72 89 51 90 52 91 60 92 53 93 59 94 54 95 55 96
REMARK SMILES IDX 56 97 57 98 58 99
REMARK H PARENT 4 19 79 55 49 66
REMARK Flexibility Score: inf
ROOT
ATOM      1  O   UNL A   1      33.149  29.096  25.277  1.00  0.00    -0.377 OA
ENDROOT
BRANCH   1   2
ATOM      2  C   UNL A   1      32.074  28.201  25.440  1.00  0.00     0.188 C 
BRANCH   2   3
ATOM      3  C   UNL A   1      31.676  27.910  26.885  1.00  0.00     0.188 C 
BRANCH   3   4
ATOM      4  O   UNL A   1      30.759  26.851  27.095  1.00  0.00    -0.376 OA
BRANCH   4   5
ATOM      5  C   UNL A   1      30.351  26.124  25.935  1.00  0.00     0.202 C 
BRANCH   5   6
ATOM      6  C   UNL A   1      30.019  24.623  26.080  1.00  0.00     0.261 C 
BRANCH   6   7
ATOM      7  O   UNL A   1      31.147  23.706  26.199  1.00  0.00    -0.463 OA
BRANCH   7   8
ATOM      8  C   UNL A   1      31.553  23.005  25.113  1.00  0.00     0.310 C 
ATOM      9  O   UNL A   1      31.544  23.464  23.972  1.00  0.00    -0.252 OA
BRANCH   8  10
ATOM     10  C   UNL A   1      31.950  21.534  25.363  1.00  0.00     0.119 C 
ATOM     11  C   UNL A   1      33.094  21.116  26.316  1.00  0.00     0.100 C 
ATOM     12  C   UNL A   1      34.149  20.537  25.306  1.00  0.00     0.025 C 
ATOM     13  C   UNL A   1      32.325  20.808  24.040  1.00  0.00     0.027 C 
ATOM     14  C   UNL A   1      33.618  19.146  24.993  1.00  0.00    -0.027 C 
ATOM     15  C   UNL A   1      33.805  21.129  23.931  1.00  0.00     0.017 C 
ATOM     16  C   UNL A   1      32.482  19.316  24.292  1.00  0.00    -0.027 C 
BRANCH  11  17
ATOM     17  C   UNL A   1      33.553  22.080  27.380  1.00  0.00     0.225 C 
ATOM     18  N   UNL A   1      34.719  22.786  27.186  1.00  0.00    -0.349 N 
ATOM     19  H   UNL A   1      35.166  23.062  28.017  1.00  0.00     0.164 HD
ATOM     20  O   UNL A   1      32.858  22.314  28.368  1.00  0.00    -0.275 OA
BRANCH  18  21
ATOM     21  C   UNL A   1      35.422  23.209  25.950  1.00  0.00     0.112 C 
BRANCH  21  22
ATOM     22  C   UNL A   1      34.866  24.579  25.486  1.00  0.00     0.026 C 
ATOM     23  C   UNL A   1      34.778  24.797  23.971  1.00  0.00     0.006 C 
ENDBRANCH  21  22
BRANCH  21  24
ATOM     24  C   UNL A   1      36.957  23.161  26.034  1.00  0.00    -0.026 A 
ATOM     25  C   UNL A   1      37.760  24.231  26.451  1.00  0.00     0.006 A 
ATOM     26  C   UNL A   1      37.651  22.001  25.651  1.00  0.00     0.006 A 
ATOM     27  C   UNL A   1      39.145  24.088  26.628  1.00  0.00     0.000 A 
ATOM     28  C   UNL A   1      39.013  21.815  25.908  1.00  0.00     0.000 A 
ATOM     29  C   UNL A   1      39.763  22.861  26.418  1.00  0.00     0.000 A 
ENDBRANCH  21  24
ENDBRANCH  18  21
ENDBRANCH  11  17
ENDBRANCH   8  10
ENDBRANCH   7   8
ENDBRANCH   6   7
ENDBRANCH   5   6
ENDBRANCH   4   5
ENDBRANCH   3   4
ENDBRANCH   2   3
ENDBRANCH   1   2
BRANCH   1  30
ATOM     30  C   UNL A   1      33.756  29.684  26.414  1.00  0.00     0.188 C 
BRANCH  30  31
ATOM     31  C   UNL A   1      33.010  30.842  27.072  1.00  0.00     0.188 C 
BRANCH  31  32
ATOM     32  O   UNL A   1      33.776  31.814  27.797  1.00  0.00    -0.376 OA
BRANCH  32  33
ATOM     33  C   UNL A   1      35.171  31.589  28.013  1.00  0.00     0.202 C 
BRANCH  33  34
ATOM     34  C   UNL A   1      35.476  30.463  28.994  1.00  0.00     0.261 C 
BRANCH  34  35
ATOM     35  O   UNL A   1      36.106  30.965  30.176  1.00  0.00    -0.460 OA
BRANCH  35  36
ATOM     36  C   UNL A   1      37.231  31.688  29.972  1.00  0.00     0.338 C 
ATOM     37  O   UNL A   1      37.374  32.890  30.055  1.00  0.00    -0.246 OA
BRANCH  36  38
ATOM     38  C   UNL A   1      38.337  30.744  29.747  1.00  0.00     0.060 A 
ATOM     39  C   UNL A   1      39.093  30.301  30.841  1.00  0.00     0.016 A 
ATOM     40  C   UNL A   1      38.667  30.372  28.444  1.00  0.00     0.016 A 
ATOM     41  C   UNL A   1      40.231  29.532  30.628  1.00  0.00     0.010 A 
ATOM     42  C   UNL A   1      39.812  29.618  28.229  1.00  0.00     0.010 A 
ATOM     43  C   UNL A   1      40.623  29.247  29.316  1.00  0.00    -0.014 A 
BRANCH  43  44
ATOM     44  C   UNL A   1      41.996  28.794  29.025  1.00  0.00     0.031 A 
ATOM     45  C   UNL A   1      43.077  29.838  28.999  1.00  0.00     0.074 A 
ATOM     46  C   UNL A   1      42.249  27.512  28.722  1.00  0.00     0.049 A 
ATOM     47  N   UNL A   1      44.305  29.746  28.569  1.00  0.00    -0.248 NA
ATOM     48  C   UNL A   1      42.711  31.173  29.506  1.00  0.00     0.031 C 
ATOM     49  C   UNL A   1      41.279  26.421  28.772  1.00  0.00     0.029 A 
ATOM     50  N   UNL A   1      43.403  26.924  28.278  1.00  0.00    -0.354 N 
ATOM     51  C   UNL A   1      44.848  31.017  28.724  1.00  0.00     0.074 A 
ATOM     52  C   UNL A   1      43.813  31.866  29.268  1.00  0.00     0.031 C 
ATOM     53  C   UNL A   1      41.874  25.294  28.344  1.00  0.00     0.029 A 
ATOM     54  C   UNL A   1      43.246  25.601  27.944  1.00  0.00     0.049 A 
ATOM     55  H   UNL A   1      44.262  27.401  28.206  1.00  0.00     0.167 HD
ATOM     56  C   UNL A   1      46.102  31.434  28.432  1.00  0.00     0.031 A 
ATOM     57  C   UNL A   1      44.103  24.755  27.342  1.00  0.00     0.031 A 
ATOM     58  C   UNL A   1      47.109  30.574  27.875  1.00  0.00     0.049 A 
ATOM     59  C   UNL A   1      45.472  25.258  26.959  1.00  0.00     0.074 A 
ATOM     60  C   UNL A   1      48.417  30.878  27.550  1.00  0.00     0.029 A 
ATOM     61  N   UNL A   1      46.913  29.238  27.555  1.00  0.00    -0.354 N 
ATOM     62  N   UNL A   1      45.984  26.457  27.116  1.00  0.00    -0.248 NA
ATOM     63  C   UNL A   1      46.380  24.294  26.324  1.00  0.00     0.031 C 
ATOM     64  C   UNL A   1      48.994  29.743  26.973  1.00  0.00     0.029 A 
ATOM     65  C   UNL A   1      48.071  28.709  27.015  1.00  0.00     0.049 A 
ATOM     66  H   UNL A   1      46.075  28.741  27.691  1.00  0.00     0.167 HD
ATOM     67  C   UNL A   1      47.288  26.378  26.641  1.00  0.00     0.074 A 
ATOM     68  C   UNL A   1      47.485  25.015  26.191  1.00  0.00     0.031 C 
ATOM     69  C   UNL A   1      48.243  27.341  26.592  1.00  0.00     0.031 A 
BRANCH  56  70
ATOM     70  C   UNL A   1      46.430  32.885  28.667  1.00  0.00    -0.014 A 
ATOM     71  C   UNL A   1      46.896  33.340  29.914  1.00  0.00     0.010 A 
ATOM     72  C   UNL A   1      46.299  33.805  27.611  1.00  0.00     0.010 A 
ATOM     73  C   UNL A   1      47.188  34.692  30.111  1.00  0.00     0.020 A 
ATOM     74  C   UNL A   1      46.622  35.153  27.794  1.00  0.00     0.020 A 
ATOM     75  C   UNL A   1      47.051  35.590  29.048  1.00  0.00     0.054 A 
BRANCH  75  76
ATOM     76  S   UNL A   1      47.470  37.332  29.323  1.00  0.00     0.124 S 
ATOM     77  O   UNL A   1      48.099  37.288  30.641  1.00  0.00    -0.237 OA
ATOM     78  O   UNL A   1      48.368  37.623  28.209  1.00  0.00    -0.237 OA
ATOM     79  O   UNL A   1      46.179  38.014  29.272  1.00  0.00    -0.744 OA
ENDBRANCH  75  76
ENDBRANCH  56  70
BRANCH  57  80
ATOM     80  C   UNL A   1      43.685  23.357  27.053  1.00  0.00    -0.014 A 
ATOM     81  C   UNL A   1      43.108  22.563  28.059  1.00  0.00     0.010 A 
ATOM     82  C   UNL A   1      43.849  22.815  25.764  1.00  0.00     0.010 A 
ATOM     83  C   UNL A   1      42.717  21.248  27.787  1.00  0.00     0.020 A 
ATOM     84  C   UNL A   1      43.430  21.513  25.480  1.00  0.00     0.020 A 
ATOM     85  C   UNL A   1      42.877  20.734  26.496  1.00  0.00     0.054 A 
BRANCH  85  86
ATOM     86  S   UNL A   1      42.310  19.045  26.156  1.00  0.00     0.124 S 
ATOM     87  O   UNL A   1      43.136  18.671  25.013  1.00  0.00    -0.237 OA
ATOM     88  O   UNL A   1      42.610  18.356  27.408  1.00  0.00    -0.237 OA
ATOM     89  O   UNL A   1      40.886  19.213  25.873  1.00  0.00    -0.744 OA
ENDBRANCH  85  86
ENDBRANCH  57  80
BRANCH  69  90
ATOM     90  C   UNL A   1      49.612  26.946  26.103  1.00  0.00    -0.014 A 
ATOM     91  C   UNL A   1      50.517  26.248  26.919  1.00  0.00     0.010 A 
ATOM     92  C   UNL A   1      49.954  27.205  24.761  1.00  0.00     0.010 A 
ATOM     93  C   UNL A   1      51.749  25.832  26.407  1.00  0.00     0.020 A 
ATOM     94  C   UNL A   1      51.170  26.763  24.237  1.00  0.00     0.020 A 
ATOM     95  C   UNL A   1      52.066  26.088  25.068  1.00  0.00     0.054 A 
BRANCH  95  96
ATOM     96  S   UNL A   1      53.640  25.476  24.411  1.00  0.00     0.124 S 
ATOM     97  O   UNL A   1      53.564  24.050  24.716  1.00  0.00    -0.237 OA
ATOM     98  O   UNL A   1      53.550  25.821  22.994  1.00  0.00    -0.237 OA
ATOM     99  O   UNL A   1      54.645  26.222  25.164  1.00  0.00    -0.744 OA
ENDBRANCH  95  96
ENDBRANCH  69  90
ENDBRANCH  43  44
ENDBRANCH  36  38
ENDBRANCH  35  36
ENDBRANCH  34  35
ENDBRANCH  33  34
ENDBRANCH  32  33
ENDBRANCH  31  32
ENDBRANCH  30  31
ENDBRANCH   1  30
TORSDOF 27
ENDMDL
MODEL 3
REMARK VINA RESULT:      -9.1      1.792      8.394
REMARK SMILES CC[C@H](NC(=O)[C@H]1[C@@H](C(=O)OCCOCCOCCOCCOC(=O)c2ccc(-c3c4nc(c(-c5ccc(S(=O)(=O)[O-])cc5)c5ccc([nH]5)c(-c5ccc(S(=O)(=O)[O-])cc5)c5nc(c(-c6ccc(S(=O)(=O)[O-])cc6)c6ccc3[nH]6)C=C5)C=C4)cc2)[C@@H]2C=C[C@H]1C2)c1ccccc1
REMARK SMILES IDX 17 1 16 2 15 3 14 4 13 5 12 6 11 7 9 8 10 9 8 10 7 11 89 12
REMARK SMILES IDX 86 13 88 14 90 15 87 16 5 17 4 18 6 20 3 21 2 22 1 23 91 24
REMARK SMILES IDX 92 25 96 26 93 27 95 28 94 29 18 30 19 31 20 32 21 33 22 34
REMARK SMILES IDX 23 35 24 36 25 37 26 38 27 39 85 40 28 41 84 42 29 43 30 44
REMARK SMILES IDX 31 45 78 46 32 47 83 48 77 49 79 50 33 51 82 52 76 53 75 54
REMARK SMILES IDX 34 56 64 57 45 58 63 59 46 60 49 61 62 62 80 63 47 64 48 65
REMARK SMILES IDX 61 67 81 68 50 69 35 70 36 71 44 72 37 73 43 74 38 75 39 76
REMARK SMILES IDX 40 77 41 78 42 79 65 80 66 81 74 82 67 83 73 84 68 85 69 86
REMARK SMILES IDX 70 87 71 88 72 89 51 90 52 91 60 92 53 93 59 94 54 95 55 96
REMARK SMILES IDX 56 97 57 98 58 99
REMARK H PARENT 4 19 79 55 49 66
REMARK Flexibility Score: inf
ROOT
ATOM      1  O   UNL A   1      31.522  26.405  25.992  1.00  0.00    -0.377 OA
ENDROOT
BRANCH   1   2
ATOM      2  C   UNL A   1      30.960  26.599  24.715  1.00  0.00     0.188 C 
BRANCH   2   3
ATOM      3  C   UNL A   1      30.074  25.464  24.208  1.00  0.00     0.188 C 
BRANCH   3   4
ATOM      4  O   UNL A   1      30.610  24.641  23.189  1.00  0.00    -0.376 OA
BRANCH   4   5
ATOM      5  C   UNL A   1      31.622  25.224  22.366  1.00  0.00     0.202 C 
BRANCH   5   6
ATOM      6  C   UNL A   1      32.911  24.419  22.093  1.00  0.00     0.261 C 
BRANCH   6   7
ATOM      7  O   UNL A   1      33.207  23.320  23.004  1.00  0.00    -0.463 OA
BRANCH   7   8
ATOM      8  C   UNL A   1      34.446  23.216  23.544  1.00  0.00     0.310 C 
ATOM      9  O   UNL A   1      35.473  23.177  22.870  1.00  0.00    -0.252 OA
BRANCH   8  10
ATOM     10  C   UNL A   1      34.508  23.048  25.077  1.00  0.00     0.119 C 
ATOM     11  C   UNL A   1      34.866  21.714  25.770  1.00  0.00     0.100 C 
ATOM     12  C   UNL A   1      33.500  21.333  26.447  1.00  0.00     0.025 C 
ATOM     13  C   UNL A   1      33.159  23.431  25.750  1.00  0.00     0.027 C 
ATOM     14  C   UNL A   1      33.460  22.210  27.689  1.00  0.00    -0.027 C 
ATOM     15  C   UNL A   1      32.411  22.111  25.694  1.00  0.00     0.017 C 
ATOM     16  C   UNL A   1      33.326  23.478  27.262  1.00  0.00    -0.027 C 
BRANCH  11  17
ATOM     17  C   UNL A   1      35.615  20.660  24.993  1.00  0.00     0.225 C 
ATOM     18  N   UNL A   1      35.048  19.417  24.832  1.00  0.00    -0.349 N 
ATOM     19  H   UNL A   1      35.699  18.692  24.696  1.00  0.00     0.164 HD
ATOM     20  O   UNL A   1      36.675  20.924  24.424  1.00  0.00    -0.275 OA
BRANCH  18  21
ATOM     21  C   UNL A   1      33.633  18.972  24.823  1.00  0.00     0.112 C 
BRANCH  21  22
ATOM     22  C   UNL A   1      32.966  19.408  23.494  1.00  0.00     0.026 C 
ATOM     23  C   UNL A   1      32.655  18.290  22.493  1.00  0.00     0.006 C 
ENDBRANCH  21  22
BRANCH  21  24
ATOM     24  C   UNL A   1      33.423  17.486  25.162  1.00  0.00    -0.026 A 
ATOM     25  C   UNL A   1      32.226  16.948  25.651  1.00  0.00     0.006 A 
ATOM     26  C   UNL A   1      34.480  16.571  25.016  1.00  0.00     0.006 A 
ATOM     27  C   UNL A   1      32.055  15.565  25.823  1.00  0.00     0.000 A 
ATOM     28  C   UNL A   1      34.296  15.187  25.094  1.00  0.00     0.000 A 
ATOM     29  C   UNL A   1      33.069  14.679  25.482  1.00  0.00     0.000 A 
ENDBRANCH  21  24
ENDBRANCH  18  21
ENDBRANCH  11  17
ENDBRANCH   8  10
ENDBRANCH   7   8
ENDBRANCH   6   7
ENDBRANCH   5   6
ENDBRANCH   4   5
ENDBRANCH   3   4
ENDBRANCH   2   3
ENDBRANCH   1   2
BRANCH   1  30
ATOM     30  C   UNL A   1      32.373  27.392  26.546  1.00  0.00     0.188 C 
BRANCH  30  31
ATOM     31  C   UNL A   1      31.702  28.625  27.144  1.00  0.00     0.188 C 
BRANCH  31  32
ATOM     32  O   UNL A   1      31.550  29.783  26.311  1.00  0.00    -0.376 OA
BRANCH  32  33
ATOM     33  C   UNL A   1      32.193  31.004  26.684  1.00  0.00     0.202 C 
BRANCH  33  34
ATOM     34  C   UNL A   1      33.682  30.860  26.978  1.00  0.00     0.261 C 
BRANCH  34  35
ATOM     35  O   UNL A   1      33.927  30.817  28.387  1.00  0.00    -0.460 OA
BRANCH  35  36
ATOM     36  C   UNL A   1      34.966  31.568  28.818  1.00  0.00     0.338 C 
ATOM     37  O   UNL A   1      34.952  32.722  29.194  1.00  0.00    -0.246 OA
BRANCH  36  38
ATOM     38  C   UNL A   1      36.151  30.699  28.888  1.00  0.00     0.060 A 
ATOM     39  C   UNL A   1      36.549  30.180  30.128  1.00  0.00     0.016 A 
ATOM     40  C   UNL A   1      36.905  30.474  27.737  1.00  0.00     0.016 A 
ATOM     41  C   UNL A   1      37.748  29.484  30.233  1.00  0.00     0.010 A 
ATOM     42  C   UNL A   1      38.110  29.794  27.844  1.00  0.00     0.010 A 
ATOM     43  C   UNL A   1      38.557  29.350  29.100  1.00  0.00    -0.014 A 
BRANCH  43  44
ATOM     44  C   UNL A   1      39.980  28.985  29.234  1.00  0.00     0.031 A 
ATOM     45  C   UNL A   1      40.940  30.079  29.610  1.00  0.00     0.074 A 
ATOM     46  C   UNL A   1      40.403  27.744  28.956  1.00  0.00     0.049 A 
ATOM     47  N   UNL A   1      42.244  30.079  29.587  1.00  0.00    -0.248 NA
ATOM     48  C   UNL A   1      40.342  31.354  30.049  1.00  0.00     0.031 C 
ATOM     49  C   UNL A   1      39.543  26.606  28.635  1.00  0.00     0.029 A 
ATOM     50  N   UNL A   1      41.675  27.246  28.868  1.00  0.00    -0.354 N 
ATOM     51  C   UNL A   1      42.623  31.359  29.976  1.00  0.00     0.074 A 
ATOM     52  C   UNL A   1      41.413  32.114  30.210  1.00  0.00     0.031 C 
ATOM     53  C   UNL A   1      40.318  25.544  28.356  1.00  0.00     0.029 A 
ATOM     54  C   UNL A   1      41.722  25.946  28.428  1.00  0.00     0.049 A 
ATOM     55  H   UNL A   1      42.479  27.768  29.099  1.00  0.00     0.167 HD
ATOM     56  C   UNL A   1      43.873  31.856  30.119  1.00  0.00     0.031 A 
ATOM     57  C   UNL A   1      42.781  25.189  28.083  1.00  0.00     0.031 A 
ATOM     58  C   UNL A   1      45.061  31.089  29.862  1.00  0.00     0.049 A 
ATOM     59  C   UNL A   1      44.162  25.784  28.181  1.00  0.00     0.074 A 
ATOM     60  C   UNL A   1      46.380  31.479  29.985  1.00  0.00     0.029 A 
ATOM     61  N   UNL A   1      45.067  29.773  29.423  1.00  0.00    -0.354 N 
ATOM     62  N   UNL A   1      44.516  26.992  28.558  1.00  0.00    -0.248 NA
ATOM     63  C   UNL A   1      45.288  24.915  27.813  1.00  0.00     0.031 C 
ATOM     64  C   UNL A   1      47.186  30.419  29.560  1.00  0.00     0.029 A 
ATOM     65  C   UNL A   1      46.369  29.342  29.249  1.00  0.00     0.049 A 
ATOM     66  H   UNL A   1      44.265  29.228  29.259  1.00  0.00     0.167 HD
ATOM     67  C   UNL A   1      45.906  27.011  28.517  1.00  0.00     0.074 A 
ATOM     68  C   UNL A   1      46.327  25.696  28.078  1.00  0.00     0.031 C 
ATOM     69  C   UNL A   1      46.759  28.019  28.827  1.00  0.00     0.031 A 
BRANCH  56  70
ATOM     70  C   UNL A   1      44.010  33.299  30.527  1.00  0.00    -0.014 A 
ATOM     71  C   UNL A   1      44.207  34.317  29.575  1.00  0.00     0.010 A 
ATOM     72  C   UNL A   1      43.910  33.647  31.887  1.00  0.00     0.010 A 
ATOM     73  C   UNL A   1      44.338  35.648  29.978  1.00  0.00     0.020 A 
ATOM     74  C   UNL A   1      44.007  34.982  32.291  1.00  0.00     0.020 A 
ATOM     75  C   UNL A   1      44.235  35.972  31.334  1.00  0.00     0.054 A 
BRANCH  75  76
ATOM     76  S   UNL A   1      44.375  37.712  31.824  1.00  0.00     0.124 S 
ATOM     77  O   UNL A   1      43.822  37.691  33.176  1.00  0.00    -0.237 OA
ATOM     78  O   UNL A   1      45.813  37.953  31.739  1.00  0.00    -0.237 OA
ATOM     79  O   UNL A   1      43.569  38.420  30.833  1.00  0.00    -0.744 OA
ENDBRANCH  75  76
ENDBRANCH  56  70
BRANCH  57  80
ATOM     80  C   UNL A   1      42.572  23.798  27.599  1.00  0.00    -0.014 A 
ATOM     81  C   UNL A   1      42.612  23.508  26.224  1.00  0.00     0.010 A 
ATOM     82  C   UNL A   1      42.346  22.751  28.512  1.00  0.00     0.010 A 
ATOM     83  C   UNL A   1      42.414  22.200  25.770  1.00  0.00     0.020 A 
ATOM     84  C   UNL A   1      42.179  21.438  28.065  1.00  0.00     0.020 A 
ATOM     85  C   UNL A   1      42.204  21.172  26.695  1.00  0.00     0.054 A 
BRANCH  85  86
ATOM     86  S   UNL A   1      42.006  19.477  26.083  1.00  0.00     0.124 S 
ATOM     87  O   UNL A   1      40.566  19.400  25.859  1.00  0.00    -0.237 OA
ATOM     88  O   UNL A   1      42.836  19.479  24.881  1.00  0.00    -0.237 OA
ATOM     89  O   UNL A   1      42.515  18.656  27.180  1.00  0.00    -0.744 OA
ENDBRANCH  85  86
ENDBRANCH  57  80
BRANCH  69  90
ATOM     90  C   UNL A   1      48.236  27.728  28.775  1.00  0.00    -0.014 A 
ATOM     91  C   UNL A   1      48.959  27.779  27.572  1.00  0.00     0.010 A 
ATOM     92  C   UNL A   1      48.923  27.488  29.981  1.00  0.00     0.010 A 
ATOM     93  C   UNL A   1      50.342  27.577  27.573  1.00  0.00     0.020 A 
ATOM     94  C   UNL A   1      50.309  27.318  29.990  1.00  0.00     0.020 A 
ATOM     95  C   UNL A   1      51.009  27.353  28.783  1.00  0.00     0.054 A 
BRANCH  95  96
ATOM     96  S   UNL A   1      52.811  27.164  28.765  1.00  0.00     0.124 S 
ATOM     97  O   UNL A   1      53.088  27.028  27.338  1.00  0.00    -0.237 OA
ATOM     98  O   UNL A   1      53.269  28.409  29.379  1.00  0.00    -0.237 OA
ATOM     99  O   UNL A   1      53.043  25.962  29.563  1.00  0.00    -0.744 OA
ENDBRANCH  95  96
ENDBRANCH  69  90
ENDBRANCH  43  44
ENDBRANCH  36  38
ENDBRANCH  35  36
ENDBRANCH  34  35
ENDBRANCH  33  34
ENDBRANCH  32  33
ENDBRANCH  31  32
ENDBRANCH  30  31
ENDBRANCH   1  30
TORSDOF 27
ENDMDL
