MODEL 1
REMARK VINA RESULT:      -9.2      0.000      0.000
REMARK SMILES Cc1noc(-c2ccc(CCl)cc2)c1C(=O)OCCOCCOCCOCCOC(=O)c1ccc(-c2c3nc(c(-c4ccc(S(=O)(=O)[O-])cc4)c4ccc([nH]4)c(-c4ccc(S(=O)(=O)[O-])cc4)c4nc(c(-c5ccc(S(=O)(=O)[O-])cc5)c5ccc2[nH]5)C=C4)C=C3)cc1
REMARK SMILES IDX 24 1 23 2 22 3 21 4 20 5 19 6 18 7 17 8 15 9 16 10 14 11
REMARK SMILES IDX 1 12 2 13 3 14 4 15 5 16 6 17 7 18 13 19 8 20 12 21 9 22
REMARK SMILES IDX 10 23 11 24 25 25 26 26 27 27 28 28 29 29 30 30 31 31 32 32
REMARK SMILES IDX 33 33 91 34 34 35 90 36 35 37 36 38 37 39 84 40 38 41 89 42
REMARK SMILES IDX 83 43 85 44 39 45 88 46 82 47 81 48 40 50 70 51 51 52 69 53
REMARK SMILES IDX 52 54 55 55 68 56 86 57 53 58 54 59 67 61 87 62 56 63 41 64
REMARK SMILES IDX 42 65 50 66 43 67 49 68 44 69 45 70 46 71 47 72 48 73 71 74
REMARK SMILES IDX 72 75 80 76 73 77 79 78 74 79 75 80 76 81 77 82 78 83 57 84
REMARK SMILES IDX 58 85 66 86 59 87 65 88 60 89 61 90 62 91 63 92 64 93
REMARK H PARENT 85 49 55 60
REMARK Flexibility Score: inf
ROOT
ATOM      1  C   UNL A   1      32.259  27.824  27.151  1.00  0.00     0.188 C 
ENDROOT
BRANCH   1   2
ATOM      2  O   UNL A   1      30.956  27.258  27.140  1.00  0.00    -0.377 OA
BRANCH   2   3
ATOM      3  C   UNL A   1      30.682  26.151  26.304  1.00  0.00     0.188 C 
BRANCH   3   4
ATOM      4  C   UNL A   1      31.444  24.847  26.574  1.00  0.00     0.188 C 
BRANCH   4   5
ATOM      5  O   UNL A   1      30.669  23.862  27.254  1.00  0.00    -0.376 OA
BRANCH   5   6
ATOM      6  C   UNL A   1      30.375  22.694  26.494  1.00  0.00     0.202 C 
BRANCH   6   7
ATOM      7  C   UNL A   1      31.591  22.166  25.725  1.00  0.00     0.261 C 
BRANCH   7   8
ATOM      8  O   UNL A   1      31.600  22.496  24.327  1.00  0.00    -0.459 OA
BRANCH   8   9
ATOM      9  C   UNL A   1      32.480  21.846  23.525  1.00  0.00     0.344 C 
ATOM     10  O   UNL A   1      32.163  21.145  22.572  1.00  0.00    -0.246 OA
BRANCH   9  11
ATOM     11  C   UNL A   1      33.845  22.170  23.860  1.00  0.00     0.130 A 
ATOM     12  C   UNL A   1      34.797  19.997  24.998  1.00  0.00     0.071 C 
ATOM     13  C   UNL A   1      34.853  21.396  24.502  1.00  0.00     0.096 A 
ATOM     14  N   UNL A   1      35.979  22.103  24.668  1.00  0.00    -0.084 NA
ATOM     15  O   UNL A   1      35.692  23.380  24.228  1.00  0.00    -0.355 OA
ATOM     16  C   UNL A   1      34.412  23.427  23.773  1.00  0.00     0.181 A 
BRANCH  16  17
ATOM     17  C   UNL A   1      33.906  24.756  23.492  1.00  0.00     0.021 A 
ATOM     18  C   UNL A   1      34.015  25.792  24.419  1.00  0.00     0.012 A 
ATOM     19  C   UNL A   1      33.333  25.017  22.239  1.00  0.00     0.012 A 
ATOM     20  C   UNL A   1      33.575  27.080  24.089  1.00  0.00     0.006 A 
ATOM     21  C   UNL A   1      32.912  26.305  21.900  1.00  0.00     0.006 A 
ATOM     22  C   UNL A   1      33.041  27.354  22.820  1.00  0.00    -0.033 A 
BRANCH  22  23
ATOM     23  C   UNL A   1      32.598  28.743  22.454  1.00  0.00     0.145 C 
ATOM     24  Cl  UNL A   1      31.322  29.305  23.550  1.00  0.00    -0.122 Cl
ENDBRANCH  22  23
ENDBRANCH  16  17
ENDBRANCH   9  11
ENDBRANCH   8   9
ENDBRANCH   7   8
ENDBRANCH   6   7
ENDBRANCH   5   6
ENDBRANCH   4   5
ENDBRANCH   3   4
ENDBRANCH   2   3
ENDBRANCH   1   2
BRANCH   1  25
ATOM     25  C   UNL A   1      32.462  29.346  27.061  1.00  0.00     0.188 C 
BRANCH  25  26
ATOM     26  O   UNL A   1      33.670  29.821  27.653  1.00  0.00    -0.376 OA
BRANCH  26  27
ATOM     27  C   UNL A   1      34.092  31.118  27.247  1.00  0.00     0.202 C 
BRANCH  27  28
ATOM     28  C   UNL A   1      33.094  32.217  27.626  1.00  0.00     0.261 C 
BRANCH  28  29
ATOM     29  O   UNL A   1      33.622  33.547  27.540  1.00  0.00    -0.460 OA
BRANCH  29  30
ATOM     30  C   UNL A   1      33.480  34.324  28.636  1.00  0.00     0.338 C 
ATOM     31  O   UNL A   1      32.535  35.037  28.919  1.00  0.00    -0.246 OA
BRANCH  30  32
ATOM     32  C   UNL A   1      34.604  34.031  29.544  1.00  0.00     0.060 A 
ATOM     33  C   UNL A   1      35.909  34.203  29.071  1.00  0.00     0.016 A 
ATOM     34  C   UNL A   1      34.365  33.589  30.848  1.00  0.00     0.016 A 
ATOM     35  C   UNL A   1      36.988  33.892  29.896  1.00  0.00     0.010 A 
ATOM     36  C   UNL A   1      35.445  33.261  31.667  1.00  0.00     0.010 A 
ATOM     37  C   UNL A   1      36.757  33.379  31.180  1.00  0.00    -0.014 A 
BRANCH  37  38
ATOM     38  C   UNL A   1      37.869  32.764  31.938  1.00  0.00     0.031 A 
ATOM     39  C   UNL A   1      38.455  31.482  31.417  1.00  0.00     0.074 A 
ATOM     40  C   UNL A   1      38.336  33.322  33.067  1.00  0.00     0.049 A 
ATOM     41  N   UNL A   1      39.416  30.749  31.914  1.00  0.00    -0.248 NA
ATOM     42  C   UNL A   1      37.877  30.955  30.168  1.00  0.00     0.031 C 
ATOM     43  C   UNL A   1      37.862  34.571  33.659  1.00  0.00     0.029 A 
ATOM     44  N   UNL A   1      39.316  32.891  33.926  1.00  0.00    -0.354 N 
ATOM     45  C   UNL A   1      39.562  29.681  31.038  1.00  0.00     0.074 A 
ATOM     46  C   UNL A   1      38.576  29.845  29.992  1.00  0.00     0.031 C 
ATOM     47  C   UNL A   1      38.547  34.802  34.794  1.00  0.00     0.029 A 
ATOM     48  C   UNL A   1      39.490  33.707  35.017  1.00  0.00     0.049 A 
ATOM     49  H   UNL A   1      39.845  32.075  33.773  1.00  0.00     0.167 HD
ATOM     50  C   UNL A   1      40.441  28.653  31.095  1.00  0.00     0.031 A 
ATOM     51  C   UNL A   1      40.306  33.574  36.079  1.00  0.00     0.031 A 
ATOM     52  C   UNL A   1      41.395  28.468  32.151  1.00  0.00     0.049 A 
ATOM     53  C   UNL A   1      41.227  32.383  36.159  1.00  0.00     0.074 A 
ATOM     54  C   UNL A   1      42.332  27.462  32.300  1.00  0.00     0.029 A 
ATOM     55  N   UNL A   1      41.521  29.302  33.251  1.00  0.00    -0.354 N 
ATOM     56  N   UNL A   1      41.382  31.403  35.302  1.00  0.00    -0.248 NA
ATOM     57  C   UNL A   1      42.084  32.285  37.350  1.00  0.00     0.031 C 
ATOM     58  C   UNL A   1      43.000  27.666  33.513  1.00  0.00     0.029 A 
ATOM     59  C   UNL A   1      42.506  28.822  34.096  1.00  0.00     0.049 A 
ATOM     60  H   UNL A   1      40.989  30.115  33.408  1.00  0.00     0.167 HD
ATOM     61  C   UNL A   1      42.372  30.584  35.838  1.00  0.00     0.074 A 
ATOM     62  C   UNL A   1      42.782  31.188  37.089  1.00  0.00     0.031 C 
ATOM     63  C   UNL A   1      42.897  29.440  35.337  1.00  0.00     0.031 A 
BRANCH  50  64
ATOM     64  C   UNL A   1      40.375  27.638  29.990  1.00  0.00    -0.014 A 
ATOM     65  C   UNL A   1      39.326  26.703  29.933  1.00  0.00     0.010 A 
ATOM     66  C   UNL A   1      41.374  27.616  29.002  1.00  0.00     0.010 A 
ATOM     67  C   UNL A   1      39.299  25.735  28.926  1.00  0.00     0.020 A 
ATOM     68  C   UNL A   1      41.340  26.662  27.982  1.00  0.00     0.020 A 
ATOM     69  C   UNL A   1      40.313  25.715  27.962  1.00  0.00     0.054 A 
BRANCH  69  70
ATOM     70  S   UNL A   1      40.258  24.449  26.664  1.00  0.00     0.124 S 
ATOM     71  O   UNL A   1      41.326  24.890  25.771  1.00  0.00    -0.237 OA
ATOM     72  O   UNL A   1      40.526  23.217  27.401  1.00  0.00    -0.237 OA
ATOM     73  O   UNL A   1      38.905  24.568  26.125  1.00  0.00    -0.744 OA
ENDBRANCH  69  70
ENDBRANCH  50  64
BRANCH  51  74
ATOM     74  C   UNL A   1      40.289  34.591  37.163  1.00  0.00    -0.014 A 
ATOM     75  C   UNL A   1      39.387  34.476  38.235  1.00  0.00     0.010 A 
ATOM     76  C   UNL A   1      41.177  35.680  37.127  1.00  0.00     0.010 A 
ATOM     77  C   UNL A   1      39.364  35.440  39.247  1.00  0.00     0.020 A 
ATOM     78  C   UNL A   1      41.171  36.636  38.148  1.00  0.00     0.020 A 
ATOM     79  C   UNL A   1      40.257  36.514  39.197  1.00  0.00     0.054 A 
BRANCH  79  80
ATOM     80  S   UNL A   1      40.255  37.724  40.550  1.00  0.00     0.124 S 
ATOM     81  O   UNL A   1      41.062  38.804  39.993  1.00  0.00    -0.237 OA
ATOM     82  O   UNL A   1      38.832  38.015  40.714  1.00  0.00    -0.237 OA
ATOM     83  O   UNL A   1      40.862  36.992  41.660  1.00  0.00    -0.744 OA
ENDBRANCH  79  80
ENDBRANCH  51  74
BRANCH  63  84
ATOM     84  C   UNL A   1      43.993  28.777  36.126  1.00  0.00    -0.014 A 
ATOM     85  C   UNL A   1      43.716  27.703  36.989  1.00  0.00     0.010 A 
ATOM     86  C   UNL A   1      45.324  29.193  35.947  1.00  0.00     0.010 A 
ATOM     87  C   UNL A   1      44.754  27.070  37.680  1.00  0.00     0.020 A 
ATOM     88  C   UNL A   1      46.366  28.549  36.618  1.00  0.00     0.020 A 
ATOM     89  C   UNL A   1      46.072  27.499  37.491  1.00  0.00     0.054 A 
BRANCH  89  90
ATOM     90  S   UNL A   1      47.411  26.630  38.354  1.00  0.00     0.124 S 
ATOM     91  O   UNL A   1      48.554  27.501  38.095  1.00  0.00    -0.237 OA
ATOM     92  O   UNL A   1      46.942  26.603  39.737  1.00  0.00    -0.237 OA
ATOM     93  O   UNL A   1      47.457  25.327  37.694  1.00  0.00    -0.744 OA
ENDBRANCH  89  90
ENDBRANCH  63  84
ENDBRANCH  37  38
ENDBRANCH  30  32
ENDBRANCH  29  30
ENDBRANCH  28  29
ENDBRANCH  27  28
ENDBRANCH  26  27
ENDBRANCH  25  26
ENDBRANCH   1  25
TORSDOF 25
ENDMDL
MODEL 2
REMARK VINA RESULT:      -8.9      1.866      3.221
REMARK SMILES Cc1noc(-c2ccc(CCl)cc2)c1C(=O)OCCOCCOCCOCCOC(=O)c1ccc(-c2c3nc(c(-c4ccc(S(=O)(=O)[O-])cc4)c4ccc([nH]4)c(-c4ccc(S(=O)(=O)[O-])cc4)c4nc(c(-c5ccc(S(=O)(=O)[O-])cc5)c5ccc2[nH]5)C=C4)C=C3)cc1
REMARK SMILES IDX 24 1 23 2 22 3 21 4 20 5 19 6 18 7 17 8 15 9 16 10 14 11
REMARK SMILES IDX 1 12 2 13 3 14 4 15 5 16 6 17 7 18 13 19 8 20 12 21 9 22
REMARK SMILES IDX 10 23 11 24 25 25 26 26 27 27 28 28 29 29 30 30 31 31 32 32
REMARK SMILES IDX 33 33 91 34 34 35 90 36 35 37 36 38 37 39 84 40 38 41 89 42
REMARK SMILES IDX 83 43 85 44 39 45 88 46 82 47 81 48 40 50 70 51 51 52 69 53
REMARK SMILES IDX 52 54 55 55 68 56 86 57 53 58 54 59 67 61 87 62 56 63 41 64
REMARK SMILES IDX 42 65 50 66 43 67 49 68 44 69 45 70 46 71 47 72 48 73 71 74
REMARK SMILES IDX 72 75 80 76 73 77 79 78 74 79 75 80 76 81 77 82 78 83 57 84
REMARK SMILES IDX 58 85 66 86 59 87 65 88 60 89 61 90 62 91 63 92 64 93
REMARK H PARENT 85 49 55 60
REMARK Flexibility Score: inf
ROOT
ATOM      1  C   UNL A   1      32.578  27.858  27.015  1.00  0.00     0.188 C 
ENDROOT
BRANCH   1   2
ATOM      2  O   UNL A   1      31.274  27.340  27.236  1.00  0.00    -0.377 OA
BRANCH   2   3
ATOM      3  C   UNL A   1      30.793  26.289  26.421  1.00  0.00     0.188 C 
BRANCH   3   4
ATOM      4  C   UNL A   1      31.446  24.909  26.577  1.00  0.00     0.188 C 
BRANCH   4   5
ATOM      5  O   UNL A   1      30.605  23.947  27.210  1.00  0.00    -0.376 OA
BRANCH   5   6
ATOM      6  C   UNL A   1      30.137  22.902  26.363  1.00  0.00     0.202 C 
BRANCH   6   7
ATOM      7  C   UNL A   1      31.266  22.222  25.582  1.00  0.00     0.261 C 
BRANCH   7   8
ATOM      8  O   UNL A   1      31.507  22.777  24.279  1.00  0.00    -0.459 OA
BRANCH   8   9
ATOM      9  C   UNL A   1      32.532  22.270  23.549  1.00  0.00     0.344 C 
ATOM     10  O   UNL A   1      32.466  21.994  22.358  1.00  0.00    -0.246 OA
BRANCH   9  11
ATOM     11  C   UNL A   1      33.750  22.197  24.320  1.00  0.00     0.130 A 
ATOM     12  C   UNL A   1      34.798  24.605  24.156  1.00  0.00     0.071 C 
ATOM     13  C   UNL A   1      34.742  23.185  24.584  1.00  0.00     0.096 A 
ATOM     14  N   UNL A   1      35.749  22.681  25.311  1.00  0.00    -0.084 NA
ATOM     15  O   UNL A   1      35.479  21.333  25.447  1.00  0.00    -0.355 OA
ATOM     16  C   UNL A   1      34.303  21.041  24.833  1.00  0.00     0.181 A 
BRANCH  16  17
ATOM     17  C   UNL A   1      34.010  19.627  24.703  1.00  0.00     0.021 A 
ATOM     18  C   UNL A   1      35.024  18.669  24.677  1.00  0.00     0.012 A 
ATOM     19  C   UNL A   1      32.673  19.208  24.648  1.00  0.00     0.012 A 
ATOM     20  C   UNL A   1      34.703  17.307  24.617  1.00  0.00     0.006 A 
ATOM     21  C   UNL A   1      32.350  17.850  24.609  1.00  0.00     0.006 A 
ATOM     22  C   UNL A   1      33.364  16.884  24.606  1.00  0.00    -0.033 A 
BRANCH  22  23
ATOM     23  C   UNL A   1      33.019  15.422  24.574  1.00  0.00     0.145 C 
ATOM     24  Cl  UNL A   1      32.744  14.804  26.214  1.00  0.00    -0.122 Cl
ENDBRANCH  22  23
ENDBRANCH  16  17
ENDBRANCH   9  11
ENDBRANCH   8   9
ENDBRANCH   7   8
ENDBRANCH   6   7
ENDBRANCH   5   6
ENDBRANCH   4   5
ENDBRANCH   3   4
ENDBRANCH   2   3
ENDBRANCH   1   2
BRANCH   1  25
ATOM     25  C   UNL A   1      32.831  29.375  26.980  1.00  0.00     0.188 C 
BRANCH  25  26
ATOM     26  O   UNL A   1      33.941  29.811  27.763  1.00  0.00    -0.376 OA
BRANCH  26  27
ATOM     27  C   UNL A   1      34.389  31.140  27.518  1.00  0.00     0.202 C 
BRANCH  27  28
ATOM     28  C   UNL A   1      33.278  32.183  27.670  1.00  0.00     0.261 C 
BRANCH  28  29
ATOM     29  O   UNL A   1      33.733  33.541  27.616  1.00  0.00    -0.460 OA
BRANCH  29  30
ATOM     30  C   UNL A   1      33.551  34.282  28.731  1.00  0.00     0.338 C 
ATOM     31  O   UNL A   1      32.579  34.957  29.019  1.00  0.00    -0.246 OA
BRANCH  30  32
ATOM     32  C   UNL A   1      34.670  34.000  29.648  1.00  0.00     0.060 A 
ATOM     33  C   UNL A   1      35.974  34.258  29.211  1.00  0.00     0.016 A 
ATOM     34  C   UNL A   1      34.429  33.486  30.924  1.00  0.00     0.016 A 
ATOM     35  C   UNL A   1      37.051  33.960  30.043  1.00  0.00     0.010 A 
ATOM     36  C   UNL A   1      35.508  33.171  31.749  1.00  0.00     0.010 A 
ATOM     37  C   UNL A   1      36.822  33.375  31.297  1.00  0.00    -0.014 A 
BRANCH  37  38
ATOM     38  C   UNL A   1      37.948  32.779  32.049  1.00  0.00     0.031 A 
ATOM     39  C   UNL A   1      38.649  31.593  31.447  1.00  0.00     0.074 A 
ATOM     40  C   UNL A   1      38.328  33.268  33.240  1.00  0.00     0.049 A 
ATOM     41  N   UNL A   1      39.644  30.891  31.922  1.00  0.00    -0.248 NA
ATOM     42  C   UNL A   1      38.161  31.137  30.133  1.00  0.00     0.031 C 
ATOM     43  C   UNL A   1      37.738  34.423  33.914  1.00  0.00     0.029 A 
ATOM     44  N   UNL A   1      39.305  32.835  34.102  1.00  0.00    -0.354 N 
ATOM     45  C   UNL A   1      39.904  29.918  30.966  1.00  0.00     0.074 A 
ATOM     46  C   UNL A   1      38.949  30.101  29.896  1.00  0.00     0.031 C 
ATOM     47  C   UNL A   1      38.360  34.603  35.094  1.00  0.00     0.029 A 
ATOM     48  C   UNL A   1      39.374  33.564  35.265  1.00  0.00     0.049 A 
ATOM     49  H   UNL A   1      39.900  32.077  33.904  1.00  0.00     0.167 HD
ATOM     50  C   UNL A   1      40.856  28.955  30.976  1.00  0.00     0.031 A 
ATOM     51  C   UNL A   1      40.158  33.397  36.347  1.00  0.00     0.031 A 
ATOM     52  C   UNL A   1      41.781  28.748  32.053  1.00  0.00     0.049 A 
ATOM     53  C   UNL A   1      41.163  32.275  36.367  1.00  0.00     0.074 A 
ATOM     54  C   UNL A   1      42.785  27.804  32.157  1.00  0.00     0.029 A 
ATOM     55  N   UNL A   1      41.801  29.489  33.224  1.00  0.00    -0.354 N 
ATOM     56  N   UNL A   1      41.425  31.387  35.437  1.00  0.00    -0.248 NA
ATOM     57  C   UNL A   1      41.979  32.135  37.581  1.00  0.00     0.031 C 
ATOM     58  C   UNL A   1      43.390  27.949  33.412  1.00  0.00     0.029 A 
ATOM     59  C   UNL A   1      42.787  29.010  34.068  1.00  0.00     0.049 A 
ATOM     60  H   UNL A   1      41.203  30.245  33.425  1.00  0.00     0.167 HD
ATOM     61  C   UNL A   1      42.453  30.599  35.945  1.00  0.00     0.074 A 
ATOM     62  C   UNL A   1      42.768  31.119  37.260  1.00  0.00     0.031 C 
ATOM     63  C   UNL A   1      43.083  29.544  35.373  1.00  0.00     0.031 A 
BRANCH  50  64
ATOM     64  C   UNL A   1      40.909  28.040  29.786  1.00  0.00    -0.014 A 
ATOM     65  C   UNL A   1      41.651  28.387  28.643  1.00  0.00     0.010 A 
ATOM     66  C   UNL A   1      40.206  26.823  29.809  1.00  0.00     0.010 A 
ATOM     67  C   UNL A   1      41.657  27.550  27.525  1.00  0.00     0.020 A 
ATOM     68  C   UNL A   1      40.225  25.973  28.700  1.00  0.00     0.020 A 
ATOM     69  C   UNL A   1      40.935  26.352  27.557  1.00  0.00     0.054 A 
BRANCH  69  70
ATOM     70  S   UNL A   1      40.958  25.279  26.095  1.00  0.00     0.124 S 
ATOM     71  O   UNL A   1      41.511  26.169  25.079  1.00  0.00    -0.237 OA
ATOM     72  O   UNL A   1      41.829  24.183  26.511  1.00  0.00    -0.237 OA
ATOM     73  O   UNL A   1      39.554  24.919  25.911  1.00  0.00    -0.744 OA
ENDBRANCH  69  70
ENDBRANCH  50  64
BRANCH  51  74
ATOM     74  C   UNL A   1      40.022  34.311  37.511  1.00  0.00    -0.014 A 
ATOM     75  C   UNL A   1      39.132  34.009  38.556  1.00  0.00     0.010 A 
ATOM     76  C   UNL A   1      40.784  35.491  37.579  1.00  0.00     0.010 A 
ATOM     77  C   UNL A   1      38.997  34.876  39.644  1.00  0.00     0.020 A 
ATOM     78  C   UNL A   1      40.667  36.351  38.675  1.00  0.00     0.020 A 
ATOM     79  C   UNL A   1      39.766  36.041  39.697  1.00  0.00     0.054 A 
BRANCH  79  80
ATOM     80  S   UNL A   1      39.622  37.126  41.146  1.00  0.00     0.124 S 
ATOM     81  O   UNL A   1      38.896  36.280  42.087  1.00  0.00    -0.237 OA
ATOM     82  O   UNL A   1      41.018  37.395  41.482  1.00  0.00    -0.237 OA
ATOM     83  O   UNL A   1      38.882  38.277  40.634  1.00  0.00    -0.744 OA
ENDBRANCH  79  80
ENDBRANCH  51  74
BRANCH  63  84
ATOM     84  C   UNL A   1      44.195  28.896  36.151  1.00  0.00    -0.014 A 
ATOM     85  C   UNL A   1      43.951  27.785  36.975  1.00  0.00     0.010 A 
ATOM     86  C   UNL A   1      45.512  29.366  35.999  1.00  0.00     0.010 A 
ATOM     87  C   UNL A   1      45.005  27.168  37.655  1.00  0.00     0.020 A 
ATOM     88  C   UNL A   1      46.570  28.739  36.659  1.00  0.00     0.020 A 
ATOM     89  C   UNL A   1      46.308  27.650  37.494  1.00  0.00     0.054 A 
BRANCH  89  90
ATOM     90  S   UNL A   1      47.671  26.803  38.341  1.00  0.00     0.124 S 
ATOM     91  O   UNL A   1      46.987  26.192  39.477  1.00  0.00    -0.237 OA
ATOM     92  O   UNL A   1      48.156  25.872  37.325  1.00  0.00    -0.237 OA
ATOM     93  O   UNL A   1      48.594  27.884  38.676  1.00  0.00    -0.744 OA
ENDBRANCH  89  90
ENDBRANCH  63  84
ENDBRANCH  37  38
ENDBRANCH  30  32
ENDBRANCH  29  30
ENDBRANCH  28  29
ENDBRANCH  27  28
ENDBRANCH  26  27
ENDBRANCH  25  26
ENDBRANCH   1  25
TORSDOF 25
ENDMDL
MODEL 3
REMARK VINA RESULT:      -8.7      6.344      8.707
REMARK SMILES Cc1noc(-c2ccc(CCl)cc2)c1C(=O)OCCOCCOCCOCCOC(=O)c1ccc(-c2c3nc(c(-c4ccc(S(=O)(=O)[O-])cc4)c4ccc([nH]4)c(-c4ccc(S(=O)(=O)[O-])cc4)c4nc(c(-c5ccc(S(=O)(=O)[O-])cc5)c5ccc2[nH]5)C=C4)C=C3)cc1
REMARK SMILES IDX 24 1 23 2 22 3 21 4 20 5 19 6 18 7 17 8 15 9 16 10 14 11
REMARK SMILES IDX 1 12 2 13 3 14 4 15 5 16 6 17 7 18 13 19 8 20 12 21 9 22
REMARK SMILES IDX 10 23 11 24 25 25 26 26 27 27 28 28 29 29 30 30 31 31 32 32
REMARK SMILES IDX 33 33 91 34 34 35 90 36 35 37 36 38 37 39 84 40 38 41 89 42
REMARK SMILES IDX 83 43 85 44 39 45 88 46 82 47 81 48 40 50 70 51 51 52 69 53
REMARK SMILES IDX 52 54 55 55 68 56 86 57 53 58 54 59 67 61 87 62 56 63 41 64
REMARK SMILES IDX 42 65 50 66 43 67 49 68 44 69 45 70 46 71 47 72 48 73 71 74
REMARK SMILES IDX 72 75 80 76 73 77 79 78 74 79 75 80 76 81 77 82 78 83 57 84
REMARK SMILES IDX 58 85 66 86 59 87 65 88 60 89 61 90 62 91 63 92 64 93
REMARK H PARENT 85 49 55 60
REMARK Flexibility Score: inf
ROOT
ATOM      1  C   UNL A   1      33.998  30.460  27.071  1.00  0.00     0.188 C 
ENDROOT
BRANCH   1   2
ATOM      2  O   UNL A   1      33.278  29.300  27.466  1.00  0.00    -0.377 OA
BRANCH   2   3
ATOM      3  C   UNL A   1      31.888  29.224  27.219  1.00  0.00     0.188 C 
BRANCH   3   4
ATOM      4  C   UNL A   1      31.400  28.188  26.197  1.00  0.00     0.188 C 
BRANCH   4   5
ATOM      5  O   UNL A   1      31.215  26.885  26.748  1.00  0.00    -0.376 OA
BRANCH   5   6
ATOM      6  C   UNL A   1      31.824  25.828  26.014  1.00  0.00     0.202 C 
BRANCH   6   7
ATOM      7  C   UNL A   1      31.675  24.467  26.701  1.00  0.00     0.261 C 
BRANCH   7   8
ATOM      8  O   UNL A   1      32.266  23.371  25.985  1.00  0.00    -0.459 OA
BRANCH   8   9
ATOM      9  C   UNL A   1      33.344  22.756  26.535  1.00  0.00     0.344 C 
ATOM     10  O   UNL A   1      33.339  22.188  27.620  1.00  0.00    -0.246 OA
BRANCH   9  11
ATOM     11  C   UNL A   1      34.472  22.755  25.636  1.00  0.00     0.130 A 
ATOM     12  C   UNL A   1      35.036  25.297  25.257  1.00  0.00     0.071 C 
ATOM     13  C   UNL A   1      35.206  23.834  25.067  1.00  0.00     0.096 A 
ATOM     14  N   UNL A   1      36.158  23.390  24.234  1.00  0.00    -0.084 NA
ATOM     15  O   UNL A   1      35.993  22.020  24.169  1.00  0.00    -0.355 OA
ATOM     16  C   UNL A   1      34.971  21.646  24.983  1.00  0.00     0.181 A 
BRANCH  16  17
ATOM     17  C   UNL A   1      34.543  20.268  24.841  1.00  0.00     0.021 A 
ATOM     18  C   UNL A   1      35.459  19.230  24.671  1.00  0.00     0.012 A 
ATOM     19  C   UNL A   1      33.176  19.966  24.921  1.00  0.00     0.012 A 
ATOM     20  C   UNL A   1      35.015  17.904  24.603  1.00  0.00     0.006 A 
ATOM     21  C   UNL A   1      32.732  18.643  24.874  1.00  0.00     0.006 A 
ATOM     22  C   UNL A   1      33.651  17.596  24.727  1.00  0.00    -0.033 A 
BRANCH  22  23
ATOM     23  C   UNL A   1      33.177  16.170  24.687  1.00  0.00     0.145 C 
ATOM     24  Cl  UNL A   1      34.506  15.055  25.054  1.00  0.00    -0.122 Cl
ENDBRANCH  22  23
ENDBRANCH  16  17
ENDBRANCH   9  11
ENDBRANCH   8   9
ENDBRANCH   7   8
ENDBRANCH   6   7
ENDBRANCH   5   6
ENDBRANCH   4   5
ENDBRANCH   3   4
ENDBRANCH   2   3
ENDBRANCH   1   2
BRANCH   1  25
ATOM     25  C   UNL A   1      34.094  31.685  27.996  1.00  0.00     0.188 C 
BRANCH  25  26
ATOM     26  O   UNL A   1      35.409  31.968  28.472  1.00  0.00    -0.376 OA
BRANCH  26  27
ATOM     27  C   UNL A   1      35.618  33.286  28.968  1.00  0.00     0.202 C 
BRANCH  27  28
ATOM     28  C   UNL A   1      35.872  33.321  30.479  1.00  0.00     0.261 C 
BRANCH  28  29
ATOM     29  O   UNL A   1      37.182  32.887  30.865  1.00  0.00    -0.460 OA
BRANCH  29  30
ATOM     30  C   UNL A   1      37.271  31.655  31.413  1.00  0.00     0.338 C 
ATOM     31  O   UNL A   1      36.474  31.121  32.163  1.00  0.00    -0.246 OA
BRANCH  30  32
ATOM     32  C   UNL A   1      38.429  30.974  30.807  1.00  0.00     0.060 A 
ATOM     33  C   UNL A   1      39.463  30.539  31.643  1.00  0.00     0.016 A 
ATOM     34  C   UNL A   1      38.489  30.771  29.426  1.00  0.00     0.016 A 
ATOM     35  C   UNL A   1      40.588  29.932  31.090  1.00  0.00     0.010 A 
ATOM     36  C   UNL A   1      39.623  30.180  28.871  1.00  0.00     0.010 A 
ATOM     37  C   UNL A   1      40.689  29.790  29.699  1.00  0.00    -0.014 A 
BRANCH  37  38
ATOM     38  C   UNL A   1      41.989  29.436  29.087  1.00  0.00     0.031 A 
ATOM     39  C   UNL A   1      42.183  28.023  28.613  1.00  0.00     0.074 A 
ATOM     40  C   UNL A   1      42.975  30.340  28.970  1.00  0.00     0.049 A 
ATOM     41  N   UNL A   1      43.233  27.471  28.065  1.00  0.00    -0.248 NA
ATOM     42  C   UNL A   1      41.038  27.110  28.780  1.00  0.00     0.031 C 
ATOM     43  C   UNL A   1      42.897  31.741  29.376  1.00  0.00     0.029 A 
ATOM     44  N   UNL A   1      44.249  30.199  28.480  1.00  0.00    -0.354 N 
ATOM     45  C   UNL A   1      42.876  26.152  27.818  1.00  0.00     0.074 A 
ATOM     46  C   UNL A   1      41.522  25.976  28.296  1.00  0.00     0.031 C 
ATOM     47  C   UNL A   1      44.080  32.333  29.127  1.00  0.00     0.029 A 
ATOM     48  C   UNL A   1      45.001  31.345  28.565  1.00  0.00     0.049 A 
ATOM     49  H   UNL A   1      44.591  29.357  28.102  1.00  0.00     0.167 HD
ATOM     50  C   UNL A   1      43.608  25.170  27.241  1.00  0.00     0.031 A 
ATOM     51  C   UNL A   1      46.289  31.564  28.240  1.00  0.00     0.031 A 
ATOM     52  C   UNL A   1      44.964  25.331  26.799  1.00  0.00     0.049 A 
ATOM     53  C   UNL A   1      47.109  30.438  27.666  1.00  0.00     0.074 A 
ATOM     54  C   UNL A   1      45.791  24.400  26.198  1.00  0.00     0.029 A 
ATOM     55  N   UNL A   1      45.699  26.500  26.926  1.00  0.00    -0.354 N 
ATOM     56  N   UNL A   1      46.744  29.206  27.399  1.00  0.00    -0.248 NA
ATOM     57  C   UNL A   1      48.512  30.733  27.345  1.00  0.00     0.031 C 
ATOM     58  C   UNL A   1      47.042  24.995  25.998  1.00  0.00     0.029 A 
ATOM     59  C   UNL A   1      46.978  26.308  26.437  1.00  0.00     0.049 A 
ATOM     60  H   UNL A   1      45.360  27.341  27.310  1.00  0.00     0.167 HD
ATOM     61  C   UNL A   1      47.866  28.587  26.857  1.00  0.00     0.074 A 
ATOM     62  C   UNL A   1      48.919  29.582  26.828  1.00  0.00     0.031 C 
ATOM     63  C   UNL A   1      48.010  27.313  26.418  1.00  0.00     0.031 A 
BRANCH  50  64
ATOM     64  C   UNL A   1      42.950  23.829  27.091  1.00  0.00    -0.014 A 
ATOM     65  C   UNL A   1      43.053  22.859  28.104  1.00  0.00     0.010 A 
ATOM     66  C   UNL A   1      42.226  23.532  25.923  1.00  0.00     0.010 A 
ATOM     67  C   UNL A   1      42.475  21.598  27.935  1.00  0.00     0.020 A 
ATOM     68  C   UNL A   1      41.631  22.279  25.758  1.00  0.00     0.020 A 
ATOM     69  C   UNL A   1      41.775  21.313  26.757  1.00  0.00     0.054 A 
BRANCH  69  70
ATOM     70  S   UNL A   1      41.033  19.670  26.559  1.00  0.00     0.124 S 
ATOM     71  O   UNL A   1      42.050  18.975  25.776  1.00  0.00    -0.237 OA
ATOM     72  O   UNL A   1      40.883  19.214  27.938  1.00  0.00    -0.237 OA
ATOM     73  O   UNL A   1      39.781  19.941  25.856  1.00  0.00    -0.744 OA
ENDBRANCH  69  70
ENDBRANCH  50  64
BRANCH  51  74
ATOM     74  C   UNL A   1      46.894  32.904  28.458  1.00  0.00    -0.014 A 
ATOM     75  C   UNL A   1      47.445  33.245  29.705  1.00  0.00     0.010 A 
ATOM     76  C   UNL A   1      46.920  33.848  27.415  1.00  0.00     0.010 A 
ATOM     77  C   UNL A   1      48.003  34.511  29.910  1.00  0.00     0.020 A 
ATOM     78  C   UNL A   1      47.494  35.107  27.611  1.00  0.00     0.020 A 
ATOM     79  C   UNL A   1      48.025  35.434  28.861  1.00  0.00     0.054 A 
BRANCH  79  80
ATOM     80  S   UNL A   1      48.805  37.050  29.128  1.00  0.00     0.124 S 
ATOM     81  O   UNL A   1      50.221  36.732  28.977  1.00  0.00    -0.237 OA
ATOM     82  O   UNL A   1      48.221  37.865  28.065  1.00  0.00    -0.237 OA
ATOM     83  O   UNL A   1      48.382  37.412  30.479  1.00  0.00    -0.744 OA
ENDBRANCH  79  80
ENDBRANCH  51  74
BRANCH  63  84
ATOM     84  C   UNL A   1      49.344  26.926  25.842  1.00  0.00    -0.014 A 
ATOM     85  C   UNL A   1      49.614  27.078  24.471  1.00  0.00     0.010 A 
ATOM     86  C   UNL A   1      50.362  26.468  26.698  1.00  0.00     0.010 A 
ATOM     87  C   UNL A   1      50.875  26.756  23.962  1.00  0.00     0.020 A 
ATOM     88  C   UNL A   1      51.629  26.165  26.197  1.00  0.00     0.020 A 
ATOM     89  C   UNL A   1      51.874  26.300  24.828  1.00  0.00     0.054 A 
BRANCH  89  90
ATOM     90  S   UNL A   1      53.521  25.938  24.157  1.00  0.00     0.124 S 
ATOM     91  O   UNL A   1      53.292  26.042  22.719  1.00  0.00    -0.237 OA
ATOM     92  O   UNL A   1      54.348  26.992  24.740  1.00  0.00    -0.237 OA
ATOM     93  O   UNL A   1      53.805  24.592  24.649  1.00  0.00    -0.744 OA
ENDBRANCH  89  90
ENDBRANCH  63  84
ENDBRANCH  37  38
ENDBRANCH  30  32
ENDBRANCH  29  30
ENDBRANCH  28  29
ENDBRANCH  27  28
ENDBRANCH  26  27
ENDBRANCH  25  26
ENDBRANCH   1  25
TORSDOF 25
ENDMDL
