MODEL 1
REMARK VINA RESULT:     -10.2      0.000      0.000
REMARK SMILES Cc1ccc(Nc2c(C)cccc2Cl)c(CC(=O)OCCOCCOCCOCCOC(=O)c2ccc(-c3c4nc(c(-c5ccc(S(=O)(=O)[O-])cc5)c5ccc([nH]5)c(-c5ccc(S(=O)(=O)[O-])cc5)c5nc(c(-c6ccc(S(=O)(=O)[O-])cc6)c6ccc3[nH]6)C=C5)C=C4)cc2)c1
REMARK SMILES IDX 25 1 24 2 23 3 22 4 21 5 20 6 19 7 17 8 18 9 16 10 15 11
REMARK SMILES IDX 1 12 2 13 3 14 94 15 4 16 5 17 6 18 7 20 8 21 13 22 9 23
REMARK SMILES IDX 10 24 12 25 14 26 11 27 26 28 27 29 28 30 29 31 30 32 31 33
REMARK SMILES IDX 32 34 33 35 34 36 35 37 93 38 36 39 92 40 37 41 38 42 39 43
REMARK SMILES IDX 86 44 40 45 91 46 85 47 87 48 41 49 90 50 84 51 83 52 42 54
REMARK SMILES IDX 72 55 53 56 71 57 54 58 57 59 70 60 88 61 55 62 56 63 69 65
REMARK SMILES IDX 89 66 58 67 43 68 44 69 52 70 45 71 51 72 46 73 47 74 48 75
REMARK SMILES IDX 49 76 50 77 73 78 74 79 82 80 75 81 81 82 76 83 77 84 78 85
REMARK SMILES IDX 79 86 80 87 59 88 60 89 68 90 61 91 67 92 62 93 63 94 64 95
REMARK SMILES IDX 65 96 66 97
REMARK H PARENT 6 19 87 53 57 64
REMARK Flexibility Score: inf
ROOT
ATOM      1  O   UNL A   1      32.305  29.277  24.158  1.00  0.00    -0.377 OA
ENDROOT
BRANCH   1   2
ATOM      2  C   UNL A   1      31.112  28.973  23.421  1.00  0.00     0.188 C 
BRANCH   2   3
ATOM      3  C   UNL A   1      30.488  27.684  23.867  1.00  0.00     0.188 C 
BRANCH   3   4
ATOM      4  O   UNL A   1      30.874  26.422  23.393  1.00  0.00    -0.376 OA
BRANCH   4   5
ATOM      5  C   UNL A   1      31.759  26.430  22.305  1.00  0.00     0.202 C 
BRANCH   5   6
ATOM      6  C   UNL A   1      33.296  26.331  22.483  1.00  0.00     0.261 C 
BRANCH   6   7
ATOM      7  O   UNL A   1      33.796  26.017  23.790  1.00  0.00    -0.463 OA
BRANCH   7   8
ATOM      8  C   UNL A   1      34.435  24.821  23.852  1.00  0.00     0.310 C 
ATOM      9  O   UNL A   1      34.622  24.086  22.888  1.00  0.00    -0.252 OA
BRANCH   8  10
ATOM     10  C   UNL A   1      34.841  24.402  25.244  1.00  0.00     0.160 C 
BRANCH  10  11
ATOM     11  C   UNL A   1      36.143  23.649  25.471  1.00  0.00    -0.013 A 
ATOM     12  C   UNL A   1      39.376  24.587  27.349  1.00  0.00     0.044 C 
ATOM     13  C   UNL A   1      38.375  23.825  26.530  1.00  0.00    -0.051 A 
ATOM     14  C   UNL A   1      38.624  22.511  26.162  1.00  0.00     0.005 A 
ATOM     15  C   UNL A   1      37.153  24.390  26.158  1.00  0.00     0.009 A 
ATOM     16  C   UNL A   1      37.674  21.787  25.424  1.00  0.00     0.026 A 
ATOM     17  C   UNL A   1      36.406  22.304  25.071  1.00  0.00     0.042 A 
BRANCH  17  18
ATOM     18  N   UNL A   1      35.462  21.486  24.331  1.00  0.00    -0.354 N 
ATOM     19  H   UNL A   1      35.296  21.755  23.398  1.00  0.00     0.167 HD
BRANCH  18  20
ATOM     20  C   UNL A   1      34.736  20.322  24.796  1.00  0.00     0.060 A 
ATOM     21  C   UNL A   1      35.326  19.050  24.716  1.00  0.00    -0.026 A 
ATOM     22  C   UNL A   1      33.366  20.346  25.180  1.00  0.00     0.064 A 
ATOM     23  C   UNL A   1      36.821  18.903  24.744  1.00  0.00     0.046 C 
ATOM     24  C   UNL A   1      34.534  17.882  24.745  1.00  0.00     0.005 A 
ATOM     25  C   UNL A   1      32.574  19.184  25.164  1.00  0.00     0.023 A 
ATOM     26  Cl  UNL A   1      32.604  21.744  25.866  1.00  0.00    -0.082 Cl
ATOM     27  C   UNL A   1      33.154  17.951  24.906  1.00  0.00     0.002 A 
ENDBRANCH  18  20
ENDBRANCH  17  18
ENDBRANCH  10  11
ENDBRANCH   8  10
ENDBRANCH   7   8
ENDBRANCH   6   7
ENDBRANCH   5   6
ENDBRANCH   4   5
ENDBRANCH   3   4
ENDBRANCH   2   3
ENDBRANCH   1   2
BRANCH   1  28
ATOM     28  C   UNL A   1      32.115  29.146  25.573  1.00  0.00     0.188 C 
BRANCH  28  29
ATOM     29  C   UNL A   1      32.253  30.419  26.394  1.00  0.00     0.188 C 
BRANCH  29  30
ATOM     30  O   UNL A   1      33.126  30.153  27.476  1.00  0.00    -0.376 OA
BRANCH  30  31
ATOM     31  C   UNL A   1      34.311  30.914  27.526  1.00  0.00     0.202 C 
BRANCH  31  32
ATOM     32  C   UNL A   1      35.419  30.041  28.098  1.00  0.00     0.261 C 
BRANCH  32  33
ATOM     33  O   UNL A   1      36.692  30.508  27.593  1.00  0.00    -0.460 OA
BRANCH  33  34
ATOM     34  C   UNL A   1      37.566  30.926  28.555  1.00  0.00     0.338 C 
ATOM     35  O   UNL A   1      37.321  31.829  29.344  1.00  0.00    -0.246 OA
BRANCH  34  36
ATOM     36  C   UNL A   1      38.823  30.121  28.538  1.00  0.00     0.060 A 
ATOM     37  C   UNL A   1      39.794  30.269  29.543  1.00  0.00     0.016 A 
ATOM     38  C   UNL A   1      39.106  29.311  27.449  1.00  0.00     0.016 A 
ATOM     39  C   UNL A   1      41.097  29.748  29.381  1.00  0.00     0.010 A 
ATOM     40  C   UNL A   1      40.384  28.784  27.306  1.00  0.00     0.010 A 
ATOM     41  C   UNL A   1      41.429  29.058  28.217  1.00  0.00    -0.014 A 
BRANCH  41  42
ATOM     42  C   UNL A   1      42.809  28.737  27.728  1.00  0.00     0.031 A 
ATOM     43  C   UNL A   1      43.654  29.881  27.196  1.00  0.00     0.074 A 
ATOM     44  C   UNL A   1      43.375  27.571  28.156  1.00  0.00     0.049 A 
ATOM     45  N   UNL A   1      44.902  29.821  26.851  1.00  0.00    -0.248 NA
ATOM     46  C   UNL A   1      43.110  31.231  26.970  1.00  0.00     0.031 C 
ATOM     47  C   UNL A   1      44.687  27.348  28.768  1.00  0.00     0.029 A 
ATOM     48  N   UNL A   1      42.851  26.298  28.280  1.00  0.00    -0.354 N 
ATOM     49  C   UNL A   1      45.384  31.128  26.737  1.00  0.00     0.074 A 
ATOM     50  C   UNL A   1      44.206  31.956  26.713  1.00  0.00     0.031 C 
ATOM     51  C   UNL A   1      44.939  26.054  28.982  1.00  0.00     0.029 A 
ATOM     52  C   UNL A   1      43.875  25.345  28.365  1.00  0.00     0.049 A 
ATOM     53  H   UNL A   1      41.889  26.088  28.305  1.00  0.00     0.167 HD
ATOM     54  C   UNL A   1      46.726  31.397  26.853  1.00  0.00     0.031 A 
ATOM     55  C   UNL A   1      44.082  24.395  27.419  1.00  0.00     0.031 A 
ATOM     56  C   UNL A   1      47.557  30.169  26.875  1.00  0.00     0.049 A 
ATOM     57  C   UNL A   1      45.293  24.724  26.530  1.00  0.00     0.074 A 
ATOM     58  C   UNL A   1      48.717  29.774  27.523  1.00  0.00     0.029 A 
ATOM     59  N   UNL A   1      47.139  29.037  26.177  1.00  0.00    -0.354 N 
ATOM     60  N   UNL A   1      46.042  25.806  26.632  1.00  0.00    -0.248 NA
ATOM     61  C   UNL A   1      45.755  23.862  25.447  1.00  0.00     0.031 C 
ATOM     62  C   UNL A   1      48.948  28.393  27.250  1.00  0.00     0.029 A 
ATOM     63  C   UNL A   1      47.972  27.962  26.370  1.00  0.00     0.049 A 
ATOM     64  H   UNL A   1      46.335  29.010  25.609  1.00  0.00     0.167 HD
ATOM     65  C   UNL A   1      46.996  25.828  25.642  1.00  0.00     0.074 A 
ATOM     66  C   UNL A   1      46.760  24.586  24.922  1.00  0.00     0.031 C 
ATOM     67  C   UNL A   1      47.899  26.842  25.445  1.00  0.00     0.031 A 
BRANCH  54  68
ATOM     68  C   UNL A   1      47.330  32.786  27.197  1.00  0.00    -0.014 A 
ATOM     69  C   UNL A   1      48.124  33.455  26.234  1.00  0.00     0.010 A 
ATOM     70  C   UNL A   1      47.293  33.419  28.464  1.00  0.00     0.010 A 
ATOM     71  C   UNL A   1      48.879  34.611  26.517  1.00  0.00     0.020 A 
ATOM     72  C   UNL A   1      47.995  34.620  28.746  1.00  0.00     0.020 A 
ATOM     73  C   UNL A   1      48.811  35.195  27.775  1.00  0.00     0.054 A 
BRANCH  73  74
ATOM     74  S   UNL A   1      49.750  36.722  28.092  1.00  0.00     0.124 S 
ATOM     75  O   UNL A   1      49.072  37.699  27.243  1.00  0.00    -0.237 OA
ATOM     76  O   UNL A   1      49.573  36.917  29.530  1.00  0.00    -0.237 OA
ATOM     77  O   UNL A   1      51.112  36.384  27.684  1.00  0.00    -0.744 OA
ENDBRANCH  73  74
ENDBRANCH  54  68
BRANCH  55  78
ATOM     78  C   UNL A   1      42.801  23.642  27.210  1.00  0.00    -0.014 A 
ATOM     79  C   UNL A   1      42.583  23.291  25.847  1.00  0.00     0.010 A 
ATOM     80  C   UNL A   1      42.389  22.723  28.198  1.00  0.00     0.010 A 
ATOM     81  C   UNL A   1      42.281  21.971  25.484  1.00  0.00     0.020 A 
ATOM     82  C   UNL A   1      42.074  21.396  27.831  1.00  0.00     0.020 A 
ATOM     83  C   UNL A   1      42.092  21.016  26.482  1.00  0.00     0.054 A 
BRANCH  83  84
ATOM     84  S   UNL A   1      42.171  19.253  26.009  1.00  0.00     0.124 S 
ATOM     85  O   UNL A   1      40.796  18.974  25.614  1.00  0.00    -0.237 OA
ATOM     86  O   UNL A   1      43.150  19.258  24.924  1.00  0.00    -0.237 OA
ATOM     87  O   UNL A   1      42.621  18.608  27.238  1.00  0.00    -0.744 OA
ENDBRANCH  83  84
ENDBRANCH  55  78
BRANCH  67  88
ATOM     88  C   UNL A   1      48.823  26.977  24.250  1.00  0.00    -0.014 A 
ATOM     89  C   UNL A   1      50.189  26.697  24.266  1.00  0.00     0.010 A 
ATOM     90  C   UNL A   1      48.286  27.484  23.033  1.00  0.00     0.010 A 
ATOM     91  C   UNL A   1      50.947  26.771  23.088  1.00  0.00     0.020 A 
ATOM     92  C   UNL A   1      49.037  27.607  21.868  1.00  0.00     0.020 A 
ATOM     93  C   UNL A   1      50.358  27.196  21.892  1.00  0.00     0.054 A 
BRANCH  93  94
ATOM     94  S   UNL A   1      51.336  27.205  20.373  1.00  0.00     0.124 S 
ATOM     95  O   UNL A   1      52.212  26.050  20.552  1.00  0.00    -0.237 OA
ATOM     96  O   UNL A   1      50.301  27.054  19.354  1.00  0.00    -0.237 OA
ATOM     97  O   UNL A   1      52.007  28.502  20.394  1.00  0.00    -0.744 OA
ENDBRANCH  93  94
ENDBRANCH  67  88
ENDBRANCH  41  42
ENDBRANCH  34  36
ENDBRANCH  33  34
ENDBRANCH  32  33
ENDBRANCH  31  32
ENDBRANCH  30  31
ENDBRANCH  29  30
ENDBRANCH  28  29
ENDBRANCH   1  28
TORSDOF 26
ENDMDL
MODEL 2
REMARK VINA RESULT:     -10.1      4.117      8.280
REMARK SMILES Cc1ccc(Nc2c(C)cccc2Cl)c(CC(=O)OCCOCCOCCOCCOC(=O)c2ccc(-c3c4nc(c(-c5ccc(S(=O)(=O)[O-])cc5)c5ccc([nH]5)c(-c5ccc(S(=O)(=O)[O-])cc5)c5nc(c(-c6ccc(S(=O)(=O)[O-])cc6)c6ccc3[nH]6)C=C5)C=C4)cc2)c1
REMARK SMILES IDX 25 1 24 2 23 3 22 4 21 5 20 6 19 7 17 8 18 9 16 10 15 11
REMARK SMILES IDX 1 12 2 13 3 14 94 15 4 16 5 17 6 18 7 20 8 21 13 22 9 23
REMARK SMILES IDX 10 24 12 25 14 26 11 27 26 28 27 29 28 30 29 31 30 32 31 33
REMARK SMILES IDX 32 34 33 35 34 36 35 37 93 38 36 39 92 40 37 41 38 42 39 43
REMARK SMILES IDX 86 44 40 45 91 46 85 47 87 48 41 49 90 50 84 51 83 52 42 54
REMARK SMILES IDX 72 55 53 56 71 57 54 58 57 59 70 60 88 61 55 62 56 63 69 65
REMARK SMILES IDX 89 66 58 67 43 68 44 69 52 70 45 71 51 72 46 73 47 74 48 75
REMARK SMILES IDX 49 76 50 77 73 78 74 79 82 80 75 81 81 82 76 83 77 84 78 85
REMARK SMILES IDX 79 86 80 87 59 88 60 89 68 90 61 91 67 92 62 93 63 94 64 95
REMARK SMILES IDX 65 96 66 97
REMARK H PARENT 6 19 87 53 57 64
REMARK Flexibility Score: inf
ROOT
ATOM      1  O   UNL A   1      31.918  28.663  23.351  1.00  0.00    -0.377 OA
ENDROOT
BRANCH   1   2
ATOM      2  C   UNL A   1      31.194  27.789  22.473  1.00  0.00     0.188 C 
BRANCH   2   3
ATOM      3  C   UNL A   1      30.073  27.086  23.178  1.00  0.00     0.188 C 
BRANCH   3   4
ATOM      4  O   UNL A   1      30.075  25.717  23.483  1.00  0.00    -0.376 OA
BRANCH   4   5
ATOM      5  C   UNL A   1      31.326  25.174  23.813  1.00  0.00     0.202 C 
BRANCH   5   6
ATOM      6  C   UNL A   1      31.812  25.036  25.279  1.00  0.00     0.261 C 
BRANCH   6   7
ATOM      7  O   UNL A   1      32.560  23.862  25.626  1.00  0.00    -0.463 OA
BRANCH   7   8
ATOM      8  C   UNL A   1      32.379  23.466  26.911  1.00  0.00     0.310 C 
ATOM      9  O   UNL A   1      31.479  23.871  27.639  1.00  0.00    -0.252 OA
BRANCH   8  10
ATOM     10  C   UNL A   1      33.440  22.527  27.429  1.00  0.00     0.160 C 
BRANCH  10  11
ATOM     11  C   UNL A   1      34.702  22.268  26.619  1.00  0.00    -0.013 A 
ATOM     12  C   UNL A   1      38.007  24.224  26.290  1.00  0.00     0.044 C 
ATOM     13  C   UNL A   1      36.943  23.183  26.097  1.00  0.00    -0.051 A 
ATOM     14  C   UNL A   1      37.201  22.046  25.343  1.00  0.00     0.005 A 
ATOM     15  C   UNL A   1      35.690  23.296  26.702  1.00  0.00     0.009 A 
ATOM     16  C   UNL A   1      36.218  21.057  25.188  1.00  0.00     0.026 A 
ATOM     17  C   UNL A   1      34.956  21.109  25.825  1.00  0.00     0.042 A 
BRANCH  17  18
ATOM     18  N   UNL A   1      33.999  20.033  25.642  1.00  0.00    -0.354 N 
ATOM     19  H   UNL A   1      33.532  19.728  26.453  1.00  0.00     0.167 HD
BRANCH  18  20
ATOM     20  C   UNL A   1      33.646  19.354  24.412  1.00  0.00     0.060 A 
ATOM     21  C   UNL A   1      32.750  19.954  23.512  1.00  0.00    -0.026 A 
ATOM     22  C   UNL A   1      34.014  18.012  24.116  1.00  0.00     0.064 A 
ATOM     23  C   UNL A   1      32.616  21.450  23.457  1.00  0.00     0.046 C 
ATOM     24  C   UNL A   1      32.061  19.182  22.552  1.00  0.00     0.005 A 
ATOM     25  C   UNL A   1      33.295  17.235  23.189  1.00  0.00     0.023 A 
ATOM     26  Cl  UNL A   1      35.463  17.277  24.719  1.00  0.00    -0.082 Cl
ATOM     27  C   UNL A   1      32.287  17.814  22.433  1.00  0.00     0.002 A 
ENDBRANCH  18  20
ENDBRANCH  17  18
ENDBRANCH  10  11
ENDBRANCH   8  10
ENDBRANCH   7   8
ENDBRANCH   6   7
ENDBRANCH   5   6
ENDBRANCH   4   5
ENDBRANCH   3   4
ENDBRANCH   2   3
ENDBRANCH   1   2
BRANCH   1  28
ATOM     28  C   UNL A   1      31.277  28.800  24.627  1.00  0.00     0.188 C 
BRANCH  28  29
ATOM     29  C   UNL A   1      31.630  30.043  25.430  1.00  0.00     0.188 C 
BRANCH  29  30
ATOM     30  O   UNL A   1      32.178  29.628  26.667  1.00  0.00    -0.376 OA
BRANCH  30  31
ATOM     31  C   UNL A   1      33.324  30.320  27.107  1.00  0.00     0.202 C 
BRANCH  31  32
ATOM     32  C   UNL A   1      34.489  29.341  27.149  1.00  0.00     0.261 C 
BRANCH  32  33
ATOM     33  O   UNL A   1      35.729  30.089  27.155  1.00  0.00    -0.460 OA
BRANCH  33  34
ATOM     34  C   UNL A   1      36.339  30.168  28.374  1.00  0.00     0.338 C 
ATOM     35  O   UNL A   1      35.905  30.835  29.305  1.00  0.00    -0.246 OA
BRANCH  34  36
ATOM     36  C   UNL A   1      37.563  29.316  28.428  1.00  0.00     0.060 A 
ATOM     37  C   UNL A   1      37.882  28.575  29.578  1.00  0.00     0.016 A 
ATOM     38  C   UNL A   1      38.474  29.354  27.383  1.00  0.00     0.016 A 
ATOM     39  C   UNL A   1      39.168  28.016  29.752  1.00  0.00     0.010 A 
ATOM     40  C   UNL A   1      39.730  28.784  27.553  1.00  0.00     0.010 A 
ATOM     41  C   UNL A   1      40.136  28.180  28.764  1.00  0.00    -0.014 A 
BRANCH  41  42
ATOM     42  C   UNL A   1      41.612  27.962  28.910  1.00  0.00     0.031 A 
ATOM     43  C   UNL A   1      42.137  26.546  28.749  1.00  0.00     0.074 A 
ATOM     44  C   UNL A   1      42.427  29.046  28.760  1.00  0.00     0.049 A 
ATOM     45  N   UNL A   1      43.381  26.185  28.716  1.00  0.00    -0.248 NA
ATOM     46  C   UNL A   1      41.247  25.376  28.650  1.00  0.00     0.031 C 
ATOM     47  C   UNL A   1      43.608  29.208  27.907  1.00  0.00     0.029 A 
ATOM     48  N   UNL A   1      42.317  30.340  29.236  1.00  0.00    -0.354 N 
ATOM     49  C   UNL A   1      43.440  24.875  28.231  1.00  0.00     0.074 A 
ATOM     50  C   UNL A   1      42.087  24.390  28.314  1.00  0.00     0.031 C 
ATOM     51  C   UNL A   1      44.210  30.387  28.083  1.00  0.00     0.029 A 
ATOM     52  C   UNL A   1      43.555  30.995  29.187  1.00  0.00     0.049 A 
ATOM     53  H   UNL A   1      41.483  30.746  29.564  1.00  0.00     0.167 HD
ATOM     54  C   UNL A   1      44.584  24.391  27.646  1.00  0.00     0.031 A 
ATOM     55  C   UNL A   1      44.220  31.404  30.296  1.00  0.00     0.031 A 
ATOM     56  C   UNL A   1      45.741  25.306  27.803  1.00  0.00     0.049 A 
ATOM     57  C   UNL A   1      45.407  30.485  30.626  1.00  0.00     0.074 A 
ATOM     58  C   UNL A   1      46.827  25.668  27.021  1.00  0.00     0.029 A 
ATOM     59  N   UNL A   1      45.835  26.116  28.935  1.00  0.00    -0.354 N 
ATOM     60  N   UNL A   1      45.746  29.404  29.949  1.00  0.00    -0.248 NA
ATOM     61  C   UNL A   1      46.307  30.705  31.753  1.00  0.00     0.031 C 
ATOM     62  C   UNL A   1      47.526  26.729  27.669  1.00  0.00     0.029 A 
ATOM     63  C   UNL A   1      46.914  26.964  28.886  1.00  0.00     0.049 A 
ATOM     64  H   UNL A   1      45.199  26.083  29.685  1.00  0.00     0.167 HD
ATOM     65  C   UNL A   1      46.809  28.771  30.548  1.00  0.00     0.074 A 
ATOM     66  C   UNL A   1      47.112  29.629  31.684  1.00  0.00     0.031 C 
ATOM     67  C   UNL A   1      47.367  27.594  30.116  1.00  0.00     0.031 A 
BRANCH  54  68
ATOM     68  C   UNL A   1      44.647  23.169  26.689  1.00  0.00    -0.014 A 
ATOM     69  C   UNL A   1      43.467  22.430  26.431  1.00  0.00     0.010 A 
ATOM     70  C   UNL A   1      45.822  22.602  26.138  1.00  0.00     0.010 A 
ATOM     71  C   UNL A   1      43.456  21.196  25.750  1.00  0.00     0.020 A 
ATOM     72  C   UNL A   1      45.819  21.395  25.392  1.00  0.00     0.020 A 
ATOM     73  C   UNL A   1      44.635  20.681  25.226  1.00  0.00     0.054 A 
BRANCH  73  74
ATOM     74  S   UNL A   1      44.580  19.116  24.298  1.00  0.00     0.124 S 
ATOM     75  O   UNL A   1      43.470  18.407  24.930  1.00  0.00    -0.237 OA
ATOM     76  O   UNL A   1      44.337  19.561  22.928  1.00  0.00    -0.237 OA
ATOM     77  O   UNL A   1      45.900  18.529  24.525  1.00  0.00    -0.744 OA
ENDBRANCH  73  74
ENDBRANCH  54  68
BRANCH  55  78
ATOM     78  C   UNL A   1      43.301  32.267  31.111  1.00  0.00    -0.014 A 
ATOM     79  C   UNL A   1      43.098  33.553  30.535  1.00  0.00     0.010 A 
ATOM     80  C   UNL A   1      42.209  31.661  31.766  1.00  0.00     0.010 A 
ATOM     81  C   UNL A   1      41.804  34.055  30.335  1.00  0.00     0.020 A 
ATOM     82  C   UNL A   1      40.907  32.172  31.573  1.00  0.00     0.020 A 
ATOM     83  C   UNL A   1      40.712  33.326  30.801  1.00  0.00     0.054 A 
BRANCH  83  84
ATOM     84  S   UNL A   1      39.060  33.736  30.135  1.00  0.00     0.124 S 
ATOM     85  O   UNL A   1      38.635  32.470  29.551  1.00  0.00    -0.237 OA
ATOM     86  O   UNL A   1      38.330  34.156  31.329  1.00  0.00    -0.237 OA
ATOM     87  O   UNL A   1      39.351  34.806  29.186  1.00  0.00    -0.744 OA
ENDBRANCH  83  84
ENDBRANCH  55  78
BRANCH  67  88
ATOM     88  C   UNL A   1      48.404  26.784  30.870  1.00  0.00    -0.014 A 
ATOM     89  C   UNL A   1      48.179  26.141  32.087  1.00  0.00     0.010 A 
ATOM     90  C   UNL A   1      49.725  26.719  30.344  1.00  0.00     0.010 A 
ATOM     91  C   UNL A   1      49.176  25.344  32.668  1.00  0.00     0.020 A 
ATOM     92  C   UNL A   1      50.739  25.971  30.936  1.00  0.00     0.020 A 
ATOM     93  C   UNL A   1      50.438  25.241  32.072  1.00  0.00     0.054 A 
BRANCH  93  94
ATOM     94  S   UNL A   1      51.678  24.146  32.798  1.00  0.00     0.124 S 
ATOM     95  O   UNL A   1      52.931  24.710  32.302  1.00  0.00    -0.237 OA
ATOM     96  O   UNL A   1      51.431  24.325  34.226  1.00  0.00    -0.237 OA
ATOM     97  O   UNL A   1      51.338  22.828  32.267  1.00  0.00    -0.744 OA
ENDBRANCH  93  94
ENDBRANCH  67  88
ENDBRANCH  41  42
ENDBRANCH  34  36
ENDBRANCH  33  34
ENDBRANCH  32  33
ENDBRANCH  31  32
ENDBRANCH  30  31
ENDBRANCH  29  30
ENDBRANCH  28  29
ENDBRANCH   1  28
TORSDOF 26
ENDMDL
MODEL 3
REMARK VINA RESULT:      -9.7      4.907      9.450
REMARK SMILES Cc1ccc(Nc2c(C)cccc2Cl)c(CC(=O)OCCOCCOCCOCCOC(=O)c2ccc(-c3c4nc(c(-c5ccc(S(=O)(=O)[O-])cc5)c5ccc([nH]5)c(-c5ccc(S(=O)(=O)[O-])cc5)c5nc(c(-c6ccc(S(=O)(=O)[O-])cc6)c6ccc3[nH]6)C=C5)C=C4)cc2)c1
REMARK SMILES IDX 25 1 24 2 23 3 22 4 21 5 20 6 19 7 17 8 18 9 16 10 15 11
REMARK SMILES IDX 1 12 2 13 3 14 94 15 4 16 5 17 6 18 7 20 8 21 13 22 9 23
REMARK SMILES IDX 10 24 12 25 14 26 11 27 26 28 27 29 28 30 29 31 30 32 31 33
REMARK SMILES IDX 32 34 33 35 34 36 35 37 93 38 36 39 92 40 37 41 38 42 39 43
REMARK SMILES IDX 86 44 40 45 91 46 85 47 87 48 41 49 90 50 84 51 83 52 42 54
REMARK SMILES IDX 72 55 53 56 71 57 54 58 57 59 70 60 88 61 55 62 56 63 69 65
REMARK SMILES IDX 89 66 58 67 43 68 44 69 52 70 45 71 51 72 46 73 47 74 48 75
REMARK SMILES IDX 49 76 50 77 73 78 74 79 82 80 75 81 81 82 76 83 77 84 78 85
REMARK SMILES IDX 79 86 80 87 59 88 60 89 68 90 61 91 67 92 62 93 63 94 64 95
REMARK SMILES IDX 65 96 66 97
REMARK H PARENT 6 19 87 53 57 64
REMARK Flexibility Score: inf
ROOT
ATOM      1  O   UNL A   1      33.005  27.687  23.484  1.00  0.00    -0.377 OA
ENDROOT
BRANCH   1   2
ATOM      2  C   UNL A   1      32.687  26.961  22.288  1.00  0.00     0.188 C 
BRANCH   2   3
ATOM      3  C   UNL A   1      33.275  25.581  22.295  1.00  0.00     0.188 C 
BRANCH   3   4
ATOM      4  O   UNL A   1      34.574  25.285  22.731  1.00  0.00    -0.376 OA
BRANCH   4   5
ATOM      5  C   UNL A   1      34.681  24.857  24.063  1.00  0.00     0.202 C 
BRANCH   5   6
ATOM      6  C   UNL A   1      35.978  24.226  24.632  1.00  0.00     0.261 C 
BRANCH   6   7
ATOM      7  O   UNL A   1      35.845  23.078  25.480  1.00  0.00    -0.463 OA
BRANCH   7   8
ATOM      8  C   UNL A   1      36.256  21.923  24.896  1.00  0.00     0.310 C 
ATOM      9  O   UNL A   1      37.040  21.866  23.954  1.00  0.00    -0.252 OA
BRANCH   8  10
ATOM     10  C   UNL A   1      35.601  20.679  25.444  1.00  0.00     0.160 C 
BRANCH  10  11
ATOM     11  C   UNL A   1      34.445  20.027  24.701  1.00  0.00    -0.013 A 
ATOM     12  C   UNL A   1      33.585  16.338  23.989  1.00  0.00     0.044 C 
ATOM     13  C   UNL A   1      33.520  17.837  24.006  1.00  0.00    -0.051 A 
ATOM     14  C   UNL A   1      32.413  18.498  23.493  1.00  0.00     0.005 A 
ATOM     15  C   UNL A   1      34.536  18.607  24.578  1.00  0.00     0.009 A 
ATOM     16  C   UNL A   1      32.337  19.898  23.538  1.00  0.00     0.026 A 
ATOM     17  C   UNL A   1      33.319  20.711  24.152  1.00  0.00     0.042 A 
BRANCH  17  18
ATOM     18  N   UNL A   1      33.157  22.153  24.187  1.00  0.00    -0.354 N 
ATOM     19  H   UNL A   1      33.777  22.671  23.623  1.00  0.00     0.167 HD
BRANCH  18  20
ATOM     20  C   UNL A   1      32.197  22.924  24.949  1.00  0.00     0.060 A 
ATOM     21  C   UNL A   1      31.147  23.585  24.290  1.00  0.00    -0.026 A 
ATOM     22  C   UNL A   1      32.337  23.215  26.335  1.00  0.00     0.064 A 
ATOM     23  C   UNL A   1      30.628  23.066  22.978  1.00  0.00     0.046 C 
ATOM     24  C   UNL A   1      30.469  24.660  24.903  1.00  0.00     0.005 A 
ATOM     25  C   UNL A   1      31.691  24.315  26.929  1.00  0.00     0.023 A 
ATOM     26  Cl  UNL A   1      33.152  22.158  27.442  1.00  0.00    -0.082 Cl
ATOM     27  C   UNL A   1      30.783  25.065  26.197  1.00  0.00     0.002 A 
ENDBRANCH  18  20
ENDBRANCH  17  18
ENDBRANCH  10  11
ENDBRANCH   8  10
ENDBRANCH   7   8
ENDBRANCH   6   7
ENDBRANCH   5   6
ENDBRANCH   4   5
ENDBRANCH   3   4
ENDBRANCH   2   3
ENDBRANCH   1   2
BRANCH   1  28
ATOM     28  C   UNL A   1      32.202  28.866  23.631  1.00  0.00     0.188 C 
BRANCH  28  29
ATOM     29  C   UNL A   1      31.068  28.789  24.642  1.00  0.00     0.188 C 
BRANCH  29  30
ATOM     30  O   UNL A   1      31.598  29.085  25.921  1.00  0.00    -0.376 OA
BRANCH  30  31
ATOM     31  C   UNL A   1      32.002  30.418  26.138  1.00  0.00     0.202 C 
BRANCH  31  32
ATOM     32  C   UNL A   1      33.438  30.408  26.640  1.00  0.00     0.261 C 
BRANCH  32  33
ATOM     33  O   UNL A   1      33.577  31.404  27.682  1.00  0.00    -0.460 OA
BRANCH  33  34
ATOM     34  C   UNL A   1      34.824  31.949  27.783  1.00  0.00     0.338 C 
ATOM     35  O   UNL A   1      35.063  33.133  27.579  1.00  0.00    -0.246 OA
BRANCH  34  36
ATOM     36  C   UNL A   1      35.833  30.933  28.205  1.00  0.00     0.060 A 
ATOM     37  C   UNL A   1      35.630  30.139  29.347  1.00  0.00     0.016 A 
ATOM     38  C   UNL A   1      37.050  30.856  27.545  1.00  0.00     0.016 A 
ATOM     39  C   UNL A   1      36.690  29.402  29.920  1.00  0.00     0.010 A 
ATOM     40  C   UNL A   1      38.082  30.113  28.103  1.00  0.00     0.010 A 
ATOM     41  C   UNL A   1      37.956  29.441  29.341  1.00  0.00    -0.014 A 
BRANCH  41  42
ATOM     42  C   UNL A   1      39.246  29.015  29.974  1.00  0.00     0.031 A 
ATOM     43  C   UNL A   1      39.860  27.704  29.517  1.00  0.00     0.074 A 
ATOM     44  C   UNL A   1      39.995  29.978  30.588  1.00  0.00     0.049 A 
ATOM     45  N   UNL A   1      41.021  27.238  29.854  1.00  0.00    -0.248 NA
ATOM     46  C   UNL A   1      39.151  26.762  28.634  1.00  0.00     0.031 C 
ATOM     47  C   UNL A   1      41.414  30.300  30.413  1.00  0.00     0.029 A 
ATOM     48  N   UNL A   1      39.634  31.014  31.428  1.00  0.00    -0.354 N 
ATOM     49  C   UNL A   1      41.341  26.195  28.980  1.00  0.00     0.074 A 
ATOM     50  C   UNL A   1      40.102  25.873  28.320  1.00  0.00     0.031 C 
ATOM     51  C   UNL A   1      41.830  31.256  31.248  1.00  0.00     0.029 A 
ATOM     52  C   UNL A   1      40.745  31.494  32.133  1.00  0.00     0.049 A 
ATOM     53  H   UNL A   1      38.719  31.367  31.519  1.00  0.00     0.167 HD
ATOM     54  C   UNL A   1      42.648  25.827  28.770  1.00  0.00     0.031 A 
ATOM     55  C   UNL A   1      40.867  31.393  33.480  1.00  0.00     0.031 A 
ATOM     56  C   UNL A   1      43.587  26.482  29.712  1.00  0.00     0.049 A 
ATOM     57  C   UNL A   1      41.853  30.285  33.886  1.00  0.00     0.074 A 
ATOM     58  C   UNL A   1      44.881  26.974  29.634  1.00  0.00     0.029 A 
ATOM     59  N   UNL A   1      43.161  26.809  30.999  1.00  0.00    -0.354 N 
ATOM     60  N   UNL A   1      42.496  29.492  33.050  1.00  0.00    -0.248 NA
ATOM     61  C   UNL A   1      42.189  29.976  35.272  1.00  0.00     0.031 C 
ATOM     62  C   UNL A   1      45.193  27.640  30.857  1.00  0.00     0.029 A 
ATOM     63  C   UNL A   1      44.119  27.486  31.714  1.00  0.00     0.049 A 
ATOM     64  H   UNL A   1      42.272  26.580  31.356  1.00  0.00     0.167 HD
ATOM     65  C   UNL A   1      43.243  28.566  33.740  1.00  0.00     0.074 A 
ATOM     66  C   UNL A   1      43.002  28.912  35.133  1.00  0.00     0.031 C 
ATOM     67  C   UNL A   1      43.987  27.570  33.160  1.00  0.00     0.031 A 
BRANCH  54  68
ATOM     68  C   UNL A   1      43.163  25.037  27.536  1.00  0.00    -0.014 A 
ATOM     69  C   UNL A   1      43.681  23.731  27.716  1.00  0.00     0.010 A 
ATOM     70  C   UNL A   1      43.312  25.548  26.223  1.00  0.00     0.010 A 
ATOM     71  C   UNL A   1      44.356  23.017  26.705  1.00  0.00     0.020 A 
ATOM     72  C   UNL A   1      43.930  24.815  25.177  1.00  0.00     0.020 A 
ATOM     73  C   UNL A   1      44.476  23.560  25.432  1.00  0.00     0.054 A 
BRANCH  73  74
ATOM     74  S   UNL A   1      45.300  22.588  24.132  1.00  0.00     0.124 S 
ATOM     75  O   UNL A   1      44.255  22.457  23.119  1.00  0.00    -0.237 OA
ATOM     76  O   UNL A   1      46.428  23.440  23.759  1.00  0.00    -0.237 OA
ATOM     77  O   UNL A   1      45.670  21.345  24.806  1.00  0.00    -0.744 OA
ENDBRANCH  73  74
ENDBRANCH  54  68
BRANCH  55  78
ATOM     78  C   UNL A   1      39.651  32.001  34.116  1.00  0.00    -0.014 A 
ATOM     79  C   UNL A   1      39.526  33.394  33.844  1.00  0.00     0.010 A 
ATOM     80  C   UNL A   1      38.467  31.236  34.181  1.00  0.00     0.010 A 
ATOM     81  C   UNL A   1      38.328  33.923  33.341  1.00  0.00     0.020 A 
ATOM     82  C   UNL A   1      37.260  31.773  33.684  1.00  0.00     0.020 A 
ATOM     83  C   UNL A   1      37.220  33.090  33.204  1.00  0.00     0.054 A 
BRANCH  83  84
ATOM     84  S   UNL A   1      35.850  33.653  32.134  1.00  0.00     0.124 S 
ATOM     85  O   UNL A   1      36.462  33.641  30.811  1.00  0.00    -0.237 OA
ATOM     86  O   UNL A   1      34.827  32.635  32.364  1.00  0.00    -0.237 OA
ATOM     87  O   UNL A   1      35.537  34.971  32.676  1.00  0.00    -0.744 OA
ENDBRANCH  83  84
ENDBRANCH  55  78
BRANCH  67  88
ATOM     88  C   UNL A   1      44.655  26.427  33.901  1.00  0.00    -0.014 A 
ATOM     89  C   UNL A   1      46.032  26.289  34.072  1.00  0.00     0.010 A 
ATOM     90  C   UNL A   1      43.836  25.380  34.408  1.00  0.00     0.010 A 
ATOM     91  C   UNL A   1      46.553  25.241  34.846  1.00  0.00     0.020 A 
ATOM     92  C   UNL A   1      44.343  24.308  35.137  1.00  0.00     0.020 A 
ATOM     93  C   UNL A   1      45.702  24.277  35.397  1.00  0.00     0.054 A 
BRANCH  93  94
ATOM     94  S   UNL A   1      46.390  22.984  36.455  1.00  0.00     0.124 S 
ATOM     95  O   UNL A   1      46.316  23.587  37.783  1.00  0.00    -0.237 OA
ATOM     96  O   UNL A   1      45.464  21.881  36.214  1.00  0.00    -0.237 OA
ATOM     97  O   UNL A   1      47.742  22.788  35.937  1.00  0.00    -0.744 OA
ENDBRANCH  93  94
ENDBRANCH  67  88
ENDBRANCH  41  42
ENDBRANCH  34  36
ENDBRANCH  33  34
ENDBRANCH  32  33
ENDBRANCH  31  32
ENDBRANCH  30  31
ENDBRANCH  29  30
ENDBRANCH  28  29
ENDBRANCH   1  28
TORSDOF 26
ENDMDL
