MODEL 1
REMARK VINA RESULT:      -6.7      0.000      0.000
REMARK SMILES COc1ccccc1N1C(=O)[C@@H]2[C@@H](C1=O)[C@@](Cc1ccccc1)(C(=O)OCCOCCOCCOCCOC(=O)c1ccc(-c3c4nc(c(-c5ccc(S(=O)(=O)[O-])cc5)c5ccc([nH]5)c(-c5ccc(S(=O)(=O)[O-])cc5)c5nc(c(-c6ccc(S(=O)(=O)[O-])cc6)c6ccc3[nH]6)C=C5)C=C4)cc1)[NH2+][C@H]2c1ccc(C)cc1
REMARK SMILES IDX 33 1 32 2 31 3 30 4 29 5 28 6 27 7 26 8 24 9 25 10 16 11
REMARK SMILES IDX 9 12 10 13 14 14 11 15 12 16 13 17 15 18 102 19 101 20 8 23
REMARK SMILES IDX 3 24 4 25 5 26 7 27 6 28 2 29 1 30 103 31 104 32 109 33
REMARK SMILES IDX 105 34 108 35 106 36 107 37 17 38 18 39 19 40 23 41 20 42
REMARK SMILES IDX 22 43 21 44 34 45 35 46 36 47 37 48 38 49 39 50 40 51 41 52
REMARK SMILES IDX 42 53 100 54 43 55 99 56 44 57 45 58 46 59 93 60 47 61 98 62
REMARK SMILES IDX 92 63 94 64 48 65 97 66 91 67 90 68 49 70 79 71 60 72 78 73
REMARK SMILES IDX 61 74 64 75 77 76 95 77 62 78 63 79 76 81 96 82 65 83 50 84
REMARK SMILES IDX 51 85 59 86 52 87 58 88 53 89 54 90 55 91 56 92 57 93 80 94
REMARK SMILES IDX 81 95 89 96 82 97 88 98 83 99 84 100 85 101 86 102 87 103
REMARK SMILES IDX 66 104 67 105 75 106 68 107 74 108 69 109 70 110 71 111
REMARK SMILES IDX 72 112 73 113
REMARK H PARENT 101 21 101 22 94 69 64 80
REMARK Flexibility Score: inf
ROOT
ATOM      1  C   UNL A   1      46.617  25.290  25.107  1.00  0.00     0.188 C 
ENDROOT
BRANCH   1   2
ATOM      2  O   UNL A   1      47.141  26.193  24.147  1.00  0.00    -0.377 OA
BRANCH   2   3
ATOM      3  C   UNL A   1      48.099  27.104  24.649  1.00  0.00     0.188 C 
BRANCH   3   4
ATOM      4  C   UNL A   1      49.261  26.508  25.453  1.00  0.00     0.188 C 
BRANCH   4   5
ATOM      5  O   UNL A   1      49.949  27.476  26.252  1.00  0.00    -0.376 OA
BRANCH   5   6
ATOM      6  C   UNL A   1      49.503  28.828  26.145  1.00  0.00     0.202 C 
BRANCH   6   7
ATOM      7  C   UNL A   1      49.178  29.485  27.492  1.00  0.00     0.261 C 
BRANCH   7   8
ATOM      8  O   UNL A   1      48.301  30.618  27.368  1.00  0.00    -0.459 OA
BRANCH   8   9
ATOM      9  C   UNL A   1      47.028  30.377  26.975  1.00  0.00     0.369 C 
ATOM     10  O   UNL A   1      46.702  30.412  25.798  1.00  0.00    -0.245 OA
BRANCH   9  11
ATOM     11  C   UNL A   1      46.067  30.115  28.176  1.00  0.00     0.211 C 
ATOM     12  N   UNL A   1      44.956  33.604  28.213  1.00  0.00    -0.246 N 
ATOM     13  C   UNL A   1      45.647  33.474  29.414  1.00  0.00     0.244 C 
ATOM     14  C   UNL A   1      44.913  32.411  27.500  1.00  0.00     0.245 C 
ATOM     15  O   UNL A   1      45.661  34.203  30.388  1.00  0.00    -0.273 OA
ATOM     16  C   UNL A   1      46.384  32.188  29.266  1.00  0.00     0.162 C 
ATOM     17  C   UNL A   1      45.333  31.384  28.484  1.00  0.00     0.172 C 
ATOM     18  O   UNL A   1      44.546  32.185  26.362  1.00  0.00    -0.273 OA
ATOM     19  C   UNL A   1      46.704  31.190  30.336  1.00  0.00     0.228 C 
ATOM     20  N   UNL A   1      46.806  29.950  29.510  1.00  0.00    -0.324 N 
ATOM     21  H   UNL A   1      47.790  29.753  29.325  1.00  0.00     0.347 HD
ATOM     22  H   UNL A   1      46.380  29.180  30.026  1.00  0.00     0.347 HD
BRANCH  12  23
ATOM     23  C   UNL A   1      44.304  34.771  27.782  1.00  0.00     0.094 A 
ATOM     24  C   UNL A   1      45.028  35.836  27.217  1.00  0.00     0.143 A 
ATOM     25  C   UNL A   1      44.410  37.062  26.986  1.00  0.00     0.048 A 
ATOM     26  C   UNL A   1      43.053  37.218  27.264  1.00  0.00     0.004 A 
ATOM     27  C   UNL A   1      42.929  34.915  27.997  1.00  0.00     0.031 A 
ATOM     28  C   UNL A   1      42.310  36.142  27.752  1.00  0.00     0.002 A 
BRANCH  24  29
ATOM     29  O   UNL A   1      46.360  35.755  26.892  1.00  0.00    -0.495 OA
ATOM     30  C   UNL A   1      47.186  36.561  27.728  1.00  0.00     0.278 C 
ENDBRANCH  24  29
ENDBRANCH  12  23
BRANCH  19  31
ATOM     31  C   UNL A   1      47.952  31.341  31.178  1.00  0.00     0.010 A 
ATOM     32  C   UNL A   1      49.136  31.900  30.676  1.00  0.00     0.010 A 
ATOM     33  C   UNL A   1      47.983  30.801  32.475  1.00  0.00     0.010 A 
ATOM     34  C   UNL A   1      50.313  31.908  31.436  1.00  0.00     0.004 A 
ATOM     35  C   UNL A   1      49.157  30.816  33.239  1.00  0.00     0.004 A 
ATOM     36  C   UNL A   1      50.330  31.376  32.728  1.00  0.00    -0.051 A 
ATOM     37  C   UNL A   1      51.601  31.338  33.522  1.00  0.00     0.044 C 
ENDBRANCH  19  31
BRANCH  11  38
ATOM     38  C   UNL A   1      45.245  28.803  28.021  1.00  0.00     0.117 C 
BRANCH  38  39
ATOM     39  C   UNL A   1      44.023  28.668  27.143  1.00  0.00    -0.041 A 
ATOM     40  C   UNL A   1      44.058  27.832  26.016  1.00  0.00     0.004 A 
ATOM     41  C   UNL A   1      42.899  29.488  27.312  1.00  0.00     0.004 A 
ATOM     42  C   UNL A   1      42.987  27.792  25.118  1.00  0.00     0.000 A 
ATOM     43  C   UNL A   1      41.811  29.420  26.439  1.00  0.00     0.000 A 
ATOM     44  C   UNL A   1      41.856  28.574  25.338  1.00  0.00     0.000 A 
ENDBRANCH  38  39
ENDBRANCH  11  38
ENDBRANCH   9  11
ENDBRANCH   8   9
ENDBRANCH   7   8
ENDBRANCH   6   7
ENDBRANCH   5   6
ENDBRANCH   4   5
ENDBRANCH   3   4
ENDBRANCH   2   3
ENDBRANCH   1   2
BRANCH   1  45
ATOM     45  C   UNL A   1      46.826  23.831  24.670  1.00  0.00     0.188 C 
BRANCH  45  46
ATOM     46  O   UNL A   1      46.257  22.751  25.418  1.00  0.00    -0.376 OA
BRANCH  46  47
ATOM     47  C   UNL A   1      45.968  21.522  24.770  1.00  0.00     0.202 C 
BRANCH  47  48
ATOM     48  C   UNL A   1      44.552  20.989  25.056  1.00  0.00     0.261 C 
BRANCH  48  49
ATOM     49  O   UNL A   1      43.485  21.919  24.815  1.00  0.00    -0.460 OA
BRANCH  49  50
ATOM     50  C   UNL A   1      42.470  21.900  25.716  1.00  0.00     0.338 C 
ATOM     51  O   UNL A   1      41.522  21.135  25.749  1.00  0.00    -0.246 OA
BRANCH  50  52
ATOM     52  C   UNL A   1      42.743  22.908  26.768  1.00  0.00     0.060 A 
ATOM     53  C   UNL A   1      42.361  22.634  28.086  1.00  0.00     0.016 A 
ATOM     54  C   UNL A   1      43.362  24.120  26.454  1.00  0.00     0.016 A 
ATOM     55  C   UNL A   1      42.569  23.583  29.089  1.00  0.00     0.010 A 
ATOM     56  C   UNL A   1      43.548  25.082  27.453  1.00  0.00     0.010 A 
ATOM     57  C   UNL A   1      43.121  24.830  28.769  1.00  0.00    -0.014 A 
BRANCH  57  58
ATOM     58  C   UNL A   1      43.020  25.942  29.744  1.00  0.00     0.031 A 
ATOM     59  C   UNL A   1      44.113  26.080  30.770  1.00  0.00     0.074 A 
ATOM     60  C   UNL A   1      42.011  26.832  29.709  1.00  0.00     0.049 A 
ATOM     61  N   UNL A   1      44.266  26.981  31.705  1.00  0.00    -0.248 NA
ATOM     62  C   UNL A   1      45.177  25.062  30.732  1.00  0.00     0.031 C 
ATOM     63  C   UNL A   1      40.908  26.830  28.751  1.00  0.00     0.029 A 
ATOM     64  N   UNL A   1      41.759  27.919  30.510  1.00  0.00    -0.354 N 
ATOM     65  C   UNL A   1      45.442  26.639  32.365  1.00  0.00     0.074 A 
ATOM     66  C   UNL A   1      45.942  25.431  31.747  1.00  0.00     0.031 C 
ATOM     67  C   UNL A   1      40.095  27.869  29.019  1.00  0.00     0.029 A 
ATOM     68  C   UNL A   1      40.610  28.596  30.179  1.00  0.00     0.049 A 
ATOM     69  H   UNL A   1      42.347  28.186  31.253  1.00  0.00     0.167 HD
ATOM     70  C   UNL A   1      46.061  27.277  33.386  1.00  0.00     0.031 A 
ATOM     71  C   UNL A   1      40.038  29.675  30.752  1.00  0.00     0.031 A 
ATOM     72  C   UNL A   1      45.557  28.464  34.018  1.00  0.00     0.049 A 
ATOM     73  C   UNL A   1      40.706  30.331  31.934  1.00  0.00     0.074 A 
ATOM     74  C   UNL A   1      46.115  29.191  35.055  1.00  0.00     0.029 A 
ATOM     75  N   UNL A   1      44.368  29.092  33.680  1.00  0.00    -0.354 N 
ATOM     76  N   UNL A   1      41.837  30.017  32.522  1.00  0.00    -0.248 NA
ATOM     77  C   UNL A   1      40.025  31.493  32.524  1.00  0.00     0.031 C 
ATOM     78  C   UNL A   1      45.237  30.231  35.377  1.00  0.00     0.029 A 
ATOM     79  C   UNL A   1      44.160  30.185  34.505  1.00  0.00     0.049 A 
ATOM     80  H   UNL A   1      43.762  28.805  32.960  1.00  0.00     0.167 HD
ATOM     81  C   UNL A   1      42.013  30.956  33.535  1.00  0.00     0.074 A 
ATOM     82  C   UNL A   1      40.879  31.856  33.471  1.00  0.00     0.031 C 
ATOM     83  C   UNL A   1      43.023  31.066  34.434  1.00  0.00     0.031 A 
BRANCH  70  84
ATOM     84  C   UNL A   1      47.336  26.667  33.898  1.00  0.00    -0.014 A 
ATOM     85  C   UNL A   1      47.314  25.617  34.835  1.00  0.00     0.010 A 
ATOM     86  C   UNL A   1      48.574  27.153  33.441  1.00  0.00     0.010 A 
ATOM     87  C   UNL A   1      48.508  25.098  35.341  1.00  0.00     0.020 A 
ATOM     88  C   UNL A   1      49.770  26.619  33.925  1.00  0.00     0.020 A 
ATOM     89  C   UNL A   1      49.729  25.608  34.889  1.00  0.00     0.054 A 
BRANCH  89  90
ATOM     90  S   UNL A   1      51.266  24.918  35.561  1.00  0.00     0.124 S 
ATOM     91  O   UNL A   1      52.057  24.714  34.351  1.00  0.00    -0.237 OA
ATOM     92  O   UNL A   1      51.735  25.979  36.448  1.00  0.00    -0.237 OA
ATOM     93  O   UNL A   1      50.831  23.697  36.234  1.00  0.00    -0.744 OA
ENDBRANCH  89  90
ENDBRANCH  70  84
BRANCH  71  94
ATOM     94  C   UNL A   1      38.753  30.207  30.219  1.00  0.00    -0.014 A 
ATOM     95  C   UNL A   1      38.728  31.376  29.438  1.00  0.00     0.010 A 
ATOM     96  C   UNL A   1      37.543  29.543  30.493  1.00  0.00     0.010 A 
ATOM     97  C   UNL A   1      37.517  31.875  28.946  1.00  0.00     0.020 A 
ATOM     98  C   UNL A   1      36.334  30.025  29.984  1.00  0.00     0.020 A 
ATOM     99  C   UNL A   1      36.328  31.194  29.220  1.00  0.00     0.054 A 
BRANCH  99 100
ATOM    100  S   UNL A   1      34.776  31.818  28.514  1.00  0.00     0.124 S 
ATOM    101  O   UNL A   1      34.196  30.608  27.938  1.00  0.00    -0.237 OA
ATOM    102  O   UNL A   1      34.090  32.356  29.685  1.00  0.00    -0.237 OA
ATOM    103  O   UNL A   1      35.220  32.822  27.548  1.00  0.00    -0.744 OA
ENDBRANCH  99 100
ENDBRANCH  71  94
BRANCH  83 104
ATOM    104  C   UNL A   1      42.965  32.211  35.410  1.00  0.00    -0.014 A 
ATOM    105  C   UNL A   1      42.322  32.075  36.653  1.00  0.00     0.010 A 
ATOM    106  C   UNL A   1      43.616  33.419  35.103  1.00  0.00     0.010 A 
ATOM    107  C   UNL A   1      42.305  33.139  37.559  1.00  0.00     0.020 A 
ATOM    108  C   UNL A   1      43.624  34.477  36.016  1.00  0.00     0.020 A 
ATOM    109  C   UNL A   1      42.955  34.335  37.234  1.00  0.00     0.054 A 
BRANCH 109 110
ATOM    110  S   UNL A   1      42.955  35.688  38.443  1.00  0.00     0.124 S 
ATOM    111  O   UNL A   1      43.215  36.849  37.596  1.00  0.00    -0.237 OA
ATOM    112  O   UNL A   1      41.613  35.613  39.012  1.00  0.00    -0.237 OA
ATOM    113  O   UNL A   1      44.036  35.331  39.360  1.00  0.00    -0.744 OA
ENDBRANCH 109 110
ENDBRANCH  83 104
ENDBRANCH  57  58
ENDBRANCH  50  52
ENDBRANCH  49  50
ENDBRANCH  48  49
ENDBRANCH  47  48
ENDBRANCH  46  47
ENDBRANCH  45  46
ENDBRANCH   1  45
TORSDOF 28
ENDMDL
MODEL 2
REMARK VINA RESULT:      -6.3      1.473      2.183
REMARK SMILES COc1ccccc1N1C(=O)[C@@H]2[C@@H](C1=O)[C@@](Cc1ccccc1)(C(=O)OCCOCCOCCOCCOC(=O)c1ccc(-c3c4nc(c(-c5ccc(S(=O)(=O)[O-])cc5)c5ccc([nH]5)c(-c5ccc(S(=O)(=O)[O-])cc5)c5nc(c(-c6ccc(S(=O)(=O)[O-])cc6)c6ccc3[nH]6)C=C5)C=C4)cc1)[NH2+][C@H]2c1ccc(C)cc1
REMARK SMILES IDX 33 1 32 2 31 3 30 4 29 5 28 6 27 7 26 8 24 9 25 10 16 11
REMARK SMILES IDX 9 12 10 13 14 14 11 15 12 16 13 17 15 18 102 19 101 20 8 23
REMARK SMILES IDX 3 24 4 25 5 26 7 27 6 28 2 29 1 30 103 31 104 32 109 33
REMARK SMILES IDX 105 34 108 35 106 36 107 37 17 38 18 39 19 40 23 41 20 42
REMARK SMILES IDX 22 43 21 44 34 45 35 46 36 47 37 48 38 49 39 50 40 51 41 52
REMARK SMILES IDX 42 53 100 54 43 55 99 56 44 57 45 58 46 59 93 60 47 61 98 62
REMARK SMILES IDX 92 63 94 64 48 65 97 66 91 67 90 68 49 70 79 71 60 72 78 73
REMARK SMILES IDX 61 74 64 75 77 76 95 77 62 78 63 79 76 81 96 82 65 83 50 84
REMARK SMILES IDX 51 85 59 86 52 87 58 88 53 89 54 90 55 91 56 92 57 93 80 94
REMARK SMILES IDX 81 95 89 96 82 97 88 98 83 99 84 100 85 101 86 102 87 103
REMARK SMILES IDX 66 104 67 105 75 106 68 107 74 108 69 109 70 110 71 111
REMARK SMILES IDX 72 112 73 113
REMARK H PARENT 101 21 101 22 94 69 64 80
REMARK Flexibility Score: inf
ROOT
ATOM      1  C   UNL A   1      47.349  24.633  27.079  1.00  0.00     0.188 C 
ENDROOT
BRANCH   1   2
ATOM      2  O   UNL A   1      47.554  25.518  25.990  1.00  0.00    -0.377 OA
BRANCH   2   3
ATOM      3  C   UNL A   1      48.902  25.875  25.760  1.00  0.00     0.188 C 
BRANCH   3   4
ATOM      4  C   UNL A   1      49.845  25.823  26.968  1.00  0.00     0.188 C 
BRANCH   4   5
ATOM      5  O   UNL A   1      50.770  26.914  27.008  1.00  0.00    -0.376 OA
BRANCH   5   6
ATOM      6  C   UNL A   1      50.612  27.925  26.013  1.00  0.00     0.202 C 
BRANCH   6   7
ATOM      7  C   UNL A   1      50.438  29.338  26.583  1.00  0.00     0.261 C 
BRANCH   7   8
ATOM      8  O   UNL A   1      49.324  29.447  27.486  1.00  0.00    -0.459 OA
BRANCH   8   9
ATOM      9  C   UNL A   1      49.563  29.991  28.703  1.00  0.00     0.369 C 
ATOM     10  O   UNL A   1      50.690  30.300  29.058  1.00  0.00    -0.245 OA
BRANCH   9  11
ATOM     11  C   UNL A   1      48.272  30.113  29.572  1.00  0.00     0.211 C 
ATOM     12  N   UNL A   1      47.828  33.627  28.642  1.00  0.00    -0.246 N 
ATOM     13  C   UNL A   1      48.118  33.689  30.002  1.00  0.00     0.244 C 
ATOM     14  C   UNL A   1      47.779  32.319  28.174  1.00  0.00     0.245 C 
ATOM     15  O   UNL A   1      47.985  34.609  30.787  1.00  0.00    -0.273 OA
ATOM     16  C   UNL A   1      48.629  32.326  30.321  1.00  0.00     0.162 C 
ATOM     17  C   UNL A   1      47.717  31.495  29.406  1.00  0.00     0.172 C 
ATOM     18  O   UNL A   1      47.713  31.890  27.038  1.00  0.00    -0.273 OA
ATOM     19  C   UNL A   1      48.454  31.560  31.597  1.00  0.00     0.228 C 
ATOM     20  N   UNL A   1      48.565  30.164  31.077  1.00  0.00    -0.324 N 
ATOM     21  H   UNL A   1      49.510  29.820  31.245  1.00  0.00     0.347 HD
ATOM     22  H   UNL A   1      47.882  29.582  31.561  1.00  0.00     0.347 HD
BRANCH  12  23
ATOM     23  C   UNL A   1      47.540  34.737  27.831  1.00  0.00     0.094 A 
ATOM     24  C   UNL A   1      46.220  35.196  27.678  1.00  0.00     0.143 A 
ATOM     25  C   UNL A   1      45.918  36.157  26.716  1.00  0.00     0.048 A 
ATOM     26  C   UNL A   1      46.937  36.709  25.942  1.00  0.00     0.004 A 
ATOM     27  C   UNL A   1      48.567  35.341  27.095  1.00  0.00     0.031 A 
ATOM     28  C   UNL A   1      48.261  36.314  26.142  1.00  0.00     0.002 A 
BRANCH  24  29
ATOM     29  O   UNL A   1      45.165  34.723  28.418  1.00  0.00    -0.495 OA
ATOM     30  C   UNL A   1      44.549  35.732  29.216  1.00  0.00     0.278 C 
ENDBRANCH  24  29
ENDBRANCH  12  23
BRANCH  19  31
ATOM     31  C   UNL A   1      49.421  31.751  32.744  1.00  0.00     0.010 A 
ATOM     32  C   UNL A   1      50.668  32.369  32.585  1.00  0.00     0.010 A 
ATOM     33  C   UNL A   1      49.127  31.188  33.999  1.00  0.00     0.010 A 
ATOM     34  C   UNL A   1      51.596  32.414  33.633  1.00  0.00     0.004 A 
ATOM     35  C   UNL A   1      50.049  31.240  35.051  1.00  0.00     0.004 A 
ATOM     36  C   UNL A   1      51.289  31.860  34.879  1.00  0.00    -0.051 A 
ATOM     37  C   UNL A   1      52.299  31.863  35.987  1.00  0.00     0.044 C 
ENDBRANCH  19  31
BRANCH  11  38
ATOM     38  C   UNL A   1      47.310  28.902  29.402  1.00  0.00     0.117 C 
BRANCH  38  39
ATOM     39  C   UNL A   1      46.024  28.947  28.610  1.00  0.00    -0.041 A 
ATOM     40  C   UNL A   1      45.970  28.377  27.329  1.00  0.00     0.004 A 
ATOM     41  C   UNL A   1      44.919  29.695  29.037  1.00  0.00     0.004 A 
ATOM     42  C   UNL A   1      44.834  28.520  26.526  1.00  0.00     0.000 A 
ATOM     43  C   UNL A   1      43.769  29.806  28.254  1.00  0.00     0.000 A 
ATOM     44  C   UNL A   1      43.726  29.220  26.995  1.00  0.00     0.000 A 
ENDBRANCH  38  39
ENDBRANCH  11  38
ENDBRANCH   9  11
ENDBRANCH   8   9
ENDBRANCH   7   8
ENDBRANCH   6   7
ENDBRANCH   5   6
ENDBRANCH   4   5
ENDBRANCH   3   4
ENDBRANCH   2   3
ENDBRANCH   1   2
BRANCH   1  45
ATOM     45  C   UNL A   1      46.169  23.684  26.812  1.00  0.00     0.188 C 
BRANCH  45  46
ATOM     46  O   UNL A   1      46.014  23.043  25.541  1.00  0.00    -0.376 OA
BRANCH  46  47
ATOM     47  C   UNL A   1      45.771  21.646  25.483  1.00  0.00     0.202 C 
BRANCH  47  48
ATOM     48  C   UNL A   1      44.635  21.254  24.521  1.00  0.00     0.261 C 
BRANCH  48  49
ATOM     49  O   UNL A   1      43.513  22.150  24.499  1.00  0.00    -0.460 OA
BRANCH  49  50
ATOM     50  C   UNL A   1      42.514  21.867  25.375  1.00  0.00     0.338 C 
ATOM     51  O   UNL A   1      41.919  20.812  25.503  1.00  0.00    -0.246 OA
BRANCH  50  52
ATOM     52  C   UNL A   1      42.317  23.031  26.270  1.00  0.00     0.060 A 
ATOM     53  C   UNL A   1      42.865  24.267  25.907  1.00  0.00     0.016 A 
ATOM     54  C   UNL A   1      41.605  22.903  27.465  1.00  0.00     0.016 A 
ATOM     55  C   UNL A   1      42.729  25.371  26.752  1.00  0.00     0.010 A 
ATOM     56  C   UNL A   1      41.491  24.001  28.324  1.00  0.00     0.010 A 
ATOM     57  C   UNL A   1      42.082  25.231  27.986  1.00  0.00    -0.014 A 
BRANCH  57  58
ATOM     58  C   UNL A   1      42.242  26.287  29.015  1.00  0.00     0.031 A 
ATOM     59  C   UNL A   1      43.470  26.241  29.885  1.00  0.00     0.074 A 
ATOM     60  C   UNL A   1      41.349  27.282  29.161  1.00  0.00     0.049 A 
ATOM     61  N   UNL A   1      43.850  27.060  30.830  1.00  0.00    -0.248 NA
ATOM     62  C   UNL A   1      44.393  25.116  29.654  1.00  0.00     0.031 C 
ATOM     63  C   UNL A   1      40.135  27.461  28.365  1.00  0.00     0.029 A 
ATOM     64  N   UNL A   1      41.334  28.340  30.038  1.00  0.00    -0.354 N 
ATOM     65  C   UNL A   1      45.055  26.552  31.304  1.00  0.00     0.074 A 
ATOM     66  C   UNL A   1      45.324  25.336  30.569  1.00  0.00     0.031 C 
ATOM     67  C   UNL A   1      39.493  28.564  28.790  1.00  0.00     0.029 A 
ATOM     68  C   UNL A   1      40.239  29.158  29.900  1.00  0.00     0.049 A 
ATOM     69  H   UNL A   1      42.042  28.496  30.703  1.00  0.00     0.167 HD
ATOM     70  C   UNL A   1      45.874  27.054  32.257  1.00  0.00     0.031 A 
ATOM     71  C   UNL A   1      39.878  30.257  30.595  1.00  0.00     0.031 A 
ATOM     72  C   UNL A   1      45.601  28.249  33.006  1.00  0.00     0.049 A 
ATOM     73  C   UNL A   1      40.770  30.762  31.701  1.00  0.00     0.074 A 
ATOM     74  C   UNL A   1      46.373  28.846  33.987  1.00  0.00     0.029 A 
ATOM     75  N   UNL A   1      44.460  29.024  32.865  1.00  0.00    -0.354 N 
ATOM     76  N   UNL A   1      41.924  30.290  32.112  1.00  0.00    -0.248 NA
ATOM     77  C   UNL A   1      40.314  31.954  32.432  1.00  0.00     0.031 C 
ATOM     78  C   UNL A   1      45.674  29.955  34.475  1.00  0.00     0.029 A 
ATOM     79  C   UNL A   1      44.493  30.080  33.760  1.00  0.00     0.049 A 
ATOM     80  H   UNL A   1      43.734  28.850  32.223  1.00  0.00     0.167 HD
ATOM     81  C   UNL A   1      42.341  31.141  33.132  1.00  0.00     0.074 A 
ATOM     82  C   UNL A   1      41.323  32.162  33.267  1.00  0.00     0.031 C 
ATOM     83  C   UNL A   1      43.468  31.084  33.886  1.00  0.00     0.031 A 
BRANCH  70  84
ATOM     84  C   UNL A   1      47.125  26.278  32.559  1.00  0.00    -0.014 A 
ATOM     85  C   UNL A   1      47.147  25.303  33.574  1.00  0.00     0.010 A 
ATOM     86  C   UNL A   1      48.296  26.529  31.823  1.00  0.00     0.010 A 
ATOM     87  C   UNL A   1      48.333  24.628  33.878  1.00  0.00     0.020 A 
ATOM     88  C   UNL A   1      49.477  25.838  32.107  1.00  0.00     0.020 A 
ATOM     89  C   UNL A   1      49.492  24.907  33.148  1.00  0.00     0.054 A 
BRANCH  89  90
ATOM     90  S   UNL A   1      51.018  24.018  33.562  1.00  0.00     0.124 S 
ATOM     91  O   UNL A   1      50.969  24.001  35.021  1.00  0.00    -0.237 OA
ATOM     92  O   UNL A   1      50.824  22.724  32.912  1.00  0.00    -0.237 OA
ATOM     93  O   UNL A   1      52.070  24.849  32.984  1.00  0.00    -0.744 OA
ENDBRANCH  89  90
ENDBRANCH  70  84
BRANCH  71  94
ATOM     94  C   UNL A   1      38.606  30.959  30.269  1.00  0.00    -0.014 A 
ATOM     95  C   UNL A   1      38.612  32.146  29.517  1.00  0.00     0.010 A 
ATOM     96  C   UNL A   1      37.377  30.439  30.715  1.00  0.00     0.010 A 
ATOM     97  C   UNL A   1      37.414  32.805  29.221  1.00  0.00     0.020 A 
ATOM     98  C   UNL A   1      36.175  31.082  30.402  1.00  0.00     0.020 A 
ATOM     99  C   UNL A   1      36.203  32.266  29.662  1.00  0.00     0.054 A 
BRANCH  99 100
ATOM    100  S   UNL A   1      34.653  33.097  29.208  1.00  0.00     0.124 S 
ATOM    101  O   UNL A   1      34.081  33.408  30.514  1.00  0.00    -0.237 OA
ATOM    102  O   UNL A   1      35.124  34.241  28.433  1.00  0.00    -0.237 OA
ATOM    103  O   UNL A   1      33.937  32.084  28.434  1.00  0.00    -0.744 OA
ENDBRANCH  99 100
ENDBRANCH  71  94
BRANCH  83 104
ATOM    104  C   UNL A   1      43.674  32.167  34.912  1.00  0.00    -0.014 A 
ATOM    105  C   UNL A   1      43.115  32.066  36.198  1.00  0.00     0.010 A 
ATOM    106  C   UNL A   1      44.490  33.270  34.603  1.00  0.00     0.010 A 
ATOM    107  C   UNL A   1      43.343  33.067  37.148  1.00  0.00     0.020 A 
ATOM    108  C   UNL A   1      44.742  34.260  35.557  1.00  0.00     0.020 A 
ATOM    109  C   UNL A   1      44.154  34.159  36.819  1.00  0.00     0.054 A 
BRANCH 109 110
ATOM    110  S   UNL A   1      44.471  35.425  38.081  1.00  0.00     0.124 S 
ATOM    111  O   UNL A   1      45.413  34.742  38.963  1.00  0.00    -0.237 OA
ATOM    112  O   UNL A   1      45.026  36.527  37.301  1.00  0.00    -0.237 OA
ATOM    113  O   UNL A   1      43.151  35.678  38.654  1.00  0.00    -0.744 OA
ENDBRANCH 109 110
ENDBRANCH  83 104
ENDBRANCH  57  58
ENDBRANCH  50  52
ENDBRANCH  49  50
ENDBRANCH  48  49
ENDBRANCH  47  48
ENDBRANCH  46  47
ENDBRANCH  45  46
ENDBRANCH   1  45
TORSDOF 28
ENDMDL
MODEL 3
REMARK VINA RESULT:      -5.8      3.553     11.633
REMARK SMILES COc1ccccc1N1C(=O)[C@@H]2[C@@H](C1=O)[C@@](Cc1ccccc1)(C(=O)OCCOCCOCCOCCOC(=O)c1ccc(-c3c4nc(c(-c5ccc(S(=O)(=O)[O-])cc5)c5ccc([nH]5)c(-c5ccc(S(=O)(=O)[O-])cc5)c5nc(c(-c6ccc(S(=O)(=O)[O-])cc6)c6ccc3[nH]6)C=C5)C=C4)cc1)[NH2+][C@H]2c1ccc(C)cc1
REMARK SMILES IDX 33 1 32 2 31 3 30 4 29 5 28 6 27 7 26 8 24 9 25 10 16 11
REMARK SMILES IDX 9 12 10 13 14 14 11 15 12 16 13 17 15 18 102 19 101 20 8 23
REMARK SMILES IDX 3 24 4 25 5 26 7 27 6 28 2 29 1 30 103 31 104 32 109 33
REMARK SMILES IDX 105 34 108 35 106 36 107 37 17 38 18 39 19 40 23 41 20 42
REMARK SMILES IDX 22 43 21 44 34 45 35 46 36 47 37 48 38 49 39 50 40 51 41 52
REMARK SMILES IDX 42 53 100 54 43 55 99 56 44 57 45 58 46 59 93 60 47 61 98 62
REMARK SMILES IDX 92 63 94 64 48 65 97 66 91 67 90 68 49 70 79 71 60 72 78 73
REMARK SMILES IDX 61 74 64 75 77 76 95 77 62 78 63 79 76 81 96 82 65 83 50 84
REMARK SMILES IDX 51 85 59 86 52 87 58 88 53 89 54 90 55 91 56 92 57 93 80 94
REMARK SMILES IDX 81 95 89 96 82 97 88 98 83 99 84 100 85 101 86 102 87 103
REMARK SMILES IDX 66 104 67 105 75 106 68 107 74 108 69 109 70 110 71 111
REMARK SMILES IDX 72 112 73 113
REMARK H PARENT 101 21 101 22 94 69 64 80
REMARK Flexibility Score: inf
ROOT
ATOM      1  C   UNL A   1      49.828  35.584  30.487  1.00  0.00     0.188 C 
ENDROOT
BRANCH   1   2
ATOM      2  O   UNL A   1      49.044  34.958  29.484  1.00  0.00    -0.377 OA
BRANCH   2   3
ATOM      3  C   UNL A   1      48.263  35.841  28.704  1.00  0.00     0.188 C 
BRANCH   3   4
ATOM      4  C   UNL A   1      46.741  35.669  28.784  1.00  0.00     0.188 C 
BRANCH   4   5
ATOM      5  O   UNL A   1      46.201  36.011  30.064  1.00  0.00    -0.376 OA
BRANCH   5   6
ATOM      6  C   UNL A   1      45.850  34.926  30.923  1.00  0.00     0.202 C 
BRANCH   6   7
ATOM      7  C   UNL A   1      44.642  35.211  31.824  1.00  0.00     0.261 C 
BRANCH   7   8
ATOM      8  O   UNL A   1      43.984  34.016  32.276  1.00  0.00    -0.459 OA
BRANCH   8   9
ATOM      9  C   UNL A   1      42.827  34.167  32.964  1.00  0.00     0.369 C 
ATOM     10  O   UNL A   1      42.230  35.232  32.989  1.00  0.00    -0.245 OA
BRANCH   9  11
ATOM     11  C   UNL A   1      42.407  32.872  33.728  1.00  0.00     0.211 C 
ATOM     12  N   UNL A   1      39.203  32.717  31.962  1.00  0.00    -0.246 N 
ATOM     13  C   UNL A   1      38.832  32.984  33.277  1.00  0.00     0.244 C 
ATOM     14  C   UNL A   1      40.579  32.577  31.822  1.00  0.00     0.245 C 
ATOM     15  O   UNL A   1      37.742  32.907  33.811  1.00  0.00    -0.273 OA
ATOM     16  C   UNL A   1      40.108  33.383  33.934  1.00  0.00     0.162 C 
ATOM     17  C   UNL A   1      41.072  32.427  33.213  1.00  0.00     0.172 C 
ATOM     18  O   UNL A   1      41.266  32.500  30.821  1.00  0.00    -0.273 OA
ATOM     19  C   UNL A   1      40.527  33.124  35.349  1.00  0.00     0.228 C 
ATOM     20  N   UNL A   1      42.012  33.138  35.186  1.00  0.00    -0.324 N 
ATOM     21  H   UNL A   1      42.370  34.050  35.468  1.00  0.00     0.347 HD
ATOM     22  H   UNL A   1      42.410  32.403  35.770  1.00  0.00     0.347 HD
BRANCH  12  23
ATOM     23  C   UNL A   1      38.306  32.531  30.896  1.00  0.00     0.094 A 
ATOM     24  C   UNL A   1      37.700  31.282  30.673  1.00  0.00     0.143 A 
ATOM     25  C   UNL A   1      36.982  31.049  29.503  1.00  0.00     0.048 A 
ATOM     26  C   UNL A   1      36.814  32.077  28.575  1.00  0.00     0.004 A 
ATOM     27  C   UNL A   1      38.080  33.575  29.993  1.00  0.00     0.031 A 
ATOM     28  C   UNL A   1      37.348  33.341  28.827  1.00  0.00     0.002 A 
BRANCH  24  29
ATOM     29  O   UNL A   1      37.796  30.229  31.548  1.00  0.00    -0.495 OA
ATOM     30  C   UNL A   1      37.358  28.995  30.983  1.00  0.00     0.278 C 
ENDBRANCH  24  29
ENDBRANCH  12  23
BRANCH  19  31
ATOM     31  C   UNL A   1      40.131  34.080  36.452  1.00  0.00     0.010 A 
ATOM     32  C   UNL A   1      40.939  35.156  36.844  1.00  0.00     0.010 A 
ATOM     33  C   UNL A   1      38.971  33.828  37.205  1.00  0.00     0.010 A 
ATOM     34  C   UNL A   1      40.611  35.945  37.954  1.00  0.00     0.004 A 
ATOM     35  C   UNL A   1      38.635  34.621  38.309  1.00  0.00     0.004 A 
ATOM     36  C   UNL A   1      39.449  35.691  38.689  1.00  0.00    -0.051 A 
ATOM     37  C   UNL A   1      39.122  36.502  39.906  1.00  0.00     0.044 C 
ENDBRANCH  19  31
BRANCH  11  38
ATOM     38  C   UNL A   1      43.553  31.823  33.819  1.00  0.00     0.117 C 
BRANCH  38  39
ATOM     39  C   UNL A   1      43.357  30.392  34.262  1.00  0.00    -0.041 A 
ATOM     40  C   UNL A   1      43.611  30.029  35.594  1.00  0.00     0.004 A 
ATOM     41  C   UNL A   1      43.096  29.365  33.346  1.00  0.00     0.004 A 
ATOM     42  C   UNL A   1      43.564  28.691  35.996  1.00  0.00     0.000 A 
ATOM     43  C   UNL A   1      43.009  28.032  33.752  1.00  0.00     0.000 A 
ATOM     44  C   UNL A   1      43.246  27.693  35.079  1.00  0.00     0.000 A 
ENDBRANCH  38  39
ENDBRANCH  11  38
ENDBRANCH   9  11
ENDBRANCH   8   9
ENDBRANCH   7   8
ENDBRANCH   6   7
ENDBRANCH   5   6
ENDBRANCH   4   5
ENDBRANCH   3   4
ENDBRANCH   2   3
ENDBRANCH   1   2
BRANCH   1  45
ATOM     45  C   UNL A   1      50.326  34.562  31.522  1.00  0.00     0.188 C 
BRANCH  45  46
ATOM     46  O   UNL A   1      50.357  34.883  32.917  1.00  0.00    -0.376 OA
BRANCH  46  47
ATOM     47  C   UNL A   1      51.599  34.915  33.603  1.00  0.00     0.202 C 
BRANCH  47  48
ATOM     48  C   UNL A   1      51.478  35.326  35.082  1.00  0.00     0.261 C 
BRANCH  48  49
ATOM     49  O   UNL A   1      51.050  34.285  35.975  1.00  0.00    -0.460 OA
BRANCH  49  50
ATOM     50  C   UNL A   1      49.742  34.322  36.341  1.00  0.00     0.338 C 
ATOM     51  O   UNL A   1      49.149  35.240  36.880  1.00  0.00    -0.246 OA
BRANCH  50  52
ATOM     52  C   UNL A   1      49.078  33.084  35.871  1.00  0.00     0.060 A 
ATOM     53  C   UNL A   1      49.852  32.085  35.267  1.00  0.00     0.016 A 
ATOM     54  C   UNL A   1      47.699  32.912  36.014  1.00  0.00     0.016 A 
ATOM     55  C   UNL A   1      49.245  30.927  34.777  1.00  0.00     0.010 A 
ATOM     56  C   UNL A   1      47.087  31.764  35.502  1.00  0.00     0.010 A 
ATOM     57  C   UNL A   1      47.854  30.781  34.851  1.00  0.00    -0.014 A 
BRANCH  57  58
ATOM     58  C   UNL A   1      47.187  29.737  34.035  1.00  0.00     0.031 A 
ATOM     59  C   UNL A   1      46.699  30.122  32.664  1.00  0.00     0.074 A 
ATOM     60  C   UNL A   1      47.044  28.473  34.472  1.00  0.00     0.049 A 
ATOM     61  N   UNL A   1      46.115  29.388  31.753  1.00  0.00    -0.248 NA
ATOM     62  C   UNL A   1      46.899  31.528  32.269  1.00  0.00     0.031 C 
ATOM     63  C   UNL A   1      47.499  27.963  35.764  1.00  0.00     0.029 A 
ATOM     64  N   UNL A   1      46.473  27.383  33.862  1.00  0.00    -0.354 N 
ATOM     65  C   UNL A   1      45.881  30.240  30.679  1.00  0.00     0.074 A 
ATOM     66  C   UNL A   1      46.351  31.552  31.064  1.00  0.00     0.031 C 
ATOM     67  C   UNL A   1      47.189  26.656  35.850  1.00  0.00     0.029 A 
ATOM     68  C   UNL A   1      46.497  26.243  34.629  1.00  0.00     0.049 A 
ATOM     69  H   UNL A   1      46.082  27.416  32.959  1.00  0.00     0.167 HD
ATOM     70  C   UNL A   1      45.333  29.958  29.474  1.00  0.00     0.031 A 
ATOM     71  C   UNL A   1      46.012  25.010  34.375  1.00  0.00     0.031 A 
ATOM     72  C   UNL A   1      44.843  28.662  29.094  1.00  0.00     0.049 A 
ATOM     73  C   UNL A   1      45.341  24.734  33.053  1.00  0.00     0.074 A 
ATOM     74  C   UNL A   1      44.279  28.273  27.892  1.00  0.00     0.029 A 
ATOM     75  N   UNL A   1      44.848  27.546  29.916  1.00  0.00    -0.354 N 
ATOM     76  N   UNL A   1      45.161  25.542  32.034  1.00  0.00    -0.248 NA
ATOM     77  C   UNL A   1      44.819  23.376  32.843  1.00  0.00     0.031 C 
ATOM     78  C   UNL A   1      43.897  26.932  28.006  1.00  0.00     0.029 A 
ATOM     79  C   UNL A   1      44.272  26.472  29.259  1.00  0.00     0.049 A 
ATOM     80  H   UNL A   1      45.208  27.521  30.832  1.00  0.00     0.167 HD
ATOM     81  C   UNL A   1      44.524  24.783  31.056  1.00  0.00     0.074 A 
ATOM     82  C   UNL A   1      44.363  23.450  31.600  1.00  0.00     0.031 C 
ATOM     83  C   UNL A   1      44.113  25.154  29.817  1.00  0.00     0.031 A 
BRANCH  70  84
ATOM     84  C   UNL A   1      45.207  31.096  28.499  1.00  0.00    -0.014 A 
ATOM     85  C   UNL A   1      44.313  32.157  28.733  1.00  0.00     0.010 A 
ATOM     86  C   UNL A   1      45.990  31.103  27.331  1.00  0.00     0.010 A 
ATOM     87  C   UNL A   1      44.169  33.179  27.791  1.00  0.00     0.020 A 
ATOM     88  C   UNL A   1      45.868  32.136  26.399  1.00  0.00     0.020 A 
ATOM     89  C   UNL A   1      44.942  33.158  26.626  1.00  0.00     0.054 A 
BRANCH  89  90
ATOM     90  S   UNL A   1      44.737  34.496  25.419  1.00  0.00     0.124 S 
ATOM     91  O   UNL A   1      46.120  34.772  25.041  1.00  0.00    -0.237 OA
ATOM     92  O   UNL A   1      43.916  33.874  24.384  1.00  0.00    -0.237 OA
ATOM     93  O   UNL A   1      44.077  35.552  26.181  1.00  0.00    -0.744 OA
ENDBRANCH  89  90
ENDBRANCH  70  84
BRANCH  71  94
ATOM     94  C   UNL A   1      46.135  23.937  35.400  1.00  0.00    -0.014 A 
ATOM     95  C   UNL A   1      45.232  23.863  36.475  1.00  0.00     0.010 A 
ATOM     96  C   UNL A   1      47.163  22.981  35.304  1.00  0.00     0.010 A 
ATOM     97  C   UNL A   1      45.357  22.856  37.438  1.00  0.00     0.020 A 
ATOM     98  C   UNL A   1      47.277  21.960  36.252  1.00  0.00     0.020 A 
ATOM     99  C   UNL A   1      46.377  21.909  37.318  1.00  0.00     0.054 A 
BRANCH  99 100
ATOM    100  S   UNL A   1      46.480  20.569  38.539  1.00  0.00     0.124 S 
ATOM    101  O   UNL A   1      45.681  21.099  39.640  1.00  0.00    -0.237 OA
ATOM    102  O   UNL A   1      45.899  19.439  37.820  1.00  0.00    -0.237 OA
ATOM    103  O   UNL A   1      47.915  20.457  38.802  1.00  0.00    -0.744 OA
ENDBRANCH  99 100
ENDBRANCH  71  94
BRANCH  83 104
ATOM    104  C   UNL A   1      43.469  24.103  28.953  1.00  0.00    -0.014 A 
ATOM    105  C   UNL A   1      44.225  23.353  28.035  1.00  0.00     0.010 A 
ATOM    106  C   UNL A   1      42.100  23.821  29.107  1.00  0.00     0.010 A 
ATOM    107  C   UNL A   1      43.615  22.359  27.263  1.00  0.00     0.020 A 
ATOM    108  C   UNL A   1      41.491  22.812  28.356  1.00  0.00     0.020 A 
ATOM    109  C   UNL A   1      42.250  22.097  27.427  1.00  0.00     0.054 A 
BRANCH 109 110
ATOM    110  S   UNL A   1      41.488  20.775  26.445  1.00  0.00     0.124 S 
ATOM    111  O   UNL A   1      40.298  21.437  25.918  1.00  0.00    -0.237 OA
ATOM    112  O   UNL A   1      42.522  20.467  25.461  1.00  0.00    -0.237 OA
ATOM    113  O   UNL A   1      41.234  19.720  27.424  1.00  0.00    -0.744 OA
ENDBRANCH 109 110
ENDBRANCH  83 104
ENDBRANCH  57  58
ENDBRANCH  50  52
ENDBRANCH  49  50
ENDBRANCH  48  49
ENDBRANCH  47  48
ENDBRANCH  46  47
ENDBRANCH  45  46
ENDBRANCH   1  45
TORSDOF 28
ENDMDL
