MODEL 1
REMARK VINA RESULT:      -6.9      0.000      0.000
REMARK SMILES C#CCN(CC(=O)OCCOCCOCCOCCOC(=O)c1ccc(-c2c3nc(c(-c4ccc(S(=O)(=O)[O-])cc4)c4ccc([nH]4)c(-c4ccc(S(=O)(=O)[O-])cc4)c4nc(c(-c5ccc(S(=O)(=O)[O-])cc5)c5ccc2[nH]5)C=C4)C=C3)cc1)C(=O)N[C@@H](C)CCCC
REMARK SMILES IDX 12 1 11 2 10 3 9 4 8 5 6 6 7 7 5 8 4 9 3 10 2 11 1 12 83 13
REMARK SMILES IDX 84 14 85 15 86 17 87 18 88 19 89 20 90 21 91 22 13 23 14 24
REMARK SMILES IDX 15 25 16 26 17 27 18 28 19 29 20 30 21 31 22 32 23 33 24 34
REMARK SMILES IDX 82 35 25 36 81 37 26 38 27 39 28 40 75 41 29 42 80 43 74 44
REMARK SMILES IDX 76 45 30 46 79 47 73 48 72 49 31 51 61 52 42 53 60 54 43 55
REMARK SMILES IDX 46 56 59 57 77 58 44 59 45 60 58 62 78 63 47 64 32 65 33 66
REMARK SMILES IDX 41 67 34 68 40 69 35 70 36 71 37 72 38 73 39 74 62 75 63 76
REMARK SMILES IDX 71 77 64 78 70 79 65 80 66 81 67 82 68 83 69 84 48 85 49 86
REMARK SMILES IDX 57 87 50 88 56 89 51 90 52 91 53 92 54 93 55 94
REMARK H PARENT 85 16 76 50 46 61
REMARK Flexibility Score: inf
ROOT
ATOM      1  C   UNL A   1      43.653  24.743  28.439  1.00  0.00     0.188 C 
ENDROOT
BRANCH   1   2
ATOM      2  O   UNL A   1      42.373  24.350  28.879  1.00  0.00    -0.376 OA
BRANCH   2   3
ATOM      3  C   UNL A   1      41.309  24.494  27.938  1.00  0.00     0.202 C 
BRANCH   3   4
ATOM      4  C   UNL A   1      40.686  23.228  27.282  1.00  0.00     0.261 C 
BRANCH   4   5
ATOM      5  O   UNL A   1      39.342  23.354  26.716  1.00  0.00    -0.462 OA
BRANCH   5   6
ATOM      6  C   UNL A   1      38.752  22.255  26.190  1.00  0.00     0.325 C 
ATOM      7  O   UNL A   1      39.348  21.188  26.061  1.00  0.00    -0.250 OA
BRANCH   6   8
ATOM      8  C   UNL A   1      37.292  22.481  25.654  1.00  0.00     0.245 C 
BRANCH   8   9
ATOM      9  N   UNL A   1      36.083  21.593  25.784  1.00  0.00    -0.303 N 
BRANCH   9  10
ATOM     10  C   UNL A   1      34.855  22.152  26.501  1.00  0.00     0.211 C 
BRANCH  10  11
ATOM     11  C   UNL A   1      34.368  23.420  25.818  1.00  0.00    -0.085 C 
ATOM     12  C   UNL A   1      33.950  24.507  25.231  1.00  0.00     0.006 C 
ENDBRANCH  10  11
ENDBRANCH   9  10
BRANCH   9  13
ATOM     13  C   UNL A   1      35.891  20.346  25.228  1.00  0.00     0.318 C 
ATOM     14  O   UNL A   1      36.852  19.638  24.895  1.00  0.00    -0.249 OA
ATOM     15  N   UNL A   1      34.725  19.746  24.946  1.00  0.00    -0.336 N 
ATOM     16  H   UNL A   1      34.918  18.849  24.590  1.00  0.00     0.165 HD
BRANCH  15  17
ATOM     17  C   UNL A   1      33.269  19.928  24.969  1.00  0.00     0.080 C 
ATOM     18  C   UNL A   1      32.801  20.683  23.706  1.00  0.00     0.031 C 
BRANCH  17  19
ATOM     19  C   UNL A   1      32.528  18.570  24.927  1.00  0.00     0.024 C 
BRANCH  19  20
ATOM     20  C   UNL A   1      33.321  17.307  25.247  1.00  0.00     0.002 C 
BRANCH  20  21
ATOM     21  C   UNL A   1      33.798  16.483  24.059  1.00  0.00    -0.003 C 
ATOM     22  C   UNL A   1      33.586  17.151  22.710  1.00  0.00     0.004 C 
ENDBRANCH  20  21
ENDBRANCH  19  20
ENDBRANCH  17  19
ENDBRANCH  15  17
ENDBRANCH   9  13
ENDBRANCH   8   9
ENDBRANCH   6   8
ENDBRANCH   5   6
ENDBRANCH   4   5
ENDBRANCH   3   4
ENDBRANCH   2   3
ENDBRANCH   1   2
BRANCH   1  23
ATOM     23  C   UNL A   1      44.703  23.698  28.117  1.00  0.00     0.188 C 
BRANCH  23  24
ATOM     24  O   UNL A   1      45.389  23.856  26.893  1.00  0.00    -0.377 OA
BRANCH  24  25
ATOM     25  C   UNL A   1      46.776  24.119  27.015  1.00  0.00     0.188 C 
BRANCH  25  26
ATOM     26  C   UNL A   1      47.204  25.282  27.934  1.00  0.00     0.188 C 
BRANCH  26  27
ATOM     27  O   UNL A   1      48.235  26.133  27.433  1.00  0.00    -0.376 OA
BRANCH  27  28
ATOM     28  C   UNL A   1      48.956  25.632  26.302  1.00  0.00     0.202 C 
BRANCH  28  29
ATOM     29  C   UNL A   1      48.511  26.097  24.896  1.00  0.00     0.261 C 
BRANCH  29  30
ATOM     30  O   UNL A   1      48.252  27.498  24.751  1.00  0.00    -0.460 OA
BRANCH  30  31
ATOM     31  C   UNL A   1      47.095  27.841  24.139  1.00  0.00     0.338 C 
ATOM     32  O   UNL A   1      46.846  27.748  22.961  1.00  0.00    -0.246 OA
BRANCH  31  33
ATOM     33  C   UNL A   1      46.094  28.123  25.196  1.00  0.00     0.060 A 
ATOM     34  C   UNL A   1      46.215  29.329  25.896  1.00  0.00     0.016 A 
ATOM     35  C   UNL A   1      45.022  27.261  25.453  1.00  0.00     0.016 A 
ATOM     36  C   UNL A   1      45.246  29.698  26.824  1.00  0.00     0.010 A 
ATOM     37  C   UNL A   1      44.081  27.603  26.430  1.00  0.00     0.010 A 
ATOM     38  C   UNL A   1      44.198  28.818  27.126  1.00  0.00    -0.014 A 
BRANCH  38  39
ATOM     39  C   UNL A   1      43.395  29.098  28.335  1.00  0.00     0.031 A 
ATOM     40  C   UNL A   1      44.133  29.209  29.641  1.00  0.00     0.074 A 
ATOM     41  C   UNL A   1      42.075  29.344  28.265  1.00  0.00     0.049 A 
ATOM     42  N   UNL A   1      43.688  29.557  30.818  1.00  0.00    -0.248 NA
ATOM     43  C   UNL A   1      45.575  28.896  29.610  1.00  0.00     0.031 C 
ATOM     44  C   UNL A   1      41.267  29.302  27.047  1.00  0.00     0.029 A 
ATOM     45  N   UNL A   1      41.183  29.693  29.248  1.00  0.00    -0.354 N 
ATOM     46  C   UNL A   1      44.788  29.501  31.665  1.00  0.00     0.074 A 
ATOM     47  C   UNL A   1      45.918  29.071  30.876  1.00  0.00     0.031 C 
ATOM     48  C   UNL A   1      39.993  29.609  27.358  1.00  0.00     0.029 A 
ATOM     49  C   UNL A   1      39.894  29.851  28.796  1.00  0.00     0.049 A 
ATOM     50  H   UNL A   1      41.441  29.819  30.190  1.00  0.00     0.167 HD
ATOM     51  C   UNL A   1      44.849  29.786  32.985  1.00  0.00     0.031 A 
ATOM     52  C   UNL A   1      38.765  30.142  29.475  1.00  0.00     0.031 A 
ATOM     53  C   UNL A   1      43.714  30.199  33.764  1.00  0.00     0.049 A 
ATOM     54  C   UNL A   1      38.855  30.403  30.959  1.00  0.00     0.074 A 
ATOM     55  C   UNL A   1      43.674  30.543  35.103  1.00  0.00     0.029 A 
ATOM     56  N   UNL A   1      42.419  30.305  33.283  1.00  0.00    -0.354 N 
ATOM     57  N   UNL A   1      39.914  30.413  31.735  1.00  0.00    -0.248 NA
ATOM     58  C   UNL A   1      37.597  30.709  31.656  1.00  0.00     0.031 C 
ATOM     59  C   UNL A   1      42.341  30.782  35.450  1.00  0.00     0.029 A 
ATOM     60  C   UNL A   1      41.563  30.666  34.309  1.00  0.00     0.049 A 
ATOM     61  H   UNL A   1      42.148  30.147  32.349  1.00  0.00     0.167 HD
ATOM     62  C   UNL A   1      39.453  30.749  33.004  1.00  0.00     0.074 A 
ATOM     63  C   UNL A   1      38.026  30.965  32.884  1.00  0.00     0.031 C 
ATOM     64  C   UNL A   1      40.143  30.865  34.168  1.00  0.00     0.031 A 
BRANCH  51  65
ATOM     65  C   UNL A   1      46.169  29.609  33.682  1.00  0.00    -0.014 A 
ATOM     66  C   UNL A   1      47.079  30.671  33.819  1.00  0.00     0.010 A 
ATOM     67  C   UNL A   1      46.471  28.366  34.269  1.00  0.00     0.010 A 
ATOM     68  C   UNL A   1      48.272  30.491  34.526  1.00  0.00     0.020 A 
ATOM     69  C   UNL A   1      47.649  28.190  34.998  1.00  0.00     0.020 A 
ATOM     70  C   UNL A   1      48.544  29.253  35.117  1.00  0.00     0.054 A 
BRANCH  70  71
ATOM     71  S   UNL A   1      50.064  29.070  36.091  1.00  0.00     0.124 S 
ATOM     72  O   UNL A   1      50.710  30.365  35.892  1.00  0.00    -0.237 OA
ATOM     73  O   UNL A   1      49.551  28.824  37.436  1.00  0.00    -0.237 OA
ATOM     74  O   UNL A   1      50.742  27.935  35.469  1.00  0.00    -0.744 OA
ENDBRANCH  70  71
ENDBRANCH  51  65
BRANCH  52  75
ATOM     75  C   UNL A   1      37.447  30.166  28.777  1.00  0.00    -0.014 A 
ATOM     76  C   UNL A   1      36.906  31.361  28.267  1.00  0.00     0.010 A 
ATOM     77  C   UNL A   1      36.697  28.980  28.660  1.00  0.00     0.010 A 
ATOM     78  C   UNL A   1      35.631  31.375  27.690  1.00  0.00     0.020 A 
ATOM     79  C   UNL A   1      35.439  28.983  28.053  1.00  0.00     0.020 A 
ATOM     80  C   UNL A   1      34.905  30.185  27.587  1.00  0.00     0.054 A 
BRANCH  80  81
ATOM     81  S   UNL A   1      33.263  30.219  26.816  1.00  0.00     0.124 S 
ATOM     82  O   UNL A   1      32.821  31.580  27.101  1.00  0.00    -0.237 OA
ATOM     83  O   UNL A   1      33.568  29.932  25.416  1.00  0.00    -0.237 OA
ATOM     84  O   UNL A   1      32.534  29.164  27.516  1.00  0.00    -0.744 OA
ENDBRANCH  80  81
ENDBRANCH  52  75
BRANCH  64  85
ATOM     85  C   UNL A   1      39.366  31.272  35.394  1.00  0.00    -0.014 A 
ATOM     86  C   UNL A   1      38.607  30.339  36.123  1.00  0.00     0.010 A 
ATOM     87  C   UNL A   1      39.421  32.606  35.838  1.00  0.00     0.010 A 
ATOM     88  C   UNL A   1      37.868  30.746  37.237  1.00  0.00     0.020 A 
ATOM     89  C   UNL A   1      38.715  33.008  36.974  1.00  0.00     0.020 A 
ATOM     90  C   UNL A   1      37.923  32.081  37.652  1.00  0.00     0.054 A 
BRANCH  90  91
ATOM     91  S   UNL A   1      36.956  32.584  39.101  1.00  0.00     0.124 S 
ATOM     92  O   UNL A   1      37.755  33.687  39.631  1.00  0.00    -0.237 OA
ATOM     93  O   UNL A   1      35.672  32.961  38.515  1.00  0.00    -0.237 OA
ATOM     94  O   UNL A   1      36.927  31.382  39.932  1.00  0.00    -0.744 OA
ENDBRANCH  90  91
ENDBRANCH  64  85
ENDBRANCH  38  39
ENDBRANCH  31  33
ENDBRANCH  30  31
ENDBRANCH  29  30
ENDBRANCH  28  29
ENDBRANCH  27  28
ENDBRANCH  26  27
ENDBRANCH  25  26
ENDBRANCH  24  25
ENDBRANCH  23  24
ENDBRANCH   1  23
TORSDOF 31
ENDMDL
MODEL 2
REMARK VINA RESULT:      -6.8      5.843      7.835
REMARK SMILES C#CCN(CC(=O)OCCOCCOCCOCCOC(=O)c1ccc(-c2c3nc(c(-c4ccc(S(=O)(=O)[O-])cc4)c4ccc([nH]4)c(-c4ccc(S(=O)(=O)[O-])cc4)c4nc(c(-c5ccc(S(=O)(=O)[O-])cc5)c5ccc2[nH]5)C=C4)C=C3)cc1)C(=O)N[C@@H](C)CCCC
REMARK SMILES IDX 12 1 11 2 10 3 9 4 8 5 6 6 7 7 5 8 4 9 3 10 2 11 1 12 83 13
REMARK SMILES IDX 84 14 85 15 86 17 87 18 88 19 89 20 90 21 91 22 13 23 14 24
REMARK SMILES IDX 15 25 16 26 17 27 18 28 19 29 20 30 21 31 22 32 23 33 24 34
REMARK SMILES IDX 82 35 25 36 81 37 26 38 27 39 28 40 75 41 29 42 80 43 74 44
REMARK SMILES IDX 76 45 30 46 79 47 73 48 72 49 31 51 61 52 42 53 60 54 43 55
REMARK SMILES IDX 46 56 59 57 77 58 44 59 45 60 58 62 78 63 47 64 32 65 33 66
REMARK SMILES IDX 41 67 34 68 40 69 35 70 36 71 37 72 38 73 39 74 62 75 63 76
REMARK SMILES IDX 71 77 64 78 70 79 65 80 66 81 67 82 68 83 69 84 48 85 49 86
REMARK SMILES IDX 57 87 50 88 56 89 51 90 52 91 53 92 54 93 55 94
REMARK H PARENT 85 16 76 50 46 61
REMARK Flexibility Score: inf
ROOT
ATOM      1  C   UNL A   1      40.046  19.220  25.790  1.00  0.00     0.188 C 
ENDROOT
BRANCH   1   2
ATOM      2  O   UNL A   1      38.707  19.402  25.392  1.00  0.00    -0.376 OA
BRANCH   2   3
ATOM      3  C   UNL A   1      38.251  20.751  25.301  1.00  0.00     0.202 C 
BRANCH   3   4
ATOM      4  C   UNL A   1      36.817  21.046  24.775  1.00  0.00     0.261 C 
BRANCH   4   5
ATOM      5  O   UNL A   1      36.507  22.425  24.395  1.00  0.00    -0.462 OA
BRANCH   5   6
ATOM      6  C   UNL A   1      35.457  23.042  24.985  1.00  0.00     0.325 C 
ATOM      7  O   UNL A   1      35.315  24.262  24.965  1.00  0.00    -0.250 OA
BRANCH   6   8
ATOM      8  C   UNL A   1      34.501  22.090  25.793  1.00  0.00     0.245 C 
BRANCH   8   9
ATOM      9  N   UNL A   1      33.010  22.180  25.984  1.00  0.00    -0.303 N 
BRANCH   9  10
ATOM     10  C   UNL A   1      32.131  21.165  25.255  1.00  0.00     0.211 C 
BRANCH  10  11
ATOM     11  C   UNL A   1      32.147  21.422  23.757  1.00  0.00    -0.085 C 
ATOM     12  C   UNL A   1      32.160  21.643  22.472  1.00  0.00     0.006 C 
ENDBRANCH  10  11
ENDBRANCH   9  10
BRANCH   9  13
ATOM     13  C   UNL A   1      32.321  23.008  26.843  1.00  0.00     0.318 C 
ATOM     14  O   UNL A   1      32.051  22.652  27.999  1.00  0.00    -0.249 OA
ATOM     15  N   UNL A   1      31.834  24.232  26.586  1.00  0.00    -0.336 N 
ATOM     16  H   UNL A   1      31.425  24.580  27.411  1.00  0.00     0.165 HD
BRANCH  15  17
ATOM     17  C   UNL A   1      31.683  25.245  25.535  1.00  0.00     0.080 C 
ATOM     18  C   UNL A   1      30.644  24.786  24.490  1.00  0.00     0.031 C 
BRANCH  17  19
ATOM     19  C   UNL A   1      31.127  26.572  26.103  1.00  0.00     0.024 C 
BRANCH  19  20
ATOM     20  C   UNL A   1      32.089  27.497  26.844  1.00  0.00     0.002 C 
BRANCH  20  21
ATOM     21  C   UNL A   1      31.795  28.988  26.764  1.00  0.00    -0.003 C 
ATOM     22  C   UNL A   1      32.930  29.876  27.250  1.00  0.00     0.004 C 
ENDBRANCH  20  21
ENDBRANCH  19  20
ENDBRANCH  17  19
ENDBRANCH  15  17
ENDBRANCH   9  13
ENDBRANCH   8   9
ENDBRANCH   6   8
ENDBRANCH   5   6
ENDBRANCH   4   5
ENDBRANCH   3   4
ENDBRANCH   2   3
ENDBRANCH   1   2
BRANCH   1  23
ATOM     23  C   UNL A   1      40.817  20.363  26.419  1.00  0.00     0.188 C 
BRANCH  23  24
ATOM     24  O   UNL A   1      41.841  20.935  25.633  1.00  0.00    -0.377 OA
BRANCH  24  25
ATOM     25  C   UNL A   1      42.101  22.303  25.896  1.00  0.00     0.188 C 
BRANCH  25  26
ATOM     26  C   UNL A   1      43.565  22.781  25.809  1.00  0.00     0.188 C 
BRANCH  26  27
ATOM     27  O   UNL A   1      44.435  21.998  24.991  1.00  0.00    -0.376 OA
BRANCH  27  28
ATOM     28  C   UNL A   1      44.996  22.672  23.859  1.00  0.00     0.202 C 
BRANCH  28  29
ATOM     29  C   UNL A   1      46.372  23.357  24.033  1.00  0.00     0.261 C 
BRANCH  29  30
ATOM     30  O   UNL A   1      46.367  24.605  24.734  1.00  0.00    -0.460 OA
BRANCH  30  31
ATOM     31  C   UNL A   1      46.802  24.582  26.016  1.00  0.00     0.338 C 
ATOM     32  O   UNL A   1      47.506  23.742  26.525  1.00  0.00    -0.246 OA
BRANCH  31  33
ATOM     33  C   UNL A   1      46.470  25.892  26.626  1.00  0.00     0.060 A 
ATOM     34  C   UNL A   1      45.791  26.823  25.830  1.00  0.00     0.016 A 
ATOM     35  C   UNL A   1      46.756  26.182  27.964  1.00  0.00     0.016 A 
ATOM     36  C   UNL A   1      45.359  28.026  26.379  1.00  0.00     0.010 A 
ATOM     37  C   UNL A   1      46.377  27.418  28.499  1.00  0.00     0.010 A 
ATOM     38  C   UNL A   1      45.686  28.347  27.702  1.00  0.00    -0.014 A 
BRANCH  38  39
ATOM     39  C   UNL A   1      45.502  29.750  28.133  1.00  0.00     0.031 A 
ATOM     40  C   UNL A   1      46.596  30.724  27.792  1.00  0.00     0.074 A 
ATOM     41  C   UNL A   1      44.364  30.166  28.716  1.00  0.00     0.049 A 
ATOM     42  N   UNL A   1      46.631  32.019  27.951  1.00  0.00    -0.248 NA
ATOM     43  C   UNL A   1      47.811  30.158  27.175  1.00  0.00     0.031 C 
ATOM     44  C   UNL A   1      43.224  29.315  29.058  1.00  0.00     0.029 A 
ATOM     45  N   UNL A   1      43.977  31.421  29.113  1.00  0.00    -0.354 N 
ATOM     46  C   UNL A   1      47.867  32.422  27.459  1.00  0.00     0.074 A 
ATOM     47  C   UNL A   1      48.561  31.236  27.012  1.00  0.00     0.031 C 
ATOM     48  C   UNL A   1      42.266  30.075  29.620  1.00  0.00     0.029 A 
ATOM     49  C   UNL A   1      42.731  31.459  29.693  1.00  0.00     0.049 A 
ATOM     50  H   UNL A   1      44.539  32.221  28.994  1.00  0.00     0.167 HD
ATOM     51  C   UNL A   1      48.377  33.671  27.387  1.00  0.00     0.031 A 
ATOM     52  C   UNL A   1      42.055  32.494  30.233  1.00  0.00     0.031 A 
ATOM     53  C   UNL A   1      47.684  34.843  27.848  1.00  0.00     0.049 A 
ATOM     54  C   UNL A   1      42.673  33.871  30.185  1.00  0.00     0.074 A 
ATOM     55  C   UNL A   1      48.099  36.161  27.792  1.00  0.00     0.029 A 
ATOM     56  N   UNL A   1      46.445  34.837  28.469  1.00  0.00    -0.354 N 
ATOM     57  N   UNL A   1      43.814  34.247  29.657  1.00  0.00    -0.248 NA
ATOM     58  C   UNL A   1      41.903  34.965  30.794  1.00  0.00     0.031 C 
ATOM     59  C   UNL A   1      47.145  36.944  28.448  1.00  0.00     0.029 A 
ATOM     60  C   UNL A   1      46.098  36.125  28.841  1.00  0.00     0.049 A 
ATOM     61  H   UNL A   1      45.893  34.036  28.622  1.00  0.00     0.167 HD
ATOM     62  C   UNL A   1      43.886  35.624  29.848  1.00  0.00     0.074 A 
ATOM     63  C   UNL A   1      42.659  36.016  30.511  1.00  0.00     0.031 C 
ATOM     64  C   UNL A   1      44.876  36.490  29.510  1.00  0.00     0.031 A 
BRANCH  51  65
ATOM     65  C   UNL A   1      49.767  33.833  26.839  1.00  0.00    -0.014 A 
ATOM     66  C   UNL A   1      49.999  34.088  25.476  1.00  0.00     0.010 A 
ATOM     67  C   UNL A   1      50.861  33.792  27.724  1.00  0.00     0.010 A 
ATOM     68  C   UNL A   1      51.300  34.293  25.007  1.00  0.00     0.020 A 
ATOM     69  C   UNL A   1      52.159  34.022  27.265  1.00  0.00     0.020 A 
ATOM     70  C   UNL A   1      52.370  34.267  25.907  1.00  0.00     0.054 A 
BRANCH  70  71
ATOM     71  S   UNL A   1      54.039  34.610  25.284  1.00  0.00     0.124 S 
ATOM     72  O   UNL A   1      53.808  34.727  23.847  1.00  0.00    -0.237 OA
ATOM     73  O   UNL A   1      54.383  35.855  25.968  1.00  0.00    -0.237 OA
ATOM     74  O   UNL A   1      54.812  33.442  25.697  1.00  0.00    -0.744 OA
ENDBRANCH  70  71
ENDBRANCH  51  65
BRANCH  52  75
ATOM     75  C   UNL A   1      40.740  32.274  30.901  1.00  0.00    -0.014 A 
ATOM     76  C   UNL A   1      40.657  31.854  32.241  1.00  0.00     0.010 A 
ATOM     77  C   UNL A   1      39.548  32.441  30.170  1.00  0.00     0.010 A 
ATOM     78  C   UNL A   1      39.416  31.572  32.824  1.00  0.00     0.020 A 
ATOM     79  C   UNL A   1      38.305  32.196  30.758  1.00  0.00     0.020 A 
ATOM     80  C   UNL A   1      38.247  31.745  32.077  1.00  0.00     0.054 A 
BRANCH  80  81
ATOM     81  S   UNL A   1      36.645  31.397  32.856  1.00  0.00     0.124 S 
ATOM     82  O   UNL A   1      36.443  29.992  32.520  1.00  0.00    -0.237 OA
ATOM     83  O   UNL A   1      36.913  31.680  34.264  1.00  0.00    -0.237 OA
ATOM     84  O   UNL A   1      35.735  32.335  32.202  1.00  0.00    -0.744 OA
ENDBRANCH  80  81
ENDBRANCH  52  75
BRANCH  64  85
ATOM     85  C   UNL A   1      44.658  37.947  29.827  1.00  0.00    -0.014 A 
ATOM     86  C   UNL A   1      43.793  38.744  29.055  1.00  0.00     0.010 A 
ATOM     87  C   UNL A   1      45.310  38.522  30.933  1.00  0.00     0.010 A 
ATOM     88  C   UNL A   1      43.633  40.100  29.346  1.00  0.00     0.020 A 
ATOM     89  C   UNL A   1      45.122  39.868  31.252  1.00  0.00     0.020 A 
ATOM     90  C   UNL A   1      44.303  40.655  30.442  1.00  0.00     0.054 A 
BRANCH  90  91
ATOM     91  S   UNL A   1      44.078  42.418  30.800  1.00  0.00     0.124 S 
ATOM     92  O   UNL A   1      44.493  42.499  32.199  1.00  0.00    -0.237 OA
ATOM     93  O   UNL A   1      44.974  43.058  29.840  1.00  0.00    -0.237 OA
ATOM     94  O   UNL A   1      42.654  42.641  30.560  1.00  0.00    -0.744 OA
ENDBRANCH  90  91
ENDBRANCH  64  85
ENDBRANCH  38  39
ENDBRANCH  31  33
ENDBRANCH  30  31
ENDBRANCH  29  30
ENDBRANCH  28  29
ENDBRANCH  27  28
ENDBRANCH  26  27
ENDBRANCH  25  26
ENDBRANCH  24  25
ENDBRANCH  23  24
ENDBRANCH   1  23
TORSDOF 31
ENDMDL
MODEL 3
REMARK VINA RESULT:      -6.8      6.049      9.574
REMARK SMILES C#CCN(CC(=O)OCCOCCOCCOCCOC(=O)c1ccc(-c2c3nc(c(-c4ccc(S(=O)(=O)[O-])cc4)c4ccc([nH]4)c(-c4ccc(S(=O)(=O)[O-])cc4)c4nc(c(-c5ccc(S(=O)(=O)[O-])cc5)c5ccc2[nH]5)C=C4)C=C3)cc1)C(=O)N[C@@H](C)CCCC
REMARK SMILES IDX 12 1 11 2 10 3 9 4 8 5 6 6 7 7 5 8 4 9 3 10 2 11 1 12 83 13
REMARK SMILES IDX 84 14 85 15 86 17 87 18 88 19 89 20 90 21 91 22 13 23 14 24
REMARK SMILES IDX 15 25 16 26 17 27 18 28 19 29 20 30 21 31 22 32 23 33 24 34
REMARK SMILES IDX 82 35 25 36 81 37 26 38 27 39 28 40 75 41 29 42 80 43 74 44
REMARK SMILES IDX 76 45 30 46 79 47 73 48 72 49 31 51 61 52 42 53 60 54 43 55
REMARK SMILES IDX 46 56 59 57 77 58 44 59 45 60 58 62 78 63 47 64 32 65 33 66
REMARK SMILES IDX 41 67 34 68 40 69 35 70 36 71 37 72 38 73 39 74 62 75 63 76
REMARK SMILES IDX 71 77 64 78 70 79 65 80 66 81 67 82 68 83 69 84 48 85 49 86
REMARK SMILES IDX 57 87 50 88 56 89 51 90 52 91 53 92 54 93 55 94
REMARK H PARENT 85 16 76 50 46 61
REMARK Flexibility Score: inf
ROOT
ATOM      1  C   UNL A   1      40.540  19.144  25.790  1.00  0.00     0.188 C 
ENDROOT
BRANCH   1   2
ATOM      2  O   UNL A   1      39.162  19.268  25.526  1.00  0.00    -0.376 OA
BRANCH   2   3
ATOM      3  C   UNL A   1      38.666  20.596  25.360  1.00  0.00     0.202 C 
BRANCH   3   4
ATOM      4  C   UNL A   1      37.166  20.820  25.015  1.00  0.00     0.261 C 
BRANCH   4   5
ATOM      5  O   UNL A   1      36.749  22.179  24.667  1.00  0.00    -0.462 OA
BRANCH   5   6
ATOM      6  C   UNL A   1      35.797  22.780  25.419  1.00  0.00     0.325 C 
ATOM      7  O   UNL A   1      35.924  23.924  25.850  1.00  0.00    -0.250 OA
BRANCH   6   8
ATOM      8  C   UNL A   1      34.575  21.864  25.794  1.00  0.00     0.245 C 
BRANCH   8   9
ATOM      9  N   UNL A   1      33.143  22.249  26.053  1.00  0.00    -0.303 N 
BRANCH   9  10
ATOM     10  C   UNL A   1      32.074  21.717  25.100  1.00  0.00     0.211 C 
BRANCH  10  11
ATOM     11  C   UNL A   1      32.416  22.069  23.661  1.00  0.00    -0.085 C 
ATOM     12  C   UNL A   1      32.710  22.372  22.427  1.00  0.00     0.006 C 
ENDBRANCH  10  11
ENDBRANCH   9  10
BRANCH   9  13
ATOM     13  C   UNL A   1      32.641  22.944  27.132  1.00  0.00     0.318 C 
ATOM     14  O   UNL A   1      32.594  22.432  28.259  1.00  0.00    -0.249 OA
ATOM     15  N   UNL A   1      32.128  24.184  27.140  1.00  0.00    -0.336 N 
ATOM     16  H   UNL A   1      31.889  24.412  28.067  1.00  0.00     0.165 HD
BRANCH  15  17
ATOM     17  C   UNL A   1      31.790  25.326  26.284  1.00  0.00     0.080 C 
ATOM     18  C   UNL A   1      33.056  25.871  25.588  1.00  0.00     0.031 C 
BRANCH  17  19
ATOM     19  C   UNL A   1      30.842  24.912  25.133  1.00  0.00     0.024 C 
BRANCH  19  20
ATOM     20  C   UNL A   1      29.858  25.951  24.602  1.00  0.00     0.002 C 
BRANCH  20  21
ATOM     21  C   UNL A   1      30.334  26.805  23.436  1.00  0.00    -0.003 C 
ATOM     22  C   UNL A   1      30.277  28.303  23.693  1.00  0.00     0.004 C 
ENDBRANCH  20  21
ENDBRANCH  19  20
ENDBRANCH  17  19
ENDBRANCH  15  17
ENDBRANCH   9  13
ENDBRANCH   8   9
ENDBRANCH   6   8
ENDBRANCH   5   6
ENDBRANCH   4   5
ENDBRANCH   3   4
ENDBRANCH   2   3
ENDBRANCH   1   2
BRANCH   1  23
ATOM     23  C   UNL A   1      41.304  20.296  26.411  1.00  0.00     0.188 C 
BRANCH  23  24
ATOM     24  O   UNL A   1      42.306  20.887  25.610  1.00  0.00    -0.377 OA
BRANCH  24  25
ATOM     25  C   UNL A   1      42.552  22.257  25.876  1.00  0.00     0.188 C 
BRANCH  25  26
ATOM     26  C   UNL A   1      44.021  22.706  26.015  1.00  0.00     0.188 C 
BRANCH  26  27
ATOM     27  O   UNL A   1      44.968  22.021  25.195  1.00  0.00    -0.376 OA
BRANCH  27  28
ATOM     28  C   UNL A   1      45.578  22.807  24.165  1.00  0.00     0.202 C 
BRANCH  28  29
ATOM     29  C   UNL A   1      46.798  23.678  24.546  1.00  0.00     0.261 C 
BRANCH  29  30
ATOM     30  O   UNL A   1      46.502  24.936  25.162  1.00  0.00    -0.460 OA
BRANCH  30  31
ATOM     31  C   UNL A   1      47.082  25.176  26.361  1.00  0.00     0.338 C 
ATOM     32  O   UNL A   1      47.782  24.418  26.989  1.00  0.00    -0.246 OA
BRANCH  31  33
ATOM     33  C   UNL A   1      46.913  26.618  26.661  1.00  0.00     0.060 A 
ATOM     34  C   UNL A   1      47.356  27.075  27.908  1.00  0.00     0.016 A 
ATOM     35  C   UNL A   1      46.396  27.517  25.723  1.00  0.00     0.016 A 
ATOM     36  C   UNL A   1      47.322  28.433  28.206  1.00  0.00     0.010 A 
ATOM     37  C   UNL A   1      46.305  28.875  26.045  1.00  0.00     0.010 A 
ATOM     38  C   UNL A   1      46.759  29.334  27.294  1.00  0.00    -0.014 A 
BRANCH  38  39
ATOM     39  C   UNL A   1      46.443  30.694  27.780  1.00  0.00     0.031 A 
ATOM     40  C   UNL A   1      45.201  30.857  28.612  1.00  0.00     0.074 A 
ATOM     41  C   UNL A   1      47.278  31.729  27.576  1.00  0.00     0.049 A 
ATOM     42  N   UNL A   1      44.762  31.909  29.249  1.00  0.00    -0.248 NA
ATOM     43  C   UNL A   1      44.344  29.665  28.753  1.00  0.00     0.031 C 
ATOM     44  C   UNL A   1      48.527  31.674  26.817  1.00  0.00     0.029 A 
ATOM     45  N   UNL A   1      47.202  33.030  28.005  1.00  0.00    -0.354 N 
ATOM     46  C   UNL A   1      43.581  31.508  29.862  1.00  0.00     0.074 A 
ATOM     47  C   UNL A   1      43.359  30.126  29.508  1.00  0.00     0.031 C 
ATOM     48  C   UNL A   1      49.099  32.893  26.831  1.00  0.00     0.029 A 
ATOM     49  C   UNL A   1      48.248  33.815  27.582  1.00  0.00     0.049 A 
ATOM     50  H   UNL A   1      46.467  33.370  28.564  1.00  0.00     0.167 HD
ATOM     51  C   UNL A   1      42.756  32.232  30.651  1.00  0.00     0.031 A 
ATOM     52  C   UNL A   1      48.479  35.130  27.771  1.00  0.00     0.031 A 
ATOM     53  C   UNL A   1      42.978  33.612  30.984  1.00  0.00     0.049 A 
ATOM     54  C   UNL A   1      47.511  35.926  28.613  1.00  0.00     0.074 A 
ATOM     55  C   UNL A   1      42.218  34.428  31.802  1.00  0.00     0.029 A 
ATOM     56  N   UNL A   1      44.023  34.385  30.502  1.00  0.00    -0.354 N 
ATOM     57  N   UNL A   1      46.433  35.518  29.242  1.00  0.00    -0.248 NA
ATOM     58  C   UNL A   1      47.800  37.357  28.784  1.00  0.00     0.031 C 
ATOM     59  C   UNL A   1      42.761  35.716  31.753  1.00  0.00     0.029 A 
ATOM     60  C   UNL A   1      43.904  35.682  30.970  1.00  0.00     0.049 A 
ATOM     61  H   UNL A   1      44.742  34.059  29.914  1.00  0.00     0.167 HD
ATOM     62  C   UNL A   1      45.931  36.635  29.901  1.00  0.00     0.074 A 
ATOM     63  C   UNL A   1      46.841  37.727  29.620  1.00  0.00     0.031 C 
ATOM     64  C   UNL A   1      44.817  36.755  30.668  1.00  0.00     0.031 A 
BRANCH  51  65
ATOM     65  C   UNL A   1      41.510  31.564  31.163  1.00  0.00    -0.014 A 
ATOM     66  C   UNL A   1      41.473  30.935  32.420  1.00  0.00     0.010 A 
ATOM     67  C   UNL A   1      40.333  31.629  30.394  1.00  0.00     0.010 A 
ATOM     68  C   UNL A   1      40.283  30.376  32.894  1.00  0.00     0.020 A 
ATOM     69  C   UNL A   1      39.137  31.094  30.876  1.00  0.00     0.020 A 
ATOM     70  C   UNL A   1      39.121  30.467  32.122  1.00  0.00     0.054 A 
BRANCH  70  71
ATOM     71  S   UNL A   1      37.574  29.799  32.795  1.00  0.00     0.124 S 
ATOM     72  O   UNL A   1      37.494  28.498  32.137  1.00  0.00    -0.237 OA
ATOM     73  O   UNL A   1      37.843  29.761  34.231  1.00  0.00    -0.237 OA
ATOM     74  O   UNL A   1      36.565  30.770  32.379  1.00  0.00    -0.744 OA
ENDBRANCH  70  71
ENDBRANCH  51  65
BRANCH  52  75
ATOM     75  C   UNL A   1      49.648  35.794  27.125  1.00  0.00    -0.014 A 
ATOM     76  C   UNL A   1      49.580  36.286  25.809  1.00  0.00     0.010 A 
ATOM     77  C   UNL A   1      50.868  35.895  27.822  1.00  0.00     0.010 A 
ATOM     78  C   UNL A   1      50.713  36.830  25.192  1.00  0.00     0.020 A 
ATOM     79  C   UNL A   1      51.991  36.470  27.224  1.00  0.00     0.020 A 
ATOM     80  C   UNL A   1      51.912  36.918  25.905  1.00  0.00     0.054 A 
BRANCH  80  81
ATOM     81  S   UNL A   1      53.365  37.647  25.097  1.00  0.00     0.124 S 
ATOM     82  O   UNL A   1      53.130  37.319  23.696  1.00  0.00    -0.237 OA
ATOM     83  O   UNL A   1      53.241  39.061  25.447  1.00  0.00    -0.237 OA
ATOM     84  O   UNL A   1      54.488  36.955  25.724  1.00  0.00    -0.744 OA
ENDBRANCH  80  81
ENDBRANCH  52  75
BRANCH  64  85
ATOM     85  C   UNL A   1      44.539  38.105  31.278  1.00  0.00    -0.014 A 
ATOM     86  C   UNL A   1      44.952  38.416  32.587  1.00  0.00     0.010 A 
ATOM     87  C   UNL A   1      43.876  39.087  30.519  1.00  0.00     0.010 A 
ATOM     88  C   UNL A   1      44.653  39.662  33.144  1.00  0.00     0.020 A 
ATOM     89  C   UNL A   1      43.611  40.347  31.059  1.00  0.00     0.020 A 
ATOM     90  C   UNL A   1      43.979  40.618  32.377  1.00  0.00     0.054 A 
BRANCH  90  91
ATOM     91  S   UNL A   1      43.605  42.228  33.122  1.00  0.00     0.124 S 
ATOM     92  O   UNL A   1      42.854  42.888  32.058  1.00  0.00    -0.237 OA
ATOM     93  O   UNL A   1      42.829  41.861  34.305  1.00  0.00    -0.237 OA
ATOM     94  O   UNL A   1      44.922  42.796  33.400  1.00  0.00    -0.744 OA
ENDBRANCH  90  91
ENDBRANCH  64  85
ENDBRANCH  38  39
ENDBRANCH  31  33
ENDBRANCH  30  31
ENDBRANCH  29  30
ENDBRANCH  28  29
ENDBRANCH  27  28
ENDBRANCH  26  27
ENDBRANCH  25  26
ENDBRANCH  24  25
ENDBRANCH  23  24
ENDBRANCH   1  23
TORSDOF 31
ENDMDL
